# generated using pymatgen
data_Fe45Co19
_symmetry_space_group_name_H-M   'P 1'
_cell_length_a   11.41627611
_cell_length_b   11.41611620
_cell_length_c   11.41498414
_cell_angle_alpha   89.99495598
_cell_angle_beta   90.00236967
_cell_angle_gamma   90.00325013
_symmetry_Int_Tables_number   1
_chemical_formula_structural   Fe45Co19
_chemical_formula_sum   'Fe90 Co38'
_cell_volume   1487.70956072
_cell_formula_units_Z   2
loop_
 _symmetry_equiv_pos_site_id
 _symmetry_equiv_pos_as_xyz
  1  'x, y, z'
loop_
 _atom_site_type_symbol
 _atom_site_label
 _atom_site_symmetry_multiplicity
 _atom_site_fract_x
 _atom_site_fract_y
 _atom_site_fract_z
 _atom_site_occupancy
  Fe  Fe0  1  0.37817377  0.37682930  0.87682750  1
  Fe  Fe1  1  0.00033326  0.24959868  0.75275226  1
  Fe  Fe2  1  0.38017465  0.37180501  0.12450468  1
  Fe  Fe3  1  0.87151362  0.12539335  0.87807578  1
  Fe  Fe4  1  0.87511928  0.62844373  0.62264494  1
  Fe  Fe5  1  0.74741722  0.24984903  0.49853058  1
  Fe  Fe6  1  0.25423813  0.74901248  -0.00155785  1
  Fe  Fe7  1  0.74614968  0.24946638  0.75128868  1
  Fe  Fe8  1  0.50393045  0.24945892  0.75357195  1
  Fe  Fe9  1  0.49860953  0.49883412  0.49974631  1
  Fe  Fe10  1  0.87509786  0.87264367  0.37582934  1
  Fe  Fe11  1  0.62425178  0.37570748  0.37512078  1
  Fe  Fe12  1  -0.00097098  0.24966369  0.00222814  1
  Fe  Fe13  1  0.62527749  0.87679379  0.62099067  1
  Fe  Fe14  1  0.62243696  0.62340962  0.87638620  1
  Fe  Fe15  1  0.87556855  0.62620918  0.12542120  1
  Fe  Fe16  1  0.24914402  0.24931611  0.24904000  1
  Fe  Fe17  1  0.87468355  0.87572419  0.87510934  1
  Fe  Fe18  1  0.37828444  0.36927783  0.62430459  1
  Fe  Fe19  1  0.24759709  0.74787810  0.25108183  1
  Fe  Fe20  1  0.75004668  0.75168901  0.00121531  1
  Fe  Fe21  1  0.49853607  0.00226212  0.24760684  1
  Fe  Fe22  1  -0.00072079  -0.00038578  0.49851113  1
  Fe  Fe23  1  0.37501675  0.62912531  0.62688597  1
  Fe  Fe24  1  0.49952166  -0.00009530  0.74838298  1
  Fe  Fe25  1  0.00100164  0.50257163  0.24840131  1
  Fe  Fe26  1  0.25135864  0.00256157  0.74834514  1
  Fe  Fe27  1  0.00167226  0.25011642  0.49704159  1
  Fe  Fe28  1  0.12319035  0.37484265  0.12486528  1
  Fe  Fe29  1  0.12424320  0.87563294  0.62468534  1
  Fe  Fe30  1  0.50016282  0.50010087  0.74882866  1
  Fe  Fe31  1  0.75034310  0.49955075  0.49895763  1
  Fe  Fe32  1  0.62573404  0.87985534  0.37687536  1
  Fe  Fe33  1  0.74435577  0.25346730  0.00198904  1
  Fe  Fe34  1  0.12543686  0.12387713  0.87769721  1
  Fe  Fe35  1  0.25092122  0.49933344  0.74895991  1
  Fe  Fe36  1  -0.00169537  0.00058129  0.00292507  1
  Fe  Fe37  1  0.87607561  0.37434731  0.37092409  1
  Fe  Fe38  1  0.37459551  0.37312610  0.37476579  1
  Fe  Fe39  1  0.74875672  0.75081331  0.25054823  1
  Fe  Fe40  1  0.12495874  0.62459801  0.62337561  1
  Fe  Fe41  1  0.62306730  0.87781876  0.87686338  1
  Fe  Fe42  1  0.49820483  0.50094529  0.24969194  1
  Fe  Fe43  1  0.87340525  0.12651327  0.37323223  1
  Fe  Fe44  1  0.87559832  0.87152000  0.62282370  1
  Fe  Fe45  1  0.74705415  0.75083828  0.75080921  1
  Fe  Fe46  1  0.00024647  0.74942707  -0.00035256  1
  Fe  Fe47  1  0.37410221  0.87171306  0.62835417  1
  Fe  Fe48  1  0.12880685  0.12304810  0.37642396  1
  Fe  Fe49  1  0.49997727  0.75095233  0.25302968  1
  Fe  Fe50  1  0.37189159  0.62380605  0.37435960  1
  Fe  Fe51  1  0.74746138  0.49750330  0.00472081  1
  Fe  Fe52  1  0.25483039  -0.00148555  0.00241187  1
  Fe  Fe53  1  0.75074940  -0.00124896  0.24624288  1
  Fe  Fe54  1  0.75044715  0.00028763  0.74852646  1
  Fe  Fe55  1  0.24715679  0.75249008  0.49731330  1
  Fe  Fe56  1  0.37225762  0.87772772  0.37311932  1
  Fe  Fe57  1  0.50034605  0.75163870  0.49784365  1
  Fe  Fe58  1  0.62089574  0.62756247  0.12518082  1
  Fe  Fe59  1  0.12311658  0.37802757  0.87581330  1
  Fe  Fe60  1  0.25105545  0.25028289  0.00005800  1
  Fe  Fe61  1  0.12369816  0.37425395  0.62574804  1
  Fe  Fe62  1  0.87500053  0.37649438  0.87573551  1
  Fe  Fe63  1  0.74880403  0.50006738  0.24775679  1
  Fe  Fe64  1  0.00342755  0.74728873  0.25405690  1
  Fe  Fe65  1  0.25425928  0.50229000  0.00376076  1
  Fe  Fe66  1  0.37928397  0.12325895  0.87788842  1
  Fe  Fe67  1  0.62551448  0.62387518  0.37566455  1
  Fe  Fe68  1  0.12547856  0.62161483  0.87590851  1
  Fe  Fe69  1  0.74717128  0.25004887  0.24792925  1
  Fe  Fe70  1  0.12684328  0.87690395  0.87564596  1
  Fe  Fe71  1  0.25006027  0.24975567  0.75217764  1
  Fe  Fe72  1  0.25283659  0.49691058  0.50159666  1
  Fe  Fe73  1  0.00175485  0.74923059  0.75178554  1
  Fe  Fe74  1  0.12605712  0.37718131  0.37362373  1
  Fe  Fe75  1  -0.00104567  0.00322558  0.24715327  1
  Fe  Fe76  1  0.25157906  0.00332687  0.24595994  1
  Fe  Fe77  1  0.87494503  0.37356585  0.62554045  1
  Fe  Fe78  1  0.12618880  0.12622664  0.62367068  1
  Fe  Fe79  1  0.75002406  0.49978451  0.74866453  1
  Fe  Fe80  1  0.12526585  0.87425287  0.12565640  1
  Fe  Fe81  1  0.87564919  0.12688981  0.62442143  1
  Fe  Fe82  1  0.50124472  0.24480284  0.25341086  1
  Fe  Fe83  1  -0.00199904  0.50162687  0.49866881  1
  Fe  Fe84  1  0.49498819  0.75259108  -0.00177975  1
  Fe  Fe85  1  0.62435565  0.62482253  0.62319949  1
  Fe  Fe86  1  0.74947673  -0.00268335  0.00538335  1
  Fe  Fe87  1  0.87539562  0.62284541  0.87591066  1
  Fe  Fe88  1  -0.00119999  0.00141216  0.75131177  1
  Fe  Fe89  1  0.62326105  0.12400573  0.62055578  1
  Co  Co90  1  0.25216070  0.49725256  0.24520131  1
  Co  Co91  1  0.25371228  -0.00136782  0.50406395  1
  Co  Co92  1  0.62708011  0.11999552  0.37538356  1
  Co  Co93  1  -0.00039487  0.50011035  0.00317717  1
  Co  Co94  1  0.37706095  0.62797853  0.12860428  1
  Co  Co95  1  0.37720423  0.12937008  0.12228478  1
  Co  Co96  1  0.24902780  0.25124486  0.49925560  1
  Co  Co97  1  0.62245537  0.87203338  0.12577153  1
  Co  Co98  1  -0.00126808  0.50083016  0.74898436  1
  Co  Co99  1  0.74670751  0.75034228  0.49806666  1
  Co  Co100  1  0.87683704  0.37359490  0.12724079  1
  Co  Co101  1  0.50229683  0.24785206  0.49498966  1
  Co  Co102  1  0.75429393  0.00048764  0.50025640  1
  Co  Co103  1  0.50487693  0.75125113  0.75110459  1
  Co  Co104  1  0.37079238  0.12474592  0.37611253  1
  Co  Co105  1  0.12658453  0.12470674  0.12234604  1
  Co  Co106  1  0.61939499  0.37485521  0.12821308  1
  Co  Co107  1  0.37637634  0.13047432  0.62486327  1
  Co  Co108  1  0.00443909  0.74983135  0.49521121  1
  Co  Co109  1  0.50555462  0.25075024  -0.00300539  1
  Co  Co110  1  0.24565635  0.74888228  0.75231132  1
  Co  Co111  1  0.87176325  0.12780155  0.12348157  1
  Co  Co112  1  0.37443033  0.87620289  0.86988546  1
  Co  Co113  1  0.87839728  0.87160514  0.12700076  1
  Co  Co114  1  0.12653108  0.62691752  0.12462390  1
  Co  Co115  1  0.62404638  0.37477947  0.62355532  1
  Co  Co116  1  0.12657194  0.88085225  0.37219809  1
  Co  Co117  1  0.13028552  0.61890268  0.37587380  1
  Co  Co118  1  0.62417259  0.12420253  0.12354129  1
  Co  Co119  1  0.49852284  0.50191195  0.00218264  1
  Co  Co120  1  0.00310578  0.24663401  0.24958354  1
  Co  Co121  1  0.62440408  0.38003607  0.87374044  1
  Co  Co122  1  0.37612997  0.62440468  0.87068789  1
  Co  Co123  1  0.87258435  0.62563329  0.37433370  1
  Co  Co124  1  0.37340931  0.87200290  0.12937987  1
  Co  Co125  1  0.49388574  0.00012521  0.49935670  1
  Co  Co126  1  0.62478582  0.11898969  0.87796344  1
  Co  Co127  1  0.49659290  -0.00474744  0.00501881  1
