# generated using pymatgen
data_Fe45Co19
_symmetry_space_group_name_H-M   'P 1'
_cell_length_a   11.41509872
_cell_length_b   11.41545585
_cell_length_c   11.41520857
_cell_angle_alpha   90.00582796
_cell_angle_beta   90.00413304
_cell_angle_gamma   90.00515228
_symmetry_Int_Tables_number   1
_chemical_formula_structural   Fe45Co19
_chemical_formula_sum   'Fe90 Co38'
_cell_volume   1487.49932071
_cell_formula_units_Z   2
loop_
 _symmetry_equiv_pos_site_id
 _symmetry_equiv_pos_as_xyz
  1  'x, y, z'
loop_
 _atom_site_type_symbol
 _atom_site_label
 _atom_site_symmetry_multiplicity
 _atom_site_fract_x
 _atom_site_fract_y
 _atom_site_fract_z
 _atom_site_occupancy
  Fe  Fe0  1  0.00000196  0.74255901  0.75435557  1
  Fe  Fe1  1  0.00060719  0.75037999  0.49917336  1
  Fe  Fe2  1  0.62698037  0.12325780  0.12484048  1
  Fe  Fe3  1  0.62405405  0.37614151  0.12580610  1
  Fe  Fe4  1  0.12319235  0.37518604  0.12429871  1
  Fe  Fe5  1  0.24725385  -0.00124912  0.00023246  1
  Fe  Fe6  1  0.12351630  0.12508674  0.87709187  1
  Fe  Fe7  1  0.37467792  0.87421152  0.12625643  1
  Fe  Fe8  1  0.62680085  0.87689617  0.12592098  1
  Fe  Fe9  1  0.50013132  0.75024828  -0.00213628  1
  Fe  Fe10  1  0.50015589  -0.00011094  -0.00254833  1
  Fe  Fe11  1  0.12534322  0.87464453  0.37262413  1
  Fe  Fe12  1  0.37622650  0.37439861  0.37554725  1
  Fe  Fe13  1  0.62711288  0.62812232  0.37675381  1
  Fe  Fe14  1  0.62470800  0.37648856  0.87114825  1
  Fe  Fe15  1  0.37424086  0.12462192  0.37609443  1
  Fe  Fe16  1  0.37384340  0.62871891  0.62636831  1
  Fe  Fe17  1  0.25230805  0.50064820  0.24927073  1
  Fe  Fe18  1  0.12409208  0.87348469  0.62778538  1
  Fe  Fe19  1  0.50298606  0.24923560  0.50274285  1
  Fe  Fe20  1  -0.00051390  0.50123113  0.25178154  1
  Fe  Fe21  1  0.12693228  0.62414037  0.37760743  1
  Fe  Fe22  1  0.24854972  0.49980605  0.74825042  1
  Fe  Fe23  1  0.25033280  -0.00524792  0.50187045  1
  Fe  Fe24  1  0.49981498  0.50057013  -0.00149640  1
  Fe  Fe25  1  0.50180163  0.24848995  0.25015221  1
  Fe  Fe26  1  0.37688154  0.37490008  0.62642595  1
  Fe  Fe27  1  0.50076000  0.75031681  0.25061492  1
  Fe  Fe28  1  0.75277240  0.50086453  0.50154979  1
  Fe  Fe29  1  0.74831971  0.25213460  0.00071774  1
  Fe  Fe30  1  0.87287630  0.62786447  0.37562117  1
  Fe  Fe31  1  -0.00203055  0.74854915  0.24697784  1
  Fe  Fe32  1  0.37446780  0.12583070  0.87514355  1
  Fe  Fe33  1  0.37713127  0.37313737  0.87387096  1
  Fe  Fe34  1  0.87727791  0.87216537  0.62682548  1
  Fe  Fe35  1  0.75034897  0.24954666  0.74614403  1
  Fe  Fe36  1  0.75287183  0.50177447  0.74807832  1
  Fe  Fe37  1  0.00042721  0.24883566  0.00049024  1
  Fe  Fe38  1  0.49784113  -0.00292355  0.49932926  1
  Fe  Fe39  1  0.12232754  0.12302556  0.37644979  1
  Fe  Fe40  1  0.12265684  0.87346200  0.87642046  1
  Fe  Fe41  1  0.24936176  0.75173160  0.00076651  1
  Fe  Fe42  1  0.50338404  0.24778427  0.74733585  1
  Fe  Fe43  1  0.88055665  0.37749985  0.62764086  1
  Fe  Fe44  1  0.12664331  0.37708963  0.37728193  1
  Fe  Fe45  1  0.37304668  0.62609744  0.87411119  1
  Fe  Fe46  1  0.37356681  0.12746816  0.12140397  1
  Fe  Fe47  1  0.24924716  0.25141375  0.50261635  1
  Fe  Fe48  1  0.87547825  0.87444786  0.12123758  1
  Fe  Fe49  1  0.49756582  0.75448939  0.50071816  1
  Fe  Fe50  1  0.87391688  0.37250397  0.37247362  1
  Fe  Fe51  1  0.62660127  0.62636724  0.62524194  1
  Fe  Fe52  1  0.49864708  0.50093906  0.50219574  1
  Fe  Fe53  1  0.12512043  0.62542837  0.12312791  1
  Fe  Fe54  1  0.00011016  0.25186335  0.49939923  1
  Fe  Fe55  1  0.24869492  0.00055006  0.24795284  1
  Fe  Fe56  1  0.12187164  0.37586187  0.87247939  1
  Fe  Fe57  1  0.49831406  0.50235089  0.24999378  1
  Fe  Fe58  1  0.24628896  0.24984683  0.74904724  1
  Fe  Fe59  1  0.87480517  0.12481354  0.87570376  1
  Fe  Fe60  1  0.62715850  0.12524382  0.87392631  1
  Fe  Fe61  1  0.62715462  0.62503854  0.12363926  1
  Fe  Fe62  1  0.87381206  0.87337547  0.37508489  1
  Fe  Fe63  1  0.37520022  0.12102336  0.62730186  1
  Fe  Fe64  1  0.87638699  0.12324413  0.62297112  1
  Fe  Fe65  1  0.62364323  0.87632487  0.62637400  1
  Fe  Fe66  1  0.74991768  0.25063751  0.50204169  1
  Fe  Fe67  1  -0.00000621  0.00102303  0.75100314  1
  Fe  Fe68  1  0.75028661  0.50080804  0.24956180  1
  Fe  Fe69  1  -0.00299632  0.50484250  -0.00300840  1
  Fe  Fe70  1  0.37345382  0.62698102  0.37659101  1
  Fe  Fe71  1  0.12304629  0.62109139  0.62101642  1
  Fe  Fe72  1  0.75260186  -0.00335747  0.49810083  1
  Fe  Fe73  1  0.49942264  -0.00023034  0.25110115  1
  Fe  Fe74  1  0.37672941  0.37219627  0.12369005  1
  Fe  Fe75  1  0.24758825  0.24984606  0.24954542  1
  Fe  Fe76  1  -0.00135161  0.00088205  0.24861328  1
  Fe  Fe77  1  0.62470911  0.37621537  0.37636760  1
  Fe  Fe78  1  0.62747605  0.87419572  0.87457319  1
  Fe  Fe79  1  0.87630073  0.37486244  0.87286878  1
  Fe  Fe80  1  0.75127772  -0.00162743  0.75069823  1
  Fe  Fe81  1  0.87582508  0.37528374  0.12619955  1
  Fe  Fe82  1  0.62819859  0.12320412  0.37546657  1
  Fe  Fe83  1  0.87427526  0.12632758  0.12627375  1
  Fe  Fe84  1  0.25219052  0.49770959  0.00084801  1
  Fe  Fe85  1  0.62901174  0.62491763  0.87456169  1
  Fe  Fe86  1  0.87610594  0.87257421  0.87767571  1
  Fe  Fe87  1  0.25013485  0.74925226  0.24939083  1
  Fe  Fe88  1  0.37292653  0.87492673  0.86853531  1
  Fe  Fe89  1  0.12248650  0.12353758  0.62337386  1
  Co  Co90  1  0.37488259  0.87617470  0.63203401  1
  Co  Co91  1  0.75022178  0.75238614  0.50207067  1
  Co  Co92  1  0.62531037  0.37854328  0.62542034  1
  Co  Co93  1  0.50402402  0.25009238  -0.00111023  1
  Co  Co94  1  -0.00085129  0.50779437  0.75461114  1
  Co  Co95  1  0.87707388  0.62668600  0.62330802  1
  Co  Co96  1  0.50209800  0.74952819  0.75161780  1
  Co  Co97  1  -0.00037509  -0.00427858  0.49969400  1
  Co  Co98  1  0.87285729  0.62321247  0.12370396  1
  Co  Co99  1  0.37504167  0.62714944  0.12315286  1
  Co  Co100  1  0.24676485  0.25177693  -0.00192816  1
  Co  Co101  1  0.86770444  0.62705559  0.87769898  1
  Co  Co102  1  0.00099690  0.24613637  0.74904495  1
  Co  Co103  1  0.25309036  0.49884915  0.50172271  1
  Co  Co104  1  0.75093923  0.75097257  0.24776220  1
  Co  Co105  1  0.12520635  0.12589848  0.12421954  1
  Co  Co106  1  0.49915900  0.50306122  0.74961763  1
  Co  Co107  1  -0.00388752  0.49928486  0.49571865  1
  Co  Co108  1  0.75024864  0.75155390  0.74852055  1
  Co  Co109  1  0.12011219  0.37886562  0.62631211  1
  Co  Co110  1  0.74976639  0.49595418  0.00015863  1
  Co  Co111  1  0.50274971  0.00074105  0.75251270  1
  Co  Co112  1  -0.00074695  0.74508474  -0.00107752  1
  Co  Co113  1  0.37328041  0.87450924  0.37195462  1
  Co  Co114  1  0.00247931  0.25014892  0.25139262  1
  Co  Co115  1  0.75388867  -0.00109483  0.25128864  1
  Co  Co116  1  0.74923718  0.75147123  0.00253342  1
  Co  Co117  1  0.62735408  0.12007309  0.62356885  1
  Co  Co118  1  0.13013682  0.62376400  0.87941452  1
  Co  Co119  1  0.87616961  0.12615138  0.37633902  1
  Co  Co120  1  0.75017681  0.00024291  -0.00115017  1
  Co  Co121  1  0.62609956  0.87445491  0.37360857  1
  Co  Co122  1  0.74816637  0.25013878  0.24953951  1
  Co  Co123  1  0.24508290  0.00176597  0.75085835  1
  Co  Co124  1  0.24538634  0.74730708  0.74878435  1
  Co  Co125  1  0.24991349  0.75389354  0.50145770  1
  Co  Co126  1  0.12327173  0.87261218  0.12476016  1
  Co  Co127  1  0.00070161  0.00169769  0.00129782  1
