# generated using pymatgen
data_Fe45Co19
_symmetry_space_group_name_H-M   'P 1'
_cell_length_a   11.41545488
_cell_length_b   11.41514855
_cell_length_c   11.41566267
_cell_angle_alpha   89.99606655
_cell_angle_beta   89.99336969
_cell_angle_gamma   90.00181732
_symmetry_Int_Tables_number   1
_chemical_formula_structural   Fe45Co19
_chemical_formula_sum   'Fe90 Co38'
_cell_volume   1487.56486624
_cell_formula_units_Z   2
loop_
 _symmetry_equiv_pos_site_id
 _symmetry_equiv_pos_as_xyz
  1  'x, y, z'
loop_
 _atom_site_type_symbol
 _atom_site_label
 _atom_site_symmetry_multiplicity
 _atom_site_fract_x
 _atom_site_fract_y
 _atom_site_fract_z
 _atom_site_occupancy
  Fe  Fe0  1  0.87744901  0.12754698  0.12252851  1
  Fe  Fe1  1  0.74954363  0.00116924  -0.00345459  1
  Fe  Fe2  1  0.12598649  0.37677306  0.12435511  1
  Fe  Fe3  1  0.24876350  0.74663655  -0.00189780  1
  Fe  Fe4  1  0.87301659  0.12589545  0.62668524  1
  Fe  Fe5  1  0.49918560  0.24996478  0.75178888  1
  Fe  Fe6  1  0.87476728  0.87399908  0.12248269  1
  Fe  Fe7  1  0.50129568  0.50016037  0.24781084  1
  Fe  Fe8  1  0.50094055  0.74776112  0.49978546  1
  Fe  Fe9  1  0.12371380  0.12733042  0.87468646  1
  Fe  Fe10  1  -0.00288464  0.74536520  -0.00359270  1
  Fe  Fe11  1  0.00256076  0.25248181  0.50279790  1
  Fe  Fe12  1  0.37225903  0.87156779  0.37628418  1
  Fe  Fe13  1  0.87447911  0.37649208  0.12322891  1
  Fe  Fe14  1  0.12628014  0.62086660  0.62741055  1
  Fe  Fe15  1  0.37706789  0.87155153  0.12348942  1
  Fe  Fe16  1  0.49959860  0.50154037  0.75215081  1
  Fe  Fe17  1  0.62713644  0.62347077  0.37336825  1
  Fe  Fe18  1  0.25048226  -0.00100244  0.24827923  1
  Fe  Fe19  1  0.49993154  0.00116109  0.49988599  1
  Fe  Fe20  1  0.50192975  0.00115368  -0.00227107  1
  Fe  Fe21  1  0.49821482  0.49808385  0.50023518  1
  Fe  Fe22  1  0.37583340  0.87364351  0.62459815  1
  Fe  Fe23  1  0.25126143  0.74758211  0.75064171  1
  Fe  Fe24  1  0.87508488  0.37791972  0.87659493  1
  Fe  Fe25  1  0.75099207  0.74948107  0.24978954  1
  Fe  Fe26  1  -0.00022135  0.25246501  0.24910351  1
  Fe  Fe27  1  0.12712486  0.37953812  0.87033527  1
  Fe  Fe28  1  0.63007772  0.62326971  0.62916198  1
  Fe  Fe29  1  0.49963470  -0.00154549  0.25099236  1
  Fe  Fe30  1  0.62297707  0.37599704  0.62486902  1
  Fe  Fe31  1  -0.00038600  0.74843290  0.25129285  1
  Fe  Fe32  1  -0.00093540  0.00054026  0.75116213  1
  Fe  Fe33  1  0.12879485  0.62334377  0.37659240  1
  Fe  Fe34  1  0.00060104  0.00178520  0.50037840  1
  Fe  Fe35  1  0.74938966  0.24900503  -0.00243657  1
  Fe  Fe36  1  0.62498199  0.12402695  0.62682834  1
  Fe  Fe37  1  0.12371074  0.12678820  0.12373192  1
  Fe  Fe38  1  0.75100969  0.25214677  0.24873392  1
  Fe  Fe39  1  0.50058255  -0.00147181  0.75086595  1
  Fe  Fe40  1  0.62597141  0.87491511  0.37720217  1
  Fe  Fe41  1  0.62144738  0.37557791  0.87836875  1
  Fe  Fe42  1  0.37503482  0.12881421  0.62429306  1
  Fe  Fe43  1  0.24938040  -0.00160936  -0.00222185  1
  Fe  Fe44  1  0.37403284  0.12958934  0.37638159  1
  Fe  Fe45  1  0.25034799  -0.00043816  0.75130641  1
  Fe  Fe46  1  0.87284569  0.62325938  0.12460834  1
  Fe  Fe47  1  0.75010360  0.00066635  0.24900285  1
  Fe  Fe48  1  -0.00767446  0.74443620  0.75008533  1
  Fe  Fe49  1  0.75073203  0.75049130  0.50474937  1
  Fe  Fe50  1  0.37590587  0.37788015  0.12190474  1
  Fe  Fe51  1  0.87318846  0.62206589  0.37799147  1
  Fe  Fe52  1  0.00141201  0.50171795  -0.00380889  1
  Fe  Fe53  1  0.50270962  0.74982881  0.75007312  1
  Fe  Fe54  1  0.62390862  0.12770302  0.12321783  1
  Fe  Fe55  1  0.74320910  0.50230796  0.00241572  1
  Fe  Fe56  1  -0.00031320  -0.00014585  0.25034985  1
  Fe  Fe57  1  0.12939707  0.37655117  0.37406650  1
  Fe  Fe58  1  0.62458823  0.87231632  0.12415946  1
  Fe  Fe59  1  0.87367873  0.37606287  0.37733719  1
  Fe  Fe60  1  0.00011576  0.49781492  0.50514618  1
  Fe  Fe61  1  -0.00197039  0.25393874  0.75025083  1
  Fe  Fe62  1  0.49880110  0.25126083  0.24830976  1
  Fe  Fe63  1  0.37564917  0.62524441  0.12532498  1
  Fe  Fe64  1  0.24986088  -0.00022493  0.50244368  1
  Fe  Fe65  1  0.37509364  0.62413671  0.62536369  1
  Fe  Fe66  1  -0.00083110  0.74721574  0.50300514  1
  Fe  Fe67  1  0.12243105  0.87130797  0.87359505  1
  Fe  Fe68  1  0.37572801  0.37952566  0.87657323  1
  Fe  Fe69  1  0.24981515  0.25172042  -0.00185307  1
  Fe  Fe70  1  0.12776850  0.12867940  0.62659940  1
  Fe  Fe71  1  0.12488823  0.62406018  0.12567120  1
  Fe  Fe72  1  0.62475444  0.12570290  0.37492414  1
  Fe  Fe73  1  0.37150492  0.62442420  0.37421416  1
  Fe  Fe74  1  0.87477362  0.87565644  0.37763766  1
  Fe  Fe75  1  0.12336959  0.87332357  0.12371089  1
  Fe  Fe76  1  0.12345820  0.87324358  0.62697549  1
  Fe  Fe77  1  0.37518865  0.12495957  0.12354497  1
  Fe  Fe78  1  0.74964091  -0.00549924  0.75182320  1
  Fe  Fe79  1  0.87463111  0.12618792  0.37607806  1
  Fe  Fe80  1  0.12774529  0.12780460  0.37448051  1
  Fe  Fe81  1  0.62462391  0.37572090  0.37306168  1
  Fe  Fe82  1  0.37709529  0.87203386  0.87551382  1
  Fe  Fe83  1  0.37631203  0.12491015  0.87541487  1
  Fe  Fe84  1  0.50565887  0.74336756  -0.00226839  1
  Fe  Fe85  1  0.74940871  0.25346880  0.75190520  1
  Fe  Fe86  1  -0.00098720  0.00116582  -0.00265563  1
  Fe  Fe87  1  0.74716875  0.25103826  0.50117323  1
  Fe  Fe88  1  0.12699141  0.87270424  0.37598050  1
  Fe  Fe89  1  -0.00126616  0.50030482  0.25088738  1
  Co  Co90  1  0.12409490  0.62382448  0.87049735  1
  Co  Co91  1  0.62329237  0.87253193  0.87671204  1
  Co  Co92  1  0.74885648  0.74765696  -0.00049185  1
  Co  Co93  1  0.75008130  0.00100568  0.50100927  1
  Co  Co94  1  0.87664801  0.87427417  0.87747336  1
  Co  Co95  1  0.50481510  0.50563674  0.00027543  1
  Co  Co96  1  0.75055420  0.49836452  0.24914303  1
  Co  Co97  1  0.37516395  0.37481335  0.37246406  1
  Co  Co98  1  0.24858200  0.74946842  0.24767241  1
  Co  Co99  1  0.25260916  0.24909653  0.75296155  1
  Co  Co100  1  0.63138636  0.62500754  0.86755172  1
  Co  Co101  1  0.62196550  0.87565544  0.62264714  1
  Co  Co102  1  0.25078496  0.50092794  0.24792899  1
  Co  Co103  1  0.25049895  0.25595136  0.50155031  1
  Co  Co104  1  0.87875323  0.87750876  0.62300497  1
  Co  Co105  1  0.37667989  0.62490924  0.87571588  1
  Co  Co106  1  0.75031538  0.49256111  0.74977443  1
  Co  Co107  1  -0.00488363  0.50063759  0.74889979  1
  Co  Co108  1  0.37549507  0.37388071  0.62921974  1
  Co  Co109  1  0.74691147  0.49763778  0.50024786  1
  Co  Co110  1  0.25360756  0.49650151  0.50304789  1
  Co  Co111  1  0.12883361  0.37714064  0.63137346  1
  Co  Co112  1  0.86708971  0.62137787  0.87385153  1
  Co  Co113  1  0.24947014  0.74830477  0.50376590  1
  Co  Co114  1  0.25063849  0.25084405  0.24684398  1
  Co  Co115  1  0.87508516  0.12595136  0.87263811  1
  Co  Co116  1  0.62383161  0.37191658  0.12402942  1
  Co  Co117  1  0.24858466  0.50340148  -0.00169528  1
  Co  Co118  1  0.49995326  0.75025656  0.25318598  1
  Co  Co119  1  0.00120365  0.25335416  -0.00279486  1
  Co  Co120  1  0.87365664  0.37427917  0.62215821  1
  Co  Co121  1  0.49798427  0.24929896  -0.00150489  1
  Co  Co122  1  0.75285556  0.75700873  0.74731138  1
  Co  Co123  1  0.86873914  0.61983034  0.62615005  1
  Co  Co124  1  0.50183441  0.25241360  0.50074961  1
  Co  Co125  1  0.62445717  0.12551510  0.87295225  1
  Co  Co126  1  0.25450473  0.50387169  0.74997595  1
  Co  Co127  1  0.62550529  0.62727720  0.13011579  1
