# generated using pymatgen
data_Fe45Co19
_symmetry_space_group_name_H-M   'P 1'
_cell_length_a   11.41697623
_cell_length_b   11.41498628
_cell_length_c   11.41480054
_cell_angle_alpha   89.99827858
_cell_angle_beta   90.00103803
_cell_angle_gamma   89.99598371
_symmetry_Int_Tables_number   1
_chemical_formula_structural   Fe45Co19
_chemical_formula_sum   'Fe90 Co38'
_cell_volume   1487.62961867
_cell_formula_units_Z   2
loop_
 _symmetry_equiv_pos_site_id
 _symmetry_equiv_pos_as_xyz
  1  'x, y, z'
loop_
 _atom_site_type_symbol
 _atom_site_label
 _atom_site_symmetry_multiplicity
 _atom_site_fract_x
 _atom_site_fract_y
 _atom_site_fract_z
 _atom_site_occupancy
  Fe  Fe0  1  0.37520750  0.87284766  0.37410041  1
  Fe  Fe1  1  -0.00349075  0.50150118  0.25353338  1
  Fe  Fe2  1  0.37356541  0.62288507  0.62488210  1
  Fe  Fe3  1  -0.00089246  0.74694581  0.24995337  1
  Fe  Fe4  1  0.24654847  0.25502708  0.00172904  1
  Fe  Fe5  1  0.49918624  0.00055295  0.25016056  1
  Fe  Fe6  1  0.50167248  0.24931813  0.74979597  1
  Fe  Fe7  1  0.25097178  -0.00143959  0.49971130  1
  Fe  Fe8  1  -0.00149665  0.00352873  0.25125399  1
  Fe  Fe9  1  0.12490096  0.37559938  0.62584247  1
  Fe  Fe10  1  0.24975127  -0.00259457  -0.00153587  1
  Fe  Fe11  1  0.75036956  0.25001050  0.00415933  1
  Fe  Fe12  1  0.75090634  0.50092797  0.75243219  1
  Fe  Fe13  1  0.49891193  0.74748424  0.24733786  1
  Fe  Fe14  1  0.62306378  0.87363804  0.87116086  1
  Fe  Fe15  1  0.50208058  0.75039962  0.50185480  1
  Fe  Fe16  1  0.37370647  0.87543268  0.12509909  1
  Fe  Fe17  1  0.00150818  0.25407510  0.00468752  1
  Fe  Fe18  1  0.37053861  0.37837168  0.12546440  1
  Fe  Fe19  1  0.12519621  0.61868182  0.12152848  1
  Fe  Fe20  1  0.75059588  0.49830722  0.49742213  1
  Fe  Fe21  1  0.50076364  0.49893346  0.49839082  1
  Fe  Fe22  1  0.12473956  0.12525811  0.12486320  1
  Fe  Fe23  1  0.24634381  0.50329538  0.75632388  1
  Fe  Fe24  1  0.62594576  0.62601582  0.37447510  1
  Fe  Fe25  1  0.00081107  0.75164952  0.00276930  1
  Fe  Fe26  1  0.87330762  0.12900703  0.37387741  1
  Fe  Fe27  1  0.62591313  0.62338713  0.62416952  1
  Fe  Fe28  1  0.00090937  0.74844985  0.74816561  1
  Fe  Fe29  1  0.37410021  0.62189313  0.11839939  1
  Fe  Fe30  1  0.12646542  0.87153776  0.87369668  1
  Fe  Fe31  1  0.49959080  0.25329151  0.50055203  1
  Fe  Fe32  1  0.62526837  0.12581148  0.37309673  1
  Fe  Fe33  1  0.24941597  0.74709736  0.24782054  1
  Fe  Fe34  1  0.49915122  0.50235011  0.24995807  1
  Fe  Fe35  1  0.49894607  -0.00448586  -0.00318918  1
  Fe  Fe36  1  0.74730305  -0.00345921  0.49806143  1
  Fe  Fe37  1  0.24942713  0.24929865  0.74813376  1
  Fe  Fe38  1  0.12348611  0.87756527  0.62657454  1
  Fe  Fe39  1  0.87835038  0.62483411  0.87966664  1
  Fe  Fe40  1  0.74809939  0.00241895  0.74956365  1
  Fe  Fe41  1  0.37449418  0.37788927  0.62766848  1
  Fe  Fe42  1  0.00073207  0.74972069  0.50050637  1
  Fe  Fe43  1  0.12453797  0.87761639  0.12822126  1
  Fe  Fe44  1  0.87585653  0.62352619  0.62206640  1
  Fe  Fe45  1  0.37647959  0.12532758  0.12162666  1
  Fe  Fe46  1  0.74953127  0.00062668  0.00211262  1
  Fe  Fe47  1  0.87490830  0.87739377  0.62651469  1
  Fe  Fe48  1  0.74995893  0.74644274  0.75041942  1
  Fe  Fe49  1  0.50352595  -0.00250522  0.50103812  1
  Fe  Fe50  1  0.62589180  0.87580447  0.12876154  1
  Fe  Fe51  1  0.00120429  0.50276619  0.75294065  1
  Fe  Fe52  1  0.87411169  0.37765512  0.12835836  1
  Fe  Fe53  1  0.62805899  0.37515826  0.37092704  1
  Fe  Fe54  1  0.12649374  0.37035218  0.37040344  1
  Fe  Fe55  1  0.87620789  0.12523768  0.87687565  1
  Fe  Fe56  1  0.62435919  0.12766514  0.87803090  1
  Fe  Fe57  1  0.37374380  0.62683863  0.37722339  1
  Fe  Fe58  1  0.00100538  -0.00149554  -0.00202227  1
  Fe  Fe59  1  0.25119754  -0.00058837  0.75216982  1
  Fe  Fe60  1  -0.00165933  0.24491736  0.74424936  1
  Fe  Fe61  1  0.87477157  0.87496122  0.87396668  1
  Fe  Fe62  1  0.37338957  0.37405283  0.37273267  1
  Fe  Fe63  1  0.74941805  0.75372350  0.49905452  1
  Fe  Fe64  1  0.75038245  0.24877996  0.74829612  1
  Fe  Fe65  1  0.50078040  0.25567667  0.00021770  1
  Fe  Fe66  1  -0.00018455  0.00384366  0.50020045  1
  Fe  Fe67  1  0.24856652  0.75062016  0.50317594  1
  Fe  Fe68  1  0.37219031  0.63094838  0.88047877  1
  Fe  Fe69  1  0.62713747  0.38105137  0.12462870  1
  Fe  Fe70  1  0.87649038  0.37678843  0.62461571  1
  Fe  Fe71  1  0.62430606  0.37629758  0.62773783  1
  Fe  Fe72  1  0.74927520  0.74920846  0.00237704  1
  Fe  Fe73  1  0.25133022  0.00278159  0.25065307  1
  Fe  Fe74  1  0.75298731  0.74754392  0.24998093  1
  Fe  Fe75  1  0.24835708  0.49844862  0.49687282  1
  Fe  Fe76  1  0.37523059  0.12492858  0.62327151  1
  Fe  Fe77  1  0.37943025  0.87377568  0.63057093  1
  Fe  Fe78  1  0.37482695  0.12742863  0.87736781  1
  Fe  Fe79  1  0.00053199  0.49729153  0.49542915  1
  Fe  Fe80  1  0.87534343  0.87711882  0.12706341  1
  Fe  Fe81  1  0.12437291  0.87403478  0.37362312  1
  Fe  Fe82  1  0.37548753  0.12663887  0.37647008  1
  Fe  Fe83  1  0.62452891  0.62241307  0.88150150  1
  Fe  Fe84  1  0.87521362  0.37342046  0.87433243  1
  Fe  Fe85  1  0.75101444  0.25201964  0.50180019  1
  Fe  Fe86  1  0.12373751  0.12707070  0.87494519  1
  Fe  Fe87  1  0.50013865  0.25091491  0.24735446  1
  Fe  Fe88  1  0.12721569  0.12969425  0.37603565  1
  Fe  Fe89  1  0.50023834  0.50087876  0.75537465  1
  Co  Co90  1  0.87226527  0.37053950  0.37214450  1
  Co  Co91  1  0.87793840  0.87549506  0.37364235  1
  Co  Co92  1  0.87438584  0.62674311  0.37923420  1
  Co  Co93  1  0.24688689  0.75308999  0.00506528  1
  Co  Co94  1  -0.00083059  0.24966154  0.24731779  1
  Co  Co95  1  0.75254572  0.50509099  0.25095829  1
  Co  Co96  1  0.62024641  0.12263087  0.12287766  1
  Co  Co97  1  0.50262795  0.75402113  0.00183329  1
  Co  Co98  1  0.87800954  0.12269668  0.12240116  1
  Co  Co99  1  0.25234121  0.50411899  0.25307402  1
  Co  Co100  1  0.12846394  0.12355315  0.62438293  1
  Co  Co101  1  0.50020679  0.00477659  0.75189222  1
  Co  Co102  1  0.62551410  0.12645427  0.62218806  1
  Co  Co103  1  0.12758802  0.37991413  0.13166357  1
  Co  Co104  1  0.62398414  0.87350642  0.62996983  1
  Co  Co105  1  0.00067894  0.00107735  0.75186792  1
  Co  Co106  1  0.87204081  0.12126450  0.62372339  1
  Co  Co107  1  0.62891833  0.37412354  0.87514613  1
  Co  Co108  1  0.37364831  0.37158421  0.87208673  1
  Co  Co109  1  0.50197857  0.74357401  0.75092869  1
  Co  Co110  1  0.12351236  0.62941399  0.88035287  1
  Co  Co111  1  -0.00022476  0.24988283  0.50246770  1
  Co  Co112  1  0.49713864  0.49583699  -0.00329872  1
  Co  Co113  1  0.75359509  0.49969701  -0.00056561  1
  Co  Co114  1  0.25278904  0.24635858  0.24747747  1
  Co  Co115  1  0.62403103  0.62208133  0.12297396  1
  Co  Co116  1  0.00148642  0.49448453  -0.00150273  1
  Co  Co117  1  0.12535150  0.62730367  0.37570153  1
  Co  Co118  1  0.62360301  0.87389159  0.37006148  1
  Co  Co119  1  0.24668938  0.49412486  -0.00732514  1
  Co  Co120  1  0.37479575  0.86976518  0.87216325  1
  Co  Co121  1  0.74819442  0.24636964  0.24363630  1
  Co  Co122  1  0.12399769  0.62110704  0.62262840  1
  Co  Co123  1  0.24711255  0.74742161  0.74622333  1
  Co  Co124  1  0.12047937  0.37028217  0.87015158  1
  Co  Co125  1  0.87692833  0.62369237  0.12183887  1
  Co  Co126  1  0.25113387  0.25312177  0.50127449  1
  Co  Co127  1  0.75165926  0.00289429  0.24917951  1
