# generated using pymatgen
data_Fe45Co19
_symmetry_space_group_name_H-M   'P 1'
_cell_length_a   11.41533308
_cell_length_b   11.41589321
_cell_length_c   11.41525638
_cell_angle_alpha   90.00707232
_cell_angle_beta   90.00040039
_cell_angle_gamma   89.99527155
_symmetry_Int_Tables_number   1
_chemical_formula_structural   Fe45Co19
_chemical_formula_sum   'Fe90 Co38'
_cell_volume   1487.59308416
_cell_formula_units_Z   2
loop_
 _symmetry_equiv_pos_site_id
 _symmetry_equiv_pos_as_xyz
  1  'x, y, z'
loop_
 _atom_site_type_symbol
 _atom_site_label
 _atom_site_symmetry_multiplicity
 _atom_site_fract_x
 _atom_site_fract_y
 _atom_site_fract_z
 _atom_site_occupancy
  Fe  Fe0  1  0.75053953  0.75230391  0.49972261  1
  Fe  Fe1  1  0.25383736  0.75340935  -0.00486651  1
  Fe  Fe2  1  -0.00298059  0.24874027  0.00035401  1
  Fe  Fe3  1  0.50176996  0.24919091  0.75157846  1
  Fe  Fe4  1  0.86925553  0.62567469  0.62831363  1
  Fe  Fe5  1  0.62974890  0.12509307  0.87801806  1
  Fe  Fe6  1  0.12649299  0.62484464  0.37662458  1
  Fe  Fe7  1  0.49849347  0.00061711  -0.00017707  1
  Fe  Fe8  1  0.50285040  0.00422100  0.75124392  1
  Fe  Fe9  1  0.87212327  0.37483579  0.62865465  1
  Fe  Fe10  1  0.75113886  -0.00204806  0.50300084  1
  Fe  Fe11  1  0.37748319  0.37465294  0.62785674  1
  Fe  Fe12  1  0.24573807  0.00368930  0.75113407  1
  Fe  Fe13  1  0.12333978  0.37470202  0.37540631  1
  Fe  Fe14  1  0.50468106  0.74410772  0.75401616  1
  Fe  Fe15  1  -0.00020649  0.00243541  0.24855050  1
  Fe  Fe16  1  0.37582141  0.37517628  0.87297505  1
  Fe  Fe17  1  0.12360508  0.87439231  0.12300206  1
  Fe  Fe18  1  0.12350436  0.37270837  0.62522078  1
  Fe  Fe19  1  0.12292261  0.87596982  0.37543555  1
  Fe  Fe20  1  0.87281596  0.62496004  0.37407032  1
  Fe  Fe21  1  0.50241334  0.24842498  0.24960176  1
  Fe  Fe22  1  0.24882210  0.49730195  -0.00190289  1
  Fe  Fe23  1  0.25278565  0.74970349  0.25226940  1
  Fe  Fe24  1  0.62535818  0.37347943  0.87773962  1
  Fe  Fe25  1  -0.00313799  0.50044716  0.50089710  1
  Fe  Fe26  1  0.87598772  0.37213923  0.36946659  1
  Fe  Fe27  1  0.37061239  0.12620585  0.87724943  1
  Fe  Fe28  1  0.50755989  0.50253028  0.74942811  1
  Fe  Fe29  1  0.25398067  0.75282520  0.49893994  1
  Fe  Fe30  1  0.62354574  0.37549128  0.37605327  1
  Fe  Fe31  1  0.62439004  0.87663634  0.87644579  1
  Fe  Fe32  1  -0.00355215  0.24742252  0.50074741  1
  Fe  Fe33  1  0.62144709  0.87425879  0.37196721  1
  Fe  Fe34  1  0.87552754  0.87689436  0.37375724  1
  Fe  Fe35  1  0.62767975  0.12782573  0.12001091  1
  Fe  Fe36  1  0.75124955  0.75356788  -0.00068340  1
  Fe  Fe37  1  0.25279513  0.25227488  0.50015212  1
  Fe  Fe38  1  0.75305393  0.49370946  0.00256274  1
  Fe  Fe39  1  0.37721723  0.87509241  0.63093732  1
  Fe  Fe40  1  0.87113334  0.12836008  0.12756262  1
  Fe  Fe41  1  0.37582727  0.12377613  0.37380905  1
  Fe  Fe42  1  0.50107896  0.50025005  0.50189852  1
  Fe  Fe43  1  0.74793205  -0.00075011  0.24877675  1
  Fe  Fe44  1  0.00249950  0.24271195  0.74919487  1
  Fe  Fe45  1  0.87487748  0.62482039  0.12366564  1
  Fe  Fe46  1  0.87107026  0.12110455  0.87307624  1
  Fe  Fe47  1  0.37849267  0.87518264  0.12718151  1
  Fe  Fe48  1  0.00162447  0.50365463  0.75030536  1
  Fe  Fe49  1  -0.00220591  0.74898768  0.50153870  1
  Fe  Fe50  1  0.12056004  0.87941833  0.87522289  1
  Fe  Fe51  1  0.24913209  0.74902270  0.75359508  1
  Fe  Fe52  1  0.25281727  -0.00284300  0.50021217  1
  Fe  Fe53  1  0.25133895  0.49777627  0.50042147  1
  Fe  Fe54  1  0.12527654  0.62609769  0.12075200  1
  Fe  Fe55  1  0.12326378  0.37277647  0.87459652  1
  Fe  Fe56  1  0.12220111  0.87437193  0.62650334  1
  Fe  Fe57  1  -0.00021857  0.74883769  0.25075817  1
  Fe  Fe58  1  0.25153773  0.49970382  0.25081995  1
  Fe  Fe59  1  0.87615695  0.87938573  0.86886161  1
  Fe  Fe60  1  0.24816620  0.49967575  0.75033103  1
  Fe  Fe61  1  0.87151075  0.62339578  0.87367146  1
  Fe  Fe62  1  0.62649719  0.12335755  0.37663289  1
  Fe  Fe63  1  0.62347968  0.87215401  0.62651615  1
  Fe  Fe64  1  0.37872764  0.37420964  0.12510740  1
  Fe  Fe65  1  0.74833265  0.49809458  0.24793550  1
  Fe  Fe66  1  0.49900895  0.24994549  0.50060912  1
  Fe  Fe67  1  0.87590851  0.87458776  0.12668173  1
  Fe  Fe68  1  0.12039391  0.37627222  0.12396319  1
  Fe  Fe69  1  0.24989574  -0.00016375  0.24914629  1
  Fe  Fe70  1  0.37504014  0.62541213  0.12084154  1
  Fe  Fe71  1  0.24890819  0.25141545  0.24903295  1
  Fe  Fe72  1  0.12711086  0.12310819  0.11898967  1
  Fe  Fe73  1  0.12522158  0.62598736  0.62491125  1
  Fe  Fe74  1  0.87620858  0.37539942  0.87188388  1
  Fe  Fe75  1  0.37402923  0.12655557  0.12261088  1
  Fe  Fe76  1  0.12460987  0.12399579  0.37782390  1
  Fe  Fe77  1  0.00061400  0.50277375  0.24970438  1
  Fe  Fe78  1  0.62536928  0.62724482  0.12170076  1
  Fe  Fe79  1  0.62188163  0.87235942  0.12545456  1
  Fe  Fe80  1  0.62813733  0.12821974  0.62497062  1
  Fe  Fe81  1  -0.00444991  0.00224195  0.50439997  1
  Fe  Fe82  1  0.49997040  0.50232901  0.25050371  1
  Fe  Fe83  1  0.49924514  -0.00139021  0.50153499  1
  Fe  Fe84  1  0.62491456  0.62677940  0.37695249  1
  Fe  Fe85  1  0.75191753  0.25141579  0.49879073  1
  Fe  Fe86  1  0.37656291  0.62549707  0.62623320  1
  Fe  Fe87  1  -0.00175985  0.74952774  -0.00370510  1
  Fe  Fe88  1  0.50046834  0.50049228  -0.00172497  1
  Fe  Fe89  1  0.37371127  0.12532972  0.62632207  1
  Co  Co90  1  0.74996215  0.74989800  0.24970109  1
  Co  Co91  1  0.00519392  0.24505429  0.24881249  1
  Co  Co92  1  0.49748197  0.75124863  -0.00384488  1
  Co  Co93  1  0.86861965  0.12598392  0.62855803  1
  Co  Co94  1  0.62991170  0.62387144  0.88229269  1
  Co  Co95  1  0.87607662  0.87320169  0.62994846  1
  Co  Co96  1  0.00340917  0.00677084  0.74597156  1
  Co  Co97  1  0.49887050  0.24871000  -0.00287202  1
  Co  Co98  1  0.50253825  0.00467292  0.24696099  1
  Co  Co99  1  0.49717800  0.74542894  0.25084290  1
  Co  Co100  1  0.62189043  0.37420383  0.12252069  1
  Co  Co101  1  0.25047803  0.25576014  0.00119026  1
  Co  Co102  1  0.24857232  0.24910453  0.75001163  1
  Co  Co103  1  0.37499954  0.62329454  0.37885453  1
  Co  Co104  1  0.62684962  0.37238595  0.62355061  1
  Co  Co105  1  0.62918433  0.62610533  0.62034997  1
  Co  Co106  1  0.75394801  0.25482323  -0.00062941  1
  Co  Co107  1  0.74770599  0.25166692  0.75236668  1
  Co  Co108  1  0.25420490  -0.00568301  -0.00072220  1
  Co  Co109  1  0.87868142  0.37252405  0.13062534  1
  Co  Co110  1  0.12665601  0.62475782  0.87772402  1
  Co  Co111  1  0.37908737  0.87849681  0.37115148  1
  Co  Co112  1  0.49772781  0.75236937  0.50001770  1
  Co  Co113  1  0.75220806  0.49726872  0.49848299  1
  Co  Co114  1  0.75069911  -0.00318457  0.00256167  1
  Co  Co115  1  0.74640079  0.75080720  0.75279458  1
  Co  Co116  1  -0.00160021  0.49998795  -0.00163975  1
  Co  Co117  1  0.37477117  0.62167653  0.87433351  1
  Co  Co118  1  0.74655897  -0.00212727  0.74633908  1
  Co  Co119  1  0.00010007  0.74674751  0.75191709  1
  Co  Co120  1  0.12792657  0.12653403  0.61944596  1
  Co  Co121  1  0.37725721  0.37439572  0.37368982  1
  Co  Co122  1  0.37854780  0.87749099  0.86892448  1
  Co  Co123  1  0.12715302  0.12384314  0.88213584  1
  Co  Co124  1  0.74397801  0.25196285  0.24970696  1
  Co  Co125  1  0.74437603  0.49883953  0.75079794  1
  Co  Co126  1  0.87276871  0.12463144  0.37240631  1
  Co  Co127  1  -0.00511188  0.00169890  0.00236780  1
