# generated using pymatgen
data_Fe45Co19
_symmetry_space_group_name_H-M   'P 1'
_cell_length_a   11.41447570
_cell_length_b   11.41427625
_cell_length_c   11.41564135
_cell_angle_alpha   90.01655928
_cell_angle_beta   89.98690812
_cell_angle_gamma   90.00036474
_symmetry_Int_Tables_number   1
_chemical_formula_structural   Fe45Co19
_chemical_formula_sum   'Fe90 Co38'
_cell_volume   1487.32073895
_cell_formula_units_Z   2
loop_
 _symmetry_equiv_pos_site_id
 _symmetry_equiv_pos_as_xyz
  1  'x, y, z'
loop_
 _atom_site_type_symbol
 _atom_site_label
 _atom_site_symmetry_multiplicity
 _atom_site_fract_x
 _atom_site_fract_y
 _atom_site_fract_z
 _atom_site_occupancy
  Fe  Fe0  1  0.37734408  0.87530251  0.87668439  1
  Fe  Fe1  1  0.87358660  0.12287571  0.12319088  1
  Fe  Fe2  1  0.12588189  0.62337332  0.12464743  1
  Fe  Fe3  1  0.24953823  0.75023739  0.00031596  1
  Fe  Fe4  1  -0.00374635  0.74804198  0.00434689  1
  Fe  Fe5  1  0.12551291  0.12497614  0.87359676  1
  Fe  Fe6  1  0.37288482  0.37291884  0.87792913  1
  Fe  Fe7  1  0.75024131  0.49930322  0.00058959  1
  Fe  Fe8  1  0.87476585  0.37695857  0.62430036  1
  Fe  Fe9  1  0.62177989  0.37514833  0.12763606  1
  Fe  Fe10  1  0.87928135  0.87288613  0.62201493  1
  Fe  Fe11  1  0.12774315  0.38117287  0.62564456  1
  Fe  Fe12  1  0.50153739  -0.00071838  0.49797396  1
  Fe  Fe13  1  0.87629513  0.37590199  0.87472807  1
  Fe  Fe14  1  0.75474275  0.75519622  0.24713541  1
  Fe  Fe15  1  0.24804970  -0.00215037  0.25300032  1
  Fe  Fe16  1  0.12712134  0.37871564  0.87643559  1
  Fe  Fe17  1  0.12473567  0.12360939  0.12650951  1
  Fe  Fe18  1  0.12046886  0.87300906  0.87396044  1
  Fe  Fe19  1  0.50223432  0.25010959  0.74975914  1
  Fe  Fe20  1  0.50003783  0.50254672  0.49776156  1
  Fe  Fe21  1  0.37990006  0.37453100  0.37120114  1
  Fe  Fe22  1  0.24628066  0.75301646  0.25105282  1
  Fe  Fe23  1  0.12368264  0.87680008  0.62340909  1
  Fe  Fe24  1  0.62757015  0.62952510  0.12376875  1
  Fe  Fe25  1  -0.00267784  0.50293833  0.24830088  1
  Fe  Fe26  1  0.37306054  0.12428241  0.12538096  1
  Fe  Fe27  1  0.37057863  0.62422256  0.62287377  1
  Fe  Fe28  1  0.49842556  0.74912827  0.74919304  1
  Fe  Fe29  1  0.74977782  -0.00821323  -0.00305184  1
  Fe  Fe30  1  0.74932516  0.50138413  0.49800727  1
  Fe  Fe31  1  0.37241462  0.12595748  0.87469082  1
  Fe  Fe32  1  0.87490683  0.12493174  0.87420666  1
  Fe  Fe33  1  0.49937949  -0.00037456  0.75007930  1
  Fe  Fe34  1  -0.00039062  0.24814139  0.24934416  1
  Fe  Fe35  1  0.62386684  0.87456783  0.62567617  1
  Fe  Fe36  1  0.75026779  0.75174715  0.75167011  1
  Fe  Fe37  1  0.24910059  -0.00141591  0.75032742  1
  Fe  Fe38  1  -0.00050802  0.00077602  -0.00176360  1
  Fe  Fe39  1  0.75036915  -0.00306671  0.49825993  1
  Fe  Fe40  1  0.24895165  0.74890726  0.75184954  1
  Fe  Fe41  1  0.49719545  0.50247886  0.00468050  1
  Fe  Fe42  1  0.75206246  -0.00596451  0.25200458  1
  Fe  Fe43  1  0.00095846  0.50676487  0.50217738  1
  Fe  Fe44  1  0.75142380  -0.00450708  0.75193079  1
  Fe  Fe45  1  0.62602073  0.12264360  0.87371931  1
  Fe  Fe46  1  0.37489183  0.62620500  0.87739988  1
  Fe  Fe47  1  0.12342537  0.37754481  0.37432930  1
  Fe  Fe48  1  0.87378609  0.12575011  0.37511417  1
  Fe  Fe49  1  0.49862438  0.50002067  0.75009358  1
  Fe  Fe50  1  0.62504071  0.62669242  0.87677928  1
  Fe  Fe51  1  0.62741863  0.12129070  0.12595485  1
  Fe  Fe52  1  0.50009187  0.75019016  0.49975439  1
  Fe  Fe53  1  0.00173134  0.74392707  0.74500120  1
  Fe  Fe54  1  0.50101641  0.24710014  0.00145199  1
  Fe  Fe55  1  0.74915504  0.49881249  0.75089335  1
  Fe  Fe56  1  0.74747209  0.25239587  0.75054229  1
  Fe  Fe57  1  0.50104443  -0.00115094  0.25169550  1
  Fe  Fe58  1  0.37251136  0.62663570  0.37310779  1
  Fe  Fe59  1  0.24954543  0.25126284  0.24930584  1
  Fe  Fe60  1  0.11640757  0.87619680  0.37605274  1
  Fe  Fe61  1  0.87481590  0.37563613  0.12528541  1
  Fe  Fe62  1  0.74942679  0.50038050  0.25199161  1
  Fe  Fe63  1  0.87609935  0.62445451  0.87573047  1
  Fe  Fe64  1  0.24953487  0.25251240  0.49947587  1
  Fe  Fe65  1  0.12729052  0.12374544  0.62382711  1
  Fe  Fe66  1  0.74977954  0.25070658  0.25046946  1
  Fe  Fe67  1  0.87576348  0.63037212  0.37601392  1
  Fe  Fe68  1  0.24555743  0.75013342  0.49671565  1
  Fe  Fe69  1  0.50323814  0.24651604  0.49983889  1
  Fe  Fe70  1  0.00090396  0.24873531  0.50017489  1
  Fe  Fe71  1  0.62655602  0.62536654  0.62529907  1
  Fe  Fe72  1  0.49986617  0.75106970  0.25015997  1
  Fe  Fe73  1  0.12050751  0.87731662  0.12557903  1
  Fe  Fe74  1  0.37663900  0.87461777  0.12458477  1
  Fe  Fe75  1  0.62326477  0.37321032  0.37363347  1
  Fe  Fe76  1  0.74829958  0.25172596  -0.00011421  1
  Fe  Fe77  1  0.62575493  0.37523358  0.62300199  1
  Fe  Fe78  1  0.62676404  0.62976124  0.37472212  1
  Fe  Fe79  1  0.37386263  0.37638536  0.62603129  1
  Fe  Fe80  1  0.87243638  0.12632046  0.62657839  1
  Fe  Fe81  1  0.37233509  0.87475856  0.62241230  1
  Fe  Fe82  1  0.37298763  0.12409510  0.62432812  1
  Fe  Fe83  1  0.00083300  0.25015660  0.00027847  1
  Fe  Fe84  1  0.37268078  0.12421676  0.37540989  1
  Fe  Fe85  1  0.25427655  0.49852336  0.24740568  1
  Fe  Fe86  1  0.24923629  -0.00091435  -0.00087032  1
  Fe  Fe87  1  0.12509169  0.37648296  0.12344487  1
  Fe  Fe88  1  0.87634875  0.37512036  0.37629406  1
  Fe  Fe89  1  0.00234842  0.25120783  0.74931904  1
  Co  Co90  1  0.87964204  0.87853590  0.12575216  1
  Co  Co91  1  0.00049764  0.50293917  0.74858303  1
  Co  Co92  1  0.37284807  0.63075638  0.12823390  1
  Co  Co93  1  0.75362626  0.75511243  -0.00102372  1
  Co  Co94  1  0.00512981  0.74215905  0.50407074  1
  Co  Co95  1  0.86978471  0.62413451  0.62539838  1
  Co  Co96  1  0.12231051  0.62539002  0.87843975  1
  Co  Co97  1  0.62501490  0.87239234  0.37478406  1
  Co  Co98  1  -0.00101290  0.74755929  0.24682868  1
  Co  Co99  1  0.62828474  0.12334498  0.37376312  1
  Co  Co100  1  0.50136097  0.24421947  0.24955063  1
  Co  Co101  1  0.49968251  0.00175374  0.00002735  1
  Co  Co102  1  0.37794910  0.37182006  0.12528392  1
  Co  Co103  1  0.25309085  0.49809643  0.49498371  1
  Co  Co104  1  0.24843123  -0.00184470  0.49759520  1
  Co  Co105  1  0.13401035  0.62007693  0.62600214  1
  Co  Co106  1  0.24813972  0.25046957  0.74840762  1
  Co  Co107  1  0.87159414  0.62303955  0.12441596  1
  Co  Co108  1  0.62738403  0.12295936  0.62645918  1
  Co  Co109  1  0.12705660  0.12631124  0.37485816  1
  Co  Co110  1  0.62194670  0.87313543  0.12387373  1
  Co  Co111  1  0.88205283  0.87059281  0.37864356  1
  Co  Co112  1  0.88192622  0.87264555  0.87263197  1
  Co  Co113  1  0.74948096  0.75258358  0.50185700  1
  Co  Co114  1  0.25268544  0.50229834  0.75557496  1
  Co  Co115  1  -0.00198280  0.00361782  0.25208905  1
  Co  Co116  1  -0.00158431  0.49919148  0.00136567  1
  Co  Co117  1  0.49894507  0.74903503  0.00026599  1
  Co  Co118  1  0.00004065  0.00161252  0.74841768  1
  Co  Co119  1  0.12623295  0.62168103  0.37049206  1
  Co  Co120  1  0.37538415  0.87358456  0.37557645  1
  Co  Co121  1  0.62012566  0.87235767  0.87505973  1
  Co  Co122  1  0.24821770  0.24879566  0.00219549  1
  Co  Co123  1  -0.00151204  0.00516215  0.49981010  1
  Co  Co124  1  0.25350170  0.50248881  0.00243647  1
  Co  Co125  1  0.74944840  0.25002978  0.49930617  1
  Co  Co126  1  0.62246005  0.37727304  0.87728874  1
  Co  Co127  1  0.50116429  0.50535059  0.24905386  1
