# generated using pymatgen
data_Fe45Co19
_symmetry_space_group_name_H-M   'P 1'
_cell_length_a   11.41460623
_cell_length_b   11.41522277
_cell_length_c   11.41615500
_cell_angle_alpha   89.99902195
_cell_angle_beta   90.00547203
_cell_angle_gamma   89.99223365
_symmetry_Int_Tables_number   1
_chemical_formula_structural   Fe45Co19
_chemical_formula_sum   'Fe90 Co38'
_cell_volume   1487.52809173
_cell_formula_units_Z   2
loop_
 _symmetry_equiv_pos_site_id
 _symmetry_equiv_pos_as_xyz
  1  'x, y, z'
loop_
 _atom_site_type_symbol
 _atom_site_label
 _atom_site_symmetry_multiplicity
 _atom_site_fract_x
 _atom_site_fract_y
 _atom_site_fract_z
 _atom_site_occupancy
  Fe  Fe0  1  0.74767928  0.00191776  0.00088761  1
  Fe  Fe1  1  0.37348120  0.12482930  0.62208892  1
  Fe  Fe2  1  0.24754442  0.00179298  -0.00086098  1
  Fe  Fe3  1  0.74993147  0.50105223  0.50131201  1
  Fe  Fe4  1  0.12429559  0.12405018  0.12460151  1
  Fe  Fe5  1  0.37303987  0.37631472  0.37723671  1
  Fe  Fe6  1  0.00174254  0.25048283  -0.00053441  1
  Fe  Fe7  1  0.50105306  0.24949856  0.49783349  1
  Fe  Fe8  1  0.49984651  0.74944871  0.50180245  1
  Fe  Fe9  1  0.62239824  0.12436106  0.62696367  1
  Fe  Fe10  1  0.62603398  0.11964791  0.37196165  1
  Fe  Fe11  1  0.50169193  0.49923214  0.00047286  1
  Fe  Fe12  1  -0.00290320  0.00008433  0.24988204  1
  Fe  Fe13  1  0.00094479  -0.00253018  0.50064959  1
  Fe  Fe14  1  0.00278677  -0.00246079  0.75424897  1
  Fe  Fe15  1  0.49883969  0.74809516  0.74837215  1
  Fe  Fe16  1  0.74534474  0.24790169  -0.00109962  1
  Fe  Fe17  1  0.62213460  0.37390256  0.12834497  1
  Fe  Fe18  1  0.87580330  0.12446466  0.87553934  1
  Fe  Fe19  1  0.12522722  0.37472436  0.12705380  1
  Fe  Fe20  1  0.87249570  0.87711646  0.37673143  1
  Fe  Fe21  1  0.37686175  0.62506480  0.12484512  1
  Fe  Fe22  1  0.12711989  0.87171683  0.62636619  1
  Fe  Fe23  1  0.24872215  0.00167392  0.75123384  1
  Fe  Fe24  1  0.37867008  0.62403522  0.87388713  1
  Fe  Fe25  1  0.25158436  0.50227513  0.74962731  1
  Fe  Fe26  1  -0.00233819  0.50117938  0.24955834  1
  Fe  Fe27  1  0.87501017  0.87461994  0.62560056  1
  Fe  Fe28  1  0.24900439  0.50034955  0.00066318  1
  Fe  Fe29  1  0.87433909  0.37501038  0.12248123  1
  Fe  Fe30  1  -0.00035672  0.25221286  0.74908814  1
  Fe  Fe31  1  0.00470476  0.25328561  0.50147716  1
  Fe  Fe32  1  0.12855331  0.37141044  0.87300484  1
  Fe  Fe33  1  0.75220156  0.50038365  0.74931930  1
  Fe  Fe34  1  0.25093350  0.74836583  -0.00178966  1
  Fe  Fe35  1  0.87513959  0.12542180  0.12326519  1
  Fe  Fe36  1  0.49887706  0.75080139  0.25057671  1
  Fe  Fe37  1  0.50362937  0.00325547  -0.00086962  1
  Fe  Fe38  1  0.37305485  0.37357676  0.87558403  1
  Fe  Fe39  1  0.50349242  0.74885963  -0.00066148  1
  Fe  Fe40  1  0.75299038  0.50305527  0.24795446  1
  Fe  Fe41  1  0.62589272  0.37465145  0.62538218  1
  Fe  Fe42  1  0.62553087  0.87469887  0.62642532  1
  Fe  Fe43  1  0.62521386  0.62457595  0.37390828  1
  Fe  Fe44  1  0.74859675  0.50443511  0.00094335  1
  Fe  Fe45  1  0.12365208  0.87411573  0.12260837  1
  Fe  Fe46  1  0.00300654  0.49752418  0.50135053  1
  Fe  Fe47  1  0.62467990  0.37749366  0.37433272  1
  Fe  Fe48  1  0.62559889  0.87557258  0.12704073  1
  Fe  Fe49  1  0.37519978  0.87567506  0.87531959  1
  Fe  Fe50  1  0.00123768  0.49821114  -0.00202962  1
  Fe  Fe51  1  0.87707801  0.62574344  0.62439692  1
  Fe  Fe52  1  0.50030268  -0.00252132  0.50096119  1
  Fe  Fe53  1  0.75231177  0.74761248  0.75284520  1
  Fe  Fe54  1  0.37343386  0.12226919  0.37722284  1
  Fe  Fe55  1  0.75282281  0.74695058  0.24862778  1
  Fe  Fe56  1  -0.00248279  0.75299790  -0.00664879  1
  Fe  Fe57  1  0.12536363  0.12415081  0.37649948  1
  Fe  Fe58  1  0.12184701  0.62781667  0.12389633  1
  Fe  Fe59  1  0.25001786  0.50160567  0.24925328  1
  Fe  Fe60  1  0.12409961  0.62713695  0.87251806  1
  Fe  Fe61  1  0.37905155  0.12754537  0.12429647  1
  Fe  Fe62  1  0.12682560  0.87429031  0.37553656  1
  Fe  Fe63  1  0.25115102  0.75085488  0.25012592  1
  Fe  Fe64  1  0.37444613  0.62515396  0.37698501  1
  Fe  Fe65  1  0.74906323  0.24707980  0.49978052  1
  Fe  Fe66  1  0.75075922  0.24830686  0.25207222  1
  Fe  Fe67  1  0.37579305  0.87537871  0.12304507  1
  Fe  Fe68  1  0.25157903  -0.00192463  0.24938757  1
  Fe  Fe69  1  0.87462657  0.87355378  0.12107555  1
  Fe  Fe70  1  0.37235331  0.87390109  0.62491932  1
  Fe  Fe71  1  0.49859058  0.25128208  0.75071019  1
  Fe  Fe72  1  0.12412374  0.62609974  0.37615630  1
  Fe  Fe73  1  0.37770414  0.37281406  0.12509947  1
  Fe  Fe74  1  0.75179075  0.24973138  0.74905734  1
  Fe  Fe75  1  0.37166212  0.37504827  0.62311020  1
  Fe  Fe76  1  -0.00303181  0.74992123  0.25241802  1
  Fe  Fe77  1  -0.00166995  0.24937860  0.25119626  1
  Fe  Fe78  1  0.87554581  0.37465840  0.37727685  1
  Fe  Fe79  1  0.75003515  0.00227752  0.74727224  1
  Fe  Fe80  1  -0.00239672  0.49719170  0.75007645  1
  Fe  Fe81  1  0.25111043  0.25013339  0.25070632  1
  Fe  Fe82  1  0.62539813  0.87626259  0.87233306  1
  Fe  Fe83  1  0.87809867  0.12532905  0.62273343  1
  Fe  Fe84  1  0.75055152  0.74952717  0.50046135  1
  Fe  Fe85  1  0.12518116  0.62861278  0.62618066  1
  Fe  Fe86  1  0.37490611  0.12724594  0.87622706  1
  Fe  Fe87  1  0.62551978  0.37664236  0.87251783  1
  Fe  Fe88  1  0.62630619  0.87749833  0.37341191  1
  Fe  Fe89  1  0.50049136  0.50223087  0.50331858  1
  Co  Co90  1  0.50411473  0.24973292  -0.00294868  1
  Co  Co91  1  0.12942634  0.37588933  0.62967391  1
  Co  Co92  1  0.24636285  0.50048013  0.50033825  1
  Co  Co93  1  0.25234534  0.74943552  0.75229637  1
  Co  Co94  1  0.12373632  0.12372855  0.62452056  1
  Co  Co95  1  0.86991132  0.87864228  0.87571365  1
  Co  Co96  1  0.87285753  0.37414909  0.87776671  1
  Co  Co97  1  0.87289189  0.37425593  0.62194861  1
  Co  Co98  1  0.24605347  0.25102650  0.49993603  1
  Co  Co99  1  0.74953399  0.00068624  0.50351694  1
  Co  Co100  1  0.87874663  0.62699760  0.12045094  1
  Co  Co101  1  0.75514911  0.00078273  0.24794361  1
  Co  Co102  1  0.62248437  0.62537161  0.12767844  1
  Co  Co103  1  0.37559419  0.87539853  0.37592983  1
  Co  Co104  1  0.49793468  0.50019275  0.25095682  1
  Co  Co105  1  -0.00252249  0.75328133  0.75296261  1
  Co  Co106  1  0.62329745  0.12573323  0.13000598  1
  Co  Co107  1  0.49682267  0.00021553  0.74870764  1
  Co  Co108  1  0.24862882  -0.00220231  0.50091813  1
  Co  Co109  1  0.25058077  0.74992177  0.49900087  1
  Co  Co110  1  0.62255076  0.62342367  0.87143939  1
  Co  Co111  1  0.62471191  0.12387988  0.86952646  1
  Co  Co112  1  0.87553173  0.62326447  0.87589910  1
  Co  Co113  1  0.37239954  0.62512912  0.62427066  1
  Co  Co114  1  0.87694275  0.12530690  0.37963823  1
  Co  Co115  1  0.12470792  0.12865916  0.87515588  1
  Co  Co116  1  0.12878044  0.87368107  0.87634526  1
  Co  Co117  1  0.62668731  0.62476288  0.62666985  1
  Co  Co118  1  0.49988185  0.24973062  0.25510986  1
  Co  Co119  1  0.12532107  0.37564738  0.37121365  1
  Co  Co120  1  0.49711863  -0.00094675  0.24934866  1
  Co  Co121  1  -0.00110889  0.75184057  0.49969583  1
  Co  Co122  1  0.49863152  0.49798613  0.74654124  1
  Co  Co123  1  0.24868169  0.25022076  0.00311609  1
  Co  Co124  1  0.25102842  0.24599580  0.74729328  1
  Co  Co125  1  0.74695772  0.74772506  -0.00178074  1
  Co  Co126  1  0.87547856  0.62315061  0.37849127  1
  Co  Co127  1  0.00117225  -0.00039874  -0.00233280  1
