# generated using pymatgen
data_Fe45Co19
_symmetry_space_group_name_H-M   'P 1'
_cell_length_a   11.41543138
_cell_length_b   11.41502917
_cell_length_c   11.41579239
_cell_angle_alpha   90.00253894
_cell_angle_beta   90.00122275
_cell_angle_gamma   90.00084301
_symmetry_Int_Tables_number   1
_chemical_formula_structural   Fe45Co19
_chemical_formula_sum   'Fe90 Co38'
_cell_volume   1487.56316286
_cell_formula_units_Z   2
loop_
 _symmetry_equiv_pos_site_id
 _symmetry_equiv_pos_as_xyz
  1  'x, y, z'
loop_
 _atom_site_type_symbol
 _atom_site_label
 _atom_site_symmetry_multiplicity
 _atom_site_fract_x
 _atom_site_fract_y
 _atom_site_fract_z
 _atom_site_occupancy
  Fe  Fe0  1  0.24812878  0.49744590  -0.00020810  1
  Fe  Fe1  1  0.25106948  0.00016549  0.49876014  1
  Fe  Fe2  1  0.12499415  0.62383249  0.62558741  1
  Fe  Fe3  1  0.62145537  0.87313402  0.37660472  1
  Fe  Fe4  1  0.24981354  0.75131502  0.75158786  1
  Fe  Fe5  1  0.50078729  0.00175179  0.75183641  1
  Fe  Fe6  1  0.25069408  0.49810370  0.75097670  1
  Fe  Fe7  1  0.49925957  0.24842429  0.00079909  1
  Fe  Fe8  1  0.25281023  -0.00608734  0.24777555  1
  Fe  Fe9  1  0.62535971  0.87722110  0.87726887  1
  Fe  Fe10  1  0.50248105  0.25066839  0.49650220  1
  Fe  Fe11  1  0.87634267  0.37610981  0.87685704  1
  Fe  Fe12  1  0.00186051  0.24764543  0.74947935  1
  Fe  Fe13  1  0.62450613  0.12668013  0.12871518  1
  Fe  Fe14  1  -0.00009288  -0.00103252  0.24911524  1
  Fe  Fe15  1  0.62700629  0.62677257  0.37625248  1
  Fe  Fe16  1  0.12427462  0.87701095  0.62461935  1
  Fe  Fe17  1  -0.00097970  0.74848190  0.75074689  1
  Fe  Fe18  1  0.37619996  0.87477683  0.62527087  1
  Fe  Fe19  1  0.24946960  0.25079664  0.49886797  1
  Fe  Fe20  1  0.37458084  0.37594737  0.12486785  1
  Fe  Fe21  1  0.12366222  0.37661519  0.37241256  1
  Fe  Fe22  1  -0.00150821  0.74983786  0.50031307  1
  Fe  Fe23  1  0.87267850  0.87753672  0.87557254  1
  Fe  Fe24  1  0.12467955  0.62431357  0.87496017  1
  Fe  Fe25  1  0.37834505  0.87517135  0.87881117  1
  Fe  Fe26  1  0.37664063  0.12505340  0.37372287  1
  Fe  Fe27  1  -0.00123246  0.00423905  0.74785990  1
  Fe  Fe28  1  0.12644639  0.62510557  0.12624689  1
  Fe  Fe29  1  0.75025512  0.74997808  0.74902039  1
  Fe  Fe30  1  0.00201626  0.24782425  0.50009166  1
  Fe  Fe31  1  0.12465718  0.37585933  0.62636034  1
  Fe  Fe32  1  0.12434681  0.62630825  0.37377028  1
  Fe  Fe33  1  0.25152143  0.25090956  0.24923571  1
  Fe  Fe34  1  0.87415349  0.62329969  0.37638201  1
  Fe  Fe35  1  0.37335064  0.37102229  0.87579745  1
  Fe  Fe36  1  0.87529266  0.87510636  0.37480770  1
  Fe  Fe37  1  0.12540809  0.12335593  0.37289391  1
  Fe  Fe38  1  -0.00037764  0.25156731  0.24788995  1
  Fe  Fe39  1  0.87437328  0.12684275  0.12625870  1
  Fe  Fe40  1  0.37375981  0.62458372  0.87655529  1
  Fe  Fe41  1  0.25033217  0.50084732  0.25087630  1
  Fe  Fe42  1  0.75004259  0.25195803  0.75091496  1
  Fe  Fe43  1  0.87588600  0.37584252  0.62413151  1
  Fe  Fe44  1  0.25105743  0.00199857  0.00095625  1
  Fe  Fe45  1  0.49986311  0.50305458  0.24819299  1
  Fe  Fe46  1  0.37808030  0.37569688  0.37448545  1
  Fe  Fe47  1  0.62357478  0.37936384  0.62758802  1
  Fe  Fe48  1  0.12334158  0.87686858  0.87593233  1
  Fe  Fe49  1  -0.00033782  0.75003116  0.00023271  1
  Fe  Fe50  1  0.62741375  0.62097465  0.87195879  1
  Fe  Fe51  1  0.49871914  0.00096479  0.49853022  1
  Fe  Fe52  1  0.62386927  0.87268428  0.62384989  1
  Fe  Fe53  1  0.62731290  0.12449848  0.87483364  1
  Fe  Fe54  1  0.50248826  0.50100514  -0.00017261  1
  Fe  Fe55  1  0.74843013  0.75167574  0.24943836  1
  Fe  Fe56  1  0.25159161  0.75053506  0.50076193  1
  Fe  Fe57  1  0.74770787  0.74964674  -0.00015484  1
  Fe  Fe58  1  0.00165907  0.49726592  0.00291975  1
  Fe  Fe59  1  0.12499460  0.87378506  0.37501307  1
  Fe  Fe60  1  0.50007466  0.74836621  0.75131336  1
  Fe  Fe61  1  0.87726448  0.37712289  0.37471548  1
  Fe  Fe62  1  0.75041741  -0.00070411  0.50021596  1
  Fe  Fe63  1  0.37593575  0.12393359  0.12640047  1
  Fe  Fe64  1  0.25084225  0.75218925  0.00293901  1
  Fe  Fe65  1  0.74659193  0.25376675  0.49606525  1
  Fe  Fe66  1  0.62703884  0.12569821  0.62396579  1
  Fe  Fe67  1  0.75157274  0.49753927  0.24977803  1
  Fe  Fe68  1  0.87383584  0.62220487  0.87713427  1
  Fe  Fe69  1  0.87339203  0.12471015  0.37558247  1
  Fe  Fe70  1  0.24957419  0.49978688  0.49871524  1
  Fe  Fe71  1  0.50163047  0.50242269  0.49980211  1
  Fe  Fe72  1  0.37586154  0.37442927  0.62485842  1
  Fe  Fe73  1  0.25104769  0.00240084  0.75142375  1
  Fe  Fe74  1  0.87471614  0.87437908  0.12370459  1
  Fe  Fe75  1  0.74773597  -0.00026405  0.24829126  1
  Fe  Fe76  1  0.87199702  0.62370193  0.12373603  1
  Fe  Fe77  1  0.37452755  0.62902396  0.37324251  1
  Fe  Fe78  1  0.00001017  0.74914270  0.24814998  1
  Fe  Fe79  1  0.62622208  0.37385015  0.12728620  1
  Fe  Fe80  1  0.37459336  0.12722545  0.62576122  1
  Fe  Fe81  1  0.50054899  0.25017136  0.75134825  1
  Fe  Fe82  1  -0.00060524  0.00174580  0.00156247  1
  Fe  Fe83  1  0.61917913  0.87455107  0.12207823  1
  Fe  Fe84  1  0.74961791  0.25100445  0.00073123  1
  Fe  Fe85  1  0.00511594  0.25077148  0.00271182  1
  Fe  Fe86  1  0.87198329  0.62091647  0.62278471  1
  Fe  Fe87  1  0.37617229  0.62437706  0.62666751  1
  Fe  Fe88  1  0.87540156  0.87648855  0.62531957  1
  Fe  Fe89  1  0.87266187  0.12394011  0.87537971  1
  Co  Co90  1  0.74780488  0.49750315  -0.00018755  1
  Co  Co91  1  0.12565043  0.37421176  0.87343886  1
  Co  Co92  1  0.49806048  0.74706456  0.50157589  1
  Co  Co93  1  0.12554202  0.12383605  0.12809371  1
  Co  Co94  1  0.24816534  0.24797174  0.00294258  1
  Co  Co95  1  0.49804819  0.24942506  0.25033171  1
  Co  Co96  1  0.62539136  0.12402347  0.37390326  1
  Co  Co97  1  0.62835441  0.62368859  0.12687683  1
  Co  Co98  1  0.50026638  0.00576945  -0.00216595  1
  Co  Co99  1  0.00177763  0.49995953  0.49992549  1
  Co  Co100  1  0.62130188  0.37662764  0.36980375  1
  Co  Co101  1  0.62635625  0.62370666  0.62635014  1
  Co  Co102  1  -0.00123494  0.00123814  0.50026460  1
  Co  Co103  1  0.49898382  0.74857545  0.24756295  1
  Co  Co104  1  0.12784781  0.37558095  0.12808309  1
  Co  Co105  1  0.75172687  0.75147760  0.50095502  1
  Co  Co106  1  0.50277379  0.74320267  -0.00127259  1
  Co  Co107  1  0.49985370  -0.00098222  0.25197126  1
  Co  Co108  1  0.37686879  0.87190021  0.37550797  1
  Co  Co109  1  0.87080666  0.12785775  0.62261010  1
  Co  Co110  1  0.12566461  0.12474348  0.87564005  1
  Co  Co111  1  0.49725094  0.49964844  0.75283142  1
  Co  Co112  1  0.25191493  0.75336690  0.24584221  1
  Co  Co113  1  0.24816234  0.24983883  0.74865270  1
  Co  Co114  1  0.12274661  0.87532619  0.12326193  1
  Co  Co115  1  0.75108717  0.25095384  0.25323099  1
  Co  Co116  1  0.12708563  0.12429853  0.62348170  1
  Co  Co117  1  0.62361869  0.37422128  0.87565096  1
  Co  Co118  1  0.37347587  0.62402353  0.12358962  1
  Co  Co119  1  0.74927194  0.00136303  0.00407689  1
  Co  Co120  1  0.74928516  -0.00011829  0.74777716  1
  Co  Co121  1  0.38253405  0.87431786  0.12050317  1
  Co  Co122  1  0.87283372  0.37425296  0.12449985  1
  Co  Co123  1  0.37380145  0.12870017  0.87339666  1
  Co  Co124  1  0.75217346  0.49702366  0.75128188  1
  Co  Co125  1  -0.00059985  0.50100392  0.75071206  1
  Co  Co126  1  0.74713583  0.49616363  0.49866243  1
  Co  Co127  1  -0.00126304  0.50095000  0.24713795  1
