# generated using pymatgen
data_Fe45Co19
_symmetry_space_group_name_H-M   'P 1'
_cell_length_a   11.41551497
_cell_length_b   11.41576337
_cell_length_c   11.41538827
_cell_angle_alpha   90.00627526
_cell_angle_beta   90.00270953
_cell_angle_gamma   89.98991475
_symmetry_Int_Tables_number   1
_chemical_formula_structural   Fe45Co19
_chemical_formula_sum   'Fe90 Co38'
_cell_volume   1487.61703823
_cell_formula_units_Z   2
loop_
 _symmetry_equiv_pos_site_id
 _symmetry_equiv_pos_as_xyz
  1  'x, y, z'
loop_
 _atom_site_type_symbol
 _atom_site_label
 _atom_site_symmetry_multiplicity
 _atom_site_fract_x
 _atom_site_fract_y
 _atom_site_fract_z
 _atom_site_occupancy
  Fe  Fe0  1  0.49875034  0.49920930  0.74972345  1
  Fe  Fe1  1  0.12627197  0.87515364  0.87612347  1
  Fe  Fe2  1  0.12284595  0.62614105  0.12347681  1
  Fe  Fe3  1  0.62393197  0.62125064  0.62338969  1
  Fe  Fe4  1  0.74868040  0.25139263  0.25102093  1
  Fe  Fe5  1  0.62501877  0.12596541  0.87275421  1
  Fe  Fe6  1  0.37735486  0.87214054  0.12353206  1
  Fe  Fe7  1  0.50099499  0.50365579  -0.00083794  1
  Fe  Fe8  1  0.74597132  0.74985007  0.50053753  1
  Fe  Fe9  1  -0.00129004  -0.00222389  0.50089074  1
  Fe  Fe10  1  0.12579380  0.87472036  0.62665672  1
  Fe  Fe11  1  0.62655924  0.12372329  0.37617586  1
  Fe  Fe12  1  0.25011731  0.49936924  0.49930820  1
  Fe  Fe13  1  0.75014390  0.49993846  0.00161122  1
  Fe  Fe14  1  0.24950750  0.24837491  0.24837130  1
  Fe  Fe15  1  0.74737818  -0.00003111  -0.00093605  1
  Fe  Fe16  1  0.49741932  -0.00221200  0.25314779  1
  Fe  Fe17  1  0.62452252  0.87592099  0.62737011  1
  Fe  Fe18  1  0.25057117  0.50211579  0.00235739  1
  Fe  Fe19  1  0.62458392  0.37888576  0.12887549  1
  Fe  Fe20  1  0.00050599  0.75227177  0.24979020  1
  Fe  Fe21  1  0.37566001  0.87296408  0.62447333  1
  Fe  Fe22  1  0.12548980  0.62582266  0.87867942  1
  Fe  Fe23  1  0.75166882  -0.00186128  0.50316899  1
  Fe  Fe24  1  0.12097783  0.37963232  0.62654929  1
  Fe  Fe25  1  0.12231561  0.37481447  0.87617807  1
  Fe  Fe26  1  0.12623190  0.12194641  0.62587238  1
  Fe  Fe27  1  0.37533984  0.37158744  0.62285153  1
  Fe  Fe28  1  0.49867579  -0.00174437  0.49880350  1
  Fe  Fe29  1  0.87405149  0.12464373  0.12501465  1
  Fe  Fe30  1  0.37940073  0.62685896  0.12709530  1
  Fe  Fe31  1  0.12657884  0.62447611  0.37573598  1
  Fe  Fe32  1  0.74445028  0.74975877  -0.00149365  1
  Fe  Fe33  1  0.62437645  0.37532540  0.62176476  1
  Fe  Fe34  1  0.87401577  0.62688806  0.12470238  1
  Fe  Fe35  1  0.00152461  0.24674841  0.24804203  1
  Fe  Fe36  1  0.12387635  0.37656576  0.12495230  1
  Fe  Fe37  1  0.25406725  0.00195630  0.00102875  1
  Fe  Fe38  1  0.62437011  0.37582726  0.87414989  1
  Fe  Fe39  1  0.87651658  0.37430813  0.12667418  1
  Fe  Fe40  1  0.50004572  0.25034666  -0.00087725  1
  Fe  Fe41  1  0.87987386  0.37355307  0.87377631  1
  Fe  Fe42  1  0.12832506  0.87856982  0.37293594  1
  Fe  Fe43  1  0.25046887  0.24809974  0.00134073  1
  Fe  Fe44  1  0.74942244  0.25119249  0.00123711  1
  Fe  Fe45  1  0.49658916  0.49739938  0.49552966  1
  Fe  Fe46  1  0.50176602  0.74641807  0.75257817  1
  Fe  Fe47  1  0.49943189  0.00213048  -0.00158387  1
  Fe  Fe48  1  0.87474367  0.62538838  0.87712674  1
  Fe  Fe49  1  0.00234316  0.75069413  0.49994136  1
  Fe  Fe50  1  0.24923944  0.25029783  0.74939507  1
  Fe  Fe51  1  -0.00164396  -0.00063599  0.00118577  1
  Fe  Fe52  1  0.87506569  0.12666039  0.87386609  1
  Fe  Fe53  1  0.75088613  0.25131190  0.74703327  1
  Fe  Fe54  1  0.12568879  0.12431466  0.87410261  1
  Fe  Fe55  1  0.62142297  0.87342833  0.12427463  1
  Fe  Fe56  1  0.37506054  0.62621448  0.62324012  1
  Fe  Fe57  1  0.75203805  0.49863415  0.74934198  1
  Fe  Fe58  1  0.37084498  0.12596487  0.37751258  1
  Fe  Fe59  1  0.87392103  0.87450275  0.12464500  1
  Fe  Fe60  1  0.62249774  0.12561780  0.12680933  1
  Fe  Fe61  1  0.75548320  0.49855320  0.49420743  1
  Fe  Fe62  1  0.37429251  0.37493552  0.87516518  1
  Fe  Fe63  1  0.87318181  0.87447633  0.87324200  1
  Fe  Fe64  1  0.12500794  0.12115394  0.12562260  1
  Fe  Fe65  1  0.37400411  0.12773048  0.62422736  1
  Fe  Fe66  1  0.74674910  0.74998798  0.25062046  1
  Fe  Fe67  1  0.75017533  -0.00135440  0.24996001  1
  Fe  Fe68  1  0.62438072  0.12558706  0.62519383  1
  Fe  Fe69  1  0.37475839  0.37528194  0.12688745  1
  Fe  Fe70  1  0.74807664  0.74881852  0.74902450  1
  Fe  Fe71  1  0.25076231  0.75107232  0.49973868  1
  Fe  Fe72  1  0.12616385  0.87654698  0.12485252  1
  Fe  Fe73  1  0.87756652  0.62376907  0.62192733  1
  Fe  Fe74  1  -0.00239059  0.50265988  0.25189340  1
  Fe  Fe75  1  0.49982965  0.25295029  0.25516357  1
  Fe  Fe76  1  0.87588628  0.12566520  0.37580348  1
  Fe  Fe77  1  0.12607020  0.37600076  0.37280005  1
  Fe  Fe78  1  0.12651849  0.12128361  0.37478622  1
  Fe  Fe79  1  -0.00320291  -0.00029403  0.74776693  1
  Fe  Fe80  1  0.49747517  0.00175007  0.75134533  1
  Fe  Fe81  1  0.24937962  0.74866945  0.75057249  1
  Fe  Fe82  1  0.62216539  0.62300404  0.37222551  1
  Fe  Fe83  1  0.25206167  0.74988419  0.24986311  1
  Fe  Fe84  1  0.00100503  0.74671000  0.74957812  1
  Fe  Fe85  1  0.24947128  0.50148415  0.74969371  1
  Fe  Fe86  1  0.75107334  0.25238188  0.50018740  1
  Fe  Fe87  1  0.37516267  0.87247517  0.87676261  1
  Fe  Fe88  1  0.00148330  0.25124565  0.50260130  1
  Fe  Fe89  1  0.87347827  0.87289046  0.37622579  1
  Co  Co90  1  0.62702432  0.62143766  0.87293518  1
  Co  Co91  1  0.62653658  0.37729554  0.37485335  1
  Co  Co92  1  -0.00128503  0.50043429  0.00078590  1
  Co  Co93  1  0.87818953  0.37857412  0.62498474  1
  Co  Co94  1  0.24507913  0.25080451  0.50247575  1
  Co  Co95  1  0.50015275  0.75340889  0.25484461  1
  Co  Co96  1  0.25438600  -0.00015548  0.24776489  1
  Co  Co97  1  0.75458346  0.50038243  0.25274024  1
  Co  Co98  1  -0.00097809  0.49986651  0.49556245  1
  Co  Co99  1  0.25036460  0.50305839  0.24864820  1
  Co  Co100  1  0.37204115  0.87427593  0.37660893  1
  Co  Co101  1  0.50088112  0.25007730  0.49641596  1
  Co  Co102  1  -0.00299351  -0.00126939  0.25031288  1
  Co  Co103  1  0.50086477  0.25166729  0.74903734  1
  Co  Co104  1  0.00102592  0.24858635  0.74731145  1
  Co  Co105  1  0.87606284  0.63114453  0.37590080  1
  Co  Co106  1  0.50238389  0.75131542  0.49805239  1
  Co  Co107  1  0.50381932  0.74556210  -0.00413537  1
  Co  Co108  1  0.62349013  0.62320592  0.12925789  1
  Co  Co109  1  0.37892543  0.12766977  0.12712783  1
  Co  Co110  1  0.87873665  0.37013835  0.37289475  1
  Co  Co111  1  0.37469909  0.62620775  0.37579569  1
  Co  Co112  1  0.87475953  0.12660629  0.62322393  1
  Co  Co113  1  0.37282047  0.62403711  0.87380082  1
  Co  Co114  1  0.62424723  0.87719144  0.87232963  1
  Co  Co115  1  0.87475728  0.87028531  0.62469653  1
  Co  Co116  1  0.36852136  0.37301634  0.37474059  1
  Co  Co117  1  0.25266821  -0.00124152  0.74967666  1
  Co  Co118  1  0.12606089  0.62402222  0.62180336  1
  Co  Co119  1  0.25082479  -0.00184895  0.50277235  1
  Co  Co120  1  0.00113638  0.50523109  0.75229427  1
  Co  Co121  1  0.00089221  0.24783664  0.00206968  1
  Co  Co122  1  0.25070157  0.74854557  0.00163921  1
  Co  Co123  1  0.75222116  0.00090320  0.74824503  1
  Co  Co124  1  -0.00094612  0.75236424  0.00009001  1
  Co  Co125  1  0.62745497  0.87661459  0.37611409  1
  Co  Co126  1  0.49641052  0.49711613  0.25375903  1
  Co  Co127  1  0.37415754  0.12807780  0.87363700  1
