# generated using pymatgen
data_Fe45Co19
_symmetry_space_group_name_H-M   'P 1'
_cell_length_a   11.41616153
_cell_length_b   11.41413105
_cell_length_c   11.41619352
_cell_angle_alpha   89.99282224
_cell_angle_beta   90.00521948
_cell_angle_gamma   90.01549338
_symmetry_Int_Tables_number   1
_chemical_formula_structural   Fe45Co19
_chemical_formula_sum   'Fe90 Co38'
_cell_volume   1487.59346067
_cell_formula_units_Z   2
loop_
 _symmetry_equiv_pos_site_id
 _symmetry_equiv_pos_as_xyz
  1  'x, y, z'
loop_
 _atom_site_type_symbol
 _atom_site_label
 _atom_site_symmetry_multiplicity
 _atom_site_fract_x
 _atom_site_fract_y
 _atom_site_fract_z
 _atom_site_occupancy
  Fe  Fe0  1  0.75154650  0.25015206  0.00278578  1
  Fe  Fe1  1  0.37661251  0.62270916  0.12541168  1
  Fe  Fe2  1  0.37822676  0.62320445  0.37510787  1
  Fe  Fe3  1  0.75227813  -0.00226797  0.50029481  1
  Fe  Fe4  1  0.12377497  0.87396066  0.62635361  1
  Fe  Fe5  1  0.37587316  0.37918697  0.12623876  1
  Fe  Fe6  1  0.24928639  -0.00073304  -0.00101764  1
  Fe  Fe7  1  0.25108568  0.25224726  0.00085637  1
  Fe  Fe8  1  0.87212160  0.62386851  0.87561869  1
  Fe  Fe9  1  0.87404099  0.37833458  0.12892773  1
  Fe  Fe10  1  0.74846974  0.00304333  0.24695031  1
  Fe  Fe11  1  0.50050674  0.74852367  0.75002709  1
  Fe  Fe12  1  0.49850329  -0.00213406  0.50040341  1
  Fe  Fe13  1  0.87489362  0.62180840  0.12290664  1
  Fe  Fe14  1  0.12550617  0.37595555  0.37268559  1
  Fe  Fe15  1  0.37682974  0.37736276  0.37366744  1
  Fe  Fe16  1  0.87394910  0.62410794  0.62353593  1
  Fe  Fe17  1  0.49833982  0.25201519  -0.00121597  1
  Fe  Fe18  1  0.50171332  0.24970556  0.25083763  1
  Fe  Fe19  1  0.62479060  0.37883909  0.37428099  1
  Fe  Fe20  1  0.24924374  0.74769566  0.24965581  1
  Fe  Fe21  1  0.37757376  0.12163009  0.12758443  1
  Fe  Fe22  1  0.25145507  0.74938036  0.00125102  1
  Fe  Fe23  1  0.87197560  0.37739253  0.87112876  1
  Fe  Fe24  1  0.62538821  0.87200428  0.12401182  1
  Fe  Fe25  1  0.62612361  0.37618492  0.12639065  1
  Fe  Fe26  1  0.62624278  0.62738306  0.61896159  1
  Fe  Fe27  1  -0.00124201  0.25056085  0.50048261  1
  Fe  Fe28  1  0.62705078  0.62593528  0.87722334  1
  Fe  Fe29  1  0.25309442  0.75230305  0.50089776  1
  Fe  Fe30  1  0.00049895  -0.00053188  -0.00125537  1
  Fe  Fe31  1  0.12403913  0.62388086  0.37782053  1
  Fe  Fe32  1  0.87397596  0.12549273  0.87665553  1
  Fe  Fe33  1  0.87462295  0.37605824  0.62768585  1
  Fe  Fe34  1  0.00099383  0.00104814  0.24875741  1
  Fe  Fe35  1  0.37666395  0.12649843  0.62607442  1
  Fe  Fe36  1  0.12465400  0.12558727  0.62448718  1
  Fe  Fe37  1  0.87443830  0.12527276  0.62475141  1
  Fe  Fe38  1  0.74691932  0.00071651  0.75328999  1
  Fe  Fe39  1  0.37248855  0.62051150  0.87551630  1
  Fe  Fe40  1  0.49843891  0.74999891  -0.00117386  1
  Fe  Fe41  1  0.37547797  0.87629299  0.12789957  1
  Fe  Fe42  1  -0.00154067  0.49798405  0.49991114  1
  Fe  Fe43  1  0.12487719  0.87182565  0.87311488  1
  Fe  Fe44  1  0.62500276  0.12524947  0.37614020  1
  Fe  Fe45  1  0.12516118  0.87347667  0.12557491  1
  Fe  Fe46  1  0.37618633  0.62513095  0.62321866  1
  Fe  Fe47  1  0.50214948  -0.00146259  -0.00100161  1
  Fe  Fe48  1  0.37458780  0.87599744  0.37110576  1
  Fe  Fe49  1  0.87385999  0.87445478  0.12555924  1
  Fe  Fe50  1  0.87516233  0.12437587  0.37491111  1
  Fe  Fe51  1  0.75108653  0.74442175  0.25314459  1
  Fe  Fe52  1  -0.00507287  0.75331322  0.49877826  1
  Fe  Fe53  1  0.62397077  0.87344293  0.62445830  1
  Fe  Fe54  1  0.50151492  0.49981647  0.75060664  1
  Fe  Fe55  1  0.24921608  0.25024733  0.75159165  1
  Fe  Fe56  1  0.50348210  0.00292399  0.75106093  1
  Fe  Fe57  1  0.24775935  0.74612456  0.74804730  1
  Fe  Fe58  1  0.25019435  0.25026465  0.24868514  1
  Fe  Fe59  1  0.37494561  0.12583316  0.87386777  1
  Fe  Fe60  1  0.50226926  0.74818719  0.25174346  1
  Fe  Fe61  1  -0.00082112  0.25429627  -0.00057843  1
  Fe  Fe62  1  0.62525937  0.37398014  0.87478215  1
  Fe  Fe63  1  0.74990763  0.25227220  0.49964322  1
  Fe  Fe64  1  0.25111510  0.25002418  0.49895919  1
  Fe  Fe65  1  0.37441522  0.87469871  0.87141203  1
  Fe  Fe66  1  0.87298264  0.37695321  0.37207004  1
  Fe  Fe67  1  0.12444449  0.12434089  0.37591743  1
  Fe  Fe68  1  0.25157229  0.49883674  0.50086552  1
  Fe  Fe69  1  0.62720591  0.87194941  0.37605727  1
  Fe  Fe70  1  0.87633230  0.87621400  0.62852522  1
  Fe  Fe71  1  0.12388093  0.87552017  0.37483663  1
  Fe  Fe72  1  0.00318390  0.50457137  0.75091694  1
  Fe  Fe73  1  0.12840328  0.37967205  0.87581399  1
  Fe  Fe74  1  0.74697873  0.24759834  0.74837920  1
  Fe  Fe75  1  -0.00183957  0.74901271  -0.00234451  1
  Fe  Fe76  1  0.62536803  0.62397244  0.12157130  1
  Fe  Fe77  1  0.12511448  0.37604774  0.62521056  1
  Fe  Fe78  1  -0.00087502  0.24978870  0.24910695  1
  Fe  Fe79  1  0.75100667  0.75130906  0.75094126  1
  Fe  Fe80  1  0.00124932  0.24957916  0.75153771  1
  Fe  Fe81  1  0.37726698  0.37271866  0.62762054  1
  Fe  Fe82  1  0.62270397  0.37306898  0.62416443  1
  Fe  Fe83  1  0.74809646  -0.00105545  -0.00033901  1
  Fe  Fe84  1  0.12346034  0.62041882  0.12277887  1
  Fe  Fe85  1  0.25087560  -0.00127521  0.50198765  1
  Fe  Fe86  1  -0.00218014  0.74706169  0.25154325  1
  Fe  Fe87  1  0.00156419  0.00202964  0.75250609  1
  Fe  Fe88  1  0.37583776  0.12262995  0.37239768  1
  Fe  Fe89  1  0.12432627  0.12723563  0.12313281  1
  Co  Co90  1  0.49997966  0.24971496  0.49731400  1
  Co  Co91  1  0.62535262  0.12458091  0.62048807  1
  Co  Co92  1  0.87574228  0.87518305  0.87497891  1
  Co  Co93  1  0.49915494  0.49820767  0.50315786  1
  Co  Co94  1  0.12396010  0.37660993  0.12655212  1
  Co  Co95  1  0.37604076  0.87529168  0.63052412  1
  Co  Co96  1  0.00013296  0.50135006  0.25143184  1
  Co  Co97  1  0.12778513  0.62434982  0.87871614  1
  Co  Co98  1  0.50279675  0.50212994  0.24892487  1
  Co  Co99  1  0.74922562  0.24799191  0.25005220  1
  Co  Co100  1  0.62598619  0.12816133  0.87913344  1
  Co  Co101  1  0.87466328  0.87775835  0.36990337  1
  Co  Co102  1  0.50156183  0.49923364  -0.00180144  1
  Co  Co103  1  0.62390637  0.87151730  0.87522587  1
  Co  Co104  1  0.12494387  0.12767138  0.87776082  1
  Co  Co105  1  0.24952323  0.50166566  0.25018199  1
  Co  Co106  1  0.75016147  0.49675455  0.50161645  1
  Co  Co107  1  0.74786297  0.50480813  0.25062216  1
  Co  Co108  1  0.62215736  0.12704127  0.12333455  1
  Co  Co109  1  0.75173406  0.75078831  -0.00058430  1
  Co  Co110  1  0.24625752  0.00019542  0.24874693  1
  Co  Co111  1  0.24877652  0.50247975  0.74540214  1
  Co  Co112  1  0.74622661  0.50141380  0.74818995  1
  Co  Co113  1  0.50286872  0.24819253  0.75128538  1
  Co  Co114  1  0.75520886  0.75245469  0.49896342  1
  Co  Co115  1  -0.00256943  0.49760554  -0.00292524  1
  Co  Co116  1  -0.00063444  0.74552807  0.75113210  1
  Co  Co117  1  0.87449236  0.62151500  0.37881502  1
  Co  Co118  1  0.25111296  0.49895668  0.00338036  1
  Co  Co119  1  0.87609560  0.12503050  0.12312650  1
  Co  Co120  1  0.24776692  0.00180789  0.75031468  1
  Co  Co121  1  0.12325669  0.62674484  0.61853575  1
  Co  Co122  1  0.49691330  0.75378154  0.49936013  1
  Co  Co123  1  0.50491264  -0.00222055  0.25049382  1
  Co  Co124  1  -0.00076960  -0.00051149  0.50097565  1
  Co  Co125  1  0.74993877  0.49814346  -0.00033534  1
  Co  Co126  1  0.37361912  0.37749635  0.87211696  1
  Co  Co127  1  0.62374036  0.62431172  0.38220096  1
