# generated using pymatgen
data_Fe45Co19
_symmetry_space_group_name_H-M   'P 1'
_cell_length_a   11.41403069
_cell_length_b   11.41514617
_cell_length_c   11.41658053
_cell_angle_alpha   90.00147360
_cell_angle_beta   89.99845803
_cell_angle_gamma   89.98464711
_symmetry_Int_Tables_number   1
_chemical_formula_structural   Fe45Co19
_chemical_formula_sum   'Fe90 Co38'
_cell_volume   1487.49851752
_cell_formula_units_Z   2
loop_
 _symmetry_equiv_pos_site_id
 _symmetry_equiv_pos_as_xyz
  1  'x, y, z'
loop_
 _atom_site_type_symbol
 _atom_site_label
 _atom_site_symmetry_multiplicity
 _atom_site_fract_x
 _atom_site_fract_y
 _atom_site_fract_z
 _atom_site_occupancy
  Fe  Fe0  1  0.00104305  0.24869150  0.25102374  1
  Fe  Fe1  1  0.62525441  0.37815747  0.62933090  1
  Fe  Fe2  1  0.87316338  0.12970326  0.38173828  1
  Fe  Fe3  1  0.75297844  0.00016390  -0.00306488  1
  Fe  Fe4  1  0.62339838  0.87514635  0.37430184  1
  Fe  Fe5  1  0.37825279  0.62295003  0.37598902  1
  Fe  Fe6  1  0.50138220  0.74827285  -0.00221693  1
  Fe  Fe7  1  0.12549862  0.62047682  0.12664232  1
  Fe  Fe8  1  0.12439918  0.37697074  0.37591373  1
  Fe  Fe9  1  0.49843706  0.25055761  0.75077233  1
  Fe  Fe10  1  0.75026543  0.25000746  0.74946838  1
  Fe  Fe11  1  0.62540335  0.37488799  0.87672747  1
  Fe  Fe12  1  0.24502847  -0.00008184  -0.00290267  1
  Fe  Fe13  1  0.12472342  0.37244870  0.87150366  1
  Fe  Fe14  1  0.75178244  0.00165918  0.25175060  1
  Fe  Fe15  1  0.87690111  0.37161994  0.87408257  1
  Fe  Fe16  1  0.87495183  0.37359942  0.12402503  1
  Fe  Fe17  1  0.62519571  0.62396047  0.37685537  1
  Fe  Fe18  1  0.12514455  0.12365023  0.37744897  1
  Fe  Fe19  1  -0.00064822  0.49947950  0.49958227  1
  Fe  Fe20  1  0.25221671  0.49876520  0.75017267  1
  Fe  Fe21  1  0.87180202  0.62423745  0.62491385  1
  Fe  Fe22  1  0.00436064  0.24438360  0.74144148  1
  Fe  Fe23  1  0.25347824  0.49665654  0.25124770  1
  Fe  Fe24  1  0.87330965  0.37237362  0.37732522  1
  Fe  Fe25  1  0.37265290  0.12533177  0.12452275  1
  Fe  Fe26  1  0.37883630  0.87446357  0.62688215  1
  Fe  Fe27  1  0.24658708  0.25307016  0.50305056  1
  Fe  Fe28  1  0.37302337  0.12476290  0.62484010  1
  Fe  Fe29  1  0.50015401  0.74878458  0.24927107  1
  Fe  Fe30  1  0.87397959  0.62842255  0.87622190  1
  Fe  Fe31  1  0.49896002  0.00179364  0.75147495  1
  Fe  Fe32  1  0.24687010  0.75069769  0.00131184  1
  Fe  Fe33  1  0.12360832  0.62765678  0.87344859  1
  Fe  Fe34  1  0.24605061  0.00069645  0.75298539  1
  Fe  Fe35  1  0.74990711  0.75089153  0.24818315  1
  Fe  Fe36  1  0.37633913  0.62276104  0.12470739  1
  Fe  Fe37  1  0.00198639  0.24862560  0.00261534  1
  Fe  Fe38  1  0.87305651  0.62579943  0.37660856  1
  Fe  Fe39  1  0.62512599  0.12689443  0.87605406  1
  Fe  Fe40  1  -0.00265149  0.50164217  0.75074882  1
  Fe  Fe41  1  0.62297103  0.87710972  0.87460759  1
  Fe  Fe42  1  0.74796955  0.49766139  0.50235448  1
  Fe  Fe43  1  0.37428315  0.12835041  0.37658337  1
  Fe  Fe44  1  0.12466717  0.62283687  0.62460244  1
  Fe  Fe45  1  -0.00138586  0.75156453  0.50323954  1
  Fe  Fe46  1  -0.00095661  0.50068709  -0.00167428  1
  Fe  Fe47  1  0.24970166  0.75076144  0.24901872  1
  Fe  Fe48  1  0.50038613  0.24944883  0.24673600  1
  Fe  Fe49  1  0.62503563  0.37248518  0.12054951  1
  Fe  Fe50  1  0.37729918  0.87400970  0.37391320  1
  Fe  Fe51  1  0.74771799  0.75214436  0.74927351  1
  Fe  Fe52  1  0.62779616  0.62038872  0.87159092  1
  Fe  Fe53  1  0.62547230  0.37366259  0.37346089  1
  Fe  Fe54  1  0.87688141  0.12731815  0.87211604  1
  Fe  Fe55  1  0.87385007  0.88233826  0.62880399  1
  Fe  Fe56  1  0.12406450  0.62514362  0.37527263  1
  Fe  Fe57  1  0.24926937  0.25310065  0.00316519  1
  Fe  Fe58  1  0.25079907  0.74969146  0.74930231  1
  Fe  Fe59  1  0.37467932  0.37610387  0.62420446  1
  Fe  Fe60  1  0.37590011  0.87551974  0.12346355  1
  Fe  Fe61  1  0.12223192  0.87437184  0.37482074  1
  Fe  Fe62  1  0.24897041  0.25248746  0.24798721  1
  Fe  Fe63  1  0.24976248  0.49679654  -0.00078149  1
  Fe  Fe64  1  0.49984227  0.00336864  0.24882938  1
  Fe  Fe65  1  0.38101288  0.62442319  0.62384736  1
  Fe  Fe66  1  -0.00345372  0.49999717  0.25053650  1
  Fe  Fe67  1  0.12377716  0.87654273  0.62684003  1
  Fe  Fe68  1  0.62964960  0.12087960  0.62687231  1
  Fe  Fe69  1  0.25143576  0.74919017  0.50028988  1
  Fe  Fe70  1  0.24966216  0.00004547  0.25107062  1
  Fe  Fe71  1  0.62609245  0.87738929  0.12410959  1
  Fe  Fe72  1  0.12007278  0.87998922  0.12521649  1
  Fe  Fe73  1  0.50100381  0.00064828  0.49991607  1
  Fe  Fe74  1  0.25177787  -0.00306857  0.49889943  1
  Fe  Fe75  1  0.37441523  0.87441591  0.87533182  1
  Fe  Fe76  1  0.88169242  0.87187058  0.87556274  1
  Fe  Fe77  1  0.87614806  0.37279863  0.62412016  1
  Fe  Fe78  1  0.75013129  0.49829417  0.24819053  1
  Fe  Fe79  1  0.37105373  0.12893535  0.87418395  1
  Fe  Fe80  1  0.87193137  0.62651998  0.12214211  1
  Fe  Fe81  1  0.74679597  0.75306470  0.50377385  1
  Fe  Fe82  1  -0.00099278  0.74931441  0.24672887  1
  Fe  Fe83  1  0.87483361  0.12352139  0.12483371  1
  Fe  Fe84  1  0.49895828  0.00381607  0.00021876  1
  Fe  Fe85  1  0.62661353  0.12733292  0.37515551  1
  Fe  Fe86  1  0.37509275  0.62452793  0.87532697  1
  Fe  Fe87  1  0.50303994  0.25055471  0.50286889  1
  Fe  Fe88  1  0.87593353  0.87361458  0.37418265  1
  Fe  Fe89  1  0.62600477  0.62352542  0.12284318  1
  Co  Co90  1  0.37366335  0.37219945  0.87560513  1
  Co  Co91  1  0.37622317  0.37168396  0.37669964  1
  Co  Co92  1  0.12092372  0.86966429  0.87336989  1
  Co  Co93  1  -0.00189065  -0.00007374  0.49989466  1
  Co  Co94  1  0.00107451  0.00335886  -0.00559564  1
  Co  Co95  1  0.86979929  0.12213923  0.62307044  1
  Co  Co96  1  0.00277415  0.74734989  0.00499602  1
  Co  Co97  1  0.00377618  0.00512057  0.75234300  1
  Co  Co98  1  -0.00348601  0.00373163  0.25398399  1
  Co  Co99  1  0.74861920  -0.00207003  0.49605555  1
  Co  Co100  1  0.12807554  0.11889884  0.62068970  1
  Co  Co101  1  0.49851382  0.24707686  -0.00053432  1
  Co  Co102  1  0.24890685  0.25099871  0.74487728  1
  Co  Co103  1  0.74724607  0.75230850  -0.00254400  1
  Co  Co104  1  0.62325622  0.87811514  0.62751885  1
  Co  Co105  1  0.75452246  0.49752893  0.75047319  1
  Co  Co106  1  0.49723107  0.49739759  0.75223191  1
  Co  Co107  1  0.75222102  0.24870295  -0.00157537  1
  Co  Co108  1  0.00388993  0.25014869  0.50337515  1
  Co  Co109  1  0.62849479  0.12404683  0.12284509  1
  Co  Co110  1  0.87523902  0.87689705  0.12310440  1
  Co  Co111  1  0.50186953  0.49781217  0.24982934  1
  Co  Co112  1  0.62347935  0.62372996  0.62759225  1
  Co  Co113  1  0.50200246  0.75137361  0.49967341  1
  Co  Co114  1  0.50243943  0.49660630  0.49976369  1
  Co  Co115  1  0.12754887  0.13194354  0.87562259  1
  Co  Co116  1  0.37845114  0.37566795  0.12382875  1
  Co  Co117  1  0.12463840  0.12322122  0.12571769  1
  Co  Co118  1  0.75082812  0.24969288  0.24788693  1
  Co  Co119  1  0.74611254  0.25274740  0.50400524  1
  Co  Co120  1  0.12408094  0.38127448  0.62701293  1
  Co  Co121  1  0.12188140  0.37718911  0.12591889  1
  Co  Co122  1  0.75096720  -0.00002523  0.75652159  1
  Co  Co123  1  0.25144043  0.50081849  0.49935031  1
  Co  Co124  1  -0.00128310  0.74798577  0.74512195  1
  Co  Co125  1  0.75303099  0.49749348  -0.00125894  1
  Co  Co126  1  0.49985125  0.50082313  -0.00243590  1
  Co  Co127  1  0.50148766  0.74989482  0.75346336  1
