# generated using pymatgen
data_Fe45Co19
_symmetry_space_group_name_H-M   'P 1'
_cell_length_a   11.41428817
_cell_length_b   11.41543945
_cell_length_c   11.41581293
_cell_angle_alpha   90.00934598
_cell_angle_beta   90.00107948
_cell_angle_gamma   90.00986910
_symmetry_Int_Tables_number   1
_chemical_formula_structural   Fe45Co19
_chemical_formula_sum   'Fe90 Co38'
_cell_volume   1487.47028483
_cell_formula_units_Z   2
loop_
 _symmetry_equiv_pos_site_id
 _symmetry_equiv_pos_as_xyz
  1  'x, y, z'
loop_
 _atom_site_type_symbol
 _atom_site_label
 _atom_site_symmetry_multiplicity
 _atom_site_fract_x
 _atom_site_fract_y
 _atom_site_fract_z
 _atom_site_occupancy
  Fe  Fe0  1  0.87673400  0.87393226  0.87468639  1
  Fe  Fe1  1  0.50180245  0.50044085  0.00050248  1
  Fe  Fe2  1  0.87543834  0.12558004  0.37421772  1
  Fe  Fe3  1  0.24709187  0.74856791  0.50195901  1
  Fe  Fe4  1  0.24810503  0.75101369  -0.00298052  1
  Fe  Fe5  1  0.12623368  0.12301863  0.62649213  1
  Fe  Fe6  1  0.37884517  0.87637537  0.87480916  1
  Fe  Fe7  1  0.62624511  0.37612358  0.62611393  1
  Fe  Fe8  1  0.00061450  0.25102796  0.24937300  1
  Fe  Fe9  1  0.50408621  0.74878950  0.75131621  1
  Fe  Fe10  1  0.50080523  0.75076009  0.25138193  1
  Fe  Fe11  1  0.37544687  0.12622458  0.37821679  1
  Fe  Fe12  1  0.12395078  0.87644340  0.62705648  1
  Fe  Fe13  1  0.37566685  0.62484294  0.37507051  1
  Fe  Fe14  1  0.12407984  0.37599340  0.62557804  1
  Fe  Fe15  1  0.87378251  0.87046009  0.62133930  1
  Fe  Fe16  1  0.75268330  0.25317010  0.75074297  1
  Fe  Fe17  1  0.75230794  0.00135276  0.24938560  1
  Fe  Fe18  1  0.00080329  0.74824049  0.25153032  1
  Fe  Fe19  1  0.49870101  0.25200075  0.25110057  1
  Fe  Fe20  1  0.50158341  0.25031537  -0.00058314  1
  Fe  Fe21  1  0.12541744  0.87555615  0.12649494  1
  Fe  Fe22  1  -0.00006695  0.74775172  0.00170772  1
  Fe  Fe23  1  0.49986072  0.25093238  0.74947412  1
  Fe  Fe24  1  0.62191723  0.12277777  0.37634523  1
  Fe  Fe25  1  0.12506204  0.62305755  0.37402857  1
  Fe  Fe26  1  0.12230422  0.62411076  0.87405018  1
  Fe  Fe27  1  0.87404384  0.87284151  0.12733218  1
  Fe  Fe28  1  0.24969126  0.25039641  0.75065291  1
  Fe  Fe29  1  0.62404848  0.12561981  0.12625743  1
  Fe  Fe30  1  0.37610946  0.62393093  0.87451240  1
  Fe  Fe31  1  0.87434894  0.12543258  0.87497411  1
  Fe  Fe32  1  0.25133391  0.75118538  0.24975404  1
  Fe  Fe33  1  0.00049964  0.24752514  0.00149847  1
  Fe  Fe34  1  0.74990619  0.25134596  0.24941887  1
  Fe  Fe35  1  0.25246551  0.25347547  0.50059801  1
  Fe  Fe36  1  0.49449665  -0.00313769  0.24983562  1
  Fe  Fe37  1  -0.00218461  0.50409855  0.50392114  1
  Fe  Fe38  1  0.25012932  -0.00215895  -0.00122579  1
  Fe  Fe39  1  0.87679205  0.37598084  0.37709742  1
  Fe  Fe40  1  0.74651078  0.74835583  0.25545305  1
  Fe  Fe41  1  0.74754586  0.25072502  0.49756848  1
  Fe  Fe42  1  0.75038301  0.74868817  -0.00129301  1
  Fe  Fe43  1  0.37632920  0.37678442  0.87378011  1
  Fe  Fe44  1  0.24818239  0.49979702  0.00104570  1
  Fe  Fe45  1  0.75072168  0.00211301  0.00176793  1
  Fe  Fe46  1  0.25050002  0.50011605  0.75008906  1
  Fe  Fe47  1  0.62820188  0.37692191  0.87611754  1
  Fe  Fe48  1  0.87513849  0.87402828  0.37614313  1
  Fe  Fe49  1  0.62389487  0.37752383  0.37414867  1
  Fe  Fe50  1  -0.00169356  -0.00054111  0.00197474  1
  Fe  Fe51  1  0.12636483  0.87698709  0.37494699  1
  Fe  Fe52  1  0.37394287  0.12568175  0.12412168  1
  Fe  Fe53  1  0.37397605  0.37349717  0.12460204  1
  Fe  Fe54  1  -0.00861312  0.50111263  0.74608233  1
  Fe  Fe55  1  0.62536636  0.12385386  0.87423553  1
  Fe  Fe56  1  0.25514662  -0.00186545  0.50414243  1
  Fe  Fe57  1  0.62861227  0.62335390  0.12641178  1
  Fe  Fe58  1  -0.00075221  -0.00015986  0.49969045  1
  Fe  Fe59  1  0.50016210  0.49972329  0.24722160  1
  Fe  Fe60  1  0.37358476  0.62654302  0.12370241  1
  Fe  Fe61  1  0.24845362  0.75132541  0.75209154  1
  Fe  Fe62  1  0.75035879  -0.00024423  0.49893375  1
  Fe  Fe63  1  0.12418609  0.37680445  0.37411366  1
  Fe  Fe64  1  0.24816263  0.49838586  0.24740702  1
  Fe  Fe65  1  0.62372212  0.87858355  0.87679515  1
  Fe  Fe66  1  -0.00273013  0.50488976  0.00441606  1
  Fe  Fe67  1  0.75120694  -0.00160111  0.74903049  1
  Fe  Fe68  1  0.62191936  0.12523182  0.62225391  1
  Fe  Fe69  1  0.12047321  0.37730636  0.87553932  1
  Fe  Fe70  1  0.37559777  0.62650233  0.62646111  1
  Fe  Fe71  1  0.50479342  0.75038956  0.49719806  1
  Fe  Fe72  1  0.63032312  0.62142280  0.87166980  1
  Fe  Fe73  1  0.12544646  0.12339917  0.12862711  1
  Fe  Fe74  1  0.62485158  0.87596598  0.62330633  1
  Fe  Fe75  1  -0.00099324  0.24995447  0.74968845  1
  Fe  Fe76  1  0.12730086  0.12275352  0.37301112  1
  Fe  Fe77  1  0.87399682  0.12679567  0.62380721  1
  Fe  Fe78  1  0.37618887  0.12269247  0.87261868  1
  Fe  Fe79  1  0.00292776  0.24782542  0.49938011  1
  Fe  Fe80  1  0.25130025  0.49962524  0.50157364  1
  Fe  Fe81  1  0.87183517  0.37624375  0.12302937  1
  Fe  Fe82  1  0.12354746  0.12001437  0.87189017  1
  Fe  Fe83  1  0.50245795  0.74806084  -0.00031825  1
  Fe  Fe84  1  0.63206395  0.62337432  0.62601664  1
  Fe  Fe85  1  0.62463554  0.87564290  0.12537744  1
  Fe  Fe86  1  -0.00050375  0.74839204  0.74730083  1
  Fe  Fe87  1  0.87366472  0.62472254  0.37759123  1
  Fe  Fe88  1  0.49877393  0.49837480  0.50268990  1
  Fe  Fe89  1  0.24794986  0.25044335  -0.00145328  1
  Co  Co90  1  0.87412816  0.62776274  0.87239564  1
  Co  Co91  1  -0.00465720  0.00008292  0.74693810  1
  Co  Co92  1  0.49975102  -0.00008278  0.74695892  1
  Co  Co93  1  0.86746764  0.63229787  0.62189431  1
  Co  Co94  1  0.87607008  0.12583754  0.12629946  1
  Co  Co95  1  0.75055000  0.49927461  0.25238472  1
  Co  Co96  1  0.87643575  0.36980058  0.61981331  1
  Co  Co97  1  0.49922728  0.25567260  0.49921979  1
  Co  Co98  1  0.74334215  0.75174489  0.49343018  1
  Co  Co99  1  0.74845409  0.24693855  0.00112580  1
  Co  Co100  1  -0.00111123  -0.00084727  0.25134089  1
  Co  Co101  1  0.37553261  0.87230435  0.12102614  1
  Co  Co102  1  0.50143308  0.50155096  0.74939273  1
  Co  Co103  1  0.62417264  0.88160431  0.37244098  1
  Co  Co104  1  0.37771863  0.12888668  0.62385226  1
  Co  Co105  1  0.62291453  0.61889976  0.37573437  1
  Co  Co106  1  0.37467953  0.37542322  0.62841103  1
  Co  Co107  1  0.12609248  0.62307445  0.62797619  1
  Co  Co108  1  0.12731243  0.62783328  0.12591751  1
  Co  Co109  1  0.12083631  0.87667200  0.87297294  1
  Co  Co110  1  0.37388158  0.87045715  0.37822409  1
  Co  Co111  1  0.50054643  0.00188931  0.00152956  1
  Co  Co112  1  0.24971490  0.25087743  0.25079217  1
  Co  Co113  1  0.37775041  0.86832598  0.62634670  1
  Co  Co114  1  0.00423888  0.74810705  0.49975778  1
  Co  Co115  1  0.75802218  0.49579048  0.74880423  1
  Co  Co116  1  0.37460309  0.37820517  0.37266004  1
  Co  Co117  1  0.49680156  -0.00330862  0.50073529  1
  Co  Co118  1  0.75149291  0.50330353  -0.00152539  1
  Co  Co119  1  0.62709638  0.37538960  0.12398518  1
  Co  Co120  1  -0.00050341  0.50110002  0.24764014  1
  Co  Co121  1  0.12378334  0.37401892  0.12397051  1
  Co  Co122  1  0.87042120  0.62688534  0.12908509  1
  Co  Co123  1  0.74793325  0.75441950  0.75263379  1
  Co  Co124  1  0.87696960  0.37358822  0.88109512  1
  Co  Co125  1  0.75140578  0.49781956  0.50072367  1
  Co  Co126  1  0.25490070  -0.00137055  0.24978197  1
  Co  Co127  1  0.25399222  -0.00214256  0.74819909  1
