# generated using pymatgen
data_Fe45Co19
_symmetry_space_group_name_H-M   'P 1'
_cell_length_a   11.41606014
_cell_length_b   11.41549912
_cell_length_c   11.41497488
_cell_angle_alpha   89.99530230
_cell_angle_beta   90.00089587
_cell_angle_gamma   89.98971343
_symmetry_Int_Tables_number   1
_chemical_formula_structural   Fe45Co19
_chemical_formula_sum   'Fe90 Co38'
_cell_volume   1487.59977782
_cell_formula_units_Z   2
loop_
 _symmetry_equiv_pos_site_id
 _symmetry_equiv_pos_as_xyz
  1  'x, y, z'
loop_
 _atom_site_type_symbol
 _atom_site_label
 _atom_site_symmetry_multiplicity
 _atom_site_fract_x
 _atom_site_fract_y
 _atom_site_fract_z
 _atom_site_occupancy
  Fe  Fe0  1  0.50415994  0.25347925  0.25492772  1
  Fe  Fe1  1  0.37422482  0.37604746  0.12759778  1
  Fe  Fe2  1  0.12608586  0.62445861  0.87988555  1
  Fe  Fe3  1  -0.00024013  0.75293687  0.24787725  1
  Fe  Fe4  1  0.37771695  0.12610351  0.12738325  1
  Fe  Fe5  1  0.24937736  0.00181551  0.74793375  1
  Fe  Fe6  1  0.37939842  0.12578665  0.37918870  1
  Fe  Fe7  1  0.49707848  0.75276164  0.00007764  1
  Fe  Fe8  1  0.00359112  0.49755563  0.75077670  1
  Fe  Fe9  1  0.37771426  0.12526162  0.62028538  1
  Fe  Fe10  1  0.62726830  0.87439261  0.12646167  1
  Fe  Fe11  1  0.75081075  0.50159565  0.24938316  1
  Fe  Fe12  1  0.49902266  0.74929072  0.50211148  1
  Fe  Fe13  1  0.37369357  0.62486167  0.37325000  1
  Fe  Fe14  1  0.25094666  0.00098184  0.25213825  1
  Fe  Fe15  1  -0.00043033  0.25168430  0.24955726  1
  Fe  Fe16  1  0.75203205  0.00097499  0.25440088  1
  Fe  Fe17  1  0.24895078  0.74774423  0.50078481  1
  Fe  Fe18  1  0.62547362  0.87329753  0.62667282  1
  Fe  Fe19  1  0.12303535  0.37727170  0.12035060  1
  Fe  Fe20  1  0.75119982  0.74606709  0.50397780  1
  Fe  Fe21  1  0.50154349  0.49971983  0.25190280  1
  Fe  Fe22  1  0.62475437  0.62321963  0.37795795  1
  Fe  Fe23  1  0.87623929  0.87374982  0.62619035  1
  Fe  Fe24  1  0.49827193  0.50010389  0.74857115  1
  Fe  Fe25  1  0.49900702  0.49854560  -0.00110129  1
  Fe  Fe26  1  0.87437704  0.12704934  0.12686477  1
  Fe  Fe27  1  0.24899327  0.74722153  0.74825681  1
  Fe  Fe28  1  0.75067777  0.25170039  0.00050141  1
  Fe  Fe29  1  0.87289614  0.37179402  0.37524644  1
  Fe  Fe30  1  0.12604588  0.12617758  0.62102485  1
  Fe  Fe31  1  0.25270304  -0.00006307  0.00239208  1
  Fe  Fe32  1  0.00022998  0.49932533  0.25217481  1
  Fe  Fe33  1  0.62502444  0.12477147  0.12642145  1
  Fe  Fe34  1  0.62796728  0.87261096  0.37579076  1
  Fe  Fe35  1  0.25246117  0.74950634  0.00518579  1
  Fe  Fe36  1  0.87703944  0.62774832  0.37418832  1
  Fe  Fe37  1  0.49986638  0.25169064  -0.00035098  1
  Fe  Fe38  1  0.12483242  0.61875323  0.62144830  1
  Fe  Fe39  1  0.12530575  0.87415971  0.37568550  1
  Fe  Fe40  1  0.37343287  0.87454303  0.37638396  1
  Fe  Fe41  1  0.62595962  0.37661671  0.62345996  1
  Fe  Fe42  1  0.87729559  0.37411011  0.62297775  1
  Fe  Fe43  1  0.00462153  0.25167655  0.74797900  1
  Fe  Fe44  1  0.75114123  0.49909053  -0.00098964  1
  Fe  Fe45  1  0.87632135  0.12612493  0.87318029  1
  Fe  Fe46  1  0.87515468  0.62649068  0.87153930  1
  Fe  Fe47  1  0.24831105  0.24911867  0.25067878  1
  Fe  Fe48  1  0.87570336  0.37359165  0.87495802  1
  Fe  Fe49  1  0.62379642  0.62545871  0.87152238  1
  Fe  Fe50  1  0.00180511  0.00019522  0.74873892  1
  Fe  Fe51  1  0.49906975  -0.00191080  0.74961812  1
  Fe  Fe52  1  0.75135569  -0.00094186  -0.00233384  1
  Fe  Fe53  1  0.49872926  -0.00224748  -0.00107279  1
  Fe  Fe54  1  0.49950901  0.25191888  0.74753454  1
  Fe  Fe55  1  0.24722314  0.50272305  0.24902476  1
  Fe  Fe56  1  0.74878623  0.00229289  0.49911998  1
  Fe  Fe57  1  0.12703243  0.87564073  0.87560995  1
  Fe  Fe58  1  0.12629155  0.37583584  0.38005432  1
  Fe  Fe59  1  0.75180899  0.75065774  -0.00122324  1
  Fe  Fe60  1  0.75432137  0.50369188  0.50217508  1
  Fe  Fe61  1  0.62399344  0.12737547  0.87286731  1
  Fe  Fe62  1  -0.00317641  -0.00333876  0.25144975  1
  Fe  Fe63  1  0.12857304  0.37335337  0.87871074  1
  Fe  Fe64  1  -0.00135391  0.75261871  0.00160571  1
  Fe  Fe65  1  -0.00049777  -0.00078563  0.49957191  1
  Fe  Fe66  1  0.12603639  0.12644338  0.87747248  1
  Fe  Fe67  1  0.37107499  0.37375414  0.87400377  1
  Fe  Fe68  1  0.75043040  0.50138348  0.74856836  1
  Fe  Fe69  1  0.00276357  0.75028612  0.74913307  1
  Fe  Fe70  1  0.50094309  0.74968488  0.25038063  1
  Fe  Fe71  1  0.62504719  0.87278447  0.87242630  1
  Fe  Fe72  1  0.37503869  0.62573176  0.87417029  1
  Fe  Fe73  1  0.87495870  0.12663482  0.62402666  1
  Fe  Fe74  1  0.62688940  0.37559604  0.12587656  1
  Fe  Fe75  1  0.00056294  0.74883508  0.50122531  1
  Fe  Fe76  1  0.37235120  0.87495894  0.62526056  1
  Fe  Fe77  1  0.74532721  0.24631065  0.49714526  1
  Fe  Fe78  1  0.50039202  -0.00335732  0.25210308  1
  Fe  Fe79  1  0.49536513  0.49764488  0.49926546  1
  Fe  Fe80  1  0.74861309  0.25058242  0.74946823  1
  Fe  Fe81  1  0.37426213  0.12633412  0.87444129  1
  Fe  Fe82  1  0.24874179  0.74822090  0.24603149  1
  Fe  Fe83  1  -0.00214814  -0.00160989  0.00060663  1
  Fe  Fe84  1  0.87735352  0.62413481  0.12499937  1
  Fe  Fe85  1  0.36710782  0.37573330  0.62460837  1
  Fe  Fe86  1  0.75036048  -0.00041381  0.75002187  1
  Fe  Fe87  1  0.12248592  0.12513414  0.37652800  1
  Fe  Fe88  1  0.12393997  0.12430366  0.12470254  1
  Fe  Fe89  1  0.62391231  0.62578428  0.12379178  1
  Co  Co90  1  0.37130359  0.37516233  0.37168405  1
  Co  Co91  1  0.50077053  0.25642894  0.49905370  1
  Co  Co92  1  0.12083637  0.62311461  0.12335092  1
  Co  Co93  1  0.24881369  0.00057558  0.49843501  1
  Co  Co94  1  0.87155826  0.87535276  0.12601987  1
  Co  Co95  1  0.25278579  0.50132619  0.00176074  1
  Co  Co96  1  0.37823672  0.62290628  0.12690107  1
  Co  Co97  1  0.61966287  0.12347249  0.37545273  1
  Co  Co98  1  0.62209588  0.12576334  0.62618534  1
  Co  Co99  1  0.12640338  0.87722298  0.12552075  1
  Co  Co100  1  0.87721590  0.87415249  0.87117802  1
  Co  Co101  1  0.12593218  0.87508231  0.62437061  1
  Co  Co102  1  0.88017309  0.62434525  0.62901982  1
  Co  Co103  1  0.00203258  0.25103479  0.50131781  1
  Co  Co104  1  0.62959915  0.38027972  0.37736587  1
  Co  Co105  1  0.37082531  0.87424293  0.87228521  1
  Co  Co106  1  0.62154814  0.62229999  0.62528010  1
  Co  Co107  1  -0.00285126  0.50023715  0.49744426  1
  Co  Co108  1  0.25071043  0.24844232  0.49829249  1
  Co  Co109  1  -0.00137302  0.24927437  0.00009216  1
  Co  Co110  1  0.12391909  0.62733187  0.37483544  1
  Co  Co111  1  0.37499421  0.87612775  0.12775652  1
  Co  Co112  1  0.25196049  0.50246500  0.49581904  1
  Co  Co113  1  0.87808151  0.12778087  0.37603030  1
  Co  Co114  1  0.87419053  0.87193011  0.37843422  1
  Co  Co115  1  0.24757275  0.24762462  0.74766392  1
  Co  Co116  1  0.74988990  0.74862597  0.74729284  1
  Co  Co117  1  0.49799423  0.75022146  0.74803968  1
  Co  Co118  1  0.74962840  0.74673932  0.25054824  1
  Co  Co119  1  0.12811783  0.37934269  0.62048963  1
  Co  Co120  1  0.50254446  -0.00487928  0.50096815  1
  Co  Co121  1  0.37388045  0.62352696  0.62494385  1
  Co  Co122  1  0.74778692  0.24894650  0.25202937  1
  Co  Co123  1  0.87583241  0.37566491  0.12600176  1
  Co  Co124  1  0.24728191  0.50219942  0.75271662  1
  Co  Co125  1  0.25189038  0.24918437  0.00319330  1
  Co  Co126  1  -0.00271118  0.50001155  -0.00348612  1
  Co  Co127  1  0.62450127  0.37548938  0.87294057  1
