# generated using pymatgen
data_Fe45Co19
_symmetry_space_group_name_H-M   'P 1'
_cell_length_a   11.41560727
_cell_length_b   11.41459635
_cell_length_c   11.41574838
_cell_angle_alpha   90.00864190
_cell_angle_beta   90.00364506
_cell_angle_gamma   89.99329131
_symmetry_Int_Tables_number   1
_chemical_formula_structural   Fe45Co19
_chemical_formula_sum   'Fe90 Co38'
_cell_volume   1487.52391351
_cell_formula_units_Z   2
loop_
 _symmetry_equiv_pos_site_id
 _symmetry_equiv_pos_as_xyz
  1  'x, y, z'
loop_
 _atom_site_type_symbol
 _atom_site_label
 _atom_site_symmetry_multiplicity
 _atom_site_fract_x
 _atom_site_fract_y
 _atom_site_fract_z
 _atom_site_occupancy
  Fe  Fe0  1  0.24974972  0.25040285  0.24714317  1
  Fe  Fe1  1  0.62240496  0.88068402  0.62868854  1
  Fe  Fe2  1  0.87467989  0.37200501  0.87320840  1
  Fe  Fe3  1  0.12390527  0.87441403  0.87716384  1
  Fe  Fe4  1  0.75190306  -0.00079999  -0.00497739  1
  Fe  Fe5  1  0.74873245  0.00380911  0.50143639  1
  Fe  Fe6  1  0.25082383  -0.00072505  0.25007210  1
  Fe  Fe7  1  0.50238149  0.75119532  0.24838088  1
  Fe  Fe8  1  0.12347831  0.87597087  0.12408783  1
  Fe  Fe9  1  0.75073618  0.49891091  -0.00256054  1
  Fe  Fe10  1  0.24883004  0.25040074  0.50243030  1
  Fe  Fe11  1  0.12526687  0.62694218  0.37550423  1
  Fe  Fe12  1  0.12376903  0.37607673  0.37607292  1
  Fe  Fe13  1  0.25115719  0.74914949  -0.00054358  1
  Fe  Fe14  1  0.62515569  0.12259638  0.87057577  1
  Fe  Fe15  1  0.25420734  0.50371340  0.49840956  1
  Fe  Fe16  1  -0.00245814  0.50173118  0.50036102  1
  Fe  Fe17  1  0.50206048  0.25071856  -0.00231153  1
  Fe  Fe18  1  0.12835062  0.12438689  0.37564004  1
  Fe  Fe19  1  0.74992272  0.25086536  0.24995892  1
  Fe  Fe20  1  0.62283526  0.37491444  0.62317533  1
  Fe  Fe21  1  0.25104366  0.50105625  0.75332453  1
  Fe  Fe22  1  0.75042235  0.50019809  0.75102610  1
  Fe  Fe23  1  0.62217024  0.37019658  0.37886297  1
  Fe  Fe24  1  0.49848543  0.00451874  0.49896950  1
  Fe  Fe25  1  0.87513824  0.62849848  0.87521924  1
  Fe  Fe26  1  0.12536087  0.62469621  0.12469752  1
  Fe  Fe27  1  -0.00209030  -0.00023302  0.25247680  1
  Fe  Fe28  1  0.12567363  0.12563046  0.87434232  1
  Fe  Fe29  1  0.37647174  0.87568780  0.12429539  1
  Fe  Fe30  1  0.12753986  0.37453806  0.87835700  1
  Fe  Fe31  1  0.74943153  0.75195434  0.74792744  1
  Fe  Fe32  1  0.50014470  0.49746271  0.25160047  1
  Fe  Fe33  1  0.25160396  0.00006302  -0.00083737  1
  Fe  Fe34  1  0.49933258  0.49981321  0.75242212  1
  Fe  Fe35  1  0.12374390  0.12300658  0.12527687  1
  Fe  Fe36  1  0.00402648  0.24936721  0.74589156  1
  Fe  Fe37  1  0.62297686  0.62752639  0.87514303  1
  Fe  Fe38  1  0.74925407  0.24856533  -0.00059276  1
  Fe  Fe39  1  0.37676682  0.12495508  0.12433852  1
  Fe  Fe40  1  0.12409009  0.87779228  0.62397917  1
  Fe  Fe41  1  -0.00089519  0.50005477  0.00128713  1
  Fe  Fe42  1  -0.00368422  0.00125718  -0.00296122  1
  Fe  Fe43  1  0.25022365  0.49873887  0.24959991  1
  Fe  Fe44  1  0.12708718  0.62471870  0.62386263  1
  Fe  Fe45  1  0.49815957  0.74656295  0.50235661  1
  Fe  Fe46  1  0.37638472  0.87316027  0.37519517  1
  Fe  Fe47  1  0.62429769  0.62263777  0.12416789  1
  Fe  Fe48  1  0.00096690  0.75053008  0.74909572  1
  Fe  Fe49  1  0.75156688  0.49809757  0.49847889  1
  Fe  Fe50  1  0.87580766  0.37517890  0.62463405  1
  Fe  Fe51  1  0.50007107  0.00216182  0.25299025  1
  Fe  Fe52  1  0.87388658  0.12689716  0.37768817  1
  Fe  Fe53  1  0.50072210  -0.00371702  -0.00390016  1
  Fe  Fe54  1  0.12458370  0.87339988  0.37557578  1
  Fe  Fe55  1  0.37298744  0.12476216  0.62594165  1
  Fe  Fe56  1  0.62498005  0.37515143  0.12333029  1
  Fe  Fe57  1  0.75140302  0.75166228  0.50285002  1
  Fe  Fe58  1  0.25085278  0.75080078  0.25020427  1
  Fe  Fe59  1  0.75139202  0.49868232  0.25295530  1
  Fe  Fe60  1  0.74971201  0.24729600  0.74548992  1
  Fe  Fe61  1  0.00259546  0.24784419  0.50362932  1
  Fe  Fe62  1  0.75130945  0.00070541  0.25177718  1
  Fe  Fe63  1  0.37323818  0.37351313  0.12049378  1
  Fe  Fe64  1  0.87465910  0.37504246  0.12511754  1
  Fe  Fe65  1  0.37623807  0.37693199  0.62443973  1
  Fe  Fe66  1  0.62529219  0.62238667  0.62428459  1
  Fe  Fe67  1  0.62496250  0.12281455  0.12575660  1
  Fe  Fe68  1  0.49811869  0.49816907  -0.00505994  1
  Fe  Fe69  1  0.25063186  -0.00282526  0.75240929  1
  Fe  Fe70  1  -0.00410849  0.74925529  0.24943190  1
  Fe  Fe71  1  0.25111494  -0.00186922  0.49889313  1
  Fe  Fe72  1  0.49950205  0.25071058  0.74970131  1
  Fe  Fe73  1  0.24749788  0.25132446  0.74803297  1
  Fe  Fe74  1  0.87468919  0.87493936  0.12327761  1
  Fe  Fe75  1  0.75045830  0.74976930  0.24919327  1
  Fe  Fe76  1  -0.00230585  0.50142164  0.24908569  1
  Fe  Fe77  1  -0.00251090  0.75025546  0.50050936  1
  Fe  Fe78  1  0.00001189  0.24972356  0.24926619  1
  Fe  Fe79  1  0.37364737  0.12712181  0.87500329  1
  Fe  Fe80  1  0.37729163  0.62525760  0.12410361  1
  Fe  Fe81  1  0.00034820  0.24946024  0.00161509  1
  Fe  Fe82  1  0.37487179  0.87151735  0.62797986  1
  Fe  Fe83  1  0.62508409  0.62538126  0.37618108  1
  Fe  Fe84  1  0.62507745  0.87547935  0.37615844  1
  Fe  Fe85  1  0.74599523  0.75301879  0.00068948  1
  Fe  Fe86  1  0.37734687  0.37224069  0.37660809  1
  Fe  Fe87  1  -0.00012047  0.49987391  0.75019194  1
  Fe  Fe88  1  0.87788205  0.88059582  0.62599891  1
  Fe  Fe89  1  0.12405074  0.62560910  0.87656139  1
  Co  Co90  1  0.87433641  0.62376904  0.62606140  1
  Co  Co91  1  0.12523187  0.37581058  0.12351838  1
  Co  Co92  1  0.50389650  0.74849768  0.74709563  1
  Co  Co93  1  0.00123151  0.00130445  0.49588213  1
  Co  Co94  1  0.25112897  0.50370533  -0.00145325  1
  Co  Co95  1  0.50011976  0.24430202  0.50236174  1
  Co  Co96  1  0.62268971  0.12137393  0.62948869  1
  Co  Co97  1  0.62374606  0.87645714  0.86938678  1
  Co  Co98  1  0.37637719  0.62672853  0.37126700  1
  Co  Co99  1  0.62623871  0.87960478  0.12743788  1
  Co  Co100  1  -0.00005791  0.00027142  0.75508020  1
  Co  Co101  1  0.87559720  0.13003086  0.87214960  1
  Co  Co102  1  0.12684148  0.38066890  0.62354544  1
  Co  Co103  1  0.37336307  0.62587845  0.62999709  1
  Co  Co104  1  0.75448929  -0.00014997  0.75212739  1
  Co  Co105  1  0.87906646  0.12165145  0.62540374  1
  Co  Co106  1  0.37759719  0.63061256  0.87317001  1
  Co  Co107  1  0.00097043  0.74907034  0.00178728  1
  Co  Co108  1  0.37098599  0.37223777  0.87580681  1
  Co  Co109  1  0.87751000  0.37276784  0.37688358  1
  Co  Co110  1  0.49811394  0.50320781  0.49960501  1
  Co  Co111  1  0.87305750  0.62648481  0.37664988  1
  Co  Co112  1  0.37176645  0.12717941  0.37456549  1
  Co  Co113  1  0.87580820  0.87002889  0.87465957  1
  Co  Co114  1  0.87283384  0.87504693  0.37655374  1
  Co  Co115  1  0.74976775  0.24775472  0.50455597  1
  Co  Co116  1  0.87177981  0.62480058  0.12308579  1
  Co  Co117  1  0.24482193  0.75107643  0.75063627  1
  Co  Co118  1  0.50327969  0.75361941  0.00233249  1
  Co  Co119  1  0.24793072  0.24658006  0.00230391  1
  Co  Co120  1  0.49461584  0.00061440  0.75137836  1
  Co  Co121  1  0.49946562  0.24993887  0.24826638  1
  Co  Co122  1  0.62582182  0.12784643  0.37353000  1
  Co  Co123  1  0.87392781  0.12437811  0.12478143  1
  Co  Co124  1  0.62756331  0.37299289  0.87267141  1
  Co  Co125  1  0.12653672  0.11868046  0.62544833  1
  Co  Co126  1  0.25185962  0.74966897  0.49991146  1
  Co  Co127  1  0.37683549  0.86914912  0.87325742  1
