# generated using pymatgen
data_Fe45Co19
_symmetry_space_group_name_H-M   'P 1'
_cell_length_a   11.41542562
_cell_length_b   11.41541281
_cell_length_c   11.41457461
_cell_angle_alpha   89.98941707
_cell_angle_beta   90.00507363
_cell_angle_gamma   90.00195705
_symmetry_Int_Tables_number   1
_chemical_formula_structural   Fe45Co19
_chemical_formula_sum   'Fe90 Co38'
_cell_volume   1487.45368438
_cell_formula_units_Z   2
loop_
 _symmetry_equiv_pos_site_id
 _symmetry_equiv_pos_as_xyz
  1  'x, y, z'
loop_
 _atom_site_type_symbol
 _atom_site_label
 _atom_site_symmetry_multiplicity
 _atom_site_fract_x
 _atom_site_fract_y
 _atom_site_fract_z
 _atom_site_occupancy
  Fe  Fe0  1  0.87654246  0.87644514  0.87563046  1
  Fe  Fe1  1  0.74817232  0.24912937  -0.00182734  1
  Fe  Fe2  1  0.62397572  0.12360839  0.37741055  1
  Fe  Fe3  1  0.49979642  0.50041519  0.50134348  1
  Fe  Fe4  1  0.00035321  0.49985033  0.50123387  1
  Fe  Fe5  1  0.74972320  0.75005743  -0.00151539  1
  Fe  Fe6  1  -0.00047629  0.74970942  0.24852293  1
  Fe  Fe7  1  0.62320949  0.62394642  0.37504299  1
  Fe  Fe8  1  0.00022981  0.49810222  0.74891127  1
  Fe  Fe9  1  0.87600561  0.87619281  0.37498989  1
  Fe  Fe10  1  0.49948940  0.74869220  0.50120572  1
  Fe  Fe11  1  0.62351418  0.12565648  0.12418300  1
  Fe  Fe12  1  0.00087579  0.00201772  0.50296970  1
  Fe  Fe13  1  0.00245634  0.24819889  0.00093018  1
  Fe  Fe14  1  0.75082721  0.50011456  -0.00044859  1
  Fe  Fe15  1  0.00267263  0.74899058  -0.00014912  1
  Fe  Fe16  1  0.75091406  0.49995553  0.75052011  1
  Fe  Fe17  1  0.74794820  0.24926919  0.75083452  1
  Fe  Fe18  1  0.87817628  0.62406647  0.37630207  1
  Fe  Fe19  1  0.87461263  0.37403091  0.62466832  1
  Fe  Fe20  1  0.49876108  -0.00079084  0.00061325  1
  Fe  Fe21  1  0.75223563  0.74945990  0.50149054  1
  Fe  Fe22  1  0.00278244  0.24811388  0.50190236  1
  Fe  Fe23  1  0.49827022  0.25176871  0.24992409  1
  Fe  Fe24  1  0.49845451  0.74882145  0.24971699  1
  Fe  Fe25  1  0.24593709  0.75103894  0.75493345  1
  Fe  Fe26  1  0.12521575  0.37764988  0.37111417  1
  Fe  Fe27  1  0.87386706  0.12473697  0.87393624  1
  Fe  Fe28  1  0.25042835  0.24990881  -0.00073421  1
  Fe  Fe29  1  0.25123895  -0.00113134  0.24990621  1
  Fe  Fe30  1  0.62418557  0.87433616  0.12560453  1
  Fe  Fe31  1  0.75024348  0.24872386  0.50025487  1
  Fe  Fe32  1  0.12719481  0.87611933  0.62435853  1
  Fe  Fe33  1  0.62529289  0.87567184  0.37641425  1
  Fe  Fe34  1  0.62481487  0.87642769  0.87403188  1
  Fe  Fe35  1  0.50237478  0.74950242  0.75226371  1
  Fe  Fe36  1  0.37632056  0.87384086  0.37587269  1
  Fe  Fe37  1  0.00388588  0.24838196  0.74925851  1
  Fe  Fe38  1  0.62180480  0.37576580  0.87620334  1
  Fe  Fe39  1  0.37176754  0.86859504  0.12186640  1
  Fe  Fe40  1  0.87674143  0.62460880  0.87430336  1
  Fe  Fe41  1  0.12794799  0.87517313  0.12369345  1
  Fe  Fe42  1  0.37321600  0.87171340  0.87785042  1
  Fe  Fe43  1  0.49916843  -0.00027773  0.50364725  1
  Fe  Fe44  1  0.49955601  0.24729476  0.74975382  1
  Fe  Fe45  1  0.75129851  0.50081315  0.24901690  1
  Fe  Fe46  1  0.49643792  0.50400114  0.00152342  1
  Fe  Fe47  1  0.24918326  0.50152865  0.49752471  1
  Fe  Fe48  1  0.75046607  0.00024915  0.00216868  1
  Fe  Fe49  1  0.37224758  0.62610537  0.62642812  1
  Fe  Fe50  1  0.87360505  0.87556376  0.62450914  1
  Fe  Fe51  1  0.62153773  0.37448768  0.12351944  1
  Fe  Fe52  1  0.00270562  0.00165256  0.74735055  1
  Fe  Fe53  1  0.12775928  0.62451156  0.12986554  1
  Fe  Fe54  1  0.25093248  0.50392690  -0.00166275  1
  Fe  Fe55  1  0.75201905  0.74945426  0.24889024  1
  Fe  Fe56  1  0.37349855  0.37228651  0.62480456  1
  Fe  Fe57  1  0.87525545  0.12420307  0.37528539  1
  Fe  Fe58  1  0.00026077  0.00276046  0.00297142  1
  Fe  Fe59  1  0.62383423  0.62548202  0.12455308  1
  Fe  Fe60  1  0.62494744  0.37378183  0.62362660  1
  Fe  Fe61  1  0.75125353  -0.00009641  0.24835959  1
  Fe  Fe62  1  0.62716940  0.62609831  0.62655493  1
  Fe  Fe63  1  0.49942965  0.50164058  0.74988877  1
  Fe  Fe64  1  0.87510366  0.37328263  0.12478380  1
  Fe  Fe65  1  0.37532682  0.37727115  0.37340419  1
  Fe  Fe66  1  -0.00081209  0.00181125  0.24594146  1
  Fe  Fe67  1  0.12482703  0.62576266  0.62505946  1
  Fe  Fe68  1  0.00134052  0.24891542  0.24800290  1
  Fe  Fe69  1  -0.00002188  0.75122515  0.74945952  1
  Fe  Fe70  1  0.49805580  0.00122683  0.74655704  1
  Fe  Fe71  1  0.74734523  0.00116895  0.74605079  1
  Fe  Fe72  1  0.37550722  0.37535065  0.87586561  1
  Fe  Fe73  1  0.87797386  0.37401807  0.87587738  1
  Fe  Fe74  1  0.37319866  0.87265751  0.62509268  1
  Fe  Fe75  1  0.87550195  0.37597744  0.37510548  1
  Fe  Fe76  1  0.37377798  0.12669945  0.12486667  1
  Fe  Fe77  1  0.12751312  0.12390548  0.37541764  1
  Fe  Fe78  1  0.62446612  0.37718917  0.37534425  1
  Fe  Fe79  1  0.24799798  0.74872449  0.49568600  1
  Fe  Fe80  1  0.24920772  0.49932833  0.75301825  1
  Fe  Fe81  1  0.00145020  0.50011739  0.00263666  1
  Fe  Fe82  1  0.37406770  0.12412780  0.87417274  1
  Fe  Fe83  1  0.12844644  0.12253397  0.87415587  1
  Fe  Fe84  1  0.12276022  0.87544026  0.37502061  1
  Fe  Fe85  1  0.74911057  0.24985392  0.24965501  1
  Fe  Fe86  1  0.12758723  0.37320666  0.62629992  1
  Fe  Fe87  1  0.49786076  -0.00074970  0.24884921  1
  Fe  Fe88  1  0.37368111  0.12547194  0.37862094  1
  Fe  Fe89  1  0.12958890  0.37533429  0.12744435  1
  Co  Co90  1  0.25177013  0.24917746  0.25192680  1
  Co  Co91  1  0.12098222  0.62240009  0.87161778  1
  Co  Co92  1  0.25186213  0.00021120  0.00042141  1
  Co  Co93  1  0.87575875  0.62360360  0.62615729  1
  Co  Co94  1  0.49840686  0.25233077  0.49860118  1
  Co  Co95  1  0.12476405  0.37553136  0.87708964  1
  Co  Co96  1  0.87304623  0.12743885  0.12505670  1
  Co  Co97  1  0.25072266  -0.00399223  0.49872311  1
  Co  Co98  1  0.12367516  0.87922290  0.87757453  1
  Co  Co99  1  0.87452204  0.12642866  0.62573155  1
  Co  Co100  1  0.62458406  0.12217438  0.87528435  1
  Co  Co101  1  0.24841957  0.25428897  0.49676006  1
  Co  Co102  1  0.12903192  0.12519769  0.12593805  1
  Co  Co103  1  -0.00273527  0.49938862  0.24811428  1
  Co  Co104  1  0.12059891  0.62428291  0.37441281  1
  Co  Co105  1  0.87604693  0.87430581  0.12389677  1
  Co  Co106  1  0.87499189  0.62535987  0.12317756  1
  Co  Co107  1  0.24968117  0.25171745  0.75332936  1
  Co  Co108  1  0.75009034  0.50094446  0.50017811  1
  Co  Co109  1  0.49887297  0.50010314  0.24739459  1
  Co  Co110  1  0.25262229  -0.00289739  0.75086375  1
  Co  Co111  1  0.25374849  0.50364997  0.25213355  1
  Co  Co112  1  0.75147522  0.75037497  0.75147427  1
  Co  Co113  1  0.37785828  0.62447381  0.37566830  1
  Co  Co114  1  0.62297053  0.12674093  0.62202510  1
  Co  Co115  1  0.37539318  0.62748920  0.87279779  1
  Co  Co116  1  0.13373967  0.12488104  0.62471399  1
  Co  Co117  1  0.75017677  -0.00040014  0.50143055  1
  Co  Co118  1  0.62573198  0.62306401  0.87432397  1
  Co  Co119  1  -0.00009358  0.75112691  0.50226289  1
  Co  Co120  1  0.24487650  0.74550937  -0.00446980  1
  Co  Co121  1  0.62465263  0.87275157  0.62429600  1
  Co  Co122  1  0.37253107  0.63063144  0.12534953  1
  Co  Co123  1  0.36989922  0.12764689  0.62251760  1
  Co  Co124  1  0.50280581  0.74875831  -0.00199465  1
  Co  Co125  1  0.37265100  0.37488340  0.12420550  1
  Co  Co126  1  0.49880858  0.24845001  -0.00130234  1
  Co  Co127  1  0.24963043  0.75054503  0.25581255  1
