# generated using pymatgen
data_Fe45Co19
_symmetry_space_group_name_H-M   'P 1'
_cell_length_a   11.41521091
_cell_length_b   11.41491043
_cell_length_c   11.41485902
_cell_angle_alpha   90.01095883
_cell_angle_beta   90.00753851
_cell_angle_gamma   90.00587614
_symmetry_Int_Tables_number   1
_chemical_formula_structural   Fe45Co19
_chemical_formula_sum   'Fe90 Co38'
_cell_volume   1487.39729181
_cell_formula_units_Z   2
loop_
 _symmetry_equiv_pos_site_id
 _symmetry_equiv_pos_as_xyz
  1  'x, y, z'
loop_
 _atom_site_type_symbol
 _atom_site_label
 _atom_site_symmetry_multiplicity
 _atom_site_fract_x
 _atom_site_fract_y
 _atom_site_fract_z
 _atom_site_occupancy
  Fe  Fe0  1  0.75097865  -0.00058244  0.74949958  1
  Fe  Fe1  1  0.75085465  0.74950798  0.24697367  1
  Fe  Fe2  1  0.62310599  0.37179555  0.37081456  1
  Fe  Fe3  1  0.87621442  0.37531547  0.87544632  1
  Fe  Fe4  1  0.24041110  0.75513304  0.00135160  1
  Fe  Fe5  1  0.12721819  0.62480533  0.62693243  1
  Fe  Fe6  1  0.88191689  0.87326398  0.12281315  1
  Fe  Fe7  1  0.36941641  0.62739554  0.87592414  1
  Fe  Fe8  1  0.74794886  0.74995061  0.50168583  1
  Fe  Fe9  1  0.49998178  0.00101147  0.49826148  1
  Fe  Fe10  1  0.87761765  0.87354670  0.87706392  1
  Fe  Fe11  1  0.74699010  0.24997724  0.75209906  1
  Fe  Fe12  1  0.12395177  0.12204723  0.12510563  1
  Fe  Fe13  1  0.37560329  0.37046397  0.87301191  1
  Fe  Fe14  1  0.12820195  0.87756149  0.62428092  1
  Fe  Fe15  1  0.87609471  0.62436103  0.62552590  1
  Fe  Fe16  1  0.49917208  0.49862622  0.50107057  1
  Fe  Fe17  1  0.37629989  0.37247683  0.37451071  1
  Fe  Fe18  1  0.74971614  -0.00007827  0.24962075  1
  Fe  Fe19  1  0.00363099  0.75183988  0.75150966  1
  Fe  Fe20  1  -0.00276772  0.24828715  0.00208475  1
  Fe  Fe21  1  0.37475254  0.87301744  0.37552808  1
  Fe  Fe22  1  0.12466165  0.37254214  0.37513427  1
  Fe  Fe23  1  0.37373182  0.87464097  0.62165158  1
  Fe  Fe24  1  0.25136580  0.49879108  0.50012175  1
  Fe  Fe25  1  0.62501184  0.87509100  0.87638968  1
  Fe  Fe26  1  0.49723628  0.49919954  0.24639064  1
  Fe  Fe27  1  0.25155218  0.49719601  0.24841165  1
  Fe  Fe28  1  0.87473866  0.37501056  0.37553745  1
  Fe  Fe29  1  0.49707340  0.74936457  0.75219640  1
  Fe  Fe30  1  0.74826695  0.24969192  0.50036570  1
  Fe  Fe31  1  -0.00148896  0.00248905  0.25366618  1
  Fe  Fe32  1  0.37231122  0.87538096  0.87801609  1
  Fe  Fe33  1  0.87504081  0.62567190  0.37618793  1
  Fe  Fe34  1  0.75098779  0.50127507  0.24750647  1
  Fe  Fe35  1  0.24609721  0.49852309  -0.00082156  1
  Fe  Fe36  1  0.62315848  0.87498763  0.62645849  1
  Fe  Fe37  1  0.00057225  0.49813040  0.50214392  1
  Fe  Fe38  1  0.62323809  0.87196349  0.12223407  1
  Fe  Fe39  1  0.12627075  0.12394599  0.62240692  1
  Fe  Fe40  1  0.62223076  0.37569578  0.62993215  1
  Fe  Fe41  1  0.75063364  0.50080333  0.75140928  1
  Fe  Fe42  1  -0.00090761  0.49854769  0.24910444  1
  Fe  Fe43  1  0.37503625  0.12492498  0.12167187  1
  Fe  Fe44  1  -0.00150733  0.24883363  0.50213775  1
  Fe  Fe45  1  0.24848710  0.25022374  0.00040503  1
  Fe  Fe46  1  0.75319424  -0.00199406  0.00121371  1
  Fe  Fe47  1  0.25170055  0.25055625  0.24737238  1
  Fe  Fe48  1  0.00287334  0.49556366  0.74994240  1
  Fe  Fe49  1  0.87536450  0.87666854  0.62250629  1
  Fe  Fe50  1  0.12557340  0.62322723  0.37388047  1
  Fe  Fe51  1  0.12682448  0.12317493  0.87672337  1
  Fe  Fe52  1  0.62533009  0.87468806  0.37540020  1
  Fe  Fe53  1  0.00279659  0.75044287  0.49975952  1
  Fe  Fe54  1  0.12600941  0.87753453  0.37582195  1
  Fe  Fe55  1  0.25423488  0.00392039  0.74943977  1
  Fe  Fe56  1  0.37208076  0.62791623  0.12280924  1
  Fe  Fe57  1  0.62379565  0.62476189  0.37395297  1
  Fe  Fe58  1  0.75072242  0.75044653  0.75136565  1
  Fe  Fe59  1  0.87407694  0.87529259  0.37808413  1
  Fe  Fe60  1  0.49968861  0.74924710  0.24801115  1
  Fe  Fe61  1  0.62299745  0.62519002  0.62660160  1
  Fe  Fe62  1  0.88157612  0.62809382  0.12256204  1
  Fe  Fe63  1  0.62578437  0.37396399  0.12594345  1
  Fe  Fe64  1  0.49825445  0.00039019  -0.00024194  1
  Fe  Fe65  1  0.37502468  0.62665531  0.37530125  1
  Fe  Fe66  1  0.25127474  0.24818770  0.50052726  1
  Fe  Fe67  1  0.74846092  0.49833147  0.50076616  1
  Fe  Fe68  1  0.87372907  0.12483270  0.87366163  1
  Fe  Fe69  1  0.75128352  0.50197708  0.00137830  1
  Fe  Fe70  1  0.62371412  0.12393887  0.62493387  1
  Fe  Fe71  1  0.87949561  0.62668358  0.87654398  1
  Fe  Fe72  1  0.12295835  0.37548749  0.12423849  1
  Fe  Fe73  1  0.50300465  0.24908336  -0.00272662  1
  Fe  Fe74  1  0.49720416  0.00358184  0.75354201  1
  Fe  Fe75  1  -0.00363046  0.24893908  0.24816292  1
  Fe  Fe76  1  0.24892479  0.49509300  0.75045259  1
  Fe  Fe77  1  0.37369954  0.62685362  0.62464849  1
  Fe  Fe78  1  0.49975078  0.00090163  0.24840084  1
  Fe  Fe79  1  0.37734371  0.12726694  0.37529725  1
  Fe  Fe80  1  0.37751045  0.36943122  0.62956358  1
  Fe  Fe81  1  0.00218344  0.25120630  0.74793446  1
  Fe  Fe82  1  0.87199761  0.12339197  0.37790868  1
  Fe  Fe83  1  0.62720476  0.12629344  0.12579857  1
  Fe  Fe84  1  0.49870389  0.50100592  -0.00109966  1
  Fe  Fe85  1  0.25181873  0.00118692  0.24989380  1
  Fe  Fe86  1  0.24611951  0.75177168  0.24775774  1
  Fe  Fe87  1  0.75110298  0.25048359  0.00067161  1
  Fe  Fe88  1  -0.00134424  0.00181822  0.74883738  1
  Fe  Fe89  1  0.62513988  0.62631031  0.87666955  1
  Co  Co90  1  -0.00035162  0.00167147  -0.00274274  1
  Co  Co91  1  0.49682193  0.24926201  0.24640131  1
  Co  Co92  1  0.24938680  -0.00300380  0.00291247  1
  Co  Co93  1  0.87419826  0.12123227  0.12529649  1
  Co  Co94  1  0.37570028  0.37451238  0.12039870  1
  Co  Co95  1  0.00271194  0.50055929  -0.00144691  1
  Co  Co96  1  0.50447074  0.24446596  0.75632927  1
  Co  Co97  1  0.62519104  0.37909922  0.87562527  1
  Co  Co98  1  0.50177468  0.25105437  0.50060492  1
  Co  Co99  1  0.37530530  0.87293618  0.12473640  1
  Co  Co100  1  0.62269121  0.62575460  0.12356422  1
  Co  Co101  1  0.00152224  0.00128225  0.49965306  1
  Co  Co102  1  0.24767951  0.74920227  0.49861973  1
  Co  Co103  1  0.01017804  0.75153276  -0.00339812  1
  Co  Co104  1  0.37743518  0.12802720  0.62472520  1
  Co  Co105  1  0.00147554  0.75062829  0.25296455  1
  Co  Co106  1  0.62411280  0.12650557  0.37273415  1
  Co  Co107  1  0.49854711  0.74934148  -0.00250520  1
  Co  Co108  1  0.12714333  0.37386986  0.62161014  1
  Co  Co109  1  0.12676109  0.62326201  0.87022037  1
  Co  Co110  1  0.12657060  0.88207747  0.87042803  1
  Co  Co111  1  0.25149154  0.00294510  0.49721651  1
  Co  Co112  1  0.62894827  0.11983170  0.87820851  1
  Co  Co113  1  0.87467516  0.37719774  0.12406032  1
  Co  Co114  1  0.74754804  0.00078238  0.50120201  1
  Co  Co115  1  0.12414827  0.62223424  0.12783328  1
  Co  Co116  1  0.75398552  0.24857654  0.25021774  1
  Co  Co117  1  0.24676085  0.24783956  0.74992563  1
  Co  Co118  1  0.49717272  0.50321483  0.75266141  1
  Co  Co119  1  0.11950320  0.88176987  0.12875497  1
  Co  Co120  1  0.87318968  0.12538927  0.62606033  1
  Co  Co121  1  0.75166523  0.74986899  0.00058548  1
  Co  Co122  1  0.12508494  0.12823702  0.37389379  1
  Co  Co123  1  0.87272362  0.37479289  0.62650886  1
  Co  Co124  1  0.50107772  0.74974261  0.50013725  1
  Co  Co125  1  0.12396761  0.37177022  0.87759821  1
  Co  Co126  1  0.37155067  0.12702944  0.87805687  1
  Co  Co127  1  0.25051812  0.75305848  0.75036229  1
