# generated using pymatgen
data_Fe45Co19
_symmetry_space_group_name_H-M   'P 1'
_cell_length_a   11.41471575
_cell_length_b   11.41459579
_cell_length_c   11.41519258
_cell_angle_alpha   90.00013738
_cell_angle_beta   90.00611860
_cell_angle_gamma   89.99443656
_symmetry_Int_Tables_number   1
_chemical_formula_structural   Fe45Co19
_chemical_formula_sum   'Fe90 Co38'
_cell_volume   1487.33526946
_cell_formula_units_Z   2
loop_
 _symmetry_equiv_pos_site_id
 _symmetry_equiv_pos_as_xyz
  1  'x, y, z'
loop_
 _atom_site_type_symbol
 _atom_site_label
 _atom_site_symmetry_multiplicity
 _atom_site_fract_x
 _atom_site_fract_y
 _atom_site_fract_z
 _atom_site_occupancy
  Fe  Fe0  1  0.87434162  0.12427509  0.62418067  1
  Fe  Fe1  1  0.12431048  0.12336831  0.37493653  1
  Fe  Fe2  1  0.50034450  0.25196712  -0.00027248  1
  Fe  Fe3  1  0.87480100  0.87471195  0.37306366  1
  Fe  Fe4  1  0.87436734  0.87372651  0.88016763  1
  Fe  Fe5  1  0.37582451  0.12445869  0.37479876  1
  Fe  Fe6  1  0.25242337  0.50156738  0.75006329  1
  Fe  Fe7  1  0.25003048  -0.00203172  0.74996434  1
  Fe  Fe8  1  0.24940157  0.50070643  -0.00126055  1
  Fe  Fe9  1  -0.00196290  0.74762427  0.75281822  1
  Fe  Fe10  1  0.50182654  0.74769262  -0.00067131  1
  Fe  Fe11  1  0.37621287  0.12507311  0.62555465  1
  Fe  Fe12  1  0.74980789  0.50273253  0.24946428  1
  Fe  Fe13  1  0.12542718  0.37654501  0.62601695  1
  Fe  Fe14  1  0.37763691  0.87389952  0.87496752  1
  Fe  Fe15  1  0.49898462  0.25160645  0.25053387  1
  Fe  Fe16  1  0.24820774  0.50040608  0.25176387  1
  Fe  Fe17  1  0.87546824  0.87450994  0.62425232  1
  Fe  Fe18  1  0.37302962  0.37523357  0.12624516  1
  Fe  Fe19  1  0.00189865  0.75155534  0.49931074  1
  Fe  Fe20  1  0.74994282  0.24983994  -0.00083489  1
  Fe  Fe21  1  0.74898533  0.00043636  0.49725855  1
  Fe  Fe22  1  0.12476578  0.37646061  0.87410158  1
  Fe  Fe23  1  -0.00063365  0.24962271  0.75124096  1
  Fe  Fe24  1  -0.00111372  -0.00046070  0.75114064  1
  Fe  Fe25  1  0.24956466  0.75127706  0.49965649  1
  Fe  Fe26  1  0.00028470  0.24995206  0.50061942  1
  Fe  Fe27  1  0.62554862  0.61958949  0.87248061  1
  Fe  Fe28  1  0.24853739  0.74903237  -0.00009302  1
  Fe  Fe29  1  0.25040533  0.25039067  0.49964998  1
  Fe  Fe30  1  0.12097265  0.62245392  0.12447025  1
  Fe  Fe31  1  0.37834325  0.87428529  0.62727244  1
  Fe  Fe32  1  0.24875002  -0.00306305  0.50168636  1
  Fe  Fe33  1  0.12393539  0.12352853  0.62509301  1
  Fe  Fe34  1  0.12440454  0.87578734  0.37341577  1
  Fe  Fe35  1  0.49988066  0.25238240  0.49949482  1
  Fe  Fe36  1  0.24984666  0.25019400  0.75127576  1
  Fe  Fe37  1  0.62746718  0.12368090  0.12594191  1
  Fe  Fe38  1  0.62580777  0.12614456  0.87476867  1
  Fe  Fe39  1  0.74946090  -0.00086150  0.75135332  1
  Fe  Fe40  1  0.62533336  0.12504589  0.62465390  1
  Fe  Fe41  1  0.87581251  0.37801589  0.12450256  1
  Fe  Fe42  1  0.50046593  0.75068835  0.49722583  1
  Fe  Fe43  1  0.62665378  0.87198705  0.37040127  1
  Fe  Fe44  1  0.25031970  0.75036254  0.75107834  1
  Fe  Fe45  1  -0.00292330  0.74982151  0.24606927  1
  Fe  Fe46  1  0.25037697  -0.00009795  0.24749770  1
  Fe  Fe47  1  0.50017810  -0.00122700  0.24965236  1
  Fe  Fe48  1  0.00274321  0.50083692  0.49757586  1
  Fe  Fe49  1  0.12562522  0.37385208  0.12476257  1
  Fe  Fe50  1  0.87110591  0.37858112  0.87690278  1
  Fe  Fe51  1  -0.00148290  0.24819788  0.00049805  1
  Fe  Fe52  1  0.12142333  0.87786690  0.12171525  1
  Fe  Fe53  1  0.37746427  0.62568711  0.37135064  1
  Fe  Fe54  1  0.87721200  0.62438688  0.37417626  1
  Fe  Fe55  1  0.87417111  0.37500721  0.37559592  1
  Fe  Fe56  1  0.50139207  -0.00187429  0.49891898  1
  Fe  Fe57  1  0.75046478  0.25243244  0.74887449  1
  Fe  Fe58  1  0.12242835  0.87539306  0.87821609  1
  Fe  Fe59  1  0.37152932  0.12678854  0.12290602  1
  Fe  Fe60  1  0.62991643  0.87569560  0.12725936  1
  Fe  Fe61  1  0.62537334  0.37763939  0.62710300  1
  Fe  Fe62  1  0.62659337  0.87352768  0.87515876  1
  Fe  Fe63  1  0.87623075  0.37645853  0.62345990  1
  Fe  Fe64  1  0.49894888  0.49942023  0.49988337  1
  Fe  Fe65  1  0.37651440  0.87304146  0.12436274  1
  Fe  Fe66  1  0.50179911  -0.00096707  0.00000613  1
  Fe  Fe67  1  0.62435298  0.87276935  0.62692100  1
  Fe  Fe68  1  0.50026100  0.25238565  0.75080349  1
  Fe  Fe69  1  -0.00266120  0.00351445  0.24495971  1
  Fe  Fe70  1  0.25049923  0.50179630  0.49919903  1
  Fe  Fe71  1  0.37729364  0.62445756  0.12543084  1
  Fe  Fe72  1  0.12346398  0.62650441  0.62597278  1
  Fe  Fe73  1  0.12608929  0.12295498  0.87949821  1
  Fe  Fe74  1  -0.00283234  0.50336209  0.75253882  1
  Fe  Fe75  1  0.62532877  0.37614927  0.37536954  1
  Fe  Fe76  1  0.75172845  0.74455122  0.74794544  1
  Fe  Fe77  1  0.12683179  0.37377951  0.37506987  1
  Fe  Fe78  1  0.24936166  0.75050539  0.24865112  1
  Fe  Fe79  1  0.74877161  0.24985570  0.25174060  1
  Fe  Fe80  1  0.62543134  0.37540657  0.12389101  1
  Fe  Fe81  1  0.37870293  0.62627272  0.62729265  1
  Fe  Fe82  1  0.37729179  0.37756006  0.87524703  1
  Fe  Fe83  1  0.00111937  0.24870738  0.24735351  1
  Fe  Fe84  1  0.37492284  0.12342752  0.87664030  1
  Fe  Fe85  1  0.87371440  0.12692655  0.37603478  1
  Fe  Fe86  1  0.62154006  0.62460962  0.12981746  1
  Fe  Fe87  1  0.74886681  0.74679783  0.49945386  1
  Fe  Fe88  1  0.74933910  0.50317593  0.50183879  1
  Fe  Fe89  1  0.75192058  0.74464476  0.00478539  1
  Co  Co90  1  0.50064572  0.49633465  0.24908228  1
  Co  Co91  1  0.74986662  0.00184631  -0.00290767  1
  Co  Co92  1  0.13020271  0.12624978  0.12033958  1
  Co  Co93  1  0.24923925  0.24945647  0.25239957  1
  Co  Co94  1  0.49858487  0.49858860  0.75012988  1
  Co  Co95  1  0.75424413  0.74488403  0.24762664  1
  Co  Co96  1  -0.00075479  0.74816427  0.00149692  1
  Co  Co97  1  0.87301073  0.12610143  0.87271605  1
  Co  Co98  1  0.37387680  0.37612597  0.37380287  1
  Co  Co99  1  0.37314031  0.87519719  0.37387465  1
  Co  Co100  1  0.50175330  0.74866599  0.75339350  1
  Co  Co101  1  0.62113407  0.62560100  0.62561850  1
  Co  Co102  1  0.62252169  0.62512127  0.37287592  1
  Co  Co103  1  0.25272135  -0.00434441  0.00007475  1
  Co  Co104  1  0.00232835  0.49851291  -0.00324362  1
  Co  Co105  1  0.62768428  0.37819134  0.87447133  1
  Co  Co106  1  0.86875092  0.12536742  0.12553619  1
  Co  Co107  1  0.87928709  0.62603917  0.62122223  1
  Co  Co108  1  0.87100211  0.87718833  0.12276960  1
  Co  Co109  1  -0.00453083  0.00446911  0.00213081  1
  Co  Co110  1  -0.00130972  -0.00099918  0.49989804  1
  Co  Co111  1  0.37307352  0.37393941  0.62522397  1
  Co  Co112  1  0.74660294  0.50266823  0.00501567  1
  Co  Co113  1  0.75351287  0.50270704  0.74549076  1
  Co  Co114  1  0.62283375  0.12707739  0.37481341  1
  Co  Co115  1  0.12609098  0.62568862  0.87479954  1
  Co  Co116  1  0.12246927  0.87315410  0.62640995  1
  Co  Co117  1  0.88077164  0.61846208  0.12395247  1
  Co  Co118  1  0.50081767  0.49975994  0.00120479  1
  Co  Co119  1  0.12447830  0.62849302  0.37381465  1
  Co  Co120  1  0.74930123  0.25061278  0.50111898  1
  Co  Co121  1  0.50167364  0.00019117  0.75140766  1
  Co  Co122  1  0.37557913  0.62506140  0.87665138  1
  Co  Co123  1  0.25067181  0.25414914  -0.00359874  1
  Co  Co124  1  0.75048897  0.00165772  0.25434998  1
  Co  Co125  1  0.87244240  0.62268888  0.88019461  1
  Co  Co126  1  0.00179103  0.49721853  0.25340899  1
  Co  Co127  1  0.49945527  0.75272496  0.25028057  1
