# generated using pymatgen
data_Fe45Co19
_symmetry_space_group_name_H-M   'P 1'
_cell_length_a   11.41713541
_cell_length_b   11.41402425
_cell_length_c   11.41470584
_cell_angle_alpha   90.00312771
_cell_angle_beta   89.99929639
_cell_angle_gamma   89.99429024
_symmetry_Int_Tables_number   1
_chemical_formula_structural   Fe45Co19
_chemical_formula_sum   'Fe90 Co38'
_cell_volume   1487.51263750
_cell_formula_units_Z   2
loop_
 _symmetry_equiv_pos_site_id
 _symmetry_equiv_pos_as_xyz
  1  'x, y, z'
loop_
 _atom_site_type_symbol
 _atom_site_label
 _atom_site_symmetry_multiplicity
 _atom_site_fract_x
 _atom_site_fract_y
 _atom_site_fract_z
 _atom_site_occupancy
  Fe  Fe0  1  0.87883845  0.62298270  0.87820834  1
  Fe  Fe1  1  0.75011261  0.24826041  0.49857008  1
  Fe  Fe2  1  0.49944368  0.25219026  0.50801166  1
  Fe  Fe3  1  0.12472888  0.87480991  0.37192988  1
  Fe  Fe4  1  0.49948629  0.00010945  0.25226432  1
  Fe  Fe5  1  0.00095373  0.00561750  0.24480727  1
  Fe  Fe6  1  0.74974189  0.50087912  0.25408229  1
  Fe  Fe7  1  0.50076385  0.75264923  0.49831496  1
  Fe  Fe8  1  0.87646486  0.37268910  0.87754007  1
  Fe  Fe9  1  0.87501159  0.87792199  0.37356151  1
  Fe  Fe10  1  -0.00181155  0.75110949  0.24627991  1
  Fe  Fe11  1  0.62325936  0.62423578  0.87575936  1
  Fe  Fe12  1  0.75031027  0.74788157  0.49594704  1
  Fe  Fe13  1  0.12483394  0.62598739  0.62566223  1
  Fe  Fe14  1  0.24733311  0.49967711  0.75396401  1
  Fe  Fe15  1  0.74815002  0.00301647  0.49619425  1
  Fe  Fe16  1  0.62438139  0.37309614  0.37519861  1
  Fe  Fe17  1  0.62589071  0.62088968  0.62053432  1
  Fe  Fe18  1  0.87401428  0.88176084  0.12226196  1
  Fe  Fe19  1  0.00128629  0.24925777  0.50202337  1
  Fe  Fe20  1  0.87713073  0.37137109  0.37280640  1
  Fe  Fe21  1  0.12882692  0.12508261  0.62807377  1
  Fe  Fe22  1  0.00171801  0.49865679  0.75221033  1
  Fe  Fe23  1  0.87302347  0.37577653  0.62484148  1
  Fe  Fe24  1  0.74970760  0.75157402  -0.00028434  1
  Fe  Fe25  1  0.50057965  0.49680077  0.74545388  1
  Fe  Fe26  1  0.50009346  0.74972457  0.74848061  1
  Fe  Fe27  1  0.62389302  0.87549427  0.87442408  1
  Fe  Fe28  1  0.12280292  0.62704311  0.37367576  1
  Fe  Fe29  1  0.62123301  0.37104828  0.87248216  1
  Fe  Fe30  1  0.74848947  0.00214439  0.75240758  1
  Fe  Fe31  1  0.50211676  0.49669362  0.00360467  1
  Fe  Fe32  1  0.37477147  0.62355658  0.62434497  1
  Fe  Fe33  1  0.12507538  0.62804954  0.11969920  1
  Fe  Fe34  1  0.49949128  0.49650350  0.24854805  1
  Fe  Fe35  1  0.24810376  0.00004703  0.49822708  1
  Fe  Fe36  1  0.50151480  -0.00190570  0.49998060  1
  Fe  Fe37  1  0.49931660  0.75020983  0.00123254  1
  Fe  Fe38  1  0.74905973  0.24817713  0.74886149  1
  Fe  Fe39  1  0.00139235  0.49856398  0.24633306  1
  Fe  Fe40  1  0.87512631  0.62173619  0.12287632  1
  Fe  Fe41  1  0.12960276  0.36796326  0.12686061  1
  Fe  Fe42  1  0.37622717  0.62244909  0.87616651  1
  Fe  Fe43  1  -0.00110282  0.75243995  0.74897819  1
  Fe  Fe44  1  0.12754190  0.37264399  0.62789253  1
  Fe  Fe45  1  0.87494584  0.87891854  0.87790272  1
  Fe  Fe46  1  0.75136848  0.74844069  0.25147029  1
  Fe  Fe47  1  0.74911673  0.00908472  0.25161113  1
  Fe  Fe48  1  0.24921672  0.49952736  0.25123230  1
  Fe  Fe49  1  -0.00142820  0.75302567  0.50094564  1
  Fe  Fe50  1  0.50403367  0.00167742  0.00146921  1
  Fe  Fe51  1  0.62818008  0.87610754  0.62511719  1
  Fe  Fe52  1  0.00187307  -0.00145233  0.50284739  1
  Fe  Fe53  1  0.75006972  0.49908783  0.75245961  1
  Fe  Fe54  1  0.25780585  0.24893288  0.75452242  1
  Fe  Fe55  1  0.37885465  0.12663219  0.37619502  1
  Fe  Fe56  1  0.25076380  0.00039924  0.24892837  1
  Fe  Fe57  1  -0.00269593  0.24736423  0.74917127  1
  Fe  Fe58  1  0.37392277  0.62256566  0.12338972  1
  Fe  Fe59  1  0.87398342  0.12314938  0.87939139  1
  Fe  Fe60  1  0.74835897  0.49864086  -0.00152010  1
  Fe  Fe61  1  0.74545003  0.24746532  0.00198460  1
  Fe  Fe62  1  0.12685897  0.12683849  0.87515101  1
  Fe  Fe63  1  0.12420721  0.87183393  0.87907417  1
  Fe  Fe64  1  0.25043189  0.75084073  0.49931883  1
  Fe  Fe65  1  0.87423728  0.12231026  0.62393616  1
  Fe  Fe66  1  0.62594568  0.62476048  0.12645259  1
  Fe  Fe67  1  0.25096816  0.75050658  0.75270335  1
  Fe  Fe68  1  0.37315312  0.12798069  0.12494172  1
  Fe  Fe69  1  0.25215875  0.75272110  0.24591660  1
  Fe  Fe70  1  0.87175181  0.37191114  0.12618391  1
  Fe  Fe71  1  0.12233813  0.12599793  0.37225350  1
  Fe  Fe72  1  0.00184015  0.24830192  0.00271125  1
  Fe  Fe73  1  0.24784968  -0.00017883  0.00188398  1
  Fe  Fe74  1  0.12277925  0.37337172  0.37311289  1
  Fe  Fe75  1  0.37226125  0.87819055  0.62542246  1
  Fe  Fe76  1  0.87436163  0.62344374  0.62406548  1
  Fe  Fe77  1  0.49887684  0.75209931  0.25020545  1
  Fe  Fe78  1  0.24994898  0.50006468  0.49842697  1
  Fe  Fe79  1  0.00160735  -0.00142865  0.74936126  1
  Fe  Fe80  1  0.75001462  0.74872166  0.75099739  1
  Fe  Fe81  1  0.00000714  0.49880581  0.50026147  1
  Fe  Fe82  1  0.37670888  0.62556108  0.37414602  1
  Fe  Fe83  1  0.62607780  0.87635871  0.12782498  1
  Fe  Fe84  1  0.49833568  0.25209109  0.00377975  1
  Fe  Fe85  1  0.24606048  0.49597457  -0.00462700  1
  Fe  Fe86  1  0.49997458  0.00544449  0.74839435  1
  Fe  Fe87  1  0.24929708  0.24941899  0.49776442  1
  Fe  Fe88  1  0.37575530  0.37405698  0.37497937  1
  Fe  Fe89  1  0.37693970  0.87814465  0.87632621  1
  Co  Co90  1  0.24904239  -0.00098067  0.75360252  1
  Co  Co91  1  0.38057834  0.37762568  0.87451332  1
  Co  Co92  1  0.37258226  0.87515928  0.37516220  1
  Co  Co93  1  0.37788755  0.87839460  0.12399166  1
  Co  Co94  1  0.25607908  0.75214560  0.00026523  1
  Co  Co95  1  0.49734798  0.49646478  0.50056401  1
  Co  Co96  1  0.87975857  0.12559201  0.37744995  1
  Co  Co97  1  0.62696688  0.12413579  0.62451986  1
  Co  Co98  1  0.49652383  0.24733509  0.74472746  1
  Co  Co99  1  0.25336106  0.24875967  0.25597130  1
  Co  Co100  1  0.12204332  0.62937960  0.87862720  1
  Co  Co101  1  0.00560449  0.00456161  0.00120694  1
  Co  Co102  1  0.12380932  0.87335064  0.12375616  1
  Co  Co103  1  0.62981224  0.37640631  0.62493487  1
  Co  Co104  1  0.49904603  0.25429272  0.24564524  1
  Co  Co105  1  0.00338176  0.49399226  0.00218012  1
  Co  Co106  1  0.62804613  0.87608105  0.37197041  1
  Co  Co107  1  0.87038209  0.87670699  0.62417852  1
  Co  Co108  1  0.36904009  0.37578947  0.62623066  1
  Co  Co109  1  0.75273235  0.50059614  0.49392214  1
  Co  Co110  1  0.25333334  0.25205246  -0.00549420  1
  Co  Co111  1  0.87310071  0.12515640  0.12013807  1
  Co  Co112  1  0.62132351  0.12556212  0.12734866  1
  Co  Co113  1  0.75012507  0.24415551  0.25260614  1
  Co  Co114  1  0.62234588  0.12932589  0.87451166  1
  Co  Co115  1  0.13146319  0.13097177  0.12624619  1
  Co  Co116  1  0.37052482  0.12172406  0.62284346  1
  Co  Co117  1  0.36862729  0.37537816  0.12483301  1
  Co  Co118  1  0.61811683  0.12928247  0.37590681  1
  Co  Co119  1  0.12826244  0.87436560  0.62533293  1
  Co  Co120  1  0.12180448  0.36894133  0.87185828  1
  Co  Co121  1  0.74391660  0.00155290  -0.00023719  1
  Co  Co122  1  -0.00578522  0.75205803  0.00192028  1
  Co  Co123  1  -0.00205972  0.24726159  0.24674766  1
  Co  Co124  1  0.37704478  0.12202186  0.87914784  1
  Co  Co125  1  0.88058907  0.62501319  0.37328208  1
  Co  Co126  1  0.62014236  0.62374766  0.37451519  1
  Co  Co127  1  0.62960239  0.37506306  0.12769371  1
