# generated using pymatgen
data_Fe45Co19
_symmetry_space_group_name_H-M   'P 1'
_cell_length_a   11.41496311
_cell_length_b   11.41505107
_cell_length_c   11.41399820
_cell_angle_alpha   90.00390917
_cell_angle_beta   90.00002872
_cell_angle_gamma   89.99883489
_symmetry_Int_Tables_number   1
_chemical_formula_structural   Fe45Co19
_chemical_formula_sum   'Fe90 Co38'
_cell_volume   1487.27120515
_cell_formula_units_Z   2
loop_
 _symmetry_equiv_pos_site_id
 _symmetry_equiv_pos_as_xyz
  1  'x, y, z'
loop_
 _atom_site_type_symbol
 _atom_site_label
 _atom_site_symmetry_multiplicity
 _atom_site_fract_x
 _atom_site_fract_y
 _atom_site_fract_z
 _atom_site_occupancy
  Fe  Fe0  1  0.62048647  0.87576462  0.37208846  1
  Fe  Fe1  1  0.75006271  -0.00036562  0.25112411  1
  Fe  Fe2  1  0.62516893  0.12432402  0.87323315  1
  Fe  Fe3  1  0.87455683  0.12771383  0.87370072  1
  Fe  Fe4  1  0.87530160  0.37259494  0.62654686  1
  Fe  Fe5  1  -0.00020551  0.00068659  0.00045909  1
  Fe  Fe6  1  0.12403743  0.62640300  0.87501989  1
  Fe  Fe7  1  0.37554007  0.37645076  0.37716789  1
  Fe  Fe8  1  0.87290079  0.12366143  0.12589344  1
  Fe  Fe9  1  0.00095209  0.24933243  0.00168214  1
  Fe  Fe10  1  0.24810842  0.49872174  0.74957451  1
  Fe  Fe11  1  0.74904895  0.75192037  0.50205852  1
  Fe  Fe12  1  0.50120460  0.50200055  0.74922211  1
  Fe  Fe13  1  0.12432387  0.62644726  0.37403838  1
  Fe  Fe14  1  0.75203174  0.50045630  0.75290485  1
  Fe  Fe15  1  0.37688241  0.37731987  0.87589835  1
  Fe  Fe16  1  0.50242888  0.50073269  0.50004506  1
  Fe  Fe17  1  0.12507237  0.37339654  0.37461242  1
  Fe  Fe18  1  0.49630271  0.74997312  0.24830237  1
  Fe  Fe19  1  0.62546334  0.87556963  0.63147600  1
  Fe  Fe20  1  0.12419083  0.37300894  0.62501316  1
  Fe  Fe21  1  0.37452859  0.62604752  0.37752952  1
  Fe  Fe22  1  0.25017258  0.75025593  0.74962431  1
  Fe  Fe23  1  0.50126157  0.75108865  0.50247065  1
  Fe  Fe24  1  0.12721252  0.12467248  0.87290939  1
  Fe  Fe25  1  0.36937640  0.62215219  0.12122425  1
  Fe  Fe26  1  0.62582552  0.37577849  0.37322247  1
  Fe  Fe27  1  -0.00114115  -0.00057555  0.25170503  1
  Fe  Fe28  1  0.87417220  0.62647613  0.62449075  1
  Fe  Fe29  1  0.37898131  0.12220244  0.37701536  1
  Fe  Fe30  1  -0.00225578  0.24701274  0.25168681  1
  Fe  Fe31  1  0.37615534  0.12342929  0.62422988  1
  Fe  Fe32  1  0.87534252  0.87372479  0.87353436  1
  Fe  Fe33  1  0.74916920  0.25253509  -0.00166260  1
  Fe  Fe34  1  0.87651247  0.87707386  0.37893542  1
  Fe  Fe35  1  0.62362337  0.87359421  0.87267424  1
  Fe  Fe36  1  0.00065134  0.24497891  0.49772348  1
  Fe  Fe37  1  0.37322673  0.87599667  0.62283465  1
  Fe  Fe38  1  0.75359398  0.75116198  0.25096562  1
  Fe  Fe39  1  0.12876602  0.87670850  0.37701290  1
  Fe  Fe40  1  0.37297400  0.62260959  0.87683949  1
  Fe  Fe41  1  0.49930132  0.50223839  0.24971760  1
  Fe  Fe42  1  -0.00147413  0.75070646  0.74836494  1
  Fe  Fe43  1  0.00059736  0.75169716  0.00272619  1
  Fe  Fe44  1  0.25312756  0.25090220  0.25104020  1
  Fe  Fe45  1  0.12636162  0.87519011  0.12458089  1
  Fe  Fe46  1  0.87672212  0.62695569  0.12621464  1
  Fe  Fe47  1  0.37449524  0.62488148  0.62405688  1
  Fe  Fe48  1  0.50062432  0.25041143  0.24929384  1
  Fe  Fe49  1  0.37542305  0.37525174  0.62320244  1
  Fe  Fe50  1  0.12722694  0.12552413  0.12746663  1
  Fe  Fe51  1  0.87189883  0.12086611  0.62228342  1
  Fe  Fe52  1  0.25005164  0.24769971  0.49925899  1
  Fe  Fe53  1  0.25660726  -0.00071246  0.24759600  1
  Fe  Fe54  1  0.75066159  0.50117533  0.49846383  1
  Fe  Fe55  1  0.00289148  0.49841675  0.00172574  1
  Fe  Fe56  1  0.87341335  0.37386708  0.37310964  1
  Fe  Fe57  1  0.24821322  0.25189771  -0.00028532  1
  Fe  Fe58  1  0.50028505  0.24950825  0.74923445  1
  Fe  Fe59  1  0.50084246  0.25143235  -0.00025713  1
  Fe  Fe60  1  0.12573646  0.87598232  0.62258781  1
  Fe  Fe61  1  0.37348724  0.87667723  0.87667276  1
  Fe  Fe62  1  0.49819084  0.74842982  -0.00025451  1
  Fe  Fe63  1  0.74860673  0.24905733  0.49870978  1
  Fe  Fe64  1  0.12795424  0.12486213  0.62667129  1
  Fe  Fe65  1  0.75038670  0.49957216  -0.00215408  1
  Fe  Fe66  1  0.62426380  0.87499612  0.12503193  1
  Fe  Fe67  1  -0.00140251  0.50039253  0.74993990  1
  Fe  Fe68  1  0.62272003  0.12277731  0.37535748  1
  Fe  Fe69  1  0.75187494  0.75077982  -0.00047424  1
  Fe  Fe70  1  -0.00010365  0.50111923  0.49930335  1
  Fe  Fe71  1  0.75090754  -0.00161831  -0.00189177  1
  Fe  Fe72  1  -0.00077327  0.00029809  0.74887366  1
  Fe  Fe73  1  0.62459488  0.12365842  0.12501045  1
  Fe  Fe74  1  0.12637196  0.87695375  0.87591288  1
  Fe  Fe75  1  0.87372632  0.37432335  0.12633259  1
  Fe  Fe76  1  0.12153546  0.37098750  0.87105746  1
  Fe  Fe77  1  0.00082292  0.50138997  0.24982753  1
  Fe  Fe78  1  0.00128127  0.74892533  0.50000697  1
  Fe  Fe79  1  0.37240014  0.12365658  0.87552775  1
  Fe  Fe80  1  0.37344449  0.37825509  0.12299935  1
  Fe  Fe81  1  0.62524726  0.12206087  0.62589217  1
  Fe  Fe82  1  0.62554302  0.37729435  0.12610217  1
  Fe  Fe83  1  0.25126341  0.75016823  0.25014230  1
  Fe  Fe84  1  0.62474407  0.62701910  0.87270602  1
  Fe  Fe85  1  0.49783384  -0.00021571  0.00200203  1
  Fe  Fe86  1  0.62628529  0.62618972  0.37515806  1
  Fe  Fe87  1  0.62647662  0.62607154  0.12587584  1
  Fe  Fe88  1  0.62562452  0.37554505  0.62649137  1
  Fe  Fe89  1  0.24714096  0.50171997  0.49992069  1
  Co  Co90  1  0.75101676  0.50245813  0.25025993  1
  Co  Co91  1  0.62637751  0.62527897  0.62629022  1
  Co  Co92  1  0.12578489  0.62775128  0.12565147  1
  Co  Co93  1  0.24964984  0.00095416  0.00291170  1
  Co  Co94  1  0.49591699  0.74962439  0.75007693  1
  Co  Co95  1  0.87797352  0.62594040  0.87724260  1
  Co  Co96  1  0.12540805  0.37204964  0.12973229  1
  Co  Co97  1  0.75324557  0.74962692  0.75039762  1
  Co  Co98  1  0.00447776  0.00418382  0.49899905  1
  Co  Co99  1  0.25290426  0.25155723  0.74977460  1
  Co  Co100  1  0.87687218  0.87665374  0.62255567  1
  Co  Co101  1  0.75222671  -0.00086382  0.75220895  1
  Co  Co102  1  0.49672085  -0.00079905  0.24683856  1
  Co  Co103  1  0.87523638  0.62711799  0.37582807  1
  Co  Co104  1  0.00030026  0.75324750  0.25124743  1
  Co  Co105  1  0.50192873  0.25068411  0.50080124  1
  Co  Co106  1  0.25048838  0.00309985  0.50011994  1
  Co  Co107  1  0.62312622  0.37540975  0.87301736  1
  Co  Co108  1  0.50347407  0.50237235  0.00103228  1
  Co  Co109  1  0.24255095  0.49660288  -0.00183660  1
  Co  Co110  1  0.37497962  0.87453875  0.37811198  1
  Co  Co111  1  0.74530514  -0.00380220  0.49937561  1
  Co  Co112  1  0.37523909  0.87249850  0.12191707  1
  Co  Co113  1  0.74834612  0.24785169  0.25024850  1
  Co  Co114  1  -0.00181914  0.24577678  0.74630300  1
  Co  Co115  1  0.87166732  0.12255518  0.37660045  1
  Co  Co116  1  0.37541528  0.12870380  0.12283450  1
  Co  Co117  1  0.87775078  0.37236729  0.87447201  1
  Co  Co118  1  0.24869165  0.74774304  0.50116109  1
  Co  Co119  1  0.24880304  0.75065019  -0.00176958  1
  Co  Co120  1  0.24987655  -0.00174022  0.74872455  1
  Co  Co121  1  0.50154641  -0.00389406  0.50196398  1
  Co  Co122  1  0.24885075  0.50091553  0.25215406  1
  Co  Co123  1  0.87440957  0.87677354  0.12491245  1
  Co  Co124  1  0.74934299  0.24937459  0.74974178  1
  Co  Co125  1  0.49769645  0.00018479  0.75104954  1
  Co  Co126  1  0.12877999  0.12339989  0.36989565  1
  Co  Co127  1  0.12397453  0.62487725  0.62699383  1
