# generated using pymatgen
data_Fe45Co19
_symmetry_space_group_name_H-M   'P 1'
_cell_length_a   11.40773650
_cell_length_b   11.40624186
_cell_length_c   11.40707529
_cell_angle_alpha   89.99583083
_cell_angle_beta   90.00496683
_cell_angle_gamma   89.98949351
_symmetry_Int_Tables_number   1
_chemical_formula_structural   Fe45Co19
_chemical_formula_sum   'Fe90 Co38'
_cell_volume   1484.28177585
_cell_formula_units_Z   2
loop_
 _symmetry_equiv_pos_site_id
 _symmetry_equiv_pos_as_xyz
  1  'x, y, z'
loop_
 _atom_site_type_symbol
 _atom_site_label
 _atom_site_symmetry_multiplicity
 _atom_site_fract_x
 _atom_site_fract_y
 _atom_site_fract_z
 _atom_site_occupancy
  Fe  Fe0  1  0.87927626  0.62468559  0.87244291  1
  Fe  Fe1  1  0.62433130  0.62368044  0.12682986  1
  Fe  Fe2  1  0.62070726  0.12569164  0.87279097  1
  Fe  Fe3  1  0.00151611  0.75066481  0.00190327  1
  Fe  Fe4  1  0.12461133  0.37206130  0.37348087  1
  Fe  Fe5  1  0.49916038  0.75384424  0.24976317  1
  Fe  Fe6  1  0.25025217  0.24692505  0.24917615  1
  Fe  Fe7  1  0.12678305  0.37056840  0.87559610  1
  Fe  Fe8  1  0.87564782  0.37226784  0.37355972  1
  Fe  Fe9  1  0.12378636  0.12050495  0.12507130  1
  Fe  Fe10  1  0.24987697  0.49969352  0.75396919  1
  Fe  Fe11  1  0.62614589  0.37725393  0.62394915  1
  Fe  Fe12  1  0.50019835  0.75211511  0.00229768  1
  Fe  Fe13  1  0.50006998  0.25196930  0.50026597  1
  Fe  Fe14  1  0.49851447  0.74848131  0.49864230  1
  Fe  Fe15  1  0.87367800  0.88190510  0.12175941  1
  Fe  Fe16  1  0.49988501  -0.00121392  0.49753914  1
  Fe  Fe17  1  0.50295674  0.25072085  0.00423811  1
  Fe  Fe18  1  0.62198792  0.12485527  0.62724297  1
  Fe  Fe19  1  0.62476608  0.87596738  0.87508834  1
  Fe  Fe20  1  0.36940666  0.87962887  0.12300752  1
  Fe  Fe21  1  0.24897498  0.50173100  0.49810249  1
  Fe  Fe22  1  0.62339010  0.62480196  0.87393152  1
  Fe  Fe23  1  0.00187318  0.49722567  0.24839336  1
  Fe  Fe24  1  0.12445461  0.12778207  0.87047277  1
  Fe  Fe25  1  -0.00047029  0.24875612  0.00304493  1
  Fe  Fe26  1  0.00074249  0.24950964  0.50301601  1
  Fe  Fe27  1  0.37972252  0.12831249  0.87178403  1
  Fe  Fe28  1  0.25117775  0.24553211  0.00246453  1
  Fe  Fe29  1  0.87540695  0.12515575  0.87534210  1
  Fe  Fe30  1  0.12508046  0.87583350  0.62395689  1
  Fe  Fe31  1  0.87365050  0.87671724  0.62343602  1
  Fe  Fe32  1  0.37588100  0.37237562  0.37349249  1
  Fe  Fe33  1  0.62427154  0.62628002  0.37248289  1
  Fe  Fe34  1  0.25032403  0.24870397  0.50169006  1
  Fe  Fe35  1  0.62006395  0.12437193  0.37001984  1
  Fe  Fe36  1  0.87429929  0.37593558  0.62588119  1
  Fe  Fe37  1  0.37891165  0.11965899  0.12910430  1
  Fe  Fe38  1  0.25139193  0.00127362  0.75052238  1
  Fe  Fe39  1  0.37554061  0.62486099  0.12645365  1
  Fe  Fe40  1  0.62631236  0.87467430  0.62276703  1
  Fe  Fe41  1  0.12380455  0.12466204  0.37667889  1
  Fe  Fe42  1  0.87850622  0.12698358  0.37250292  1
  Fe  Fe43  1  0.24935961  0.00324436  0.49910416  1
  Fe  Fe44  1  0.24768355  0.50413203  -0.00169103  1
  Fe  Fe45  1  0.12652824  0.87390843  0.87602445  1
  Fe  Fe46  1  0.49830339  0.50090547  0.49518933  1
  Fe  Fe47  1  0.00052699  -0.00024271  0.74926707  1
  Fe  Fe48  1  0.87339771  0.37382193  0.87489186  1
  Fe  Fe49  1  0.00245327  0.75472468  0.24750864  1
  Fe  Fe50  1  0.87611192  0.87481090  0.37730702  1
  Fe  Fe51  1  0.87893293  0.62204741  0.62942456  1
  Fe  Fe52  1  0.12314342  0.62632994  0.37333459  1
  Fe  Fe53  1  0.62322594  0.62258159  0.62710538  1
  Fe  Fe54  1  0.74838637  0.25111979  0.74939735  1
  Fe  Fe55  1  0.74616484  0.24776942  0.24692790  1
  Fe  Fe56  1  0.12645857  0.37345600  0.62752859  1
  Fe  Fe57  1  0.87439763  0.87622731  0.87642246  1
  Fe  Fe58  1  0.74948246  0.49880656  0.25153518  1
  Fe  Fe59  1  0.37410494  0.37591385  0.12495466  1
  Fe  Fe60  1  0.49804199  0.75114886  0.74912247  1
  Fe  Fe61  1  0.75146448  0.75225108  0.25018265  1
  Fe  Fe62  1  0.00261289  0.49917401  0.00086243  1
  Fe  Fe63  1  0.75166250  0.74581906  0.49997511  1
  Fe  Fe64  1  0.37092714  0.87451230  0.37648362  1
  Fe  Fe65  1  0.87453698  0.37245929  0.12552983  1
  Fe  Fe66  1  0.74666789  0.24437640  0.00526198  1
  Fe  Fe67  1  0.00016174  0.74807504  0.50198550  1
  Fe  Fe68  1  0.75039153  0.50132416  -0.00052147  1
  Fe  Fe69  1  0.24943567  0.50057902  0.25045708  1
  Fe  Fe70  1  0.00120235  0.50053146  0.49988959  1
  Fe  Fe71  1  0.24908837  0.74656331  0.50177206  1
  Fe  Fe72  1  0.37385356  0.62234952  0.62781257  1
  Fe  Fe73  1  0.87529472  0.12416168  0.62574768  1
  Fe  Fe74  1  0.75090044  0.74839373  0.74977110  1
  Fe  Fe75  1  0.74964765  0.74991180  0.00004602  1
  Fe  Fe76  1  0.49995313  0.49839829  -0.00103951  1
  Fe  Fe77  1  0.37374472  0.87559810  0.62437545  1
  Fe  Fe78  1  0.62715551  0.88297972  0.12629695  1
  Fe  Fe79  1  0.74815100  0.00000525  0.75082438  1
  Fe  Fe80  1  0.37380431  0.87395383  0.87600953  1
  Fe  Fe81  1  0.74946389  0.00223274  0.49614470  1
  Fe  Fe82  1  0.37743201  0.12641839  0.62663112  1
  Fe  Fe83  1  0.75148332  0.50211430  0.49743788  1
  Fe  Fe84  1  0.24648495  0.75298552  0.24917641  1
  Fe  Fe85  1  0.49795415  0.49280696  0.75420303  1
  Fe  Fe86  1  0.00287847  -0.00259942  0.25102991  1
  Fe  Fe87  1  0.24866242  0.74606554  -0.00123730  1
  Fe  Fe88  1  0.74834894  0.24906026  0.49853367  1
  Fe  Fe89  1  0.87656625  0.62522555  0.12670453  1
  Co  Co90  1  0.50114831  0.25329695  0.24638496  1
  Co  Co91  1  0.24776541  0.00108751  0.25367934  1
  Co  Co92  1  0.25136987  0.74997055  0.74950022  1
  Co  Co93  1  0.75012016  0.50037877  0.75095123  1
  Co  Co94  1  -0.00206974  0.25086742  0.74849472  1
  Co  Co95  1  0.49606726  -0.00644624  0.25480809  1
  Co  Co96  1  0.62099773  0.11664838  0.12914985  1
  Co  Co97  1  -0.00066645  0.00225071  0.50030780  1
  Co  Co98  1  0.74770688  0.00425035  -0.00266308  1
  Co  Co99  1  0.37327463  0.62763455  0.37194128  1
  Co  Co100  1  0.37101258  0.37125340  0.88105657  1
  Co  Co101  1  0.62717020  0.87300117  0.37696852  1
  Co  Co102  1  0.12132260  0.62786214  0.87197110  1
  Co  Co103  1  0.87659038  0.12118532  0.12628254  1
  Co  Co104  1  0.75230418  0.00089376  0.25446139  1
  Co  Co105  1  0.49921655  -0.00370186  0.74938657  1
  Co  Co106  1  0.00173166  0.00162009  -0.00284952  1
  Co  Co107  1  0.62577887  0.37848208  0.12458316  1
  Co  Co108  1  0.62523345  0.37472782  0.37532897  1
  Co  Co109  1  0.00340703  0.49569420  0.75178121  1
  Co  Co110  1  0.37347357  0.37723199  0.62149072  1
  Co  Co111  1  -0.00045687  0.75425625  0.74806082  1
  Co  Co112  1  0.87811865  0.62554911  0.37174086  1
  Co  Co113  1  0.49863007  0.49904003  0.25184319  1
  Co  Co114  1  0.49930884  0.25842151  0.74849637  1
  Co  Co115  1  0.25137167  0.00542341  -0.00510486  1
  Co  Co116  1  0.49898897  -0.00137164  -0.00220355  1
  Co  Co117  1  0.12913658  0.87922218  0.11948563  1
  Co  Co118  1  0.12527602  0.87482641  0.38020283  1
  Co  Co119  1  0.12423195  0.62543228  0.12675872  1
  Co  Co120  1  0.00268889  0.24978286  0.24655107  1
  Co  Co121  1  0.25390830  0.25102928  0.74728759  1
  Co  Co122  1  0.12516166  0.62471389  0.62802432  1
  Co  Co123  1  0.37751134  0.62654632  0.87495577  1
  Co  Co124  1  0.37702279  0.12710640  0.37512697  1
  Co  Co125  1  0.12831016  0.37376226  0.12321008  1
  Co  Co126  1  0.12537922  0.12516220  0.62698566  1
  Co  Co127  1  0.62895340  0.37306633  0.87770732  1
