# generated using pymatgen
data_Fe45Co19
_symmetry_space_group_name_H-M   'P 1'
_cell_length_a   11.41651814
_cell_length_b   11.41545532
_cell_length_c   11.41497480
_cell_angle_alpha   90.00737597
_cell_angle_beta   89.99731512
_cell_angle_gamma   89.99910817
_symmetry_Int_Tables_number   1
_chemical_formula_structural   Fe45Co19
_chemical_formula_sum   'Fe90 Co38'
_cell_volume   1487.65375548
_cell_formula_units_Z   2
loop_
 _symmetry_equiv_pos_site_id
 _symmetry_equiv_pos_as_xyz
  1  'x, y, z'
loop_
 _atom_site_type_symbol
 _atom_site_label
 _atom_site_symmetry_multiplicity
 _atom_site_fract_x
 _atom_site_fract_y
 _atom_site_fract_z
 _atom_site_occupancy
  Fe  Fe0  1  0.87551073  0.12406568  0.37434288  1
  Fe  Fe1  1  0.37367370  0.62548030  0.12867392  1
  Fe  Fe2  1  0.37282319  0.87438746  0.12559751  1
  Fe  Fe3  1  0.87332803  0.37445224  0.62550479  1
  Fe  Fe4  1  0.24826857  0.49920075  0.25211269  1
  Fe  Fe5  1  0.12730536  0.12167935  0.62697915  1
  Fe  Fe6  1  0.12410992  0.37398620  0.87553452  1
  Fe  Fe7  1  0.12548925  0.62416798  0.12440111  1
  Fe  Fe8  1  0.50231653  0.25062423  0.25017348  1
  Fe  Fe9  1  0.12494126  0.12439521  0.12410932  1
  Fe  Fe10  1  0.24954983  -0.00007065  0.25200733  1
  Fe  Fe11  1  0.00166487  0.24796491  0.50039982  1
  Fe  Fe12  1  0.62466008  0.62754340  0.12393503  1
  Fe  Fe13  1  0.75365519  0.50573716  0.49770228  1
  Fe  Fe14  1  0.37731815  0.37273624  0.87139242  1
  Fe  Fe15  1  0.49930773  0.50056245  0.00007418  1
  Fe  Fe16  1  0.87492368  0.87453613  0.37763202  1
  Fe  Fe17  1  0.12225119  0.62174167  0.37791417  1
  Fe  Fe18  1  0.50123614  0.24816124  0.50180962  1
  Fe  Fe19  1  0.74981103  0.50145759  0.74956580  1
  Fe  Fe20  1  0.37509761  0.87342358  0.87492419  1
  Fe  Fe21  1  0.24636164  0.75206800  0.74896423  1
  Fe  Fe22  1  0.37531563  0.62613307  0.87139074  1
  Fe  Fe23  1  0.00220927  0.25168961  0.24937634  1
  Fe  Fe24  1  0.00115343  0.49510208  0.24793326  1
  Fe  Fe25  1  0.24712522  0.24896199  0.50020766  1
  Fe  Fe26  1  0.37519944  0.37442004  0.37661486  1
  Fe  Fe27  1  0.37442789  0.12388199  0.37449698  1
  Fe  Fe28  1  0.12410194  0.62592811  0.87550983  1
  Fe  Fe29  1  0.24740011  0.25028275  0.25143493  1
  Fe  Fe30  1  0.62364109  0.62877148  0.87470096  1
  Fe  Fe31  1  0.62579368  0.12234055  0.62630179  1
  Fe  Fe32  1  0.25159398  0.00305155  -0.00501539  1
  Fe  Fe33  1  0.62578732  0.62837887  0.62489456  1
  Fe  Fe34  1  0.25214693  0.24791645  -0.00344284  1
  Fe  Fe35  1  0.74870884  0.24880401  0.25069206  1
  Fe  Fe36  1  0.37201134  0.12360091  0.63018824  1
  Fe  Fe37  1  0.37542588  0.62761656  0.62508401  1
  Fe  Fe38  1  0.87246902  0.87506623  0.12352604  1
  Fe  Fe39  1  0.25127791  0.49999002  -0.00134999  1
  Fe  Fe40  1  0.50249591  0.75395580  0.49950320  1
  Fe  Fe41  1  0.75108099  0.24756329  -0.00136653  1
  Fe  Fe42  1  0.62758919  0.37561898  0.62276042  1
  Fe  Fe43  1  0.62398742  0.87031884  0.88089755  1
  Fe  Fe44  1  0.62726262  0.37408937  0.12435816  1
  Fe  Fe45  1  0.62528685  0.12269429  0.37565548  1
  Fe  Fe46  1  0.87385729  0.37357388  0.87333977  1
  Fe  Fe47  1  -0.00157652  0.74885962  0.00120514  1
  Fe  Fe48  1  0.87625183  0.62772457  0.87020186  1
  Fe  Fe49  1  -0.00005176  0.00008030  0.25058718  1
  Fe  Fe50  1  0.37441995  0.87588738  0.62557475  1
  Fe  Fe51  1  0.50032643  -0.00217228  0.75193215  1
  Fe  Fe52  1  0.62457375  0.37333255  0.87391033  1
  Fe  Fe53  1  0.12689285  0.87612372  0.12200656  1
  Fe  Fe54  1  0.12303731  0.62231612  0.62179558  1
  Fe  Fe55  1  0.24872560  0.49884224  0.74829130  1
  Fe  Fe56  1  0.49997362  0.50044922  0.49966174  1
  Fe  Fe57  1  0.74890780  -0.00214940  0.75332173  1
  Fe  Fe58  1  -0.00210746  0.49857972  0.00180968  1
  Fe  Fe59  1  0.37373447  0.37405362  0.62536973  1
  Fe  Fe60  1  0.50228805  0.75405198  0.24949644  1
  Fe  Fe61  1  0.75121793  0.50264909  -0.00080557  1
  Fe  Fe62  1  0.75258211  -0.00332541  0.50250971  1
  Fe  Fe63  1  0.75024836  0.24743184  0.50085014  1
  Fe  Fe64  1  0.24961333  0.75114721  0.49764623  1
  Fe  Fe65  1  0.25127223  0.74808747  0.00052402  1
  Fe  Fe66  1  0.74822428  0.75067795  0.25252175  1
  Fe  Fe67  1  0.00237614  -0.00185241  0.75268756  1
  Fe  Fe68  1  0.12323280  0.87751404  0.62158547  1
  Fe  Fe69  1  0.12499662  0.87908196  0.37835884  1
  Fe  Fe70  1  0.37642243  0.62750146  0.37447996  1
  Fe  Fe71  1  0.87385537  0.12407990  0.12464416  1
  Fe  Fe72  1  0.50234952  0.49803020  0.25151137  1
  Fe  Fe73  1  0.00358551  0.75262661  0.25053249  1
  Fe  Fe74  1  0.74767228  -0.00072673  0.24734286  1
  Fe  Fe75  1  0.00095448  0.25035059  0.74845305  1
  Fe  Fe76  1  0.49806847  -0.00033860  0.49944456  1
  Fe  Fe77  1  0.62086833  0.12731107  0.87663244  1
  Fe  Fe78  1  0.87470547  0.37427510  0.37487973  1
  Fe  Fe79  1  0.00002074  0.49957391  0.74778660  1
  Fe  Fe80  1  -0.00150129  0.00094833  -0.00171502  1
  Fe  Fe81  1  0.87551499  0.62484347  0.12879398  1
  Fe  Fe82  1  -0.00176973  0.25026406  0.00148859  1
  Fe  Fe83  1  0.87441172  0.12216917  0.62895336  1
  Fe  Fe84  1  0.37775352  0.12473705  0.12400194  1
  Fe  Fe85  1  0.50330039  -0.00224791  0.24709294  1
  Fe  Fe86  1  0.37337382  0.37543460  0.12534728  1
  Fe  Fe87  1  0.87580261  0.87283071  0.87412655  1
  Fe  Fe88  1  0.50102824  0.50017189  0.74820236  1
  Fe  Fe89  1  0.74829804  0.50073213  0.25293247  1
  Co  Co90  1  0.24759549  0.25147001  0.75006270  1
  Co  Co91  1  0.00487936  0.75097579  0.74878582  1
  Co  Co92  1  0.62511581  0.12608076  0.12335892  1
  Co  Co93  1  0.75167341  0.74993516  0.50069352  1
  Co  Co94  1  0.49842126  0.25206258  0.00200795  1
  Co  Co95  1  0.12418264  0.87306037  0.87953678  1
  Co  Co96  1  0.24839973  -0.00302369  0.75409241  1
  Co  Co97  1  0.74963384  0.00183024  -0.00241953  1
  Co  Co98  1  0.12408496  0.37745294  0.37858574  1
  Co  Co99  1  0.87836974  0.62653154  0.37069059  1
  Co  Co100  1  0.62400500  0.87605906  0.62445576  1
  Co  Co101  1  0.87650148  0.12550094  0.87299957  1
  Co  Co102  1  0.62250113  0.62695841  0.37625915  1
  Co  Co103  1  0.25232735  0.00079768  0.49928664  1
  Co  Co104  1  0.74809521  0.75348303  0.74806115  1
  Co  Co105  1  0.74844734  0.24834805  0.74948473  1
  Co  Co106  1  0.12513381  0.12245481  0.37424683  1
  Co  Co107  1  0.62649913  0.87777450  0.37731067  1
  Co  Co108  1  0.12341936  0.12626082  0.87457889  1
  Co  Co109  1  0.87059331  0.37492813  0.12511680  1
  Co  Co110  1  0.75489179  0.74632932  -0.00044224  1
  Co  Co111  1  -0.00228772  0.00285647  0.49985303  1
  Co  Co112  1  0.37539922  0.87518586  0.37379898  1
  Co  Co113  1  0.25383948  0.50059346  0.49990611  1
  Co  Co114  1  -0.00210400  0.74945381  0.49951901  1
  Co  Co115  1  0.24566885  0.75039520  0.25295638  1
  Co  Co116  1  0.87535867  0.62940918  0.62933617  1
  Co  Co117  1  0.12449568  0.37809581  0.62250164  1
  Co  Co118  1  0.12864498  0.37394462  0.12175349  1
  Co  Co119  1  0.49478306  0.74775495  0.00201705  1
  Co  Co120  1  0.49971551  -0.00143582  0.00129871  1
  Co  Co121  1  0.50256827  0.25104506  0.74483538  1
  Co  Co122  1  0.62618786  0.37452713  0.37838527  1
  Co  Co123  1  0.37902808  0.12663388  0.87132002  1
  Co  Co124  1  0.50017464  0.75125343  0.74940430  1
  Co  Co125  1  0.87779011  0.87446579  0.62738473  1
  Co  Co126  1  0.62822032  0.87188212  0.11973905  1
  Co  Co127  1  -0.00708161  0.50065862  0.50182130  1
