# generated using pymatgen
data_Fe45Co19
_symmetry_space_group_name_H-M   'P 1'
_cell_length_a   11.41486697
_cell_length_b   11.41361668
_cell_length_c   11.41460990
_cell_angle_alpha   90.01016903
_cell_angle_beta   89.99784923
_cell_angle_gamma   90.00585845
_symmetry_Int_Tables_number   1
_chemical_formula_structural   Fe45Co19
_chemical_formula_sum   'Fe90 Co38'
_cell_volume   1487.15146133
_cell_formula_units_Z   2
loop_
 _symmetry_equiv_pos_site_id
 _symmetry_equiv_pos_as_xyz
  1  'x, y, z'
loop_
 _atom_site_type_symbol
 _atom_site_label
 _atom_site_symmetry_multiplicity
 _atom_site_fract_x
 _atom_site_fract_y
 _atom_site_fract_z
 _atom_site_occupancy
  Fe  Fe0  1  0.37269004  0.62428490  0.87821540  1
  Fe  Fe1  1  0.37636508  0.37385041  0.62396637  1
  Fe  Fe2  1  0.49760005  0.49927971  0.75121096  1
  Fe  Fe3  1  0.12092728  0.62271202  0.62493657  1
  Fe  Fe4  1  -0.00252067  0.50104426  0.25117333  1
  Fe  Fe5  1  0.49832772  0.75094082  0.75167193  1
  Fe  Fe6  1  0.62716125  0.37858743  0.37313814  1
  Fe  Fe7  1  0.87484628  0.12610460  0.12494168  1
  Fe  Fe8  1  0.87581281  0.87323327  0.62485346  1
  Fe  Fe9  1  0.12600441  0.37367372  0.87548007  1
  Fe  Fe10  1  0.12581134  0.87879882  0.62726589  1
  Fe  Fe11  1  0.87571886  0.12522838  0.62301770  1
  Fe  Fe12  1  0.25109935  0.75046997  0.74778529  1
  Fe  Fe13  1  0.62531078  0.62521261  0.87317902  1
  Fe  Fe14  1  0.75027288  0.75028576  0.00127427  1
  Fe  Fe15  1  0.62742524  0.87277202  0.37488267  1
  Fe  Fe16  1  0.37459362  0.12453029  0.62489288  1
  Fe  Fe17  1  0.87606761  0.62512210  0.87460392  1
  Fe  Fe18  1  0.24908562  0.49846734  0.74985051  1
  Fe  Fe19  1  0.87566050  0.62846319  0.37675926  1
  Fe  Fe20  1  0.37613404  0.62579578  0.62302244  1
  Fe  Fe21  1  0.25102392  0.74944466  0.24925242  1
  Fe  Fe22  1  0.75044965  -0.00081554  0.25124781  1
  Fe  Fe23  1  0.00160319  0.00069666  0.75367279  1
  Fe  Fe24  1  0.37320618  0.87407119  0.37638020  1
  Fe  Fe25  1  0.50064810  0.50206507  0.49707408  1
  Fe  Fe26  1  0.75279392  0.50462892  0.24954831  1
  Fe  Fe27  1  0.87140528  0.12696317  0.37631779  1
  Fe  Fe28  1  0.00228327  0.25029092  0.25298309  1
  Fe  Fe29  1  0.00198345  0.00065400  -0.00229814  1
  Fe  Fe30  1  0.37160753  0.87578596  0.87514155  1
  Fe  Fe31  1  0.49576214  0.50254800  0.24961498  1
  Fe  Fe32  1  0.12282466  0.37307222  0.62150275  1
  Fe  Fe33  1  0.12484587  0.62486838  0.87462817  1
  Fe  Fe34  1  0.62768109  0.87530331  0.87400594  1
  Fe  Fe35  1  0.74907219  0.74540963  0.50374874  1
  Fe  Fe36  1  0.37422857  0.37365076  0.87810444  1
  Fe  Fe37  1  0.00108901  0.24929191  0.74930826  1
  Fe  Fe38  1  0.50078716  0.00029117  0.25277905  1
  Fe  Fe39  1  -0.00098103  0.75157681  0.75111141  1
  Fe  Fe40  1  0.74872538  0.50014045  0.00201423  1
  Fe  Fe41  1  0.50344806  0.25009758  0.75162558  1
  Fe  Fe42  1  0.87788983  0.87520766  0.12678438  1
  Fe  Fe43  1  0.50029248  -0.00073869  -0.00083132  1
  Fe  Fe44  1  0.37773848  0.87248944  0.12577056  1
  Fe  Fe45  1  0.62180210  0.62876239  0.12806472  1
  Fe  Fe46  1  0.87302312  0.12633058  0.87654477  1
  Fe  Fe47  1  0.74916331  0.25262562  0.49962604  1
  Fe  Fe48  1  0.62257578  0.87276425  0.12749590  1
  Fe  Fe49  1  0.12459752  0.62332693  0.12496116  1
  Fe  Fe50  1  0.50925210  0.25217185  0.00086924  1
  Fe  Fe51  1  -0.00006814  0.25020894  0.00104919  1
  Fe  Fe52  1  0.74450470  0.24750290  0.24787942  1
  Fe  Fe53  1  0.62433894  0.37815455  0.62445662  1
  Fe  Fe54  1  0.24731390  0.24931173  0.00458067  1
  Fe  Fe55  1  0.50161597  0.25001651  0.49786103  1
  Fe  Fe56  1  0.24877080  0.00203243  0.00148492  1
  Fe  Fe57  1  0.75098860  -0.00088678  0.74882409  1
  Fe  Fe58  1  0.24699319  0.75054176  0.50108040  1
  Fe  Fe59  1  0.50027805  0.74718715  0.49684936  1
  Fe  Fe60  1  0.87285474  0.37378264  0.12591440  1
  Fe  Fe61  1  0.25103388  0.00076764  0.50104995  1
  Fe  Fe62  1  0.12710047  0.12466776  0.37474638  1
  Fe  Fe63  1  0.74703215  0.24967738  0.75187132  1
  Fe  Fe64  1  0.75121756  0.50385411  0.74590122  1
  Fe  Fe65  1  0.75014094  0.00028745  0.00107741  1
  Fe  Fe66  1  0.50064612  0.00036282  0.49873244  1
  Fe  Fe67  1  0.49969557  0.49945189  0.00188240  1
  Fe  Fe68  1  0.12420013  0.87656516  0.37092109  1
  Fe  Fe69  1  0.49870087  -0.00095463  0.74963869  1
  Fe  Fe70  1  -0.00009324  0.75093572  0.00110600  1
  Fe  Fe71  1  0.37409346  0.12829466  0.37242295  1
  Fe  Fe72  1  -0.00205816  -0.00000169  0.49735637  1
  Fe  Fe73  1  0.87584669  0.87049258  0.37422869  1
  Fe  Fe74  1  0.24849359  0.24830966  0.74712050  1
  Fe  Fe75  1  0.25092927  0.49829433  0.50151470  1
  Fe  Fe76  1  0.37550418  0.12697319  0.87581842  1
  Fe  Fe77  1  0.62648090  0.12353200  0.62276818  1
  Fe  Fe78  1  0.25349210  0.49898868  0.24595430  1
  Fe  Fe79  1  -0.00386166  0.49595705  0.49704979  1
  Fe  Fe80  1  -0.00009958  0.49884057  -0.00140977  1
  Fe  Fe81  1  0.24891403  0.75033822  0.00179738  1
  Fe  Fe82  1  0.37820902  0.12873553  0.12771863  1
  Fe  Fe83  1  0.62428202  0.87313821  0.62460841  1
  Fe  Fe84  1  0.12568727  0.62334922  0.37484168  1
  Fe  Fe85  1  0.87182685  0.37478565  0.87560382  1
  Fe  Fe86  1  0.12394761  0.37671845  0.12637906  1
  Fe  Fe87  1  0.12280675  0.87823164  0.12856214  1
  Fe  Fe88  1  0.37315861  0.37234406  0.37292009  1
  Fe  Fe89  1  0.87526453  0.37516289  0.62460999  1
  Co  Co90  1  0.88127536  0.62536350  0.62399172  1
  Co  Co91  1  0.50555482  0.24923553  0.25089637  1
  Co  Co92  1  0.37558604  0.87422765  0.62260454  1
  Co  Co93  1  0.37716047  0.37067532  0.12445519  1
  Co  Co94  1  0.00380011  0.75240676  0.49969163  1
  Co  Co95  1  0.62601208  0.12092478  0.87476505  1
  Co  Co96  1  0.75189794  0.74785830  0.74815480  1
  Co  Co97  1  0.62742445  0.12339971  0.37790482  1
  Co  Co98  1  -0.00118380  0.25079565  0.49599768  1
  Co  Co99  1  0.12558934  0.12674566  0.87537238  1
  Co  Co100  1  0.50164330  0.75086853  -0.00390376  1
  Co  Co101  1  0.12741046  0.87401534  0.87494111  1
  Co  Co102  1  0.25041216  0.24972352  0.50044489  1
  Co  Co103  1  0.12782426  0.37759668  0.37517079  1
  Co  Co104  1  0.75317312  0.74984747  0.24753376  1
  Co  Co105  1  0.62742984  0.62429915  0.37138059  1
  Co  Co106  1  0.75169402  0.50275627  0.50155768  1
  Co  Co107  1  -0.00393473  0.00268053  0.25382961  1
  Co  Co108  1  0.87380863  0.87473089  0.87594423  1
  Co  Co109  1  0.87604524  0.62435128  0.12243482  1
  Co  Co110  1  0.62637322  0.37954484  0.12941991  1
  Co  Co111  1  0.25380622  0.00060118  0.24787005  1
  Co  Co112  1  0.24638141  0.25135799  0.24793815  1
  Co  Co113  1  0.74508798  0.25059380  0.00057139  1
  Co  Co114  1  0.00047349  0.74677573  0.24829457  1
  Co  Co115  1  0.24991851  0.49904991  0.00113243  1
  Co  Co116  1  0.62689216  0.37941466  0.87308414  1
  Co  Co117  1  0.12254556  0.12200666  0.12780171  1
  Co  Co118  1  0.62021192  0.62453880  0.62629408  1
  Co  Co119  1  0.12295936  0.12303283  0.62230792  1
  Co  Co120  1  0.49646540  0.74903243  0.25515600  1
  Co  Co121  1  0.37678211  0.62878820  0.12216654  1
  Co  Co122  1  0.87014455  0.37374464  0.37079086  1
  Co  Co123  1  0.62399282  0.12043094  0.12478800  1
  Co  Co124  1  0.37007031  0.62490379  0.37707316  1
  Co  Co125  1  0.00058366  0.49670776  0.75146479  1
  Co  Co126  1  0.75247910  -0.00298267  0.49962698  1
  Co  Co127  1  0.25081004  0.00217130  0.75110841  1
