# generated using pymatgen
data_Fe45Co19
_symmetry_space_group_name_H-M   'P 1'
_cell_length_a   11.41531798
_cell_length_b   11.41511030
_cell_length_c   11.41424856
_cell_angle_alpha   89.99717543
_cell_angle_beta   90.00662212
_cell_angle_gamma   89.99995437
_symmetry_Int_Tables_number   1
_chemical_formula_structural   Fe45Co19
_chemical_formula_sum   'Fe90 Co38'
_cell_volume   1487.35777505
_cell_formula_units_Z   2
loop_
 _symmetry_equiv_pos_site_id
 _symmetry_equiv_pos_as_xyz
  1  'x, y, z'
loop_
 _atom_site_type_symbol
 _atom_site_label
 _atom_site_symmetry_multiplicity
 _atom_site_fract_x
 _atom_site_fract_y
 _atom_site_fract_z
 _atom_site_occupancy
  Fe  Fe0  1  0.12372758  0.12401189  0.12610936  1
  Fe  Fe1  1  0.50353130  0.25555332  0.74927899  1
  Fe  Fe2  1  0.00141401  0.74972080  0.50086886  1
  Fe  Fe3  1  0.24761165  0.25218518  0.75197017  1
  Fe  Fe4  1  0.87634858  0.62793777  0.37407877  1
  Fe  Fe5  1  0.12667567  0.37565790  0.37625795  1
  Fe  Fe6  1  0.25259415  0.74823523  0.50248581  1
  Fe  Fe7  1  0.62379950  0.87713649  0.87387285  1
  Fe  Fe8  1  0.62172497  0.87817800  0.37723491  1
  Fe  Fe9  1  0.62178070  0.87616340  0.62466069  1
  Fe  Fe10  1  -0.00087926  0.25060493  -0.00099872  1
  Fe  Fe11  1  0.62567900  0.37637395  0.12396543  1
  Fe  Fe12  1  0.50092385  0.25123777  0.25291585  1
  Fe  Fe13  1  0.74756294  0.00185498  0.74723519  1
  Fe  Fe14  1  -0.00286692  0.75335021  -0.00426803  1
  Fe  Fe15  1  -0.00261243  -0.00224789  -0.00149266  1
  Fe  Fe16  1  0.25297111  -0.00117099  0.75410176  1
  Fe  Fe17  1  0.74866736  0.25036179  0.74781566  1
  Fe  Fe18  1  0.37512882  0.12729557  0.62824889  1
  Fe  Fe19  1  0.25302919  0.49912044  0.50374410  1
  Fe  Fe20  1  0.74830746  0.75083215  0.25073708  1
  Fe  Fe21  1  0.74826318  0.75173715  0.74858356  1
  Fe  Fe22  1  0.37477850  0.37754251  0.12647985  1
  Fe  Fe23  1  0.25005350  0.25057042  0.25058253  1
  Fe  Fe24  1  0.00033299  -0.00030822  0.74955994  1
  Fe  Fe25  1  0.87711805  0.37255303  0.37564920  1
  Fe  Fe26  1  0.62046157  0.37928847  0.38125331  1
  Fe  Fe27  1  0.87541889  0.37278065  0.62346701  1
  Fe  Fe28  1  0.50148203  0.74843108  0.24936334  1
  Fe  Fe29  1  0.12443934  0.87454197  0.12358368  1
  Fe  Fe30  1  0.12450107  0.12589162  0.87399033  1
  Fe  Fe31  1  0.50026598  0.50117507  0.00042559  1
  Fe  Fe32  1  0.87551594  0.37568640  0.12671960  1
  Fe  Fe33  1  0.37578206  0.12631412  0.12494365  1
  Fe  Fe34  1  0.49899270  0.25190521  -0.00074989  1
  Fe  Fe35  1  0.37480290  0.62455182  0.12490252  1
  Fe  Fe36  1  0.25275612  0.00025942  -0.00312096  1
  Fe  Fe37  1  0.74730126  0.24998297  0.25383966  1
  Fe  Fe38  1  0.62441201  0.87576407  0.12444676  1
  Fe  Fe39  1  0.25110655  0.24894053  0.49913134  1
  Fe  Fe40  1  0.12317172  0.37331770  0.62677079  1
  Fe  Fe41  1  0.12450929  0.62625856  0.62667711  1
  Fe  Fe42  1  0.74815983  0.24634755  0.49665787  1
  Fe  Fe43  1  0.87488711  0.37443187  0.87263010  1
  Fe  Fe44  1  0.74874673  0.75047398  0.50038189  1
  Fe  Fe45  1  0.74676143  0.49611951  0.74590373  1
  Fe  Fe46  1  0.25240800  -0.00129889  0.24893733  1
  Fe  Fe47  1  0.37377784  0.38021786  0.87270746  1
  Fe  Fe48  1  0.25061186  0.00129613  0.50099425  1
  Fe  Fe49  1  0.75053839  0.50074565  0.00040171  1
  Fe  Fe50  1  0.12354560  0.62744871  0.12303431  1
  Fe  Fe51  1  0.87510730  0.62743963  0.12620642  1
  Fe  Fe52  1  0.00062406  0.49976974  -0.00300339  1
  Fe  Fe53  1  0.62397248  0.12437469  0.12674004  1
  Fe  Fe54  1  0.87529342  0.12594618  0.12868473  1
  Fe  Fe55  1  -0.00120641  0.50095744  0.50064223  1
  Fe  Fe56  1  0.75156783  -0.00030947  0.25447617  1
  Fe  Fe57  1  0.75165095  -0.00033703  0.00066293  1
  Fe  Fe58  1  0.12569865  0.62478840  0.87114253  1
  Fe  Fe59  1  0.87396839  0.62536553  0.62646430  1
  Fe  Fe60  1  0.49833949  0.74852601  0.50313627  1
  Fe  Fe61  1  0.37507283  0.87260050  0.12326263  1
  Fe  Fe62  1  0.25261250  0.74871375  -0.00598030  1
  Fe  Fe63  1  0.87366349  0.62523064  0.87089740  1
  Fe  Fe64  1  0.74850518  0.50070110  0.25154122  1
  Fe  Fe65  1  0.87636329  0.12321544  0.62151935  1
  Fe  Fe66  1  0.49932706  0.74718315  -0.00307230  1
  Fe  Fe67  1  0.00229816  0.50169610  0.25141424  1
  Fe  Fe68  1  0.37671664  0.12358263  0.37458625  1
  Fe  Fe69  1  0.37649260  0.87448348  0.62993150  1
  Fe  Fe70  1  0.24952886  0.25159274  -0.00106476  1
  Fe  Fe71  1  0.75164563  0.24952875  0.00130091  1
  Fe  Fe72  1  0.62421037  0.12708532  0.87554279  1
  Fe  Fe73  1  0.24812076  0.74788553  0.25062687  1
  Fe  Fe74  1  0.87545277  0.87692908  0.62255140  1
  Fe  Fe75  1  0.62467144  0.62275126  0.87233535  1
  Fe  Fe76  1  -0.00201603  -0.00172844  0.25403053  1
  Fe  Fe77  1  0.87381167  0.12441846  0.87340607  1
  Fe  Fe78  1  0.75119352  0.75203632  -0.00095833  1
  Fe  Fe79  1  0.00488803  0.24433519  0.50018152  1
  Fe  Fe80  1  0.49770399  0.00163779  -0.00187816  1
  Fe  Fe81  1  0.37620735  0.62398802  0.63418559  1
  Fe  Fe82  1  0.12634512  0.87374965  0.37672996  1
  Fe  Fe83  1  0.24805882  0.50170339  0.24896284  1
  Fe  Fe84  1  0.37590102  0.87376239  0.37494905  1
  Fe  Fe85  1  0.37555429  0.62206807  0.37461638  1
  Fe  Fe86  1  0.62235994  0.62154061  0.37990048  1
  Fe  Fe87  1  0.12654972  0.87490823  0.62691679  1
  Fe  Fe88  1  0.62072009  0.12573895  0.62089831  1
  Fe  Fe89  1  0.12441362  0.37501449  0.12414208  1
  Co  Co90  1  0.61997970  0.12071024  0.37690084  1
  Co  Co91  1  -0.00067413  0.75121532  0.74972846  1
  Co  Co92  1  0.87607699  0.87278129  0.37921399  1
  Co  Co93  1  0.37508668  0.37884687  0.37344976  1
  Co  Co94  1  0.49739259  -0.00153057  0.24775876  1
  Co  Co95  1  0.62717149  0.62571182  0.12307598  1
  Co  Co96  1  0.00162354  0.25054549  0.25040862  1
  Co  Co97  1  0.00303237  0.75021717  0.25193562  1
  Co  Co98  1  0.12351427  0.37386880  0.87344455  1
  Co  Co99  1  0.49563421  -0.00055797  0.50289831  1
  Co  Co100  1  0.12711614  0.62415507  0.37950101  1
  Co  Co101  1  0.37642569  0.61889963  0.86898610  1
  Co  Co102  1  0.49990558  0.00264576  0.75089204  1
  Co  Co103  1  0.50280136  0.74874351  0.75070249  1
  Co  Co104  1  0.62612047  0.62351481  0.62257480  1
  Co  Co105  1  0.87690054  0.12665177  0.37714118  1
  Co  Co106  1  0.50199458  0.50150335  0.24764894  1
  Co  Co107  1  0.75528241  0.50131902  0.49895272  1
  Co  Co108  1  0.87517090  0.87310014  0.12696051  1
  Co  Co109  1  0.74860865  0.00054727  0.49892782  1
  Co  Co110  1  -0.00189150  0.24819313  0.74935025  1
  Co  Co111  1  -0.00027840  0.49962489  0.74888573  1
  Co  Co112  1  0.24843673  0.50074315  -0.00015726  1
  Co  Co113  1  0.87219624  0.87705021  0.87094006  1
  Co  Co114  1  0.37571394  0.12987154  0.87291732  1
  Co  Co115  1  0.00462210  0.00163978  0.49959693  1
  Co  Co116  1  0.50696174  0.49405713  0.74585390  1
  Co  Co117  1  0.49568349  0.25103198  0.49844648  1
  Co  Co118  1  0.24514080  0.49827967  0.74744865  1
  Co  Co119  1  0.12514881  0.87521622  0.87429040  1
  Co  Co120  1  0.62799667  0.37448583  0.61539863  1
  Co  Co121  1  0.37858754  0.87363940  0.87357450  1
  Co  Co122  1  0.12758828  0.12372272  0.37186419  1
  Co  Co123  1  0.25007999  0.75113264  0.75261922  1
  Co  Co124  1  0.12883858  0.12383142  0.62973106  1
  Co  Co125  1  0.62789767  0.37449190  0.87887919  1
  Co  Co126  1  0.49379564  0.50029630  0.50750763  1
  Co  Co127  1  0.37290704  0.37156980  0.62815226  1
