# generated using pymatgen
data_Fe45Co19
_symmetry_space_group_name_H-M   'P 1'
_cell_length_a   11.41452445
_cell_length_b   11.41557198
_cell_length_c   11.41490715
_cell_angle_alpha   90.00160435
_cell_angle_beta   90.00571103
_cell_angle_gamma   89.99462200
_symmetry_Int_Tables_number   1
_chemical_formula_structural   Fe45Co19
_chemical_formula_sum   'Fe90 Co38'
_cell_volume   1487.40034735
_cell_formula_units_Z   2
loop_
 _symmetry_equiv_pos_site_id
 _symmetry_equiv_pos_as_xyz
  1  'x, y, z'
loop_
 _atom_site_type_symbol
 _atom_site_label
 _atom_site_symmetry_multiplicity
 _atom_site_fract_x
 _atom_site_fract_y
 _atom_site_fract_z
 _atom_site_occupancy
  Fe  Fe0  1  0.38025595  0.87285312  0.62524317  1
  Fe  Fe1  1  0.25006717  0.75076902  0.25174147  1
  Fe  Fe2  1  0.12052889  0.87913500  0.87628211  1
  Fe  Fe3  1  0.50160373  0.74889765  0.25145558  1
  Fe  Fe4  1  0.62510492  0.87421163  0.12070119  1
  Fe  Fe5  1  0.00132100  0.25005262  0.74899494  1
  Fe  Fe6  1  0.12627691  0.37668941  0.62484382  1
  Fe  Fe7  1  0.87585841  0.37763284  0.87022693  1
  Fe  Fe8  1  0.12598618  0.87567165  0.12429757  1
  Fe  Fe9  1  0.74848256  -0.00288828  0.25199469  1
  Fe  Fe10  1  0.62877306  0.62584391  0.12365795  1
  Fe  Fe11  1  0.12497500  0.37412789  0.12263279  1
  Fe  Fe12  1  0.00078496  0.25156238  0.49956120  1
  Fe  Fe13  1  0.24646659  0.25167041  0.25351892  1
  Fe  Fe14  1  0.62527732  0.12522182  0.12303808  1
  Fe  Fe15  1  0.12332367  0.87561939  0.37806281  1
  Fe  Fe16  1  0.25322488  0.74892632  0.49900324  1
  Fe  Fe17  1  0.62685890  0.12552358  0.62407148  1
  Fe  Fe18  1  0.50709818  -0.00188781  0.75056781  1
  Fe  Fe19  1  0.62547508  0.37703841  0.37724456  1
  Fe  Fe20  1  0.74981406  0.74892679  0.50078709  1
  Fe  Fe21  1  -0.00329891  0.74789755  0.50119873  1
  Fe  Fe22  1  0.87529864  0.37487906  0.12466244  1
  Fe  Fe23  1  -0.00056113  0.75225049  0.75052954  1
  Fe  Fe24  1  0.12754922  0.62646740  0.62759025  1
  Fe  Fe25  1  -0.00192993  0.50261773  -0.00027201  1
  Fe  Fe26  1  0.25000652  0.25220872  0.50025070  1
  Fe  Fe27  1  -0.00086882  0.24701267  -0.00187958  1
  Fe  Fe28  1  0.25149578  0.24514573  -0.00448860  1
  Fe  Fe29  1  -0.00213083  -0.00040481  0.50225690  1
  Fe  Fe30  1  0.37537832  0.87590953  0.12537440  1
  Fe  Fe31  1  0.49769770  0.50065445  0.00008995  1
  Fe  Fe32  1  0.37372712  0.62646765  0.12582074  1
  Fe  Fe33  1  0.37449151  0.37282385  0.87149379  1
  Fe  Fe34  1  0.25146234  0.50062518  -0.00128812  1
  Fe  Fe35  1  -0.00059674  0.50008769  0.24834596  1
  Fe  Fe36  1  0.24785518  -0.00156473  0.74945171  1
  Fe  Fe37  1  0.75282400  0.50192535  -0.00158137  1
  Fe  Fe38  1  0.12637431  0.37529056  0.87398678  1
  Fe  Fe39  1  0.12620835  0.12546441  0.62378948  1
  Fe  Fe40  1  0.87779479  0.12005320  0.87001697  1
  Fe  Fe41  1  0.49729219  0.50369719  0.50177739  1
  Fe  Fe42  1  0.49962356  0.24811871  0.49887874  1
  Fe  Fe43  1  0.62747857  0.62336973  0.37515872  1
  Fe  Fe44  1  -0.00122908  0.75122291  0.25114188  1
  Fe  Fe45  1  0.87356355  0.87332355  0.12470337  1
  Fe  Fe46  1  0.12672853  0.12372874  0.12562266  1
  Fe  Fe47  1  0.25213032  -0.00129854  0.50104371  1
  Fe  Fe48  1  0.49920207  0.74975718  -0.00050040  1
  Fe  Fe49  1  0.75325378  0.24840920  -0.00364480  1
  Fe  Fe50  1  0.87343604  0.12451243  0.12695590  1
  Fe  Fe51  1  0.50330003  0.25017095  0.74963287  1
  Fe  Fe52  1  0.49628462  0.24530475  0.00000849  1
  Fe  Fe53  1  0.37829792  0.87533136  0.37665086  1
  Fe  Fe54  1  0.50175535  0.24972297  0.25127446  1
  Fe  Fe55  1  -0.00023469  -0.00104059  0.25048062  1
  Fe  Fe56  1  0.74995296  0.00036405  -0.00454295  1
  Fe  Fe57  1  0.74850059  0.25179310  0.25069914  1
  Fe  Fe58  1  0.87072222  0.62245101  0.63199118  1
  Fe  Fe59  1  0.75480597  0.74793118  -0.00621163  1
  Fe  Fe60  1  0.87463499  0.12413074  0.37539348  1
  Fe  Fe61  1  0.37512741  0.12615978  0.62855674  1
  Fe  Fe62  1  0.37388105  0.37255184  0.12494866  1
  Fe  Fe63  1  0.62627761  0.37674211  0.62334116  1
  Fe  Fe64  1  0.50123548  0.00159970  0.24932855  1
  Fe  Fe65  1  0.50152818  0.50133466  0.74991225  1
  Fe  Fe66  1  0.12516436  0.87225272  0.62240639  1
  Fe  Fe67  1  0.12522195  0.62480824  0.87206054  1
  Fe  Fe68  1  0.37499469  0.62877466  0.62950974  1
  Fe  Fe69  1  -0.00270312  0.50092087  0.50288857  1
  Fe  Fe70  1  0.87496100  0.37622307  0.37566402  1
  Fe  Fe71  1  0.12486783  0.62633864  0.12423866  1
  Fe  Fe72  1  0.24962788  0.75165489  -0.00279630  1
  Fe  Fe73  1  0.00239240  0.24971514  0.25293045  1
  Fe  Fe74  1  0.37540612  0.62770530  0.87215677  1
  Fe  Fe75  1  0.87008948  0.87545404  0.62905266  1
  Fe  Fe76  1  0.75102155  0.25148538  0.50049234  1
  Fe  Fe77  1  0.62552205  0.37394611  0.12121241  1
  Fe  Fe78  1  0.87272077  0.12509921  0.62779399  1
  Fe  Fe79  1  0.12803232  0.62169517  0.37573341  1
  Fe  Fe80  1  0.37898823  0.87541241  0.87356745  1
  Fe  Fe81  1  0.50084355  0.50021093  0.24769493  1
  Fe  Fe82  1  0.74912944  0.00043710  0.50054601  1
  Fe  Fe83  1  0.37282722  0.37937326  0.37610599  1
  Fe  Fe84  1  0.37364271  0.12418203  0.37390962  1
  Fe  Fe85  1  0.87167796  0.62501420  0.37130960  1
  Fe  Fe86  1  0.25318585  0.00312603  -0.00140287  1
  Fe  Fe87  1  0.62218800  0.87558075  0.38071160  1
  Fe  Fe88  1  0.62464250  0.37399899  0.87715735  1
  Fe  Fe89  1  -0.00333601  0.74951456  -0.00183204  1
  Co  Co90  1  0.62653565  0.62512612  0.62399379  1
  Co  Co91  1  0.74933635  0.25050417  0.75099093  1
  Co  Co92  1  0.12563842  0.38132303  0.37779046  1
  Co  Co93  1  0.24959047  0.49887140  0.24488091  1
  Co  Co94  1  0.62377427  0.87320022  0.61940605  1
  Co  Co95  1  0.62686048  0.12455173  0.37557326  1
  Co  Co96  1  -0.00197416  0.00100624  0.00476918  1
  Co  Co97  1  0.00277773  -0.00123591  0.74313447  1
  Co  Co98  1  0.74896754  0.49630221  0.24796529  1
  Co  Co99  1  0.87547335  0.87506019  0.37778637  1
  Co  Co100  1  0.62358661  0.12770949  0.87712962  1
  Co  Co101  1  0.49842362  0.74441967  0.49871896  1
  Co  Co102  1  0.62378403  0.87188874  0.87948356  1
  Co  Co103  1  0.87736717  0.87892147  0.87112446  1
  Co  Co104  1  0.24845569  0.75488720  0.75220777  1
  Co  Co105  1  0.74723304  0.75455569  0.25253483  1
  Co  Co106  1  0.25281533  0.50136893  0.50702036  1
  Co  Co107  1  0.74298824  -0.00129769  0.75220560  1
  Co  Co108  1  0.49908910  0.00496958  0.50170126  1
  Co  Co109  1  0.37225839  0.62172155  0.37246122  1
  Co  Co110  1  0.74581777  0.75108170  0.75230518  1
  Co  Co111  1  0.37382230  0.12578230  0.12941455  1
  Co  Co112  1  0.49797382  0.00234838  -0.00005762  1
  Co  Co113  1  0.12484379  0.12158612  0.37788550  1
  Co  Co114  1  0.87357692  0.37533414  0.62792647  1
  Co  Co115  1  0.50660445  0.75042004  0.74973612  1
  Co  Co116  1  0.62314535  0.62487150  0.87780763  1
  Co  Co117  1  0.24725022  0.24982495  0.75022175  1
  Co  Co118  1  0.25222726  0.49917040  0.74914983  1
  Co  Co119  1  0.75262880  0.49960101  0.50151069  1
  Co  Co120  1  0.00353322  0.49844841  0.74776742  1
  Co  Co121  1  0.87285597  0.62705285  0.12811258  1
  Co  Co122  1  0.24982318  -0.00250663  0.25184748  1
  Co  Co123  1  0.12156843  0.12163706  0.87383121  1
  Co  Co124  1  0.87709214  0.62253153  0.86847027  1
  Co  Co125  1  0.74432854  0.49873294  0.75193039  1
  Co  Co126  1  0.37754709  0.37246042  0.62620165  1
  Co  Co127  1  0.37738668  0.12404701  0.86807214  1
