# generated using pymatgen
data_Fe45Co19
_symmetry_space_group_name_H-M   'P 1'
_cell_length_a   11.41494925
_cell_length_b   11.41519625
_cell_length_c   11.41460291
_cell_angle_alpha   89.99247963
_cell_angle_beta   89.99124514
_cell_angle_gamma   90.00726542
_symmetry_Int_Tables_number   1
_chemical_formula_structural   Fe45Co19
_chemical_formula_sum   'Fe90 Co38'
_cell_volume   1487.36707374
_cell_formula_units_Z   2
loop_
 _symmetry_equiv_pos_site_id
 _symmetry_equiv_pos_as_xyz
  1  'x, y, z'
loop_
 _atom_site_type_symbol
 _atom_site_label
 _atom_site_symmetry_multiplicity
 _atom_site_fract_x
 _atom_site_fract_y
 _atom_site_fract_z
 _atom_site_occupancy
  Fe  Fe0  1  0.00235633  0.74197759  -0.00083071  1
  Fe  Fe1  1  0.75172962  0.00070654  0.00359536  1
  Fe  Fe2  1  0.87590606  0.12510745  0.62650206  1
  Fe  Fe3  1  0.74788210  0.49819404  0.24671604  1
  Fe  Fe4  1  0.87492805  0.62577726  0.37234629  1
  Fe  Fe5  1  0.12182450  0.62569671  0.62754534  1
  Fe  Fe6  1  0.24713467  0.75210441  0.24863158  1
  Fe  Fe7  1  0.75401157  -0.00468298  0.74933288  1
  Fe  Fe8  1  -0.00105778  0.50008599  0.50002158  1
  Fe  Fe9  1  0.37593571  0.12624553  0.12692783  1
  Fe  Fe10  1  0.37722662  0.37331760  0.12583275  1
  Fe  Fe11  1  0.50164770  0.24828588  -0.00226531  1
  Fe  Fe12  1  0.75422848  0.74649950  -0.00056587  1
  Fe  Fe13  1  0.00021627  0.49594096  0.25200844  1
  Fe  Fe14  1  0.49928024  0.00132244  -0.00054048  1
  Fe  Fe15  1  0.25251317  0.24726202  0.49782505  1
  Fe  Fe16  1  0.37101168  0.87718862  0.87416332  1
  Fe  Fe17  1  0.87623118  0.37256249  0.62397672  1
  Fe  Fe18  1  0.87652962  0.12663924  0.12922007  1
  Fe  Fe19  1  0.12049976  0.87725880  0.62250982  1
  Fe  Fe20  1  0.62808249  0.12371240  0.87519330  1
  Fe  Fe21  1  0.12070165  0.37823030  0.87929347  1
  Fe  Fe22  1  0.75057957  0.25195072  0.75053189  1
  Fe  Fe23  1  0.62817551  0.37672529  0.87749656  1
  Fe  Fe24  1  0.25126100  0.49473780  0.25181325  1
  Fe  Fe25  1  0.50041658  0.49881627  0.75050288  1
  Fe  Fe26  1  0.12556429  0.87883336  0.87903812  1
  Fe  Fe27  1  -0.00054023  0.24981943  0.75520494  1
  Fe  Fe28  1  0.50013427  0.75047464  0.25071251  1
  Fe  Fe29  1  0.74923112  0.75236786  0.24746773  1
  Fe  Fe30  1  0.49992950  0.00270554  0.49829406  1
  Fe  Fe31  1  0.24905170  0.74924196  0.50032850  1
  Fe  Fe32  1  -0.00551168  0.00037051  0.49526117  1
  Fe  Fe33  1  0.00025579  0.00062153  0.75348687  1
  Fe  Fe34  1  0.87755085  0.37360468  0.12336530  1
  Fe  Fe35  1  0.75266253  0.49881956  0.74877870  1
  Fe  Fe36  1  0.75485732  0.50420365  0.00214923  1
  Fe  Fe37  1  0.24650053  -0.00006703  0.24749596  1
  Fe  Fe38  1  0.75078225  0.24883224  0.00255144  1
  Fe  Fe39  1  0.87985919  0.87381081  0.12474135  1
  Fe  Fe40  1  0.62537488  0.62650683  0.62562672  1
  Fe  Fe41  1  0.50016082  0.24663040  0.49811206  1
  Fe  Fe42  1  0.62403574  0.87329630  0.12205199  1
  Fe  Fe43  1  0.24527526  0.75208830  0.75049950  1
  Fe  Fe44  1  0.12637047  0.62256517  0.37442063  1
  Fe  Fe45  1  0.62906457  0.87656594  0.37637157  1
  Fe  Fe46  1  0.37654744  0.37029963  0.62577492  1
  Fe  Fe47  1  0.75331763  0.50182120  0.50305681  1
  Fe  Fe48  1  0.24617311  0.74604095  0.00103203  1
  Fe  Fe49  1  0.62696534  0.87514736  0.87679765  1
  Fe  Fe50  1  0.49824952  0.75010018  0.49889281  1
  Fe  Fe51  1  0.62701747  0.12454326  0.62567548  1
  Fe  Fe52  1  0.12514978  0.12719341  0.37339993  1
  Fe  Fe53  1  0.86874300  0.12485103  0.36897674  1
  Fe  Fe54  1  0.49823010  0.00205564  0.75204020  1
  Fe  Fe55  1  0.00432665  0.75181181  0.25008153  1
  Fe  Fe56  1  0.12310117  0.37054807  0.62120022  1
  Fe  Fe57  1  0.75453231  0.75306999  0.50241763  1
  Fe  Fe58  1  0.37293366  0.87737279  0.37503251  1
  Fe  Fe59  1  0.62786833  0.62459663  0.87502766  1
  Fe  Fe60  1  0.24853739  0.24992784  0.00090607  1
  Fe  Fe61  1  0.87925741  0.63110839  0.63121310  1
  Fe  Fe62  1  -0.00178951  0.00448040  -0.00041114  1
  Fe  Fe63  1  0.37429385  0.62553572  0.62594065  1
  Fe  Fe64  1  0.24584832  0.24484553  0.75018031  1
  Fe  Fe65  1  0.50073568  0.74999183  0.75133772  1
  Fe  Fe66  1  0.12432124  0.87667567  0.37688806  1
  Fe  Fe67  1  0.25013833  0.00325034  0.00212519  1
  Fe  Fe68  1  0.49754461  0.50088991  0.49861927  1
  Fe  Fe69  1  0.62425162  0.37378890  0.62327980  1
  Fe  Fe70  1  0.50265013  -0.00090693  0.24923680  1
  Fe  Fe71  1  0.12119420  0.37574778  0.12238421  1
  Fe  Fe72  1  0.49792836  0.50126723  -0.00076082  1
  Fe  Fe73  1  0.37394538  0.87517667  0.12430870  1
  Fe  Fe74  1  0.50205217  0.50089238  0.25104581  1
  Fe  Fe75  1  0.62485878  0.87568875  0.62457454  1
  Fe  Fe76  1  0.25190007  0.49913899  0.49977090  1
  Fe  Fe77  1  0.37418005  0.37182796  0.87347876  1
  Fe  Fe78  1  0.50401986  0.24937582  0.25029756  1
  Fe  Fe79  1  0.37304385  0.62441528  0.12731616  1
  Fe  Fe80  1  0.37407085  0.87745785  0.62586245  1
  Fe  Fe81  1  0.62714337  0.62632565  0.37576849  1
  Fe  Fe82  1  0.63238339  0.12358574  0.37302413  1
  Fe  Fe83  1  0.12160194  0.12794967  0.12691254  1
  Fe  Fe84  1  0.25029947  0.00457160  0.50272874  1
  Fe  Fe85  1  0.49777608  0.74829384  -0.00122569  1
  Fe  Fe86  1  0.37120306  0.62426892  0.87306971  1
  Fe  Fe87  1  0.62870317  0.37427340  0.37738469  1
  Fe  Fe88  1  0.24812111  0.49660572  0.74858046  1
  Fe  Fe89  1  -0.00504685  0.25060700  0.49343774  1
  Co  Co90  1  0.87502303  0.37598805  0.87891653  1
  Co  Co91  1  0.25188538  0.49850145  0.00025094  1
  Co  Co92  1  0.74995211  -0.00373048  0.24433402  1
  Co  Co93  1  0.88152991  0.87265318  0.62619374  1
  Co  Co94  1  0.24617263  0.00290764  0.74663958  1
  Co  Co95  1  0.86957432  0.37745388  0.37464897  1
  Co  Co96  1  -0.00058447  0.49451795  0.74743892  1
  Co  Co97  1  0.12704304  0.61881898  0.12808828  1
  Co  Co98  1  0.74920365  0.75421140  0.75037515  1
  Co  Co99  1  -0.00425101  0.50630327  0.00168902  1
  Co  Co100  1  0.24695765  0.25231115  0.24865303  1
  Co  Co101  1  0.87383227  0.87389938  0.37144500  1
  Co  Co102  1  0.37360770  0.12377506  0.37009217  1
  Co  Co103  1  0.00136024  -0.00034937  0.25140255  1
  Co  Co104  1  0.00492654  0.75477206  0.75651519  1
  Co  Co105  1  0.11800449  0.12694998  0.62123326  1
  Co  Co106  1  0.37716831  0.12644753  0.62749545  1
  Co  Co107  1  0.87652779  0.62632954  0.13154911  1
  Co  Co108  1  0.62378726  0.62601058  0.12371352  1
  Co  Co109  1  0.12383601  0.61815206  0.87251873  1
  Co  Co110  1  0.62386119  0.37690638  0.12079942  1
  Co  Co111  1  0.37296958  0.12528560  0.87466920  1
  Co  Co112  1  0.12147436  0.87692377  0.12025467  1
  Co  Co113  1  0.87673226  0.87438994  0.87943207  1
  Co  Co114  1  -0.00047402  0.25365795  0.25385313  1
  Co  Co115  1  0.12580844  0.12375008  0.87727980  1
  Co  Co116  1  0.87134681  0.12494814  0.87422591  1
  Co  Co117  1  0.87695577  0.62462922  0.86785619  1
  Co  Co118  1  -0.00140251  0.24676180  -0.00232339  1
  Co  Co119  1  0.75429889  -0.00182635  0.50298362  1
  Co  Co120  1  0.75156637  0.24917234  0.50163060  1
  Co  Co121  1  0.50390000  0.24966235  0.75296058  1
  Co  Co122  1  0.74867410  0.25391601  0.24559395  1
  Co  Co123  1  0.12628756  0.37464232  0.37882630  1
  Co  Co124  1  0.37682628  0.37241364  0.37432937  1
  Co  Co125  1  -0.00043717  0.74864832  0.49564578  1
  Co  Co126  1  0.62459785  0.12452179  0.12489453  1
  Co  Co127  1  0.37327296  0.62620906  0.37347164  1
