# generated using pymatgen
data_Fe45Co19
_symmetry_space_group_name_H-M   'P 1'
_cell_length_a   11.41483427
_cell_length_b   11.41633839
_cell_length_c   11.41518892
_cell_angle_alpha   90.00884524
_cell_angle_beta   90.01692891
_cell_angle_gamma   90.00371754
_symmetry_Int_Tables_number   1
_chemical_formula_structural   Fe45Co19
_chemical_formula_sum   'Fe90 Co38'
_cell_volume   1487.57723003
_cell_formula_units_Z   2
loop_
 _symmetry_equiv_pos_site_id
 _symmetry_equiv_pos_as_xyz
  1  'x, y, z'
loop_
 _atom_site_type_symbol
 _atom_site_label
 _atom_site_symmetry_multiplicity
 _atom_site_fract_x
 _atom_site_fract_y
 _atom_site_fract_z
 _atom_site_occupancy
  Fe  Fe0  1  0.50221425  0.00023391  0.00128021  1
  Fe  Fe1  1  -0.00334485  0.25245076  0.24662554  1
  Fe  Fe2  1  0.50436680  0.00090996  0.25091217  1
  Fe  Fe3  1  0.00059941  0.24909636  0.74895997  1
  Fe  Fe4  1  0.12626150  0.37381557  0.37423990  1
  Fe  Fe5  1  -0.00194445  0.75116011  0.24954641  1
  Fe  Fe6  1  0.62400685  0.62572354  0.62644921  1
  Fe  Fe7  1  0.75142365  0.74841495  0.25187720  1
  Fe  Fe8  1  0.37471017  0.37529466  0.87498320  1
  Fe  Fe9  1  0.62581409  0.87094655  0.87122444  1
  Fe  Fe10  1  0.00044591  -0.00066992  0.74849566  1
  Fe  Fe11  1  0.50110754  0.74852968  0.00233638  1
  Fe  Fe12  1  0.37681186  0.62655936  0.87673162  1
  Fe  Fe13  1  0.50183253  0.25420771  0.50053972  1
  Fe  Fe14  1  0.12887005  0.12263276  0.62701139  1
  Fe  Fe15  1  0.12277394  0.62315042  0.37675695  1
  Fe  Fe16  1  0.87375136  0.37498219  0.37533061  1
  Fe  Fe17  1  0.24977544  0.74993736  0.00154866  1
  Fe  Fe18  1  -0.00116699  0.25307853  0.00251519  1
  Fe  Fe19  1  0.37470841  0.62363466  0.62256563  1
  Fe  Fe20  1  0.62399213  0.12640455  0.87568443  1
  Fe  Fe21  1  0.00157992  -0.00083586  0.50196651  1
  Fe  Fe22  1  -0.00186895  -0.00202957  0.00055935  1
  Fe  Fe23  1  0.62820035  0.12725452  0.12362504  1
  Fe  Fe24  1  -0.00046779  0.49675127  0.24718785  1
  Fe  Fe25  1  0.74413441  -0.00017231  0.49704475  1
  Fe  Fe26  1  0.12408344  0.62470753  0.12563977  1
  Fe  Fe27  1  0.75050365  0.50406385  0.75159400  1
  Fe  Fe28  1  -0.00444122  0.75124211  0.74409560  1
  Fe  Fe29  1  0.25166449  0.74918566  0.74868891  1
  Fe  Fe30  1  0.50070421  0.50228684  0.00351450  1
  Fe  Fe31  1  0.62382734  0.37618846  0.87541471  1
  Fe  Fe32  1  0.37923314  0.12460813  0.37721047  1
  Fe  Fe33  1  0.87619983  0.62270972  0.37698633  1
  Fe  Fe34  1  0.37383449  0.12337403  0.62473707  1
  Fe  Fe35  1  0.37875233  0.87494828  0.37763806  1
  Fe  Fe36  1  0.12591818  0.37411277  0.87492441  1
  Fe  Fe37  1  0.12498564  0.12424954  0.12467889  1
  Fe  Fe38  1  0.74757030  0.49856059  0.50005784  1
  Fe  Fe39  1  0.12282075  0.12596805  0.37382657  1
  Fe  Fe40  1  0.74764601  0.25274996  0.49886462  1
  Fe  Fe41  1  0.87211216  0.12343390  0.62398194  1
  Fe  Fe42  1  0.49963972  0.25234112  0.75028226  1
  Fe  Fe43  1  0.12526629  0.62368218  0.62184249  1
  Fe  Fe44  1  0.12158863  0.62670296  0.87462566  1
  Fe  Fe45  1  0.12529340  0.87569370  0.12595229  1
  Fe  Fe46  1  0.50137397  0.25092213  0.24891914  1
  Fe  Fe47  1  0.50211709  0.49753557  0.49850298  1
  Fe  Fe48  1  0.37179308  0.87591565  0.62101821  1
  Fe  Fe49  1  0.75177924  0.74734280  -0.00162212  1
  Fe  Fe50  1  0.87008898  0.12384365  0.12343940  1
  Fe  Fe51  1  0.24880316  0.50189778  -0.00062298  1
  Fe  Fe52  1  0.37457262  0.37507276  0.12581212  1
  Fe  Fe53  1  0.62730692  0.37358669  0.12462546  1
  Fe  Fe54  1  0.62454566  0.12722158  0.62518870  1
  Fe  Fe55  1  0.25168028  0.24728886  0.00022251  1
  Fe  Fe56  1  -0.00153225  0.75192165  0.50237514  1
  Fe  Fe57  1  -0.00320023  -0.00099584  0.24838574  1
  Fe  Fe58  1  0.25063850  0.25057357  0.49955099  1
  Fe  Fe59  1  0.25197199  0.24782500  0.25021160  1
  Fe  Fe60  1  0.12484701  0.87526996  0.37674283  1
  Fe  Fe61  1  0.75075531  0.50373291  -0.00153142  1
  Fe  Fe62  1  0.25170272  0.50057692  0.25127378  1
  Fe  Fe63  1  0.75009408  0.25024177  0.75224387  1
  Fe  Fe64  1  0.62861997  0.87354754  0.12652286  1
  Fe  Fe65  1  0.00024794  0.50099577  0.74873297  1
  Fe  Fe66  1  0.87170932  0.87529962  0.87172974  1
  Fe  Fe67  1  0.12833821  0.37735708  0.62547072  1
  Fe  Fe68  1  0.87459432  0.12385984  0.87570667  1
  Fe  Fe69  1  0.74841430  0.50140576  0.24963833  1
  Fe  Fe70  1  0.87622057  0.37744302  0.87546983  1
  Fe  Fe71  1  0.87367127  0.87709783  0.37609181  1
  Fe  Fe72  1  0.37635574  0.87399083  0.87655722  1
  Fe  Fe73  1  0.74965233  0.74906970  0.50021393  1
  Fe  Fe74  1  0.25116123  0.00012761  0.25220600  1
  Fe  Fe75  1  0.87400576  0.12499120  0.37617621  1
  Fe  Fe76  1  0.37612930  0.12512103  0.87402964  1
  Fe  Fe77  1  0.50142347  0.74619918  0.24903017  1
  Fe  Fe78  1  0.49919063  0.50150923  0.75090779  1
  Fe  Fe79  1  0.00059036  0.25181047  0.50168321  1
  Fe  Fe80  1  0.87364603  0.37602376  0.62584808  1
  Fe  Fe81  1  0.25052011  0.74985287  0.25224230  1
  Fe  Fe82  1  0.37890240  0.62367278  0.37544048  1
  Fe  Fe83  1  0.62657479  0.87197130  0.62741422  1
  Fe  Fe84  1  0.37554038  0.87520626  0.12606532  1
  Fe  Fe85  1  0.25054282  0.00103253  -0.00075758  1
  Fe  Fe86  1  0.49985171  -0.00181308  0.74861653  1
  Fe  Fe87  1  -0.00309544  0.75078525  0.00258371  1
  Fe  Fe88  1  0.37237353  0.37682537  0.62612378  1
  Fe  Fe89  1  0.12441587  0.87426828  0.87312816  1
  Co  Co90  1  0.62321246  0.87108466  0.37371327  1
  Co  Co91  1  0.25093753  0.49969593  0.49664481  1
  Co  Co92  1  0.12358824  0.12558020  0.87619339  1
  Co  Co93  1  0.87931724  0.62457959  0.87599507  1
  Co  Co94  1  0.62415874  0.62410177  0.37601519  1
  Co  Co95  1  0.00047674  0.49602743  0.49943922  1
  Co  Co96  1  0.50110441  0.74945445  0.50125924  1
  Co  Co97  1  0.87108488  0.87458197  0.12596040  1
  Co  Co98  1  0.25105219  -0.00158623  0.75366686  1
  Co  Co99  1  0.75091078  0.25116849  -0.00371900  1
  Co  Co100  1  0.74691984  0.00272546  0.75102126  1
  Co  Co101  1  0.24974295  0.74799350  0.49733758  1
  Co  Co102  1  0.37693871  0.37457110  0.37324365  1
  Co  Co103  1  0.12894436  0.87552137  0.62465383  1
  Co  Co104  1  0.12975897  0.37420596  0.12564013  1
  Co  Co105  1  0.87519626  0.62140168  0.62124860  1
  Co  Co106  1  0.49927795  0.25013592  0.00043935  1
  Co  Co107  1  0.87678051  0.62442109  0.12534276  1
  Co  Co108  1  0.75170104  0.24891752  0.25150789  1
  Co  Co109  1  0.62732447  0.62637055  0.12498019  1
  Co  Co110  1  0.00165115  0.49756780  0.00253764  1
  Co  Co111  1  0.37645866  0.12338318  0.12632398  1
  Co  Co112  1  0.75393309  0.74486759  0.74884660  1
  Co  Co113  1  0.86982523  0.37680080  0.12383190  1
  Co  Co114  1  0.37340025  0.62610570  0.12513362  1
  Co  Co115  1  0.25033764  0.24976191  0.75065226  1
  Co  Co116  1  0.74775741  -0.00157244  -0.00168225  1
  Co  Co117  1  0.62583101  0.37610540  0.62899975  1
  Co  Co118  1  0.24932994  0.00130135  0.49571440  1
  Co  Co119  1  0.74801563  0.00082895  0.25263284  1
  Co  Co120  1  0.24992017  0.50294911  0.75247524  1
  Co  Co121  1  0.50435422  -0.00143244  0.50153596  1
  Co  Co122  1  0.49583351  0.75025638  0.74798460  1
  Co  Co123  1  0.86988086  0.87962813  0.62445563  1
  Co  Co124  1  0.62188716  0.62740280  0.87322992  1
  Co  Co125  1  0.62329110  0.12900593  0.37579011  1
  Co  Co126  1  0.62408540  0.37545943  0.37172731  1
  Co  Co127  1  0.50105391  0.50093243  0.24706436  1
