# generated using pymatgen
data_Fe45Co19
_symmetry_space_group_name_H-M   'P 1'
_cell_length_a   11.41438612
_cell_length_b   11.41424406
_cell_length_c   11.41440734
_cell_angle_alpha   89.99852342
_cell_angle_beta   90.00686111
_cell_angle_gamma   90.00826477
_symmetry_Int_Tables_number   1
_chemical_formula_structural   Fe45Co19
_chemical_formula_sum   'Fe90 Co38'
_cell_volume   1487.14417087
_cell_formula_units_Z   2
loop_
 _symmetry_equiv_pos_site_id
 _symmetry_equiv_pos_as_xyz
  1  'x, y, z'
loop_
 _atom_site_type_symbol
 _atom_site_label
 _atom_site_symmetry_multiplicity
 _atom_site_fract_x
 _atom_site_fract_y
 _atom_site_fract_z
 _atom_site_occupancy
  Fe  Fe0  1  0.36991554  0.12812212  0.36933417  1
  Fe  Fe1  1  0.50049283  0.24844068  0.49722395  1
  Fe  Fe2  1  0.24950174  0.50194485  0.00121986  1
  Fe  Fe3  1  0.62473215  0.37806438  0.37232555  1
  Fe  Fe4  1  0.87131630  0.12707766  0.62254043  1
  Fe  Fe5  1  0.49764508  0.24779557  -0.00131669  1
  Fe  Fe6  1  0.75260116  0.49754662  0.49967219  1
  Fe  Fe7  1  0.12270033  0.37297870  0.62407050  1
  Fe  Fe8  1  0.00091260  0.74964038  0.75227006  1
  Fe  Fe9  1  0.87168324  0.12394513  0.12739853  1
  Fe  Fe10  1  0.25581825  0.00007514  0.00275485  1
  Fe  Fe11  1  0.50165117  0.74925129  0.75270487  1
  Fe  Fe12  1  0.87440753  0.62523449  0.87731782  1
  Fe  Fe13  1  0.50142479  0.49967051  0.75042606  1
  Fe  Fe14  1  0.24934340  0.75032181  -0.00060528  1
  Fe  Fe15  1  0.75039115  0.75102187  0.75075317  1
  Fe  Fe16  1  0.12254218  0.88059322  0.37416517  1
  Fe  Fe17  1  0.62653319  0.37659136  0.87706927  1
  Fe  Fe18  1  0.12410818  0.37469990  0.87780641  1
  Fe  Fe19  1  0.37705868  0.37224272  0.12521379  1
  Fe  Fe20  1  0.62503487  0.87987379  0.37585392  1
  Fe  Fe21  1  0.50108688  0.00024514  0.74906443  1
  Fe  Fe22  1  0.37464047  0.62646561  0.37367023  1
  Fe  Fe23  1  0.37362674  0.37165773  0.37307987  1
  Fe  Fe24  1  0.74914886  0.75269833  0.24815138  1
  Fe  Fe25  1  -0.00240145  0.50042761  0.24818459  1
  Fe  Fe26  1  0.00021153  0.50060765  0.75144090  1
  Fe  Fe27  1  0.12553122  0.37386602  0.37540510  1
  Fe  Fe28  1  0.24989394  0.49942203  0.49998647  1
  Fe  Fe29  1  0.87495400  0.37224936  0.37203550  1
  Fe  Fe30  1  0.25250921  0.24877829  -0.00169657  1
  Fe  Fe31  1  0.87544832  0.62578736  0.62307840  1
  Fe  Fe32  1  0.62525791  0.12293452  0.87643521  1
  Fe  Fe33  1  0.75161489  -0.00045665  0.74989595  1
  Fe  Fe34  1  0.49754331  0.00181589  0.50015321  1
  Fe  Fe35  1  0.12476994  0.12442291  0.62393476  1
  Fe  Fe36  1  0.74941260  0.75027764  0.00193765  1
  Fe  Fe37  1  0.87463501  0.62638372  0.37188855  1
  Fe  Fe38  1  0.75367447  0.50148658  0.00739685  1
  Fe  Fe39  1  0.62779265  0.37197322  0.62385454  1
  Fe  Fe40  1  0.12460677  0.62693370  0.62355493  1
  Fe  Fe41  1  -0.00051569  0.24757947  0.00113509  1
  Fe  Fe42  1  0.24703995  0.75221373  0.49984302  1
  Fe  Fe43  1  0.50125764  0.50359693  0.00164449  1
  Fe  Fe44  1  0.62344820  0.12377807  0.12342806  1
  Fe  Fe45  1  0.24865286  0.75283730  0.74958623  1
  Fe  Fe46  1  0.49701758  0.00017160  0.24738180  1
  Fe  Fe47  1  0.12183238  0.37550132  0.12295947  1
  Fe  Fe48  1  0.25028095  -0.00071793  0.50197781  1
  Fe  Fe49  1  0.37467022  0.87456996  0.37462611  1
  Fe  Fe50  1  -0.00124166  0.75157655  -0.00013115  1
  Fe  Fe51  1  0.62074083  0.87481230  0.12149728  1
  Fe  Fe52  1  0.37871682  0.63094669  0.12758201  1
  Fe  Fe53  1  0.24782237  0.49956963  0.75097931  1
  Fe  Fe54  1  0.12345222  0.87635868  0.12613733  1
  Fe  Fe55  1  0.74987718  0.24909886  -0.00011558  1
  Fe  Fe56  1  0.87898247  0.87636534  0.62540381  1
  Fe  Fe57  1  0.50135703  0.74967276  0.49833929  1
  Fe  Fe58  1  -0.00328314  -0.00000321  0.00156378  1
  Fe  Fe59  1  0.12084170  0.62510313  0.12560303  1
  Fe  Fe60  1  0.62547343  0.37552779  0.12767072  1
  Fe  Fe61  1  0.62368784  0.87466645  0.62376101  1
  Fe  Fe62  1  -0.00105461  0.24492278  0.49602836  1
  Fe  Fe63  1  0.24967825  0.24956204  0.75314458  1
  Fe  Fe64  1  0.74651036  0.24666172  0.25318130  1
  Fe  Fe65  1  0.49930342  0.49991291  0.49946352  1
  Fe  Fe66  1  0.37753046  0.87700824  0.87609054  1
  Fe  Fe67  1  0.62827239  0.12719319  0.62286167  1
  Fe  Fe68  1  0.37431965  0.62405624  0.87445702  1
  Fe  Fe69  1  0.62663786  0.62577004  0.62426316  1
  Fe  Fe70  1  0.62630377  0.62234298  0.37121767  1
  Fe  Fe71  1  0.24788802  -0.00124926  0.74884389  1
  Fe  Fe72  1  -0.00094126  0.49980470  0.49902417  1
  Fe  Fe73  1  0.37431208  0.12560257  0.62701313  1
  Fe  Fe74  1  0.87404142  0.12250342  0.87652919  1
  Fe  Fe75  1  -0.00081298  0.24718447  0.75200219  1
  Fe  Fe76  1  0.24671982  0.75157750  0.25087709  1
  Fe  Fe77  1  0.00274555  0.24335518  0.25200805  1
  Fe  Fe78  1  0.62532819  0.87770632  0.87801967  1
  Fe  Fe79  1  0.00085712  0.75131075  0.49606026  1
  Fe  Fe80  1  0.12964416  0.12337292  0.12436049  1
  Fe  Fe81  1  0.87620972  0.88231070  0.36955289  1
  Fe  Fe82  1  0.25086756  0.49944277  0.24859018  1
  Fe  Fe83  1  0.87515878  0.37416860  0.87724479  1
  Fe  Fe84  1  0.75267848  0.49755009  0.74777435  1
  Fe  Fe85  1  0.37491336  0.37371416  0.62586037  1
  Fe  Fe86  1  0.37499559  0.62744990  0.62479154  1
  Fe  Fe87  1  0.75106619  0.75347881  0.49790545  1
  Fe  Fe88  1  0.50030517  0.25069556  0.75288873  1
  Fe  Fe89  1  0.12232715  0.87858438  0.87480162  1
  Co  Co90  1  -0.00307759  0.49958969  0.00076376  1
  Co  Co91  1  0.86923774  0.11900426  0.37363438  1
  Co  Co92  1  0.37801705  0.86858344  0.12404720  1
  Co  Co93  1  0.37503828  0.37714538  0.87656741  1
  Co  Co94  1  -0.00170452  0.00344567  0.75001294  1
  Co  Co95  1  0.37744816  0.87383553  0.62473308  1
  Co  Co96  1  0.74944268  0.25177011  0.49418508  1
  Co  Co97  1  -0.00025105  0.00384194  0.49860172  1
  Co  Co98  1  0.75475347  0.50056871  0.24674725  1
  Co  Co99  1  0.37514467  0.12250899  0.87254362  1
  Co  Co100  1  0.50322726  0.74630418  -0.00498727  1
  Co  Co101  1  0.25038482  0.25009409  0.50227180  1
  Co  Co102  1  0.49605514  0.49907707  0.24925700  1
  Co  Co103  1  0.87670256  0.87577673  0.12830764  1
  Co  Co104  1  0.87524005  0.87538028  0.87534626  1
  Co  Co105  1  0.87536559  0.36814517  0.12807434  1
  Co  Co106  1  0.74543373  -0.00095446  0.24436026  1
  Co  Co107  1  0.12065317  0.87566389  0.62446885  1
  Co  Co108  1  0.13235819  0.12353319  0.37464874  1
  Co  Co109  1  0.12487909  0.62227187  0.37374547  1
  Co  Co110  1  0.25203980  -0.00432592  0.24741970  1
  Co  Co111  1  0.62295097  0.62530157  0.13009378  1
  Co  Co112  1  0.75215374  -0.00107147  0.00088835  1
  Co  Co113  1  0.50322672  0.75338786  0.25394449  1
  Co  Co114  1  0.00252897  0.00599356  0.24839374  1
  Co  Co115  1  0.50383771  0.24847455  0.25137807  1
  Co  Co116  1  0.12563947  0.12234135  0.87832995  1
  Co  Co117  1  0.49498024  0.00289808  0.00331939  1
  Co  Co118  1  0.62996967  0.62122500  0.87455331  1
  Co  Co119  1  0.12477518  0.62569605  0.87688657  1
  Co  Co120  1  0.75109294  -0.00338438  0.50352029  1
  Co  Co121  1  0.00209595  0.75180277  0.25174461  1
  Co  Co122  1  0.87823174  0.62946218  0.12663655  1
  Co  Co123  1  0.75111965  0.24987348  0.75338018  1
  Co  Co124  1  0.24503101  0.25455414  0.24621191  1
  Co  Co125  1  0.37288906  0.12907495  0.12983369  1
  Co  Co126  1  0.87688868  0.37150534  0.62387999  1
  Co  Co127  1  0.62651152  0.11927723  0.37687653  1
