# generated using pymatgen
data_Fe45Co19
_symmetry_space_group_name_H-M   'P 1'
_cell_length_a   11.41431263
_cell_length_b   11.41429727
_cell_length_c   11.41397982
_cell_angle_alpha   89.99720816
_cell_angle_beta   89.99950028
_cell_angle_gamma   89.99474812
_symmetry_Int_Tables_number   1
_chemical_formula_structural   Fe45Co19
_chemical_formula_sum   'Fe90 Co38'
_cell_volume   1487.08584873
_cell_formula_units_Z   2
loop_
 _symmetry_equiv_pos_site_id
 _symmetry_equiv_pos_as_xyz
  1  'x, y, z'
loop_
 _atom_site_type_symbol
 _atom_site_label
 _atom_site_symmetry_multiplicity
 _atom_site_fract_x
 _atom_site_fract_y
 _atom_site_fract_z
 _atom_site_occupancy
  Fe  Fe0  1  0.24968684  -0.00496476  -0.00031774  1
  Fe  Fe1  1  0.12738058  0.12462778  0.87453670  1
  Fe  Fe2  1  0.62181134  0.37596030  0.62207693  1
  Fe  Fe3  1  0.37419802  0.37692168  0.12507383  1
  Fe  Fe4  1  0.74930621  0.49937510  0.75072660  1
  Fe  Fe5  1  0.87519533  0.87384514  0.62421248  1
  Fe  Fe6  1  0.12821149  0.87505121  0.62632330  1
  Fe  Fe7  1  0.75127205  -0.00113597  0.75139620  1
  Fe  Fe8  1  0.87416654  0.62478027  0.12490609  1
  Fe  Fe9  1  0.62777663  0.12618614  0.37163718  1
  Fe  Fe10  1  0.12595314  0.37687737  0.37480782  1
  Fe  Fe11  1  0.50049492  0.24966714  0.00177918  1
  Fe  Fe12  1  0.62530005  0.62542756  0.37444371  1
  Fe  Fe13  1  0.87724433  0.37331453  0.62627730  1
  Fe  Fe14  1  0.87499980  0.37090894  0.87365605  1
  Fe  Fe15  1  0.74771246  0.74940019  -0.00161472  1
  Fe  Fe16  1  0.00134537  0.50016385  -0.00160090  1
  Fe  Fe17  1  0.00094644  0.49950738  0.25039485  1
  Fe  Fe18  1  -0.00150076  -0.00044439  0.25188294  1
  Fe  Fe19  1  0.00163825  0.49928558  0.75334091  1
  Fe  Fe20  1  0.75059099  0.50011536  -0.00122988  1
  Fe  Fe21  1  0.74964691  0.75203188  0.24978044  1
  Fe  Fe22  1  0.12479997  0.37700836  0.62606263  1
  Fe  Fe23  1  0.75224897  -0.00116654  0.49723058  1
  Fe  Fe24  1  0.49674839  -0.00088496  -0.00362195  1
  Fe  Fe25  1  0.62487200  0.12498539  0.87505205  1
  Fe  Fe26  1  0.75068265  0.74984403  0.50074221  1
  Fe  Fe27  1  0.49531271  -0.00035008  0.75250505  1
  Fe  Fe28  1  0.49845237  -0.00006109  0.25223334  1
  Fe  Fe29  1  0.74860795  0.25243933  0.49870395  1
  Fe  Fe30  1  0.37443245  0.87208604  0.37590813  1
  Fe  Fe31  1  0.87313547  0.12899125  0.36969452  1
  Fe  Fe32  1  0.87378948  0.62683036  0.87453119  1
  Fe  Fe33  1  0.24924524  0.49937959  -0.00029322  1
  Fe  Fe34  1  0.00250345  0.24914195  0.49763545  1
  Fe  Fe35  1  0.49833802  0.50068202  -0.00183783  1
  Fe  Fe36  1  0.24797777  0.25098152  0.00217877  1
  Fe  Fe37  1  0.49815982  0.74857271  0.50089200  1
  Fe  Fe38  1  0.87569173  0.62498518  0.62611766  1
  Fe  Fe39  1  0.37297581  0.37279624  0.87477564  1
  Fe  Fe40  1  0.49888009  0.50011364  0.25170998  1
  Fe  Fe41  1  0.62462870  0.87460570  0.37488829  1
  Fe  Fe42  1  0.62528283  0.37459520  0.87614660  1
  Fe  Fe43  1  0.37191649  0.62826967  0.87563743  1
  Fe  Fe44  1  0.00148536  -0.00181587  -0.00144560  1
  Fe  Fe45  1  0.49898043  0.00212062  0.49866584  1
  Fe  Fe46  1  -0.00082212  0.74966601  0.24809499  1
  Fe  Fe47  1  0.87591896  0.62506817  0.37493513  1
  Fe  Fe48  1  0.00208354  0.50294186  0.49855322  1
  Fe  Fe49  1  0.62452637  0.62525061  0.62712006  1
  Fe  Fe50  1  0.75028080  0.00182925  0.00254233  1
  Fe  Fe51  1  0.37305830  0.62669795  0.37393724  1
  Fe  Fe52  1  0.37300392  0.12800216  0.37587864  1
  Fe  Fe53  1  0.12920546  0.62942484  0.87435834  1
  Fe  Fe54  1  0.50162704  0.25143505  0.24857817  1
  Fe  Fe55  1  0.00370420  0.74786920  0.49945138  1
  Fe  Fe56  1  0.74785320  0.24789444  0.00573126  1
  Fe  Fe57  1  0.49857346  0.75179342  0.75081284  1
  Fe  Fe58  1  0.37673936  0.37438342  0.37927289  1
  Fe  Fe59  1  0.49963782  0.24864990  0.74923012  1
  Fe  Fe60  1  0.37267201  0.12453427  0.62414538  1
  Fe  Fe61  1  0.74901602  0.49556463  0.25187120  1
  Fe  Fe62  1  0.00000139  0.75077827  0.75085638  1
  Fe  Fe63  1  0.12402123  0.12295455  0.12627363  1
  Fe  Fe64  1  0.62190960  0.87667965  0.12574437  1
  Fe  Fe65  1  0.87498741  0.87323390  0.87584793  1
  Fe  Fe66  1  0.87483441  0.12788500  0.87378019  1
  Fe  Fe67  1  -0.00069935  0.00048168  0.49730678  1
  Fe  Fe68  1  0.12625766  0.87241132  0.37341380  1
  Fe  Fe69  1  0.25100878  -0.00102821  0.24953566  1
  Fe  Fe70  1  0.24859625  0.25061169  0.74881266  1
  Fe  Fe71  1  0.00300674  0.25054467  0.00066975  1
  Fe  Fe72  1  0.25317547  0.75077527  0.24407657  1
  Fe  Fe73  1  0.49820753  0.75058127  0.00100401  1
  Fe  Fe74  1  0.87741215  0.37253690  0.12711723  1
  Fe  Fe75  1  0.25066045  -0.00113524  0.49846599  1
  Fe  Fe76  1  0.49794711  0.50054847  0.75103663  1
  Fe  Fe77  1  0.24757522  0.25128819  0.24974494  1
  Fe  Fe78  1  0.62629846  0.12302965  0.62582603  1
  Fe  Fe79  1  0.87460813  0.12768669  0.62604144  1
  Fe  Fe80  1  0.62399485  0.87618472  0.62573736  1
  Fe  Fe81  1  0.12660655  0.62313289  0.12545873  1
  Fe  Fe82  1  0.62339006  0.62303637  0.12483220  1
  Fe  Fe83  1  0.37507157  0.12403483  0.12401099  1
  Fe  Fe84  1  0.00104726  0.00054390  0.75076458  1
  Fe  Fe85  1  0.12676899  0.12341618  0.62364347  1
  Fe  Fe86  1  0.37593210  0.37623776  0.62178370  1
  Fe  Fe87  1  0.75064166  0.49881370  0.49879070  1
  Fe  Fe88  1  0.24875898  0.50514804  0.50086099  1
  Fe  Fe89  1  0.87658115  0.87442150  0.12364755  1
  Co  Co90  1  0.12787064  0.87118192  0.87283532  1
  Co  Co91  1  0.00420652  0.24847670  0.74990705  1
  Co  Co92  1  0.37555736  0.62144212  0.12394537  1
  Co  Co93  1  0.00650230  0.25023881  0.25118595  1
  Co  Co94  1  0.25228448  0.49856462  0.25177876  1
  Co  Co95  1  0.37879259  0.87839144  0.12573166  1
  Co  Co96  1  0.12635827  0.62727641  0.36964469  1
  Co  Co97  1  0.62135498  0.12027428  0.12638300  1
  Co  Co98  1  0.62241321  0.38004800  0.12284187  1
  Co  Co99  1  0.49851708  0.74853398  0.24924365  1
  Co  Co100  1  0.87883936  0.12667999  0.12808319  1
  Co  Co101  1  0.12643067  0.37473103  0.87460976  1
  Co  Co102  1  0.62044891  0.37473986  0.37846095  1
  Co  Co103  1  0.62454828  0.87656793  0.87512176  1
  Co  Co104  1  0.12523548  0.37788581  0.12525396  1
  Co  Co105  1  0.37511671  0.62465468  0.62677656  1
  Co  Co106  1  0.25178879  0.00050391  0.75160995  1
  Co  Co107  1  0.74516683  0.25387679  0.24578614  1
  Co  Co108  1  0.87687524  0.87236112  0.37587540  1
  Co  Co109  1  0.75222271  -0.00299582  0.24826134  1
  Co  Co110  1  0.12219341  0.87605150  0.12756145  1
  Co  Co111  1  0.62356228  0.62463074  0.87481926  1
  Co  Co112  1  0.74686896  0.25111233  0.74898568  1
  Co  Co113  1  0.37226781  0.12768404  0.87685076  1
  Co  Co114  1  0.37477890  0.87668837  0.62270749  1
  Co  Co115  1  0.74933189  0.75068369  0.75058507  1
  Co  Co116  1  0.50107539  0.24475624  0.50134924  1
  Co  Co117  1  0.12425455  0.62500868  0.63005213  1
  Co  Co118  1  0.24888344  0.74664922  0.50183593  1
  Co  Co119  1  0.25052128  0.75311865  0.00706970  1
  Co  Co120  1  0.87734140  0.37349236  0.37336246  1
  Co  Co121  1  0.25316350  0.75046118  0.74537571  1
  Co  Co122  1  0.37039835  0.87185626  0.87479672  1
  Co  Co123  1  0.00182263  0.74877643  0.00076288  1
  Co  Co124  1  0.24792426  0.25096181  0.50023565  1
  Co  Co125  1  0.49871989  0.50606375  0.49913563  1
  Co  Co126  1  0.12678706  0.12272869  0.37492555  1
  Co  Co127  1  0.25136941  0.49895112  0.75005291  1
