# generated using pymatgen
data_Fe45Co19
_symmetry_space_group_name_H-M   'P 1'
_cell_length_a   11.41515258
_cell_length_b   11.41508435
_cell_length_c   11.41386369
_cell_angle_alpha   90.00852367
_cell_angle_beta   89.99774571
_cell_angle_gamma   90.00088886
_symmetry_Int_Tables_number   1
_chemical_formula_structural   Fe45Co19
_chemical_formula_sum   'Fe90 Co38'
_cell_volume   1487.28268623
_cell_formula_units_Z   2
loop_
 _symmetry_equiv_pos_site_id
 _symmetry_equiv_pos_as_xyz
  1  'x, y, z'
loop_
 _atom_site_type_symbol
 _atom_site_label
 _atom_site_symmetry_multiplicity
 _atom_site_fract_x
 _atom_site_fract_y
 _atom_site_fract_z
 _atom_site_occupancy
  Fe  Fe0  1  0.74801442  0.74973712  0.75161296  1
  Fe  Fe1  1  0.24940511  0.25085158  0.75077017  1
  Fe  Fe2  1  0.50201247  0.24880149  0.74973055  1
  Fe  Fe3  1  0.50606066  0.00362956  0.75097067  1
  Fe  Fe4  1  0.75039617  0.74697981  0.49936101  1
  Fe  Fe5  1  0.25329693  0.50143098  0.50140271  1
  Fe  Fe6  1  0.25127008  -0.00043636  0.49935121  1
  Fe  Fe7  1  0.25303394  0.25013849  0.49884991  1
  Fe  Fe8  1  0.50211292  0.74930609  -0.00277881  1
  Fe  Fe9  1  0.00133019  0.24848673  0.74871989  1
  Fe  Fe10  1  0.37246890  0.12468736  0.12669991  1
  Fe  Fe11  1  0.62500866  0.12507565  0.12405163  1
  Fe  Fe12  1  0.87377909  0.12463847  0.62509248  1
  Fe  Fe13  1  0.50050943  0.00014139  0.49902825  1
  Fe  Fe14  1  0.75021128  0.00002295  -0.00074240  1
  Fe  Fe15  1  0.74794801  0.49996033  0.74815459  1
  Fe  Fe16  1  0.37145551  0.37365171  0.12333514  1
  Fe  Fe17  1  0.24945626  0.75069460  -0.00003843  1
  Fe  Fe18  1  0.00063489  0.50104353  0.00108069  1
  Fe  Fe19  1  0.87457289  0.87405513  0.62496055  1
  Fe  Fe20  1  0.37534122  0.12499483  0.87520395  1
  Fe  Fe21  1  0.37658815  0.37392508  0.37334831  1
  Fe  Fe22  1  -0.00052167  0.24849808  -0.00026298  1
  Fe  Fe23  1  0.00078884  0.00199419  0.50269703  1
  Fe  Fe24  1  0.87496316  0.12545465  0.12821181  1
  Fe  Fe25  1  0.12826948  0.62352985  0.87445468  1
  Fe  Fe26  1  0.24802299  -0.00203082  0.74874274  1
  Fe  Fe27  1  0.37660738  0.62712498  0.63145835  1
  Fe  Fe28  1  0.50128045  0.50082792  0.49859857  1
  Fe  Fe29  1  0.00048921  0.75029804  0.75013784  1
  Fe  Fe30  1  0.12487991  0.37294351  0.62123725  1
  Fe  Fe31  1  0.62633061  0.62522758  0.12499575  1
  Fe  Fe32  1  0.62437581  0.37399729  0.87634789  1
  Fe  Fe33  1  -0.00205348  0.50098701  0.50069045  1
  Fe  Fe34  1  -0.00033320  0.74870947  0.00137874  1
  Fe  Fe35  1  0.87433023  0.62281527  0.12694567  1
  Fe  Fe36  1  0.12620230  0.37543084  0.12399871  1
  Fe  Fe37  1  0.37790737  0.87429655  0.87383527  1
  Fe  Fe38  1  0.37696334  0.37615672  0.62787285  1
  Fe  Fe39  1  0.75106906  0.49807213  -0.00020454  1
  Fe  Fe40  1  0.62138367  0.12959069  0.37417508  1
  Fe  Fe41  1  0.74818157  0.00096183  0.49897253  1
  Fe  Fe42  1  0.49974969  -0.00154990  0.24774208  1
  Fe  Fe43  1  -0.00051467  0.74910123  0.24943420  1
  Fe  Fe44  1  0.62457062  0.87114709  0.37393331  1
  Fe  Fe45  1  0.74810998  0.00021996  0.25109590  1
  Fe  Fe46  1  0.24847611  0.75182259  0.24853251  1
  Fe  Fe47  1  0.50222031  0.75082994  0.24849366  1
  Fe  Fe48  1  0.49776652  0.24953702  0.00074197  1
  Fe  Fe49  1  0.87593619  0.87833256  0.87316997  1
  Fe  Fe50  1  0.12383813  0.87390617  0.62270103  1
  Fe  Fe51  1  0.12151407  0.87806902  0.87665900  1
  Fe  Fe52  1  0.12535844  0.62402186  0.37521724  1
  Fe  Fe53  1  0.12722073  0.37576027  0.87730864  1
  Fe  Fe54  1  0.74605574  0.49860139  0.25415940  1
  Fe  Fe55  1  0.74931694  0.75075994  -0.00017964  1
  Fe  Fe56  1  0.87567846  0.37605283  0.12806375  1
  Fe  Fe57  1  0.50112319  0.49914555  0.25023515  1
  Fe  Fe58  1  0.25284025  0.74982469  0.50200695  1
  Fe  Fe59  1  0.87531546  0.87556955  0.37625850  1
  Fe  Fe60  1  0.49638969  0.50176322  -0.00424761  1
  Fe  Fe61  1  0.62424156  0.87466287  0.62523382  1
  Fe  Fe62  1  0.12589166  0.12494586  0.12695623  1
  Fe  Fe63  1  0.24884462  0.49914231  0.24940425  1
  Fe  Fe64  1  0.87429312  0.62286677  0.37444277  1
  Fe  Fe65  1  0.87396564  0.37523219  0.62321745  1
  Fe  Fe66  1  0.37493544  0.12344009  0.62566647  1
  Fe  Fe67  1  0.12360775  0.12199780  0.87439042  1
  Fe  Fe68  1  0.75343541  0.24930964  0.49451651  1
  Fe  Fe69  1  0.37843214  0.87418782  0.62762069  1
  Fe  Fe70  1  0.87568857  0.37542936  0.87369773  1
  Fe  Fe71  1  0.62468300  0.37306948  0.62099674  1
  Fe  Fe72  1  0.12528366  0.62601270  0.62524679  1
  Fe  Fe73  1  0.00106940  0.49973108  0.74901620  1
  Fe  Fe74  1  0.37666352  0.62643132  0.37391182  1
  Fe  Fe75  1  0.37536657  0.87370653  0.37367501  1
  Fe  Fe76  1  -0.00107368  0.25375833  0.25516082  1
  Fe  Fe77  1  0.62531223  0.37406748  0.12548639  1
  Fe  Fe78  1  0.37369096  0.62695282  0.12458938  1
  Fe  Fe79  1  0.87453849  0.87571174  0.12568793  1
  Fe  Fe80  1  0.87520023  0.12295467  0.87263642  1
  Fe  Fe81  1  0.87374221  0.62295371  0.87359847  1
  Fe  Fe82  1  0.00161922  -0.00140109  0.24971661  1
  Fe  Fe83  1  0.37581744  0.12607904  0.37204092  1
  Fe  Fe84  1  0.12502541  0.87416474  0.37612044  1
  Fe  Fe85  1  0.74783722  0.24809395  0.75083261  1
  Fe  Fe86  1  0.75267514  0.25059280  0.00109810  1
  Fe  Fe87  1  0.62264816  0.62569200  0.62485005  1
  Fe  Fe88  1  0.12554124  0.12628442  0.37628321  1
  Fe  Fe89  1  0.25056786  -0.00128648  0.00274364  1
  Co  Co90  1  0.49833412  -0.00050527  0.00143583  1
  Co  Co91  1  0.12640889  0.62481233  0.12518245  1
  Co  Co92  1  0.62571330  0.12628105  0.87961601  1
  Co  Co93  1  0.24870508  0.25218461  0.25193289  1
  Co  Co94  1  0.12598662  0.37701613  0.37980296  1
  Co  Co95  1  0.87384483  0.38018460  0.37570468  1
  Co  Co96  1  0.62840773  0.62211568  0.87681061  1
  Co  Co97  1  0.24674221  0.75403169  0.74920218  1
  Co  Co98  1  0.25007586  -0.00200203  0.24997434  1
  Co  Co99  1  0.87542952  0.62534540  0.62680844  1
  Co  Co100  1  0.49897611  0.25136176  0.24547989  1
  Co  Co101  1  0.50215709  0.49914240  0.75246617  1
  Co  Co102  1  0.49524637  0.24986527  0.50154693  1
  Co  Co103  1  0.37586158  0.87278193  0.12517325  1
  Co  Co104  1  -0.00099183  0.74800617  0.49870651  1
  Co  Co105  1  0.62573180  0.87472400  0.12460055  1
  Co  Co106  1  0.87690367  0.12122959  0.37380112  1
  Co  Co107  1  0.37130080  0.62660383  0.87052936  1
  Co  Co108  1  0.74706603  0.00155980  0.74890943  1
  Co  Co109  1  0.12366559  0.87508560  0.12437577  1
  Co  Co110  1  0.75180192  0.74989496  0.25027348  1
  Co  Co111  1  0.12769678  0.12747292  0.62318028  1
  Co  Co112  1  0.62508252  0.87854144  0.87625399  1
  Co  Co113  1  0.24911653  0.24759654  -0.00106475  1
  Co  Co114  1  -0.00194363  0.00209268  0.00298873  1
  Co  Co115  1  -0.00339886  0.24938457  0.49828579  1
  Co  Co116  1  0.25272760  0.50154826  0.00001640  1
  Co  Co117  1  0.62587103  0.12761444  0.62025629  1
  Co  Co118  1  0.49808995  0.75024001  0.50058863  1
  Co  Co119  1  0.24918031  0.49737805  0.74907676  1
  Co  Co120  1  0.00262547  0.49940797  0.25022509  1
  Co  Co121  1  0.75108079  0.25023974  0.25149721  1
  Co  Co122  1  0.62297611  0.62801229  0.37417916  1
  Co  Co123  1  0.74702058  0.50290123  0.49933963  1
  Co  Co124  1  0.00034894  0.00036535  0.74464432  1
  Co  Co125  1  0.37449373  0.37394109  0.87423198  1
  Co  Co126  1  0.50469772  0.74848037  0.75463509  1
  Co  Co127  1  0.62241283  0.37066234  0.37672003  1
