# generated using pymatgen
data_Fe45Co19
_symmetry_space_group_name_H-M   'P 1'
_cell_length_a   11.41664983
_cell_length_b   11.41439955
_cell_length_c   11.41423180
_cell_angle_alpha   90.00957692
_cell_angle_beta   89.99959238
_cell_angle_gamma   89.99988721
_symmetry_Int_Tables_number   1
_chemical_formula_structural   Fe45Co19
_chemical_formula_sum   'Fe90 Co38'
_cell_volume   1487.43649673
_cell_formula_units_Z   2
loop_
 _symmetry_equiv_pos_site_id
 _symmetry_equiv_pos_as_xyz
  1  'x, y, z'
loop_
 _atom_site_type_symbol
 _atom_site_label
 _atom_site_symmetry_multiplicity
 _atom_site_fract_x
 _atom_site_fract_y
 _atom_site_fract_z
 _atom_site_occupancy
  Fe  Fe0  1  0.50007202  -0.00075071  -0.00160344  1
  Fe  Fe1  1  0.75047697  -0.00004089  0.00057768  1
  Fe  Fe2  1  0.49827583  0.24950995  0.49804926  1
  Fe  Fe3  1  0.75040513  0.50116794  0.74826840  1
  Fe  Fe4  1  0.12260577  0.37139777  0.62232101  1
  Fe  Fe5  1  0.87464465  0.12611046  0.87029184  1
  Fe  Fe6  1  0.75155782  0.75220459  0.24828430  1
  Fe  Fe7  1  0.62499869  0.37535084  0.12448535  1
  Fe  Fe8  1  0.87641720  0.62394975  0.37361045  1
  Fe  Fe9  1  0.12310221  0.62529308  0.62365792  1
  Fe  Fe10  1  0.37109684  0.62250033  0.87409529  1
  Fe  Fe11  1  0.50096060  0.25100809  0.75001805  1
  Fe  Fe12  1  0.62717712  0.37404597  0.37675214  1
  Fe  Fe13  1  0.49807824  0.75495399  0.25254883  1
  Fe  Fe14  1  0.25039434  -0.00426640  0.24864657  1
  Fe  Fe15  1  0.62507819  0.62717860  0.37435232  1
  Fe  Fe16  1  0.50126549  0.50180595  0.49801852  1
  Fe  Fe17  1  0.37376891  0.37473333  0.37424288  1
  Fe  Fe18  1  0.24805075  0.74906949  0.74950091  1
  Fe  Fe19  1  0.00063314  0.24934130  0.25219465  1
  Fe  Fe20  1  0.75246761  0.74726838  0.50143747  1
  Fe  Fe21  1  0.12568953  0.87337610  0.87592226  1
  Fe  Fe22  1  0.24639532  -0.00151152  0.74597923  1
  Fe  Fe23  1  0.50056549  0.49872343  0.25179060  1
  Fe  Fe24  1  0.37691787  0.12448416  0.12665809  1
  Fe  Fe25  1  0.12455173  0.12544152  0.12590263  1
  Fe  Fe26  1  0.75075181  0.50102718  0.24768649  1
  Fe  Fe27  1  -0.00181626  0.74871241  0.49857420  1
  Fe  Fe28  1  0.37394665  0.12480562  0.62482166  1
  Fe  Fe29  1  0.37560808  0.37499612  0.12637034  1
  Fe  Fe30  1  0.37444443  0.62469277  0.62253410  1
  Fe  Fe31  1  0.75213281  0.00383362  0.50409515  1
  Fe  Fe32  1  0.25037943  0.74968049  0.00330137  1
  Fe  Fe33  1  0.00242950  0.50127732  0.75202181  1
  Fe  Fe34  1  0.49962956  -0.00272532  0.49842575  1
  Fe  Fe35  1  0.37386920  0.87503482  0.87512436  1
  Fe  Fe36  1  0.62598570  0.12548868  0.87164023  1
  Fe  Fe37  1  0.87448364  0.87784718  0.37618571  1
  Fe  Fe38  1  0.62553928  0.12443435  0.37628270  1
  Fe  Fe39  1  -0.00202831  0.49747082  0.24751737  1
  Fe  Fe40  1  0.87211543  0.37751142  0.87759917  1
  Fe  Fe41  1  -0.00075623  -0.00077465  -0.00011708  1
  Fe  Fe42  1  0.37314218  0.87324415  0.62132314  1
  Fe  Fe43  1  0.37136177  0.12446821  0.37467097  1
  Fe  Fe44  1  0.12851607  0.38055700  0.87863827  1
  Fe  Fe45  1  0.37364941  0.37810057  0.87455466  1
  Fe  Fe46  1  0.87698940  0.37361947  0.62452916  1
  Fe  Fe47  1  0.74868595  -0.00287108  0.24785832  1
  Fe  Fe48  1  0.74883957  0.24881871  0.24920946  1
  Fe  Fe49  1  0.87602370  0.12570146  0.12598019  1
  Fe  Fe50  1  0.62627125  0.62502246  0.62494193  1
  Fe  Fe51  1  0.37512599  0.37646282  0.62463488  1
  Fe  Fe52  1  0.49917893  0.24992610  -0.00049446  1
  Fe  Fe53  1  0.50060978  -0.00402107  0.25253408  1
  Fe  Fe54  1  -0.00078622  0.74800046  0.75079324  1
  Fe  Fe55  1  0.62599647  0.37801111  0.87605600  1
  Fe  Fe56  1  0.00341377  0.00581400  0.50087282  1
  Fe  Fe57  1  0.00059352  -0.00051504  0.25039927  1
  Fe  Fe58  1  0.74970236  0.24961495  -0.00008996  1
  Fe  Fe59  1  0.24899287  0.50085599  0.49858616  1
  Fe  Fe60  1  0.24838837  0.74696470  0.49517842  1
  Fe  Fe61  1  0.49993826  0.74887823  0.74961826  1
  Fe  Fe62  1  0.12626491  0.37291718  0.37441166  1
  Fe  Fe63  1  0.00093503  0.25292301  -0.00049250  1
  Fe  Fe64  1  0.12590470  0.12567616  0.87349087  1
  Fe  Fe65  1  0.87267016  0.37437096  0.37474932  1
  Fe  Fe66  1  0.00073701  0.75270109  0.24957532  1
  Fe  Fe67  1  0.74841070  0.74637255  0.00421345  1
  Fe  Fe68  1  0.49971489  0.50169299  0.74946592  1
  Fe  Fe69  1  0.24987614  -0.00060422  0.00093265  1
  Fe  Fe70  1  0.87259993  0.87412514  0.87450844  1
  Fe  Fe71  1  0.24940182  0.25254750  0.74963494  1
  Fe  Fe72  1  0.37350521  0.12476404  0.87299928  1
  Fe  Fe73  1  0.00027380  0.74934338  0.00067770  1
  Fe  Fe74  1  0.50017565  0.50347688  0.00087929  1
  Fe  Fe75  1  0.62561487  0.37509404  0.62289584  1
  Fe  Fe76  1  0.62657442  0.87401260  0.62460128  1
  Fe  Fe77  1  0.25031958  0.25078804  0.00284480  1
  Fe  Fe78  1  0.75339655  0.24647248  0.50285061  1
  Fe  Fe79  1  0.87363501  0.62345439  0.87668385  1
  Fe  Fe80  1  0.00350160  -0.00163422  0.74860671  1
  Fe  Fe81  1  0.62734198  0.87228397  0.87396097  1
  Fe  Fe82  1  -0.00117758  0.49938485  0.49809747  1
  Fe  Fe83  1  0.12619219  0.87527587  0.37625358  1
  Fe  Fe84  1  0.49985436  0.74739349  -0.00023872  1
  Fe  Fe85  1  0.50088903  -0.00187448  0.74978458  1
  Fe  Fe86  1  0.12365855  0.62387574  0.12521679  1
  Fe  Fe87  1  0.87690615  0.87594941  0.62555716  1
  Fe  Fe88  1  0.62267258  0.12432487  0.12527060  1
  Fe  Fe89  1  0.25039293  0.50306142  0.25018348  1
  Co  Co90  1  0.37618418  0.87497964  0.12363859  1
  Co  Co91  1  0.12469571  0.37602524  0.12633405  1
  Co  Co92  1  0.62301468  0.87444601  0.12292054  1
  Co  Co93  1  0.25219098  0.50095894  0.00509444  1
  Co  Co94  1  0.12744525  0.62374429  0.87749241  1
  Co  Co95  1  0.74913698  0.50375678  0.00534572  1
  Co  Co96  1  0.74974801  0.00025461  0.74819988  1
  Co  Co97  1  0.75259140  0.74846169  0.74695590  1
  Co  Co98  1  0.87757490  0.62169298  0.62446926  1
  Co  Co99  1  0.00189340  0.25547127  0.75647345  1
  Co  Co100  1  0.25151472  0.25102923  0.49968020  1
  Co  Co101  1  0.50188903  0.75007683  0.50035293  1
  Co  Co102  1  0.12362942  0.86981424  0.62243764  1
  Co  Co103  1  0.62144929  0.62610590  0.12971916  1
  Co  Co104  1  0.24574738  0.00086563  0.50374884  1
  Co  Co105  1  0.74844516  0.25177672  0.74852493  1
  Co  Co106  1  0.87237706  0.12226676  0.37179769  1
  Co  Co107  1  0.87565794  0.87544915  0.12373489  1
  Co  Co108  1  0.37071204  0.87398414  0.37833298  1
  Co  Co109  1  -0.00182076  0.49908052  0.00139630  1
  Co  Co110  1  0.88124638  0.12803973  0.63158581  1
  Co  Co111  1  0.87397262  0.37236893  0.12481905  1
  Co  Co112  1  0.12440532  0.87516743  0.12381638  1
  Co  Co113  1  0.25044131  0.25096298  0.24777292  1
  Co  Co114  1  0.62694267  0.62450438  0.87289381  1
  Co  Co115  1  0.12074271  0.62340517  0.37384428  1
  Co  Co116  1  0.87817957  0.62615685  0.12645147  1
  Co  Co117  1  0.13024278  0.12549701  0.37348660  1
  Co  Co118  1  0.37806754  0.62611295  0.37486132  1
  Co  Co119  1  0.12263701  0.13226573  0.62604222  1
  Co  Co120  1  -0.00294756  0.24626823  0.49323680  1
  Co  Co121  1  0.37667853  0.62666203  0.12846016  1
  Co  Co122  1  0.62172627  0.12556257  0.62488527  1
  Co  Co123  1  0.62908430  0.87437997  0.37802421  1
  Co  Co124  1  0.24737199  0.50022266  0.74587876  1
  Co  Co125  1  0.75089187  0.50259714  0.49910855  1
  Co  Co126  1  0.50050865  0.24990093  0.25174128  1
  Co  Co127  1  0.24849355  0.74920410  0.25096466  1
