# generated using pymatgen
data_Fe45Co19
_symmetry_space_group_name_H-M   'P 1'
_cell_length_a   11.41563096
_cell_length_b   11.41527086
_cell_length_c   11.41563180
_cell_angle_alpha   90.00522013
_cell_angle_beta   89.99889532
_cell_angle_gamma   89.99632821
_symmetry_Int_Tables_number   1
_chemical_formula_structural   Fe45Co19
_chemical_formula_sum   'Fe90 Co38'
_cell_volume   1487.59973208
_cell_formula_units_Z   2
loop_
 _symmetry_equiv_pos_site_id
 _symmetry_equiv_pos_as_xyz
  1  'x, y, z'
loop_
 _atom_site_type_symbol
 _atom_site_label
 _atom_site_symmetry_multiplicity
 _atom_site_fract_x
 _atom_site_fract_y
 _atom_site_fract_z
 _atom_site_occupancy
  Fe  Fe0  1  0.37658168  0.12358145  0.62533045  1
  Fe  Fe1  1  0.50215423  0.00105200  0.74944627  1
  Fe  Fe2  1  0.62467014  0.62190959  0.87510813  1
  Fe  Fe3  1  0.74932439  0.00106736  0.00029831  1
  Fe  Fe4  1  0.12566112  0.37279341  0.62547606  1
  Fe  Fe5  1  0.37619959  0.87473591  0.87366508  1
  Fe  Fe6  1  0.49833709  0.50016109  0.24953672  1
  Fe  Fe7  1  0.62527602  0.87435885  0.12526938  1
  Fe  Fe8  1  0.87328922  0.62049547  0.12579659  1
  Fe  Fe9  1  0.12576692  0.62542629  0.12524029  1
  Fe  Fe10  1  0.62562265  0.12815448  0.87453017  1
  Fe  Fe11  1  0.37407092  0.37513645  0.37502345  1
  Fe  Fe12  1  0.62323573  0.37418172  0.37320204  1
  Fe  Fe13  1  0.24927400  0.50056299  0.50112355  1
  Fe  Fe14  1  0.37625540  0.12204291  0.37412657  1
  Fe  Fe15  1  0.00165295  0.49527650  0.49724152  1
  Fe  Fe16  1  0.37617530  0.87807339  0.37868777  1
  Fe  Fe17  1  -0.00004350  0.49992600  -0.00036876  1
  Fe  Fe18  1  0.12299281  0.62516502  0.62365805  1
  Fe  Fe19  1  0.00086042  0.25178316  -0.00024120  1
  Fe  Fe20  1  0.75073845  0.75209629  0.50121426  1
  Fe  Fe21  1  0.87359394  0.12725116  0.37598360  1
  Fe  Fe22  1  0.37531284  0.12362792  0.12485646  1
  Fe  Fe23  1  0.37658019  0.87571701  0.62186172  1
  Fe  Fe24  1  -0.00193895  0.75067663  0.25026892  1
  Fe  Fe25  1  0.50006461  0.24985799  0.75087794  1
  Fe  Fe26  1  -0.00019445  0.24872615  0.75099538  1
  Fe  Fe27  1  -0.00063411  -0.00201694  -0.00273934  1
  Fe  Fe28  1  0.62245167  0.12769060  0.12626564  1
  Fe  Fe29  1  0.24950590  0.24616027  0.75176184  1
  Fe  Fe30  1  0.24904300  0.24703467  0.50152931  1
  Fe  Fe31  1  0.25271758  0.74946057  0.25301899  1
  Fe  Fe32  1  0.49646090  0.25308780  -0.00025448  1
  Fe  Fe33  1  -0.00150833  0.75158022  0.49941542  1
  Fe  Fe34  1  0.12591676  0.62581184  0.87508447  1
  Fe  Fe35  1  0.87577903  0.12716319  0.12412971  1
  Fe  Fe36  1  0.12710473  0.87564983  0.12445951  1
  Fe  Fe37  1  0.75021774  0.75047892  0.74857236  1
  Fe  Fe38  1  0.12510224  0.62466662  0.37539798  1
  Fe  Fe39  1  0.87285422  0.62536785  0.87613482  1
  Fe  Fe40  1  0.12717961  0.37526414  0.12521787  1
  Fe  Fe41  1  -0.00194892  0.00123885  0.75433856  1
  Fe  Fe42  1  0.75049574  0.00141275  0.74984979  1
  Fe  Fe43  1  0.74906877  0.25453764  0.00068006  1
  Fe  Fe44  1  0.25385318  0.49930739  -0.00105567  1
  Fe  Fe45  1  0.62700910  0.87433969  0.87489563  1
  Fe  Fe46  1  0.49875981  0.74962712  0.25156105  1
  Fe  Fe47  1  0.87515610  0.62356750  0.62336542  1
  Fe  Fe48  1  0.12555017  0.12487873  0.37534924  1
  Fe  Fe49  1  0.62433797  0.62498799  0.37622247  1
  Fe  Fe50  1  0.24934546  0.74907958  0.74855494  1
  Fe  Fe51  1  -0.00085274  -0.00037857  0.24990912  1
  Fe  Fe52  1  0.87468406  0.37366263  0.87625393  1
  Fe  Fe53  1  0.12563282  0.87664355  0.37581058  1
  Fe  Fe54  1  -0.00144051  0.75098558  0.75123293  1
  Fe  Fe55  1  0.87458255  0.62202376  0.37350314  1
  Fe  Fe56  1  0.50048254  -0.00017581  0.00021005  1
  Fe  Fe57  1  0.75006618  0.49746105  0.75087636  1
  Fe  Fe58  1  0.74999737  0.00000065  0.24817802  1
  Fe  Fe59  1  0.25204380  0.75041684  -0.00190589  1
  Fe  Fe60  1  0.50226164  0.74735779  0.74733444  1
  Fe  Fe61  1  0.50106218  0.50052335  0.50291157  1
  Fe  Fe62  1  0.87392247  0.12852148  0.62335541  1
  Fe  Fe63  1  0.49590196  0.49701199  -0.00162059  1
  Fe  Fe64  1  0.62401728  0.87627745  0.37604757  1
  Fe  Fe65  1  0.87312091  0.87424529  0.12375319  1
  Fe  Fe66  1  0.37597709  0.62617404  0.62271008  1
  Fe  Fe67  1  0.37520454  0.37419812  0.62636338  1
  Fe  Fe68  1  0.74976399  0.25396060  0.24867928  1
  Fe  Fe69  1  0.25123120  0.24796822  0.24896961  1
  Fe  Fe70  1  0.50143803  0.24725080  0.49956441  1
  Fe  Fe71  1  0.12605928  0.12414993  0.12200475  1
  Fe  Fe72  1  -0.00148994  0.75066109  -0.00091213  1
  Fe  Fe73  1  -0.00081800  0.49871249  0.75044270  1
  Fe  Fe74  1  0.25149440  0.50227354  0.74954657  1
  Fe  Fe75  1  0.12429177  0.87671176  0.62476397  1
  Fe  Fe76  1  0.62402145  0.12427458  0.37216207  1
  Fe  Fe77  1  0.62461065  0.62192853  0.12332752  1
  Fe  Fe78  1  0.74743302  0.00072805  0.50263598  1
  Fe  Fe79  1  -0.00034636  0.00146200  0.49974997  1
  Fe  Fe80  1  0.74856567  0.49753347  0.49923620  1
  Fe  Fe81  1  0.75010264  0.74942973  0.24967175  1
  Fe  Fe82  1  0.37434333  0.87602096  0.12542888  1
  Fe  Fe83  1  0.62491564  0.37265300  0.62736489  1
  Fe  Fe84  1  0.24943383  0.00186298  0.75230584  1
  Fe  Fe85  1  0.87459522  0.37175229  0.62125155  1
  Fe  Fe86  1  0.00018404  0.25406763  0.25205588  1
  Fe  Fe87  1  0.25126082  0.50214971  0.24991021  1
  Fe  Fe88  1  0.50028705  0.74976166  -0.00026461  1
  Fe  Fe89  1  0.12814691  0.37407052  0.87468755  1
  Co  Co90  1  0.37615899  0.62606074  0.87377679  1
  Co  Co91  1  0.37394481  0.37497688  0.87016570  1
  Co  Co92  1  0.74498452  0.24996531  0.49799066  1
  Co  Co93  1  0.24918550  0.00227638  0.50156665  1
  Co  Co94  1  0.87610615  0.87681956  0.62569999  1
  Co  Co95  1  0.12605727  0.87440799  0.87420181  1
  Co  Co96  1  0.37429094  0.37459451  0.12834972  1
  Co  Co97  1  0.50097811  0.74910147  0.50066498  1
  Co  Co98  1  0.87360982  0.12671372  0.87745635  1
  Co  Co99  1  0.62615279  0.12800368  0.62848506  1
  Co  Co100  1  0.12495954  0.12538832  0.87820353  1
  Co  Co101  1  0.37645406  0.62261736  0.37770029  1
  Co  Co102  1  0.74762933  0.49796568  0.25014238  1
  Co  Co103  1  0.50350466  0.00348771  0.50179051  1
  Co  Co104  1  0.00325793  0.25162404  0.49765449  1
  Co  Co105  1  0.24985353  0.00018100  0.24968604  1
  Co  Co106  1  0.75144833  0.25206123  0.75158565  1
  Co  Co107  1  0.49863575  0.24963641  0.25099481  1
  Co  Co108  1  0.87315302  0.37449079  0.37531042  1
  Co  Co109  1  0.24959898  0.75027110  0.49956837  1
  Co  Co110  1  0.75008520  0.49613307  -0.00128533  1
  Co  Co111  1  0.87627754  0.37768201  0.12658527  1
  Co  Co112  1  0.87348258  0.87716327  0.37494176  1
  Co  Co113  1  0.62157528  0.37528451  0.87293052  1
  Co  Co114  1  0.37711866  0.12476225  0.87547464  1
  Co  Co115  1  0.49973996  0.50194487  0.74716394  1
  Co  Co116  1  0.12206635  0.12439031  0.62668080  1
  Co  Co117  1  0.74858908  0.74782414  0.00145201  1
  Co  Co118  1  0.87157570  0.87408317  0.87633050  1
  Co  Co119  1  0.49991787  -0.00133513  0.24861820  1
  Co  Co120  1  0.25353797  0.25033574  0.00001216  1
  Co  Co121  1  0.37604797  0.62581141  0.12465358  1
  Co  Co122  1  0.00230911  0.49771843  0.25169040  1
  Co  Co123  1  0.62405338  0.87468915  0.62476163  1
  Co  Co124  1  0.62167157  0.37579637  0.12531663  1
  Co  Co125  1  0.62793112  0.62454185  0.62414736  1
  Co  Co126  1  0.25187888  -0.00033642  -0.00229397  1
  Co  Co127  1  0.13065694  0.37432040  0.37435521  1
