# generated using pymatgen
data_Fe45Co19
_symmetry_space_group_name_H-M   'P 1'
_cell_length_a   11.41525380
_cell_length_b   11.41632223
_cell_length_c   11.41582552
_cell_angle_alpha   89.99954249
_cell_angle_beta   89.99629410
_cell_angle_gamma   90.00403795
_symmetry_Int_Tables_number   1
_chemical_formula_structural   Fe45Co19
_chemical_formula_sum   'Fe90 Co38'
_cell_volume   1487.71283784
_cell_formula_units_Z   2
loop_
 _symmetry_equiv_pos_site_id
 _symmetry_equiv_pos_as_xyz
  1  'x, y, z'
loop_
 _atom_site_type_symbol
 _atom_site_label
 _atom_site_symmetry_multiplicity
 _atom_site_fract_x
 _atom_site_fract_y
 _atom_site_fract_z
 _atom_site_occupancy
  Fe  Fe0  1  0.62300745  0.62489215  0.12563169  1
  Fe  Fe1  1  0.50057519  0.49935203  0.74962874  1
  Fe  Fe2  1  0.75145995  0.75052552  0.24990502  1
  Fe  Fe3  1  0.50070591  -0.00042376  0.75018521  1
  Fe  Fe4  1  0.87778826  0.62641686  0.62615661  1
  Fe  Fe5  1  0.24834777  0.50561884  0.00138694  1
  Fe  Fe6  1  0.87708211  0.37619758  0.87177980  1
  Fe  Fe7  1  0.74853376  0.49852932  0.25051321  1
  Fe  Fe8  1  0.50121163  -0.00062673  0.25143988  1
  Fe  Fe9  1  0.37320804  0.87294831  0.87919133  1
  Fe  Fe10  1  0.87280754  0.11922684  0.37939480  1
  Fe  Fe11  1  0.00161887  0.75170958  0.75048680  1
  Fe  Fe12  1  0.12436702  0.12447926  0.37367399  1
  Fe  Fe13  1  0.62484700  0.87403647  0.87411356  1
  Fe  Fe14  1  0.00129168  0.49885510  0.25010281  1
  Fe  Fe15  1  0.37609551  0.12361617  0.12500769  1
  Fe  Fe16  1  0.00196100  0.74892356  0.00215406  1
  Fe  Fe17  1  0.12566313  0.62725031  0.37556603  1
  Fe  Fe18  1  0.00171739  0.50083855  -0.00011232  1
  Fe  Fe19  1  0.00134510  0.50044025  0.50234761  1
  Fe  Fe20  1  0.49887320  0.49638853  0.24940709  1
  Fe  Fe21  1  0.87388968  0.87501297  0.87494885  1
  Fe  Fe22  1  0.74795203  0.74793808  -0.00099798  1
  Fe  Fe23  1  -0.00196870  0.75305143  0.24893105  1
  Fe  Fe24  1  0.37157516  0.37500440  0.87294718  1
  Fe  Fe25  1  0.87683089  0.12442337  0.87033617  1
  Fe  Fe26  1  0.87499863  0.62394424  0.12556525  1
  Fe  Fe27  1  0.75049403  0.00065639  0.74703935  1
  Fe  Fe28  1  -0.00063431  0.25107223  0.00004862  1
  Fe  Fe29  1  0.49768277  0.75334632  0.24997562  1
  Fe  Fe30  1  0.25282049  0.75082798  0.24468469  1
  Fe  Fe31  1  0.25080120  0.24719472  0.00000154  1
  Fe  Fe32  1  0.62525663  0.12619181  0.12541929  1
  Fe  Fe33  1  0.87688221  0.62372461  0.87328184  1
  Fe  Fe34  1  0.74895990  -0.00069423  0.25000801  1
  Fe  Fe35  1  -0.00159950  0.24815765  0.49982048  1
  Fe  Fe36  1  0.87507592  0.12437287  0.12481497  1
  Fe  Fe37  1  0.50066127  0.25194680  0.74715173  1
  Fe  Fe38  1  0.12570567  0.87585039  0.62505142  1
  Fe  Fe39  1  -0.00067045  -0.00278967  0.24903738  1
  Fe  Fe40  1  0.50016590  0.50089562  -0.00105670  1
  Fe  Fe41  1  0.75095978  0.24957650  0.25232644  1
  Fe  Fe42  1  0.62335635  0.62697168  0.37746860  1
  Fe  Fe43  1  0.12336422  0.12474520  0.87548088  1
  Fe  Fe44  1  0.87561331  0.37705699  0.37489162  1
  Fe  Fe45  1  0.25108589  0.24844091  0.50192270  1
  Fe  Fe46  1  0.50004960  -0.00028313  0.49915531  1
  Fe  Fe47  1  -0.00226028  0.75414596  0.49874446  1
  Fe  Fe48  1  0.49883924  0.00106525  -0.00242153  1
  Fe  Fe49  1  0.37740340  0.12531607  0.37470149  1
  Fe  Fe50  1  0.25228067  0.74941772  0.74699297  1
  Fe  Fe51  1  0.87573520  0.37170656  0.62805269  1
  Fe  Fe52  1  0.74953586  0.49982072  0.50101935  1
  Fe  Fe53  1  0.24307663  0.50193691  0.74694037  1
  Fe  Fe54  1  0.62237174  0.36966482  0.37769439  1
  Fe  Fe55  1  0.62747625  0.87341774  0.37892214  1
  Fe  Fe56  1  0.25560282  0.75170075  0.50202413  1
  Fe  Fe57  1  0.87439359  0.62510511  0.37523302  1
  Fe  Fe58  1  0.74983573  0.50014709  0.00013616  1
  Fe  Fe59  1  0.24582783  0.25039686  0.74956772  1
  Fe  Fe60  1  0.25008257  -0.00039580  0.24681618  1
  Fe  Fe61  1  -0.00163855  0.25011069  0.25032394  1
  Fe  Fe62  1  0.37573823  0.62535957  0.37468316  1
  Fe  Fe63  1  0.75022012  0.00128756  -0.00161739  1
  Fe  Fe64  1  0.00106555  -0.00113129  0.00043157  1
  Fe  Fe65  1  0.24948844  -0.00049318  0.75377565  1
  Fe  Fe66  1  0.62848289  0.12928637  0.62104482  1
  Fe  Fe67  1  0.25170649  0.25051835  0.24844572  1
  Fe  Fe68  1  0.37394682  0.12323659  0.62783174  1
  Fe  Fe69  1  0.12605847  0.37487633  0.12388203  1
  Fe  Fe70  1  0.24985445  0.00014437  0.49930767  1
  Fe  Fe71  1  0.74902347  0.50088105  0.74879580  1
  Fe  Fe72  1  0.49823631  0.49743505  0.50217398  1
  Fe  Fe73  1  0.37446463  0.62694215  0.87415749  1
  Fe  Fe74  1  0.62563598  0.37244273  0.12474080  1
  Fe  Fe75  1  0.74901899  0.74887481  0.74945517  1
  Fe  Fe76  1  0.24942594  0.50090350  0.50205126  1
  Fe  Fe77  1  0.12556369  0.37400004  0.37697347  1
  Fe  Fe78  1  0.49812685  0.25040076  -0.00036235  1
  Fe  Fe79  1  0.12105572  0.12264178  0.62555110  1
  Fe  Fe80  1  0.62507318  0.87542380  0.12274070  1
  Fe  Fe81  1  0.62413055  0.12647538  0.87392606  1
  Fe  Fe82  1  0.62216482  0.87059552  0.62388075  1
  Fe  Fe83  1  0.37563964  0.37218845  0.37681421  1
  Fe  Fe84  1  0.62618086  0.37503782  0.87384926  1
  Fe  Fe85  1  0.62087002  0.62737627  0.62401956  1
  Fe  Fe86  1  0.12719038  0.87479889  0.37355581  1
  Fe  Fe87  1  0.75185384  0.24993313  -0.00235901  1
  Fe  Fe88  1  0.25083596  0.49972212  0.24955577  1
  Fe  Fe89  1  0.12861457  0.87250496  0.87921308  1
  Co  Co90  1  0.87771286  0.12469014  0.62687490  1
  Co  Co91  1  0.74925626  0.24854028  0.75170923  1
  Co  Co92  1  0.62502017  0.62408884  0.87286879  1
  Co  Co93  1  0.37161290  0.37592410  0.62825464  1
  Co  Co94  1  0.49784683  0.25003017  0.24749768  1
  Co  Co95  1  0.38009066  0.62463969  0.12596448  1
  Co  Co96  1  0.25055918  0.00501018  -0.00103392  1
  Co  Co97  1  0.49758940  0.75084360  0.75224174  1
  Co  Co98  1  0.12257125  0.62394743  0.12955512  1
  Co  Co99  1  0.87621164  0.87628760  0.62696432  1
  Co  Co100  1  0.74919676  -0.00285835  0.50519084  1
  Co  Co101  1  0.37309510  0.37637476  0.12166171  1
  Co  Co102  1  0.75249486  0.74832936  0.50175467  1
  Co  Co103  1  0.12673316  0.87684554  0.12305773  1
  Co  Co104  1  0.87329322  0.87532707  0.12191494  1
  Co  Co105  1  0.49378031  0.75190586  0.49900028  1
  Co  Co106  1  0.12444266  0.37295419  0.62149459  1
  Co  Co107  1  0.37291231  0.87775902  0.37415980  1
  Co  Co108  1  0.37697938  0.62279149  0.62605879  1
  Co  Co109  1  0.00500283  0.49956887  0.74778359  1
  Co  Co110  1  0.87480717  0.37521762  0.12527250  1
  Co  Co111  1  0.24895652  0.74407932  0.00583019  1
  Co  Co112  1  0.87127034  0.87709205  0.37589998  1
  Co  Co113  1  0.37544186  0.87681541  0.11989147  1
  Co  Co114  1  0.37628370  0.12742505  0.87101080  1
  Co  Co115  1  0.00427363  0.25128940  0.75139693  1
  Co  Co116  1  0.12352480  0.12578105  0.12589319  1
  Co  Co117  1  0.50250699  0.74869221  -0.00159508  1
  Co  Co118  1  0.00135221  -0.00323490  0.49942040  1
  Co  Co119  1  0.75471930  0.25185645  0.49783177  1
  Co  Co120  1  0.12490177  0.62781516  0.87287782  1
  Co  Co121  1  0.00199041  -0.00312164  0.75222776  1
  Co  Co122  1  0.62469144  0.12717950  0.37757627  1
  Co  Co123  1  0.12390509  0.62961042  0.62210151  1
  Co  Co124  1  0.12635061  0.37597309  0.87810653  1
  Co  Co125  1  0.62722015  0.37390359  0.62446083  1
  Co  Co126  1  0.37565588  0.87961041  0.62679804  1
  Co  Co127  1  0.49570066  0.24996573  0.50454498  1
