# generated using pymatgen
data_Fe45Co19
_symmetry_space_group_name_H-M   'P 1'
_cell_length_a   11.41589078
_cell_length_b   11.41493667
_cell_length_c   11.41503943
_cell_angle_alpha   90.00223046
_cell_angle_beta   90.00081598
_cell_angle_gamma   89.99716924
_symmetry_Int_Tables_number   1
_chemical_formula_structural   Fe45Co19
_chemical_formula_sum   'Fe90 Co38'
_cell_volume   1487.51285040
_cell_formula_units_Z   2
loop_
 _symmetry_equiv_pos_site_id
 _symmetry_equiv_pos_as_xyz
  1  'x, y, z'
loop_
 _atom_site_type_symbol
 _atom_site_label
 _atom_site_symmetry_multiplicity
 _atom_site_fract_x
 _atom_site_fract_y
 _atom_site_fract_z
 _atom_site_occupancy
  Fe  Fe0  1  0.87306163  0.37739745  0.37693751  1
  Fe  Fe1  1  0.50039471  -0.00011426  0.75288010  1
  Fe  Fe2  1  0.12587375  0.37595660  0.12909774  1
  Fe  Fe3  1  0.49985525  0.00100789  0.49890414  1
  Fe  Fe4  1  0.37577937  0.87494821  0.37374957  1
  Fe  Fe5  1  0.87446251  0.62556261  0.61617348  1
  Fe  Fe6  1  0.62811778  0.62335861  0.12384498  1
  Fe  Fe7  1  0.12752655  0.37581557  0.87201807  1
  Fe  Fe8  1  0.25017175  0.49899148  -0.00037598  1
  Fe  Fe9  1  -0.00101457  0.00122704  0.74951523  1
  Fe  Fe10  1  0.74996281  0.50428739  0.75075698  1
  Fe  Fe11  1  0.12687355  0.87786309  0.62536777  1
  Fe  Fe12  1  0.25195201  0.74860579  0.74760793  1
  Fe  Fe13  1  0.62553400  0.63150706  0.87530040  1
  Fe  Fe14  1  0.75040486  0.24950155  0.24898196  1
  Fe  Fe15  1  0.62066329  0.12766915  0.62461718  1
  Fe  Fe16  1  0.25069489  0.49226988  0.49769476  1
  Fe  Fe17  1  0.49951105  -0.00383873  0.00026532  1
  Fe  Fe18  1  0.62228141  0.87463620  0.12787266  1
  Fe  Fe19  1  0.12662578  0.62385116  0.62195970  1
  Fe  Fe20  1  0.87283294  0.87434046  0.62210114  1
  Fe  Fe21  1  0.12777203  0.87734476  0.37384666  1
  Fe  Fe22  1  0.87375880  0.37674312  0.12233274  1
  Fe  Fe23  1  0.62392927  0.37509138  0.87184039  1
  Fe  Fe24  1  0.50036650  0.49997181  -0.00087151  1
  Fe  Fe25  1  -0.00062298  0.74820875  0.25219039  1
  Fe  Fe26  1  0.62422584  0.87335529  0.62638474  1
  Fe  Fe27  1  0.74680739  0.00126307  0.75136058  1
  Fe  Fe28  1  0.37774889  0.37312966  0.63147746  1
  Fe  Fe29  1  0.12715783  0.12413964  0.87346918  1
  Fe  Fe30  1  0.62243969  0.87529328  0.37290084  1
  Fe  Fe31  1  0.87538353  0.12350276  0.12381369  1
  Fe  Fe32  1  0.12410537  0.12388927  0.12468865  1
  Fe  Fe33  1  0.75002655  0.00230191  0.25213701  1
  Fe  Fe34  1  0.25069232  0.25232804  0.00103625  1
  Fe  Fe35  1  -0.00225531  0.74806208  0.74730247  1
  Fe  Fe36  1  0.75178707  0.74639582  0.25202751  1
  Fe  Fe37  1  -0.00124421  0.50198368  0.74782618  1
  Fe  Fe38  1  0.87356179  0.12504178  0.87725858  1
  Fe  Fe39  1  -0.00204022  0.50060738  0.25233162  1
  Fe  Fe40  1  0.87428426  0.37588374  0.87400295  1
  Fe  Fe41  1  0.12517539  0.12781087  0.37626645  1
  Fe  Fe42  1  0.37308037  0.62550717  0.12390169  1
  Fe  Fe43  1  0.37860915  0.13195404  0.37607796  1
  Fe  Fe44  1  0.87229117  0.87284161  0.87358876  1
  Fe  Fe45  1  0.74773571  0.00042767  0.49892974  1
  Fe  Fe46  1  0.62276010  0.12781994  0.37457866  1
  Fe  Fe47  1  0.62607770  0.37930475  0.12877452  1
  Fe  Fe48  1  0.00001941  -0.00086301  -0.00072998  1
  Fe  Fe49  1  0.37512625  0.62474975  0.87516833  1
  Fe  Fe50  1  0.49942252  0.25384172  0.00051436  1
  Fe  Fe51  1  0.37513857  0.12740809  0.87545740  1
  Fe  Fe52  1  0.50052685  0.75043175  0.49994364  1
  Fe  Fe53  1  0.25244375  0.00571191  0.50259914  1
  Fe  Fe54  1  0.12561301  0.62469200  0.87400272  1
  Fe  Fe55  1  0.74487461  0.25410782  0.49975233  1
  Fe  Fe56  1  0.12673853  0.87555507  0.12693842  1
  Fe  Fe57  1  0.62282837  0.12340018  0.12393070  1
  Fe  Fe58  1  0.25049115  0.74696572  0.25173708  1
  Fe  Fe59  1  0.00058215  0.24842097  0.75085899  1
  Fe  Fe60  1  0.12614388  0.37336772  0.62694918  1
  Fe  Fe61  1  0.62359310  0.62476661  0.62383069  1
  Fe  Fe62  1  0.37617934  0.87029101  0.87532105  1
  Fe  Fe63  1  0.25081985  0.75075828  0.50003425  1
  Fe  Fe64  1  0.87621897  0.87696070  0.12782166  1
  Fe  Fe65  1  0.49892352  0.74662105  0.24996675  1
  Fe  Fe66  1  0.37636795  0.62135140  0.37784890  1
  Fe  Fe67  1  0.87478173  0.87384538  0.37578633  1
  Fe  Fe68  1  0.37389190  0.37669796  0.13057067  1
  Fe  Fe69  1  0.74794210  0.24643633  0.75211243  1
  Fe  Fe70  1  -0.00215536  0.24894640  0.25048802  1
  Fe  Fe71  1  0.25265544  -0.00220896  0.00079273  1
  Fe  Fe72  1  0.74777491  -0.00289511  -0.00141049  1
  Fe  Fe73  1  0.87431425  0.12600771  0.62271970  1
  Fe  Fe74  1  0.87315545  0.62228183  0.12046123  1
  Fe  Fe75  1  0.00080583  0.25170403  0.50002310  1
  Fe  Fe76  1  0.37608987  0.62132374  0.62247581  1
  Fe  Fe77  1  0.62583770  0.62078206  0.37593465  1
  Fe  Fe78  1  0.00099811  0.49840284  -0.00201976  1
  Fe  Fe79  1  0.37575922  0.87644449  0.62409445  1
  Fe  Fe80  1  0.74825796  0.25122633  0.00001214  1
  Fe  Fe81  1  -0.00062438  0.75083454  -0.00008090  1
  Fe  Fe82  1  0.87181583  0.37501695  0.62647135  1
  Fe  Fe83  1  0.25515429  0.00410604  0.24832861  1
  Fe  Fe84  1  -0.00047089  0.00064416  0.49843640  1
  Fe  Fe85  1  0.12543806  0.62479968  0.12390071  1
  Fe  Fe86  1  0.12301285  0.62230930  0.37896832  1
  Fe  Fe87  1  0.12570152  0.87365403  0.87334326  1
  Fe  Fe88  1  0.50298349  0.49078309  0.49905216  1
  Fe  Fe89  1  0.00101479  0.25067936  -0.00089732  1
  Co  Co90  1  0.24993949  0.24727513  0.74802361  1
  Co  Co91  1  0.37995448  0.12721941  0.62609938  1
  Co  Co92  1  0.24949877  0.24646284  0.24828422  1
  Co  Co93  1  0.62555487  0.37422381  0.63271703  1
  Co  Co94  1  0.62490637  0.86915743  0.87312877  1
  Co  Co95  1  0.37477842  0.87159682  0.12758693  1
  Co  Co96  1  0.87301505  0.12689212  0.37767738  1
  Co  Co97  1  0.74685982  0.49813035  -0.00442093  1
  Co  Co98  1  0.49871507  0.50334499  0.24868208  1
  Co  Co99  1  0.62490776  0.37647010  0.36744820  1
  Co  Co100  1  0.24915711  0.74979837  -0.00072229  1
  Co  Co101  1  0.62326986  0.12528343  0.87896493  1
  Co  Co102  1  0.12340114  0.12432607  0.62507889  1
  Co  Co103  1  0.74488032  0.49618226  0.50112920  1
  Co  Co104  1  0.50063810  0.24775355  0.75315384  1
  Co  Co105  1  0.37778922  0.12695120  0.12160018  1
  Co  Co106  1  0.25012564  0.50106795  0.74880118  1
  Co  Co107  1  0.00383247  0.75461968  0.49979492  1
  Co  Co108  1  0.49670833  0.00236424  0.25009763  1
  Co  Co109  1  0.25323400  0.00024374  0.75024229  1
  Co  Co110  1  -0.00020109  0.00219565  0.25306875  1
  Co  Co111  1  0.37529172  0.37247243  0.36806229  1
  Co  Co112  1  0.74542605  0.75125961  0.49799049  1
  Co  Co113  1  0.75108716  0.75345302  0.00300768  1
  Co  Co114  1  0.50154771  0.25756293  0.49974632  1
  Co  Co115  1  0.87660804  0.62427968  0.38286287  1
  Co  Co116  1  0.50071618  0.74900979  0.00370330  1
  Co  Co117  1  0.24913929  0.50389962  0.25215063  1
  Co  Co118  1  0.49678062  0.74879507  0.74601529  1
  Co  Co119  1  0.50168103  0.50314398  0.75229600  1
  Co  Co120  1  0.87463911  0.62493897  0.87854233  1
  Co  Co121  1  0.75481078  0.50220596  0.25187942  1
  Co  Co122  1  0.37394577  0.37569955  0.87188214  1
  Co  Co123  1  0.12653537  0.37317447  0.37145169  1
  Co  Co124  1  0.75267540  0.74734184  0.74660742  1
  Co  Co125  1  0.25250226  0.25191013  0.50267863  1
  Co  Co126  1  0.00204242  0.49448865  0.50126069  1
  Co  Co127  1  0.50224008  0.24939676  0.24717267  1
