# generated using pymatgen
data_Fe45Co19
_symmetry_space_group_name_H-M   'P 1'
_cell_length_a   11.41566371
_cell_length_b   11.41611252
_cell_length_c   11.41389692
_cell_angle_alpha   89.98631363
_cell_angle_beta   89.99104895
_cell_angle_gamma   89.99288190
_symmetry_Int_Tables_number   1
_chemical_formula_structural   Fe45Co19
_chemical_formula_sum   'Fe90 Co38'
_cell_volume   1487.48752596
_cell_formula_units_Z   2
loop_
 _symmetry_equiv_pos_site_id
 _symmetry_equiv_pos_as_xyz
  1  'x, y, z'
loop_
 _atom_site_type_symbol
 _atom_site_label
 _atom_site_symmetry_multiplicity
 _atom_site_fract_x
 _atom_site_fract_y
 _atom_site_fract_z
 _atom_site_occupancy
  Fe  Fe0  1  0.37590497  0.12190313  0.87327084  1
  Fe  Fe1  1  0.62421351  0.12445163  0.37434252  1
  Fe  Fe2  1  0.24900016  -0.00295155  0.50516936  1
  Fe  Fe3  1  0.49868451  0.00026780  0.24892403  1
  Fe  Fe4  1  0.87574821  0.12676666  0.87158039  1
  Fe  Fe5  1  0.74636249  0.24871321  -0.00336501  1
  Fe  Fe6  1  0.00008548  0.75132060  0.50381737  1
  Fe  Fe7  1  0.75004685  0.49868848  0.75047508  1
  Fe  Fe8  1  0.87713612  0.87489299  0.37696799  1
  Fe  Fe9  1  0.50190980  0.24828090  -0.00155709  1
  Fe  Fe10  1  0.12675598  0.12675865  0.12534715  1
  Fe  Fe11  1  0.12187124  0.37610520  0.87025033  1
  Fe  Fe12  1  0.62341676  0.87597960  0.87339501  1
  Fe  Fe13  1  0.75181974  0.00213131  0.25070207  1
  Fe  Fe14  1  0.37279884  0.12531621  0.12475294  1
  Fe  Fe15  1  0.12503034  0.62607861  0.12498657  1
  Fe  Fe16  1  0.37422883  0.37627170  0.12383806  1
  Fe  Fe17  1  0.00084617  0.00117481  -0.00141909  1
  Fe  Fe18  1  0.37358626  0.37508594  0.62467705  1
  Fe  Fe19  1  0.00039081  0.50064474  0.00015172  1
  Fe  Fe20  1  0.00189854  0.24958531  -0.00168127  1
  Fe  Fe21  1  0.12341253  0.87375523  0.12643461  1
  Fe  Fe22  1  0.87589147  0.12717048  0.37955660  1
  Fe  Fe23  1  0.12249433  0.62422132  0.37761040  1
  Fe  Fe24  1  -0.00089447  0.24935948  0.24997213  1
  Fe  Fe25  1  0.62810811  0.62597956  0.12590424  1
  Fe  Fe26  1  0.87711402  0.37450075  0.87119428  1
  Fe  Fe27  1  0.37312043  0.62422813  0.62292981  1
  Fe  Fe28  1  0.87596398  0.62341338  0.87393684  1
  Fe  Fe29  1  0.12489632  0.12439621  0.86701168  1
  Fe  Fe30  1  0.00004495  0.74909306  0.00053162  1
  Fe  Fe31  1  0.00163400  0.00134244  0.50779880  1
  Fe  Fe32  1  0.50054459  0.50230496  0.24836679  1
  Fe  Fe33  1  0.24903823  0.75007038  0.25267597  1
  Fe  Fe34  1  0.50161110  0.74812426  0.49975687  1
  Fe  Fe35  1  0.24750940  -0.00170409  -0.00284260  1
  Fe  Fe36  1  0.24889691  -0.00149387  0.25138757  1
  Fe  Fe37  1  -0.00101465  0.74443422  0.74437259  1
  Fe  Fe38  1  0.37441719  0.87183611  0.12216647  1
  Fe  Fe39  1  -0.00299588  0.50157311  0.24813420  1
  Fe  Fe40  1  0.12585766  0.37413819  0.12581674  1
  Fe  Fe41  1  0.00313864  0.25104884  0.50928400  1
  Fe  Fe42  1  0.62562621  0.87414397  0.62494785  1
  Fe  Fe43  1  0.75047707  0.00060196  -0.00046023  1
  Fe  Fe44  1  0.49913109  0.00030794  0.50340522  1
  Fe  Fe45  1  0.49847411  0.74885852  0.25077667  1
  Fe  Fe46  1  0.62686976  0.37459156  0.12541273  1
  Fe  Fe47  1  0.75293292  0.74763564  0.25261808  1
  Fe  Fe48  1  0.49797553  0.24797147  0.25063680  1
  Fe  Fe49  1  0.50104302  0.50251321  0.74873049  1
  Fe  Fe50  1  0.75205837  0.75009680  0.74854364  1
  Fe  Fe51  1  0.37772719  0.87182004  0.87583492  1
  Fe  Fe52  1  0.24957251  0.75026077  0.74931356  1
  Fe  Fe53  1  0.62558019  0.87419594  0.12524089  1
  Fe  Fe54  1  0.24877618  0.50238914  0.75204550  1
  Fe  Fe55  1  0.50069085  0.74823764  0.74935068  1
  Fe  Fe56  1  0.37065735  0.12770221  0.62584468  1
  Fe  Fe57  1  0.75166802  0.00004094  0.74871173  1
  Fe  Fe58  1  0.25180044  0.25241131  0.25596325  1
  Fe  Fe59  1  0.50200512  0.00046202  0.00090937  1
  Fe  Fe60  1  0.87683356  0.87455564  0.12620898  1
  Fe  Fe61  1  0.62339951  0.37545955  0.37356960  1
  Fe  Fe62  1  0.12630632  0.12558906  0.37926693  1
  Fe  Fe63  1  0.87586388  0.62477170  0.37906143  1
  Fe  Fe64  1  0.24836035  0.49425227  0.49770222  1
  Fe  Fe65  1  0.24890501  0.49904489  0.25233042  1
  Fe  Fe66  1  0.62531453  0.87451895  0.37538874  1
  Fe  Fe67  1  0.50088826  0.25028365  0.75240499  1
  Fe  Fe68  1  0.62689606  0.12655997  0.62713116  1
  Fe  Fe69  1  0.24817418  0.75224726  0.50000441  1
  Fe  Fe70  1  0.37648461  0.62175262  0.37720941  1
  Fe  Fe71  1  0.00136441  0.49648178  0.50775166  1
  Fe  Fe72  1  0.00040674  0.00153615  0.25119160  1
  Fe  Fe73  1  0.12186517  0.87450211  0.87030075  1
  Fe  Fe74  1  0.37533424  0.87699434  0.37769722  1
  Fe  Fe75  1  0.87281662  0.37353245  0.12490129  1
  Fe  Fe76  1  0.75034792  -0.00073634  0.50097967  1
  Fe  Fe77  1  0.74703474  0.49953884  0.49781983  1
  Fe  Fe78  1  0.62832241  0.62602137  0.62400497  1
  Fe  Fe79  1  0.62664198  0.37272579  0.62533665  1
  Fe  Fe80  1  0.24931353  0.50343889  -0.00210001  1
  Fe  Fe81  1  0.74990844  0.75043038  -0.00175476  1
  Fe  Fe82  1  0.87583474  0.37358855  0.37725081  1
  Fe  Fe83  1  0.87776871  0.87520480  0.87179692  1
  Fe  Fe84  1  0.50044130  0.50630314  -0.00102263  1
  Fe  Fe85  1  0.49773438  0.25008739  0.49896894  1
  Fe  Fe86  1  0.37809255  0.37887908  0.87574061  1
  Fe  Fe87  1  0.74997170  0.50077013  -0.00152444  1
  Fe  Fe88  1  0.24988259  0.25078658  -0.00406714  1
  Fe  Fe89  1  0.87400235  0.12660633  0.12398145  1
  Co  Co90  1  0.12236349  0.87421297  0.62880233  1
  Co  Co91  1  0.37336286  0.12098903  0.37724683  1
  Co  Co92  1  0.49749161  -0.00070860  0.74608856  1
  Co  Co93  1  0.86911899  0.37420681  0.62541819  1
  Co  Co94  1  0.12215359  0.62547246  0.87386881  1
  Co  Co95  1  0.74800364  0.25120042  0.75377689  1
  Co  Co96  1  0.50312609  0.50037105  0.50375418  1
  Co  Co97  1  0.38081611  0.37920965  0.37518382  1
  Co  Co98  1  0.86929488  0.12828080  0.62506626  1
  Co  Co99  1  0.12830033  0.62391819  0.62248570  1
  Co  Co100  1  0.75282147  0.50071448  0.25244717  1
  Co  Co101  1  0.75101990  0.24967902  0.25254955  1
  Co  Co102  1  0.25066823  0.25548692  0.49511673  1
  Co  Co103  1  0.62269522  0.37771707  0.87572457  1
  Co  Co104  1  0.37246511  0.62609576  0.12557902  1
  Co  Co105  1  0.37476768  0.62742617  0.87357848  1
  Co  Co106  1  0.74950845  0.75077535  0.49880932  1
  Co  Co107  1  0.87099172  0.62323511  0.62269754  1
  Co  Co108  1  0.24739176  0.74972286  -0.00147675  1
  Co  Co109  1  0.13341250  0.12797323  0.62946188  1
  Co  Co110  1  0.62415162  0.12092932  0.87205067  1
  Co  Co111  1  0.62379119  0.62479978  0.37489630  1
  Co  Co112  1  0.37712441  0.87064497  0.62386289  1
  Co  Co113  1  -0.00203166  0.25074490  0.74399305  1
  Co  Co114  1  0.62572388  0.12524954  0.12634159  1
  Co  Co115  1  0.25408528  -0.00576135  0.74896198  1
  Co  Co116  1  0.87419882  0.62572540  0.12206795  1
  Co  Co117  1  0.11862594  0.37480071  0.37381411  1
  Co  Co118  1  0.74764037  0.25077311  0.49728399  1
  Co  Co119  1  0.62758578  0.62544329  0.87226307  1
  Co  Co120  1  -0.00019939  0.50086029  0.74465201  1
  Co  Co121  1  -0.00060623  0.74787664  0.25100193  1
  Co  Co122  1  0.12256316  0.87590734  0.37680574  1
  Co  Co123  1  0.25422228  0.25308511  0.75570841  1
  Co  Co124  1  -0.00255327  0.00410188  0.74438169  1
  Co  Co125  1  0.87444971  0.87418441  0.62479450  1
  Co  Co126  1  0.50255397  0.74623974  -0.00075896  1
  Co  Co127  1  0.13079925  0.37318969  0.62971690  1
