# generated using pymatgen
data_Fe45Co19
_symmetry_space_group_name_H-M   'P 1'
_cell_length_a   11.41329654
_cell_length_b   11.41499199
_cell_length_c   11.41427975
_cell_angle_alpha   89.99609448
_cell_angle_beta   90.00276080
_cell_angle_gamma   89.99731036
_symmetry_Int_Tables_number   1
_chemical_formula_structural   Fe45Co19
_chemical_formula_sum   'Fe90 Co38'
_cell_volume   1487.08304888
_cell_formula_units_Z   2
loop_
 _symmetry_equiv_pos_site_id
 _symmetry_equiv_pos_as_xyz
  1  'x, y, z'
loop_
 _atom_site_type_symbol
 _atom_site_label
 _atom_site_symmetry_multiplicity
 _atom_site_fract_x
 _atom_site_fract_y
 _atom_site_fract_z
 _atom_site_occupancy
  Fe  Fe0  1  0.49852764  0.25154531  0.25056955  1
  Fe  Fe1  1  0.50027905  0.00020031  0.00012770  1
  Fe  Fe2  1  0.37789760  0.62523774  0.12284621  1
  Fe  Fe3  1  0.49972542  0.49761357  0.24973364  1
  Fe  Fe4  1  0.12735248  0.62563190  0.62337221  1
  Fe  Fe5  1  0.62509459  0.12439426  0.62213233  1
  Fe  Fe6  1  0.62562558  0.12523183  0.87501649  1
  Fe  Fe7  1  0.37613425  0.37253059  0.87835941  1
  Fe  Fe8  1  0.62645945  0.37336931  0.87678322  1
  Fe  Fe9  1  -0.00342269  0.49990453  0.00149193  1
  Fe  Fe10  1  0.87616104  0.37390823  0.37270314  1
  Fe  Fe11  1  0.50236240  0.00053290  0.25404823  1
  Fe  Fe12  1  -0.00037686  0.74896239  0.74859532  1
  Fe  Fe13  1  0.00211373  0.75142903  0.49985859  1
  Fe  Fe14  1  -0.00075415  0.49780331  0.50042574  1
  Fe  Fe15  1  0.62793953  0.37722000  0.62278979  1
  Fe  Fe16  1  0.50020107  0.00136477  0.74858097  1
  Fe  Fe17  1  0.12334439  0.62580517  0.12422304  1
  Fe  Fe18  1  0.50177377  0.75199621  0.50149778  1
  Fe  Fe19  1  0.24781639  0.00146999  0.74806841  1
  Fe  Fe20  1  0.12435173  0.37297777  0.37627904  1
  Fe  Fe21  1  0.62620924  0.12413994  0.12732779  1
  Fe  Fe22  1  0.37445627  0.87611852  0.37510963  1
  Fe  Fe23  1  0.75278003  0.00156451  0.00082007  1
  Fe  Fe24  1  0.87478739  0.87667488  0.37563999  1
  Fe  Fe25  1  0.37450033  0.62313673  0.62486001  1
  Fe  Fe26  1  0.75074269  0.50125599  0.25032298  1
  Fe  Fe27  1  0.75053572  0.00215924  0.75059398  1
  Fe  Fe28  1  0.37478297  0.12601601  0.62335714  1
  Fe  Fe29  1  0.12735124  0.87429078  0.37353576  1
  Fe  Fe30  1  0.87384744  0.37264320  0.87259963  1
  Fe  Fe31  1  0.12588663  0.62456666  0.87610373  1
  Fe  Fe32  1  0.37509868  0.12643282  0.87727040  1
  Fe  Fe33  1  0.74518912  0.00022226  0.49364354  1
  Fe  Fe34  1  0.37467911  0.87700033  0.12848634  1
  Fe  Fe35  1  0.49865342  0.25332117  0.49842682  1
  Fe  Fe36  1  0.12415486  0.12470161  0.12589778  1
  Fe  Fe37  1  0.37435684  0.87583493  0.62435174  1
  Fe  Fe38  1  0.74751297  0.74964789  0.50136908  1
  Fe  Fe39  1  0.25085144  0.49782030  0.50009870  1
  Fe  Fe40  1  0.62266662  0.62670584  0.12315572  1
  Fe  Fe41  1  0.75227454  0.24709986  0.00062724  1
  Fe  Fe42  1  -0.00581014  0.24835076  0.74291073  1
  Fe  Fe43  1  -0.00297319  0.24793422  0.00245904  1
  Fe  Fe44  1  0.24700533  0.00026342  0.50114840  1
  Fe  Fe45  1  0.37569415  0.12476754  0.37716865  1
  Fe  Fe46  1  0.87375133  0.87763461  0.62292116  1
  Fe  Fe47  1  0.12772725  0.37286293  0.62479594  1
  Fe  Fe48  1  0.24907926  0.75317171  0.00204900  1
  Fe  Fe49  1  0.62578674  0.37386721  0.12569839  1
  Fe  Fe50  1  0.25009632  0.74779761  0.25077899  1
  Fe  Fe51  1  0.87617712  0.62532758  0.37459109  1
  Fe  Fe52  1  0.50185959  0.25067309  0.74947846  1
  Fe  Fe53  1  0.00081229  0.00187877  0.74543403  1
  Fe  Fe54  1  0.62451739  0.62570073  0.37515362  1
  Fe  Fe55  1  0.24715571  -0.00011808  0.00105308  1
  Fe  Fe56  1  0.87380522  0.62285304  0.62332885  1
  Fe  Fe57  1  0.25091853  0.49725807  -0.00048115  1
  Fe  Fe58  1  0.62495994  0.87529677  0.87414012  1
  Fe  Fe59  1  0.12038325  0.12930458  0.38016964  1
  Fe  Fe60  1  0.12498993  0.37342315  0.12488573  1
  Fe  Fe61  1  0.74791556  0.74866039  0.74777970  1
  Fe  Fe62  1  0.37425453  0.12603863  0.12418103  1
  Fe  Fe63  1  0.12279520  0.37325766  0.87445747  1
  Fe  Fe64  1  0.75142594  0.50102464  0.00145365  1
  Fe  Fe65  1  0.75410070  0.25103416  0.50018857  1
  Fe  Fe66  1  0.25157492  0.25100850  0.75014572  1
  Fe  Fe67  1  0.12295474  0.12652569  0.87313143  1
  Fe  Fe68  1  0.87457496  0.62587666  0.87534443  1
  Fe  Fe69  1  0.50036056  0.49640146  0.49703719  1
  Fe  Fe70  1  0.87860897  0.87642615  0.12427203  1
  Fe  Fe71  1  0.12246343  0.87519518  0.87532769  1
  Fe  Fe72  1  0.74987491  0.75131052  0.24984471  1
  Fe  Fe73  1  0.87769835  0.87622625  0.87588958  1
  Fe  Fe74  1  0.74745719  0.50239194  0.75109544  1
  Fe  Fe75  1  0.37548985  0.87610733  0.87394243  1
  Fe  Fe76  1  0.75077522  0.75021851  0.00044860  1
  Fe  Fe77  1  -0.00074375  0.49966895  0.24861601  1
  Fe  Fe78  1  0.37471855  0.62451792  0.37622294  1
  Fe  Fe79  1  0.25019423  0.49996142  0.24902257  1
  Fe  Fe80  1  0.50078751  0.49968238  0.75198537  1
  Fe  Fe81  1  0.24996002  0.74893862  0.74966839  1
  Fe  Fe82  1  0.37635612  0.62509791  0.87682795  1
  Fe  Fe83  1  0.00152004  0.50070357  0.74872069  1
  Fe  Fe84  1  0.00024858  0.00141684  0.25150292  1
  Fe  Fe85  1  0.75367212  0.24649436  0.25183123  1
  Fe  Fe86  1  0.00121546  0.74874614  0.25045676  1
  Fe  Fe87  1  0.50354881  0.74902974  0.74865733  1
  Fe  Fe88  1  0.24973230  0.24910786  0.25107218  1
  Fe  Fe89  1  0.62340199  0.87512600  0.12705906  1
  Co  Co90  1  0.25060302  0.49827626  0.75179988  1
  Co  Co91  1  0.24820128  0.00426202  0.25235724  1
  Co  Co92  1  0.37205869  0.37568035  0.37200323  1
  Co  Co93  1  0.62464133  0.62052500  0.62211354  1
  Co  Co94  1  0.87218505  0.11837487  0.61982161  1
  Co  Co95  1  0.87607566  0.12597555  0.87308930  1
  Co  Co96  1  0.87545525  0.12253949  0.12838410  1
  Co  Co97  1  0.87849915  0.12334074  0.37713713  1
  Co  Co98  1  0.12627256  0.87208666  0.62696592  1
  Co  Co99  1  0.74970916  -0.00111753  0.25244386  1
  Co  Co100  1  0.75005040  0.24767698  0.74680346  1
  Co  Co101  1  0.25323862  0.25120222  0.49872779  1
  Co  Co102  1  0.62425806  0.12891837  0.37455785  1
  Co  Co103  1  0.50305386  0.24845253  0.00107925  1
  Co  Co104  1  0.62611746  0.87861498  0.62624655  1
  Co  Co105  1  0.24959801  0.75086302  0.49843644  1
  Co  Co106  1  0.12323085  0.87523052  0.12753966  1
  Co  Co107  1  0.24738065  0.24883393  -0.00005247  1
  Co  Co108  1  0.75213235  0.49995905  0.49495545  1
  Co  Co109  1  0.87554992  0.62664990  0.12666415  1
  Co  Co110  1  -0.00627594  0.25314578  0.50545853  1
  Co  Co111  1  0.49833159  0.74935253  0.25154468  1
  Co  Co112  1  0.12689325  0.12969554  0.62255934  1
  Co  Co113  1  0.49991607  0.49752195  0.00064250  1
  Co  Co114  1  0.37397048  0.37187141  0.12392771  1
  Co  Co115  1  0.00024335  0.74833012  -0.00042438  1
  Co  Co116  1  0.49906722  0.75353322  -0.00039998  1
  Co  Co117  1  0.62321072  0.87206461  0.37351377  1
  Co  Co118  1  0.00120064  0.00379844  0.00028410  1
  Co  Co119  1  0.62416162  0.62664743  0.87842786  1
  Co  Co120  1  0.37524108  0.37555496  0.62619796  1
  Co  Co121  1  0.12465751  0.62295433  0.37579954  1
  Co  Co122  1  0.00504542  -0.00252536  0.50186638  1
  Co  Co123  1  0.87027406  0.38087552  0.62779625  1
  Co  Co124  1  0.00007538  0.24996494  0.24861334  1
  Co  Co125  1  0.50170802  -0.00115260  0.49845359  1
  Co  Co126  1  0.87329362  0.37370115  0.12618125  1
  Co  Co127  1  0.62787758  0.37339547  0.37351602  1
