# generated using pymatgen
data_Fe45Co19
_symmetry_space_group_name_H-M   'P 1'
_cell_length_a   11.41397624
_cell_length_b   11.41532332
_cell_length_c   11.41440819
_cell_angle_alpha   89.99822586
_cell_angle_beta   89.99660122
_cell_angle_gamma   90.00576612
_symmetry_Int_Tables_number   1
_chemical_formula_structural   Fe45Co19
_chemical_formula_sum   'Fe90 Co38'
_cell_volume   1487.23150502
_cell_formula_units_Z   2
loop_
 _symmetry_equiv_pos_site_id
 _symmetry_equiv_pos_as_xyz
  1  'x, y, z'
loop_
 _atom_site_type_symbol
 _atom_site_label
 _atom_site_symmetry_multiplicity
 _atom_site_fract_x
 _atom_site_fract_y
 _atom_site_fract_z
 _atom_site_occupancy
  Fe  Fe0  1  0.62950370  0.37118829  0.37679082  1
  Fe  Fe1  1  0.12511297  0.87625087  0.37678139  1
  Fe  Fe2  1  0.74824103  0.75003322  0.74963850  1
  Fe  Fe3  1  0.62519471  0.62364675  0.62364766  1
  Fe  Fe4  1  0.49714444  0.25037421  -0.00169696  1
  Fe  Fe5  1  0.50022965  0.00189555  0.75238649  1
  Fe  Fe6  1  0.75558807  0.49859961  0.49642510  1
  Fe  Fe7  1  0.62497728  0.62727889  0.37679600  1
  Fe  Fe8  1  0.62797064  0.37579910  0.12268409  1
  Fe  Fe9  1  0.24814621  0.74820610  0.24783890  1
  Fe  Fe10  1  0.62623663  0.12738739  0.37888980  1
  Fe  Fe11  1  0.00065850  0.74797717  0.00205018  1
  Fe  Fe12  1  0.37368290  0.62218314  0.12564315  1
  Fe  Fe13  1  0.24931482  0.00331305  0.24877233  1
  Fe  Fe14  1  0.49789157  -0.00059216  0.50131090  1
  Fe  Fe15  1  0.00438402  0.74900144  0.75149662  1
  Fe  Fe16  1  0.50312068  0.25071617  0.24961222  1
  Fe  Fe17  1  0.24753013  0.49947499  0.75096874  1
  Fe  Fe18  1  -0.00145677  -0.00053647  -0.00015132  1
  Fe  Fe19  1  0.37612804  0.12752044  0.37484319  1
  Fe  Fe20  1  0.24718642  0.24819700  0.24840225  1
  Fe  Fe21  1  0.75112484  -0.00252945  0.50152162  1
  Fe  Fe22  1  -0.00125750  0.75045323  0.50021607  1
  Fe  Fe23  1  0.37293655  0.12506825  0.62679134  1
  Fe  Fe24  1  0.49608927  0.00308808  -0.00232199  1
  Fe  Fe25  1  0.87567400  0.12401305  0.87591726  1
  Fe  Fe26  1  0.62722756  0.12673906  0.11938911  1
  Fe  Fe27  1  0.74782577  0.50154582  0.75306539  1
  Fe  Fe28  1  0.12063057  0.37492995  0.62693178  1
  Fe  Fe29  1  0.87772952  0.87332693  0.87428097  1
  Fe  Fe30  1  0.24411128  -0.00193159  0.75109832  1
  Fe  Fe31  1  0.37282934  0.87607625  0.12274993  1
  Fe  Fe32  1  0.87489346  0.87167313  0.37280403  1
  Fe  Fe33  1  0.49786429  0.49666895  0.49902523  1
  Fe  Fe34  1  0.37383131  0.87507951  0.62875150  1
  Fe  Fe35  1  0.00039449  0.00016025  0.25014238  1
  Fe  Fe36  1  0.25040576  0.25092157  0.50113888  1
  Fe  Fe37  1  0.24845119  0.25117302  0.00173316  1
  Fe  Fe38  1  0.74848995  0.74784517  0.24951949  1
  Fe  Fe39  1  0.74870888  0.00189371  0.24783957  1
  Fe  Fe40  1  0.62736784  0.37504579  0.62418015  1
  Fe  Fe41  1  0.12374324  0.12576593  0.87744013  1
  Fe  Fe42  1  0.24613456  0.75171546  0.75426638  1
  Fe  Fe43  1  0.62656903  0.12528024  0.62334425  1
  Fe  Fe44  1  0.75220596  0.49989041  -0.00387141  1
  Fe  Fe45  1  -0.00326335  0.49841018  0.49939194  1
  Fe  Fe46  1  -0.00117847  0.50086855  0.25086072  1
  Fe  Fe47  1  0.87493547  0.87449301  0.12629715  1
  Fe  Fe48  1  0.62528043  0.87306275  0.37577826  1
  Fe  Fe49  1  0.12817432  0.87783993  0.12097681  1
  Fe  Fe50  1  0.37548124  0.37596017  0.62612910  1
  Fe  Fe51  1  0.75061830  0.74974134  -0.00146574  1
  Fe  Fe52  1  0.49800406  0.49947281  -0.00506477  1
  Fe  Fe53  1  0.87357817  0.12554881  0.12273697  1
  Fe  Fe54  1  0.87771613  0.12264727  0.62726797  1
  Fe  Fe55  1  0.37497867  0.87442274  0.37214647  1
  Fe  Fe56  1  0.88066001  0.37816959  0.86943018  1
  Fe  Fe57  1  0.75195523  0.25073009  0.75067303  1
  Fe  Fe58  1  0.49563925  0.74794960  -0.00205331  1
  Fe  Fe59  1  0.37279111  0.37545141  0.12875818  1
  Fe  Fe60  1  0.87344494  0.12705470  0.37502881  1
  Fe  Fe61  1  0.37415589  0.37419167  0.87135795  1
  Fe  Fe62  1  0.50219635  0.25072500  0.74861436  1
  Fe  Fe63  1  0.50017060  0.74821058  0.75080394  1
  Fe  Fe64  1  0.87238090  0.37517940  0.12987154  1
  Fe  Fe65  1  0.87422975  0.62452668  0.12700603  1
  Fe  Fe66  1  0.62481400  0.62351088  0.12300341  1
  Fe  Fe67  1  0.25061828  0.49835425  0.49798674  1
  Fe  Fe68  1  0.62763939  0.12778169  0.87756001  1
  Fe  Fe69  1  0.00093564  0.25501057  0.00105590  1
  Fe  Fe70  1  0.50142926  0.49901596  0.25218797  1
  Fe  Fe71  1  0.50161976  0.00084693  0.24852901  1
  Fe  Fe72  1  0.12417669  0.61994927  0.88027495  1
  Fe  Fe73  1  0.12650671  0.62566004  0.62233277  1
  Fe  Fe74  1  0.37627042  0.62586569  0.37428288  1
  Fe  Fe75  1  0.49962065  0.75153025  0.50239555  1
  Fe  Fe76  1  0.37439674  0.62367183  0.62740517  1
  Fe  Fe77  1  0.24429408  0.25041626  0.74894358  1
  Fe  Fe78  1  0.12432336  0.12327116  0.37975731  1
  Fe  Fe79  1  0.62355739  0.87436646  0.12285996  1
  Fe  Fe80  1  0.74964250  -0.00148835  0.75227318  1
  Fe  Fe81  1  0.87470401  0.62450628  0.62593954  1
  Fe  Fe82  1  0.00151354  0.24847284  0.24799539  1
  Fe  Fe83  1  0.25149359  0.75182835  0.49985298  1
  Fe  Fe84  1  0.62333468  0.87418266  0.87573616  1
  Fe  Fe85  1  0.87776058  0.87526149  0.62726540  1
  Fe  Fe86  1  0.12426961  0.37489207  0.37340476  1
  Fe  Fe87  1  0.12337265  0.62536561  0.37538137  1
  Fe  Fe88  1  0.12691067  0.61966255  0.12288474  1
  Fe  Fe89  1  -0.00392854  0.25199080  0.50282804  1
  Co  Co90  1  0.74870458  0.50262285  0.25276168  1
  Co  Co91  1  -0.00345311  -0.00117879  0.49895020  1
  Co  Co92  1  0.87699055  0.62869804  0.37316603  1
  Co  Co93  1  0.25059651  0.50197299  0.25414135  1
  Co  Co94  1  0.12477008  0.87609797  0.88252344  1
  Co  Co95  1  0.00455048  -0.00101702  0.75168417  1
  Co  Co96  1  0.25362188  0.00612242  -0.00125986  1
  Co  Co97  1  0.00457483  0.75054048  0.24647631  1
  Co  Co98  1  0.12718597  0.37883936  0.12739380  1
  Co  Co99  1  0.49824543  0.25103392  0.50241493  1
  Co  Co100  1  0.12246324  0.12334493  0.12226100  1
  Co  Co101  1  0.87675494  0.37841364  0.63155081  1
  Co  Co102  1  0.75094480  0.75110781  0.50200088  1
  Co  Co103  1  0.37378086  0.37172950  0.37251150  1
  Co  Co104  1  0.62455979  0.37330183  0.87571658  1
  Co  Co105  1  0.62342765  0.87636500  0.62610259  1
  Co  Co106  1  0.75500511  0.25506076  -0.00266061  1
  Co  Co107  1  0.37376968  0.87569003  0.87538347  1
  Co  Co108  1  0.37638961  0.12700435  0.12748713  1
  Co  Co109  1  0.37381898  0.62291877  0.87128988  1
  Co  Co110  1  0.12388206  0.12302295  0.62100635  1
  Co  Co111  1  0.25126963  0.74603503  -0.00136991  1
  Co  Co112  1  0.49970060  0.74937785  0.24762618  1
  Co  Co113  1  0.00408271  0.50623903  0.74840560  1
  Co  Co114  1  0.25290499  0.49566773  -0.00236405  1
  Co  Co115  1  0.00113014  0.24615755  0.74966677  1
  Co  Co116  1  0.25395162  -0.00093881  0.50099301  1
  Co  Co117  1  0.74732954  0.24624219  0.24716874  1
  Co  Co118  1  0.87635810  0.62619471  0.87435610  1
  Co  Co119  1  0.12365906  0.87543359  0.62094196  1
  Co  Co120  1  0.75570187  0.25131479  0.50464251  1
  Co  Co121  1  -0.00379442  0.49731592  0.00305729  1
  Co  Co122  1  0.50189850  0.49888090  0.75086586  1
  Co  Co123  1  0.87423919  0.37142638  0.36998333  1
  Co  Co124  1  0.12178278  0.37691511  0.87391189  1
  Co  Co125  1  0.75067423  -0.00313100  -0.00092026  1
  Co  Co126  1  0.62457004  0.62664059  0.87576817  1
  Co  Co127  1  0.37196595  0.12814738  0.87059924  1
