# generated using pymatgen
data_Fe45Co19
_symmetry_space_group_name_H-M   'P 1'
_cell_length_a   11.41548568
_cell_length_b   11.41481459
_cell_length_c   11.41474324
_cell_angle_alpha   90.00622468
_cell_angle_beta   89.99565059
_cell_angle_gamma   89.99296350
_symmetry_Int_Tables_number   1
_chemical_formula_structural   Fe45Co19
_chemical_formula_sum   'Fe90 Co38'
_cell_volume   1487.40554148
_cell_formula_units_Z   2
loop_
 _symmetry_equiv_pos_site_id
 _symmetry_equiv_pos_as_xyz
  1  'x, y, z'
loop_
 _atom_site_type_symbol
 _atom_site_label
 _atom_site_symmetry_multiplicity
 _atom_site_fract_x
 _atom_site_fract_y
 _atom_site_fract_z
 _atom_site_occupancy
  Fe  Fe0  1  0.12282474  0.37675777  0.62330684  1
  Fe  Fe1  1  0.12797359  0.37700903  0.37535953  1
  Fe  Fe2  1  0.62307410  0.87650861  0.87305819  1
  Fe  Fe3  1  0.24957794  0.24774047  0.00113833  1
  Fe  Fe4  1  0.24799827  0.50027576  0.74711116  1
  Fe  Fe5  1  0.00003526  0.75040713  0.25105645  1
  Fe  Fe6  1  0.25208518  0.00036328  0.50419545  1
  Fe  Fe7  1  0.37339580  0.62382293  0.37371386  1
  Fe  Fe8  1  0.49828071  0.50153048  0.49851737  1
  Fe  Fe9  1  0.12499649  0.87507203  0.62599036  1
  Fe  Fe10  1  0.87677198  0.12552093  0.62490958  1
  Fe  Fe11  1  0.74879247  0.49986427  0.24823546  1
  Fe  Fe12  1  0.24787644  0.74907261  0.50049590  1
  Fe  Fe13  1  0.50188258  0.00445536  0.25129203  1
  Fe  Fe14  1  0.74914838  0.25322683  0.50335672  1
  Fe  Fe15  1  0.00047963  0.49558510  0.00154321  1
  Fe  Fe16  1  0.37318592  0.62805545  0.62729371  1
  Fe  Fe17  1  0.62897507  0.87410391  0.37401977  1
  Fe  Fe18  1  0.74895888  0.00306525  0.24819192  1
  Fe  Fe19  1  0.87415135  0.12597345  0.87251936  1
  Fe  Fe20  1  0.74984139  0.75152983  0.00041309  1
  Fe  Fe21  1  0.87572423  0.87448135  0.12651078  1
  Fe  Fe22  1  0.37352379  0.37593843  0.87403214  1
  Fe  Fe23  1  0.37742889  0.37435327  0.62606462  1
  Fe  Fe24  1  0.00038323  0.50192856  0.49924430  1
  Fe  Fe25  1  0.24939655  0.49838660  0.00377142  1
  Fe  Fe26  1  0.50176094  0.74886211  0.49713716  1
  Fe  Fe27  1  0.62262231  0.36951269  0.12778270  1
  Fe  Fe28  1  0.24857470  0.00209837  0.00499241  1
  Fe  Fe29  1  0.62010297  0.87322741  0.62899135  1
  Fe  Fe30  1  0.62361930  0.37649932  0.37381208  1
  Fe  Fe31  1  0.37607543  0.87715630  0.12555984  1
  Fe  Fe32  1  0.87726856  0.87259334  0.62621164  1
  Fe  Fe33  1  0.49807599  0.74870878  -0.00549424  1
  Fe  Fe34  1  0.24967623  0.24852144  0.74732005  1
  Fe  Fe35  1  -0.00124994  -0.00229779  0.49994961  1
  Fe  Fe36  1  0.50208881  0.74787525  0.25187196  1
  Fe  Fe37  1  0.87342800  0.12525136  0.37584373  1
  Fe  Fe38  1  0.25015347  0.49983325  0.24605291  1
  Fe  Fe39  1  0.12610198  0.87667706  0.37449539  1
  Fe  Fe40  1  0.74853786  0.49773592  0.50456945  1
  Fe  Fe41  1  0.87291948  0.62235197  0.87464787  1
  Fe  Fe42  1  0.24961597  0.25014513  0.50243212  1
  Fe  Fe43  1  0.12668034  0.37474574  0.87518045  1
  Fe  Fe44  1  0.62388444  0.87475150  0.12496536  1
  Fe  Fe45  1  0.37616441  0.62513470  0.12381647  1
  Fe  Fe46  1  0.62344002  0.12529678  0.62505677  1
  Fe  Fe47  1  0.37853399  0.37067018  0.12623820  1
  Fe  Fe48  1  0.25510126  -0.00041572  0.74570514  1
  Fe  Fe49  1  0.87484388  0.87465841  0.87412805  1
  Fe  Fe50  1  0.12596496  0.87832434  0.87484989  1
  Fe  Fe51  1  0.75030081  0.00146470  0.00112578  1
  Fe  Fe52  1  0.87583351  0.62441047  0.12386688  1
  Fe  Fe53  1  0.87738449  0.62496288  0.62542295  1
  Fe  Fe54  1  0.37393571  0.87599774  0.37461520  1
  Fe  Fe55  1  0.00068903  0.00004623  0.25016768  1
  Fe  Fe56  1  0.87351678  0.37456702  0.37521598  1
  Fe  Fe57  1  0.37306933  0.12320988  0.37636374  1
  Fe  Fe58  1  0.50033813  0.49833675  -0.00156250  1
  Fe  Fe59  1  0.25069205  0.75147267  -0.00061851  1
  Fe  Fe60  1  0.00141569  0.24962581  0.49898337  1
  Fe  Fe61  1  0.00347140  0.74884257  0.75107683  1
  Fe  Fe62  1  0.74878783  0.74865494  0.75072415  1
  Fe  Fe63  1  0.24902494  0.75150790  0.24770502  1
  Fe  Fe64  1  0.62383239  0.62532133  0.12343573  1
  Fe  Fe65  1  0.12387964  0.12335421  0.87286141  1
  Fe  Fe66  1  0.87770060  0.13115021  0.12626572  1
  Fe  Fe67  1  0.49894004  -0.00082731  0.50088275  1
  Fe  Fe68  1  0.75111085  -0.00378632  0.50210401  1
  Fe  Fe69  1  -0.00107691  0.00108504  -0.00009591  1
  Fe  Fe70  1  0.37548793  0.12366273  0.87575820  1
  Fe  Fe71  1  0.00077056  0.75075884  -0.00030401  1
  Fe  Fe72  1  0.12606052  0.12351663  0.37516487  1
  Fe  Fe73  1  0.12618695  0.62338322  0.37471642  1
  Fe  Fe74  1  0.50069425  0.24747234  0.75315332  1
  Fe  Fe75  1  0.74910358  0.49747640  0.00166243  1
  Fe  Fe76  1  0.87263334  0.37658086  0.87062992  1
  Fe  Fe77  1  0.62405450  0.62592710  0.62548464  1
  Fe  Fe78  1  -0.00027129  0.49751659  0.24811437  1
  Fe  Fe79  1  0.00027620  0.25053131  0.74988561  1
  Fe  Fe80  1  0.37475379  0.37597798  0.37305318  1
  Fe  Fe81  1  0.75025223  0.00074777  0.74922002  1
  Fe  Fe82  1  0.24980649  0.24646640  0.24823134  1
  Fe  Fe83  1  0.75005087  0.25006955  -0.00165756  1
  Fe  Fe84  1  0.50267214  0.00392259  -0.00055292  1
  Fe  Fe85  1  0.62754133  0.37459794  0.87097945  1
  Fe  Fe86  1  0.50101290  0.50334914  0.75259085  1
  Fe  Fe87  1  0.87055172  0.62856979  0.37665829  1
  Fe  Fe88  1  0.12679172  0.62355905  0.87649313  1
  Fe  Fe89  1  0.50040444  0.25022585  0.49720401  1
  Co  Co90  1  0.61889030  0.37434202  0.62655326  1
  Co  Co91  1  0.74927330  0.75292880  0.50354230  1
  Co  Co92  1  0.24989927  0.75203070  0.75318543  1
  Co  Co93  1  0.37526428  0.88003497  0.87697103  1
  Co  Co94  1  0.37741419  0.86924943  0.62408507  1
  Co  Co95  1  0.11946916  0.12825733  0.12484417  1
  Co  Co96  1  -0.00081212  0.25253222  -0.00479410  1
  Co  Co97  1  0.37815118  0.12909193  0.62305350  1
  Co  Co98  1  0.24965483  0.00186783  0.24632334  1
  Co  Co99  1  0.37899637  0.12587873  0.12398152  1
  Co  Co100  1  0.74874514  0.74900535  0.24664752  1
  Co  Co101  1  0.50028416  0.25073027  -0.00561732  1
  Co  Co102  1  0.62762818  0.12405287  0.87270522  1
  Co  Co103  1  0.75068196  0.25061922  0.74500688  1
  Co  Co104  1  0.25270148  0.50005992  0.50238851  1
  Co  Co105  1  0.12370019  0.87511502  0.12445027  1
  Co  Co106  1  0.37033895  0.62076279  0.87574181  1
  Co  Co107  1  0.74855509  0.24900672  0.25363649  1
  Co  Co108  1  0.49758830  0.74730699  0.75625069  1
  Co  Co109  1  0.00070156  0.75124053  0.49890706  1
  Co  Co110  1  0.62958694  0.62411675  0.37638079  1
  Co  Co111  1  0.88036498  0.37618064  0.62548820  1
  Co  Co112  1  0.12272112  0.12349822  0.62580533  1
  Co  Co113  1  0.87403193  0.37145968  0.12663737  1
  Co  Co114  1  0.74913229  0.49983347  0.74531205  1
  Co  Co115  1  0.12473820  0.37082652  0.12488112  1
  Co  Co116  1  0.49634605  0.00215018  0.74850791  1
  Co  Co117  1  0.87188964  0.87376102  0.37271182  1
  Co  Co118  1  -0.00221156  -0.00075874  0.75000289  1
  Co  Co119  1  0.62853953  0.12352687  0.38027903  1
  Co  Co120  1  0.12468488  0.62475237  0.62437154  1
  Co  Co121  1  0.62889391  0.62435480  0.87659662  1
  Co  Co122  1  0.00100816  0.25296875  0.25476010  1
  Co  Co123  1  0.00212147  0.50008198  0.75198710  1
  Co  Co124  1  0.12346976  0.62560352  0.12404313  1
  Co  Co125  1  0.50016162  0.24469586  0.25496666  1
  Co  Co126  1  0.62452330  0.13031492  0.12289592  1
  Co  Co127  1  0.50044333  0.50186424  0.25002599  1
