# generated using pymatgen
data_Fe45Co19
_symmetry_space_group_name_H-M   'P 1'
_cell_length_a   11.41644612
_cell_length_b   11.41612857
_cell_length_c   11.41648219
_cell_angle_alpha   90.00122578
_cell_angle_beta   89.99457377
_cell_angle_gamma   90.00020352
_symmetry_Int_Tables_number   1
_chemical_formula_structural   Fe45Co19
_chemical_formula_sum   'Fe90 Co38'
_cell_volume   1487.92857446
_cell_formula_units_Z   2
loop_
 _symmetry_equiv_pos_site_id
 _symmetry_equiv_pos_as_xyz
  1  'x, y, z'
loop_
 _atom_site_type_symbol
 _atom_site_label
 _atom_site_symmetry_multiplicity
 _atom_site_fract_x
 _atom_site_fract_y
 _atom_site_fract_z
 _atom_site_occupancy
  Fe  Fe0  1  0.24878778  -0.00340585  0.75397808  1
  Fe  Fe1  1  0.62156811  0.62632653  0.37459842  1
  Fe  Fe2  1  0.37493689  0.37733342  0.37689465  1
  Fe  Fe3  1  0.00209575  0.75011988  0.49748097  1
  Fe  Fe4  1  0.87345204  0.37674650  0.11967657  1
  Fe  Fe5  1  0.74886039  0.49888793  0.75160467  1
  Fe  Fe6  1  0.00028939  -0.00145224  0.24959664  1
  Fe  Fe7  1  0.12561983  0.62641355  0.87259584  1
  Fe  Fe8  1  0.62507951  0.87211735  0.37717248  1
  Fe  Fe9  1  0.00087050  -0.00143948  0.49893585  1
  Fe  Fe10  1  0.24629002  0.50395253  0.50131014  1
  Fe  Fe11  1  -0.00014243  0.75287887  0.25127241  1
  Fe  Fe12  1  0.12378819  0.12614723  0.87721037  1
  Fe  Fe13  1  0.12440184  0.12563991  0.62725435  1
  Fe  Fe14  1  0.24495513  0.49659919  -0.00203512  1
  Fe  Fe15  1  0.62825028  0.12824229  0.62605714  1
  Fe  Fe16  1  0.37384626  0.37571274  0.12389991  1
  Fe  Fe17  1  0.12666432  0.12824999  0.12126757  1
  Fe  Fe18  1  0.37360082  0.87505721  0.37734311  1
  Fe  Fe19  1  0.62278498  0.87154218  0.12164550  1
  Fe  Fe20  1  0.25010540  0.25125943  0.25191688  1
  Fe  Fe21  1  0.49934141  0.25030820  0.75000352  1
  Fe  Fe22  1  0.24910565  0.00184688  0.49988184  1
  Fe  Fe23  1  0.24684176  0.49814810  0.25073646  1
  Fe  Fe24  1  0.00092204  -0.00260356  0.75048830  1
  Fe  Fe25  1  0.00307086  0.50183789  0.49982537  1
  Fe  Fe26  1  0.25239900  0.75294077  -0.00449984  1
  Fe  Fe27  1  0.87492721  0.12207963  0.87498525  1
  Fe  Fe28  1  0.25036530  0.24875495  0.50047466  1
  Fe  Fe29  1  -0.00230359  0.74882542  -0.00273755  1
  Fe  Fe30  1  0.62538667  0.12542251  0.87183595  1
  Fe  Fe31  1  0.87574175  0.62557565  0.37399324  1
  Fe  Fe32  1  0.87458824  0.87443606  0.62328771  1
  Fe  Fe33  1  0.12426731  0.87472904  0.12181519  1
  Fe  Fe34  1  0.62564827  0.62451561  0.87381119  1
  Fe  Fe35  1  0.00290998  0.49720986  0.24841843  1
  Fe  Fe36  1  0.37690312  0.12008381  0.87535768  1
  Fe  Fe37  1  0.25076865  0.25078882  0.75242237  1
  Fe  Fe38  1  0.75087669  0.00033235  0.49976735  1
  Fe  Fe39  1  0.12476900  0.37445562  0.62613236  1
  Fe  Fe40  1  0.49987730  0.24888488  -0.00131393  1
  Fe  Fe41  1  0.74992004  -0.00182986  0.25006413  1
  Fe  Fe42  1  0.12548069  0.62597708  0.12509141  1
  Fe  Fe43  1  0.00177083  0.49916646  0.75204590  1
  Fe  Fe44  1  0.12805108  0.87102385  0.62475387  1
  Fe  Fe45  1  0.87610794  0.62398408  0.62617782  1
  Fe  Fe46  1  0.49778070  0.75104530  0.75254490  1
  Fe  Fe47  1  0.87615890  0.62272204  0.12304027  1
  Fe  Fe48  1  0.62265625  0.62712125  0.12665868  1
  Fe  Fe49  1  0.37422774  0.62463143  0.62745954  1
  Fe  Fe50  1  0.62653812  0.37374235  0.12253912  1
  Fe  Fe51  1  0.74836311  0.50195686  0.50003209  1
  Fe  Fe52  1  0.37829278  0.62376016  0.37415090  1
  Fe  Fe53  1  0.37417267  0.12537656  0.12381082  1
  Fe  Fe54  1  -0.00188201  0.75148266  0.75245255  1
  Fe  Fe55  1  0.75199304  0.75113960  0.75189328  1
  Fe  Fe56  1  0.50228187  0.50102383  0.00015681  1
  Fe  Fe57  1  0.37302965  0.87368003  0.62550176  1
  Fe  Fe58  1  0.37507380  0.62391479  0.12513583  1
  Fe  Fe59  1  0.87368442  0.12595688  0.12396169  1
  Fe  Fe60  1  0.62374534  0.62615711  0.62552072  1
  Fe  Fe61  1  0.62585942  0.12792069  0.37475273  1
  Fe  Fe62  1  -0.00075737  0.25189447  0.24857497  1
  Fe  Fe63  1  0.87372141  0.12543309  0.37504907  1
  Fe  Fe64  1  0.25108818  0.75092916  0.25056146  1
  Fe  Fe65  1  0.37661586  0.37797078  0.87341449  1
  Fe  Fe66  1  0.49833074  0.25181984  0.25072998  1
  Fe  Fe67  1  0.49847755  0.24984890  0.50096081  1
  Fe  Fe68  1  0.12491253  0.12622671  0.37510869  1
  Fe  Fe69  1  0.37898811  0.87502341  0.11971637  1
  Fe  Fe70  1  0.62640826  0.37334201  0.62676104  1
  Fe  Fe71  1  -0.00526434  0.25085299  0.74906933  1
  Fe  Fe72  1  0.75115565  0.74868510  -0.00301995  1
  Fe  Fe73  1  0.87430907  0.37525970  0.37654092  1
  Fe  Fe74  1  0.37444672  0.37761821  0.62645519  1
  Fe  Fe75  1  0.74814344  -0.00001608  -0.00010888  1
  Fe  Fe76  1  0.25011594  -0.00019230  0.24835087  1
  Fe  Fe77  1  0.50026943  -0.00126636  0.24999331  1
  Fe  Fe78  1  0.37394473  0.62098827  0.87324268  1
  Fe  Fe79  1  0.62571656  0.37392401  0.37565133  1
  Fe  Fe80  1  0.87320636  0.37849090  0.87998266  1
  Fe  Fe81  1  0.87470100  0.87498683  0.12283577  1
  Fe  Fe82  1  0.37418058  0.12394183  0.62701139  1
  Fe  Fe83  1  -0.00346591  0.24966094  0.50362776  1
  Fe  Fe84  1  0.74931632  -0.00239020  0.74991826  1
  Fe  Fe85  1  0.74893973  0.50005334  0.24880564  1
  Fe  Fe86  1  0.62592391  0.12769789  0.12790610  1
  Fe  Fe87  1  0.75066103  0.75003769  0.25080731  1
  Fe  Fe88  1  0.62521303  0.87253967  0.62434649  1
  Fe  Fe89  1  0.49971160  0.00128236  0.50187425  1
  Co  Co90  1  0.24915784  0.74489254  0.49857871  1
  Co  Co91  1  0.12351814  0.62823230  0.62993918  1
  Co  Co92  1  0.25276416  0.25120572  -0.00420325  1
  Co  Co93  1  0.75366640  0.25040740  0.50269241  1
  Co  Co94  1  0.12621134  0.37156323  0.12372738  1
  Co  Co95  1  0.12827409  0.87561126  0.37441215  1
  Co  Co96  1  0.50129016  0.49809421  0.24816744  1
  Co  Co97  1  0.24872529  -0.00106572  -0.00107536  1
  Co  Co98  1  0.75518102  0.25203671  0.75072126  1
  Co  Co99  1  0.49832092  0.74960684  0.50155139  1
  Co  Co100  1  0.74592042  0.50361740  0.00073149  1
  Co  Co101  1  0.25302170  0.75289888  0.75481066  1
  Co  Co102  1  0.50241191  0.50025743  0.74964915  1
  Co  Co103  1  0.37568510  0.12430941  0.37414696  1
  Co  Co104  1  0.87351888  0.87448860  0.37565221  1
  Co  Co105  1  0.87438961  0.38080969  0.62470389  1
  Co  Co106  1  0.49808320  0.75192812  0.25066614  1
  Co  Co107  1  0.50195742  -0.00031470  0.74511777  1
  Co  Co108  1  -0.00193810  0.25021282  -0.00005764  1
  Co  Co109  1  0.75245900  0.25252064  0.24897343  1
  Co  Co110  1  0.62472185  0.37419594  0.87514109  1
  Co  Co111  1  0.87465975  0.62151811  0.87484403  1
  Co  Co112  1  0.24655262  0.49903010  0.74923555  1
  Co  Co113  1  0.62221397  0.87533039  0.87628946  1
  Co  Co114  1  -0.00015201  0.00117434  0.00165907  1
  Co  Co115  1  0.12363555  0.62599769  0.37053378  1
  Co  Co116  1  0.87397307  0.87725018  0.87624821  1
  Co  Co117  1  0.74990075  0.24740224  -0.00204738  1
  Co  Co118  1  0.87405877  0.12026849  0.62635689  1
  Co  Co119  1  0.49858973  0.74489441  -0.00399272  1
  Co  Co120  1  0.50131267  0.49994141  0.50205889  1
  Co  Co121  1  0.38194828  0.88088616  0.87732120  1
  Co  Co122  1  0.12329219  0.37117833  0.87304447  1
  Co  Co123  1  0.12474237  0.37321874  0.37783982  1
  Co  Co124  1  0.75096980  0.74680772  0.50052157  1
  Co  Co125  1  0.50441993  0.00415588  0.00284264  1
  Co  Co126  1  0.12213506  0.87450608  0.87746720  1
  Co  Co127  1  0.00557899  0.50083305  -0.00054326  1
