# generated using pymatgen
data_Fe45Co19
_symmetry_space_group_name_H-M   'P 1'
_cell_length_a   11.41391783
_cell_length_b   11.41632568
_cell_length_c   11.41433325
_cell_angle_alpha   90.00185099
_cell_angle_beta   89.99768198
_cell_angle_gamma   89.99201480
_symmetry_Int_Tables_number   1
_chemical_formula_structural   Fe45Co19
_chemical_formula_sum   'Fe90 Co38'
_cell_volume   1487.34471491
_cell_formula_units_Z   2
loop_
 _symmetry_equiv_pos_site_id
 _symmetry_equiv_pos_as_xyz
  1  'x, y, z'
loop_
 _atom_site_type_symbol
 _atom_site_label
 _atom_site_symmetry_multiplicity
 _atom_site_fract_x
 _atom_site_fract_y
 _atom_site_fract_z
 _atom_site_occupancy
  Fe  Fe0  1  0.25057447  -0.00371191  0.49853585  1
  Fe  Fe1  1  0.25176712  -0.00199475  0.74746269  1
  Fe  Fe2  1  0.62446944  0.62715652  0.62529014  1
  Fe  Fe3  1  0.87048783  0.12831790  0.63099687  1
  Fe  Fe4  1  0.25138462  0.75098151  0.50323993  1
  Fe  Fe5  1  0.37601579  0.12245849  0.62007287  1
  Fe  Fe6  1  0.37446594  0.12433471  0.87545831  1
  Fe  Fe7  1  0.37347873  0.87771734  0.12447318  1
  Fe  Fe8  1  0.00177403  0.00348488  -0.00116896  1
  Fe  Fe9  1  0.12771551  0.37305500  0.62610609  1
  Fe  Fe10  1  0.00114265  0.49825742  0.74824892  1
  Fe  Fe11  1  0.00143719  0.75129065  0.74907589  1
  Fe  Fe12  1  0.87909856  0.87882772  0.12737205  1
  Fe  Fe13  1  0.12588283  0.62626749  0.87439242  1
  Fe  Fe14  1  0.00252265  0.74988709  0.00368896  1
  Fe  Fe15  1  0.49852782  0.24949410  0.74822477  1
  Fe  Fe16  1  0.62505568  0.62507815  0.37412838  1
  Fe  Fe17  1  0.75045689  0.49648936  0.25040656  1
  Fe  Fe18  1  0.49792647  0.74922311  0.00061892  1
  Fe  Fe19  1  0.75010667  0.00054693  0.25140511  1
  Fe  Fe20  1  0.25241558  0.25327353  0.49902111  1
  Fe  Fe21  1  0.74724639  0.24935535  0.50078938  1
  Fe  Fe22  1  0.87652285  0.37280651  0.87210329  1
  Fe  Fe23  1  0.37235716  0.12436931  0.12679631  1
  Fe  Fe24  1  0.87497888  0.37342256  0.12430539  1
  Fe  Fe25  1  0.75050784  0.49838347  0.74930425  1
  Fe  Fe26  1  0.50047286  0.49811366  0.24734043  1
  Fe  Fe27  1  0.50107036  0.00137181  0.00121390  1
  Fe  Fe28  1  0.12746052  0.87632310  0.87412222  1
  Fe  Fe29  1  0.62557426  0.87534200  0.87639799  1
  Fe  Fe30  1  0.49827691  0.74988307  0.25105949  1
  Fe  Fe31  1  0.74976609  0.24860836  -0.00193796  1
  Fe  Fe32  1  0.49977338  -0.00049960  0.74959985  1
  Fe  Fe33  1  0.49626885  0.75055326  0.74885706  1
  Fe  Fe34  1  0.12750609  0.12603456  0.87083672  1
  Fe  Fe35  1  0.00062930  0.00254771  0.74804098  1
  Fe  Fe36  1  0.00027291  0.24728085  -0.00302660  1
  Fe  Fe37  1  0.62540161  0.62555590  0.87537031  1
  Fe  Fe38  1  0.24843765  -0.00077666  0.25256942  1
  Fe  Fe39  1  0.87773643  0.87395519  0.62201963  1
  Fe  Fe40  1  0.49886353  0.24974507  0.00140484  1
  Fe  Fe41  1  0.62377916  0.87442228  0.12641160  1
  Fe  Fe42  1  0.24720857  0.49594214  0.25439771  1
  Fe  Fe43  1  0.24653501  0.75164270  0.24768982  1
  Fe  Fe44  1  0.62640815  0.12747664  0.12878279  1
  Fe  Fe45  1  0.49774329  0.00102315  0.25463123  1
  Fe  Fe46  1  0.74749250  0.00189613  0.50128301  1
  Fe  Fe47  1  0.87450776  0.87775929  0.87598575  1
  Fe  Fe48  1  0.87792961  0.37572882  0.37791905  1
  Fe  Fe49  1  0.00002778  0.24813682  0.50431918  1
  Fe  Fe50  1  0.62008890  0.87478862  0.62118369  1
  Fe  Fe51  1  0.12844304  0.62639166  0.62748070  1
  Fe  Fe52  1  0.62593529  0.62509158  0.12504767  1
  Fe  Fe53  1  0.62312475  0.37209876  0.37412744  1
  Fe  Fe54  1  0.37421033  0.62439441  0.37575917  1
  Fe  Fe55  1  0.62402385  0.87483819  0.37627072  1
  Fe  Fe56  1  0.87659801  0.62278613  0.12714823  1
  Fe  Fe57  1  0.87559447  0.62572976  0.87391464  1
  Fe  Fe58  1  0.12704137  0.37152630  0.87085600  1
  Fe  Fe59  1  0.00257807  0.50070450  0.50207853  1
  Fe  Fe60  1  0.49792072  0.50114517  0.74988894  1
  Fe  Fe61  1  0.62148653  0.37701858  0.87764169  1
  Fe  Fe62  1  0.00019381  0.00338927  0.50193823  1
  Fe  Fe63  1  0.74928919  0.49995638  0.00012214  1
  Fe  Fe64  1  0.87443656  0.12458089  0.12499393  1
  Fe  Fe65  1  0.75158261  0.75174302  0.00173942  1
  Fe  Fe66  1  0.75240509  0.74870725  0.49747820  1
  Fe  Fe67  1  0.62945742  0.12229604  0.87171544  1
  Fe  Fe68  1  0.11940362  0.87339947  0.37570605  1
  Fe  Fe69  1  0.75041084  0.75258728  0.74869404  1
  Fe  Fe70  1  0.12197034  0.62632212  0.37353864  1
  Fe  Fe71  1  0.25082036  0.25301157  0.25373746  1
  Fe  Fe72  1  0.87363688  0.12480708  0.37484769  1
  Fe  Fe73  1  0.75455046  0.75074100  0.25345386  1
  Fe  Fe74  1  0.00137428  0.49870639  -0.00029074  1
  Fe  Fe75  1  0.74939832  0.49991513  0.50057587  1
  Fe  Fe76  1  0.12638051  0.12713622  0.37755607  1
  Fe  Fe77  1  0.25185844  0.49740429  -0.00304932  1
  Fe  Fe78  1  0.12595845  0.37470949  0.12505855  1
  Fe  Fe79  1  0.49661856  0.25083506  0.25141203  1
  Fe  Fe80  1  0.62400669  0.37354844  0.62477636  1
  Fe  Fe81  1  -0.00023138  0.24924876  0.25047030  1
  Fe  Fe82  1  0.37326738  0.37842106  0.62376180  1
  Fe  Fe83  1  0.37332739  0.62568352  0.87325202  1
  Fe  Fe84  1  0.12698936  0.12510012  0.12589032  1
  Fe  Fe85  1  0.25189872  0.25001143  -0.00121096  1
  Fe  Fe86  1  0.24912516  0.75234508  0.00126469  1
  Fe  Fe87  1  0.49994521  0.50184057  0.50021920  1
  Fe  Fe88  1  0.37184273  0.62235885  0.12605455  1
  Fe  Fe89  1  0.87494254  0.62457294  0.62511981  1
  Co  Co90  1  0.87474373  0.37370735  0.62400832  1
  Co  Co91  1  0.24920077  0.00164008  -0.00055363  1
  Co  Co92  1  0.12273338  0.87560689  0.62356127  1
  Co  Co93  1  0.37660221  0.37332895  0.87395377  1
  Co  Co94  1  -0.00092584  0.74887807  0.24763889  1
  Co  Co95  1  0.24671323  0.50015048  0.49656602  1
  Co  Co96  1  0.49786926  0.74684083  0.49878423  1
  Co  Co97  1  0.62491949  0.37256301  0.12426272  1
  Co  Co98  1  0.62409000  0.12507117  0.62683171  1
  Co  Co99  1  0.37232831  0.62243547  0.62395850  1
  Co  Co100  1  0.62473427  0.12778799  0.37330559  1
  Co  Co101  1  0.25202472  0.75438632  0.74736462  1
  Co  Co102  1  0.49796419  0.50184981  0.00185776  1
  Co  Co103  1  0.00151166  0.24814370  0.74821375  1
  Co  Co104  1  0.87752064  0.62052686  0.37502079  1
  Co  Co105  1  0.37233916  0.12615849  0.37682509  1
  Co  Co106  1  0.87089665  0.12305050  0.87116695  1
  Co  Co107  1  0.12010173  0.37170866  0.37743156  1
  Co  Co108  1  0.75331249  0.25153552  0.25153490  1
  Co  Co109  1  -0.00085555  0.74663672  0.50005942  1
  Co  Co110  1  0.87840673  0.87799304  0.37672961  1
  Co  Co111  1  0.37802895  0.37733646  0.37719708  1
  Co  Co112  1  0.37343380  0.37566928  0.12528627  1
  Co  Co113  1  0.37930668  0.87683447  0.62191018  1
  Co  Co114  1  0.25419017  0.24769828  0.74722375  1
  Co  Co115  1  0.74901955  -0.00563958  0.74558859  1
  Co  Co116  1  0.12422518  0.87883649  0.12547547  1
  Co  Co117  1  0.50119917  0.00245597  0.49417386  1
  Co  Co118  1  0.12678760  0.62026180  0.12440692  1
  Co  Co119  1  0.74686238  0.25461811  0.75174997  1
  Co  Co120  1  0.37440210  0.87227452  0.37463787  1
  Co  Co121  1  0.49964186  0.24908086  0.50032452  1
  Co  Co122  1  0.37465678  0.87699247  0.87702934  1
  Co  Co123  1  0.12970928  0.12542021  0.62325230  1
  Co  Co124  1  0.00271436  0.00408045  0.25234420  1
  Co  Co125  1  0.24999006  0.49978100  0.75229463  1
  Co  Co126  1  0.00150602  0.49777758  0.24921494  1
  Co  Co127  1  0.74872788  -0.00020935  0.00350808  1
