# generated using pymatgen
data_Fe45Co19
_symmetry_space_group_name_H-M   'P 1'
_cell_length_a   11.41421576
_cell_length_b   11.41454664
_cell_length_c   11.41641849
_cell_angle_alpha   90.00271152
_cell_angle_beta   90.00657019
_cell_angle_gamma   89.99187855
_symmetry_Int_Tables_number   1
_chemical_formula_structural   Fe45Co19
_chemical_formula_sum   'Fe90 Co38'
_cell_volume   1487.42342640
_cell_formula_units_Z   2
loop_
 _symmetry_equiv_pos_site_id
 _symmetry_equiv_pos_as_xyz
  1  'x, y, z'
loop_
 _atom_site_type_symbol
 _atom_site_label
 _atom_site_symmetry_multiplicity
 _atom_site_fract_x
 _atom_site_fract_y
 _atom_site_fract_z
 _atom_site_occupancy
  Fe  Fe0  1  0.50192351  0.25037952  0.50107167  1
  Fe  Fe1  1  0.12529455  0.62497949  0.87853167  1
  Fe  Fe2  1  0.74253787  0.75144907  0.24653662  1
  Fe  Fe3  1  0.12473017  0.87588431  0.87518971  1
  Fe  Fe4  1  0.75222566  0.24611501  0.25254919  1
  Fe  Fe5  1  0.49879287  -0.00001204  0.75109875  1
  Fe  Fe6  1  0.49823843  0.50033146  0.25381786  1
  Fe  Fe7  1  0.37432971  0.87346400  0.87681312  1
  Fe  Fe8  1  0.00101721  0.24973758  -0.00051504  1
  Fe  Fe9  1  0.37039930  0.12797355  0.87339115  1
  Fe  Fe10  1  0.12666608  0.37514471  0.37536003  1
  Fe  Fe11  1  0.75202044  0.49846511  -0.00125215  1
  Fe  Fe12  1  0.50315219  -0.00171884  0.24982793  1
  Fe  Fe13  1  0.74845171  0.25084204  0.75029391  1
  Fe  Fe14  1  -0.00271060  -0.00071442  0.25035735  1
  Fe  Fe15  1  0.74776250  0.74828277  0.75058442  1
  Fe  Fe16  1  0.25118515  -0.00059607  0.25227878  1
  Fe  Fe17  1  0.49903282  0.25330566  0.75184385  1
  Fe  Fe18  1  0.62193048  0.61999339  0.62695579  1
  Fe  Fe19  1  0.12609577  0.12526054  0.87254794  1
  Fe  Fe20  1  0.62624677  0.12146331  0.12302264  1
  Fe  Fe21  1  0.25058404  0.75008078  0.49763852  1
  Fe  Fe22  1  0.62468458  0.37571812  0.12387509  1
  Fe  Fe23  1  0.62329848  0.62108147  0.87473626  1
  Fe  Fe24  1  0.12477084  0.87396462  0.37402743  1
  Fe  Fe25  1  0.50238975  0.00252259  0.49988226  1
  Fe  Fe26  1  0.49734566  0.25039339  -0.00031476  1
  Fe  Fe27  1  0.87633678  0.12411252  0.62557119  1
  Fe  Fe28  1  0.87602293  0.87381991  0.87403261  1
  Fe  Fe29  1  0.12431925  0.12487612  0.12675249  1
  Fe  Fe30  1  0.74845876  0.74872545  0.50179699  1
  Fe  Fe31  1  0.37910773  0.87228361  0.37408839  1
  Fe  Fe32  1  0.25472598  0.50275157  0.75107440  1
  Fe  Fe33  1  0.50230264  0.75015033  0.00229366  1
  Fe  Fe34  1  0.74886746  0.24655037  0.49856094  1
  Fe  Fe35  1  0.00213966  0.75008921  0.74898153  1
  Fe  Fe36  1  0.74693695  0.74852771  0.00082501  1
  Fe  Fe37  1  0.87318584  0.87518884  0.62613415  1
  Fe  Fe38  1  0.74984586  0.00083042  0.75104649  1
  Fe  Fe39  1  0.87478926  0.37634311  0.62459146  1
  Fe  Fe40  1  0.49941696  0.74844358  0.75055849  1
  Fe  Fe41  1  0.74955716  0.49924053  0.24943310  1
  Fe  Fe42  1  -0.00054349  0.24976741  0.25309659  1
  Fe  Fe43  1  -0.00348942  0.00233032  -0.00125152  1
  Fe  Fe44  1  0.00019072  0.49954499  0.75107465  1
  Fe  Fe45  1  0.87599705  0.37301224  0.12560450  1
  Fe  Fe46  1  0.62417624  0.87651960  0.62417316  1
  Fe  Fe47  1  0.00134738  0.25299088  0.50064074  1
  Fe  Fe48  1  0.37722153  0.87307323  0.12514386  1
  Fe  Fe49  1  -0.00097748  0.74973764  0.49843862  1
  Fe  Fe50  1  0.25089123  0.74849677  0.75059753  1
  Fe  Fe51  1  -0.00093745  0.49957411  0.24985769  1
  Fe  Fe52  1  0.12602477  0.62479801  0.62384212  1
  Fe  Fe53  1  0.12546589  0.12385515  0.37699150  1
  Fe  Fe54  1  0.37489712  0.12739610  0.37502206  1
  Fe  Fe55  1  0.74979677  0.49984002  0.49977360  1
  Fe  Fe56  1  0.87669819  0.62507687  0.87603579  1
  Fe  Fe57  1  0.49636414  0.49609781  -0.00322531  1
  Fe  Fe58  1  0.00134473  -0.00356320  0.50373209  1
  Fe  Fe59  1  0.87042322  0.87765418  0.12481733  1
  Fe  Fe60  1  0.37308392  0.12627585  0.12700699  1
  Fe  Fe61  1  0.24846010  -0.00118820  0.74609203  1
  Fe  Fe62  1  0.75174644  0.24791472  -0.00064513  1
  Fe  Fe63  1  0.50207285  0.74576946  0.49827613  1
  Fe  Fe64  1  0.37500838  0.12433704  0.62460037  1
  Fe  Fe65  1  0.62522192  0.37456572  0.37501383  1
  Fe  Fe66  1  0.87563832  0.62418986  0.62639781  1
  Fe  Fe67  1  0.49911063  0.25141954  0.24857749  1
  Fe  Fe68  1  0.87214610  0.62638705  0.37199625  1
  Fe  Fe69  1  0.25111241  0.00015975  0.00133379  1
  Fe  Fe70  1  0.12482185  0.87462787  0.12631310  1
  Fe  Fe71  1  -0.00104022  0.50140866  0.49724548  1
  Fe  Fe72  1  0.25097011  0.50056207  0.00180703  1
  Fe  Fe73  1  0.37524533  0.62754539  0.12674678  1
  Fe  Fe74  1  0.24905597  0.24999888  0.50203786  1
  Fe  Fe75  1  0.12999169  0.37435371  0.87447554  1
  Fe  Fe76  1  0.25293627  0.49824657  0.25054578  1
  Fe  Fe77  1  0.12536473  0.62771722  0.36995851  1
  Fe  Fe78  1  0.62408791  0.87827648  0.87846774  1
  Fe  Fe79  1  0.87581378  0.62447275  0.12505254  1
  Fe  Fe80  1  0.62402995  0.12458525  0.87595868  1
  Fe  Fe81  1  0.62370491  0.37801325  0.62684185  1
  Fe  Fe82  1  0.37516257  0.87342188  0.62311552  1
  Fe  Fe83  1  0.37526864  0.37756187  0.62416495  1
  Fe  Fe84  1  0.25353632  0.50195507  0.49682946  1
  Fe  Fe85  1  0.87546299  0.37393699  0.87434352  1
  Fe  Fe86  1  0.00541094  0.25212324  0.74625753  1
  Fe  Fe87  1  0.12591550  0.37451301  0.12574756  1
  Fe  Fe88  1  0.00187556  0.74878691  0.00386331  1
  Fe  Fe89  1  0.86952836  0.87694193  0.37545900  1
  Co  Co90  1  0.50754994  0.75022210  0.24766710  1
  Co  Co91  1  0.49887610  0.49987543  0.49603030  1
  Co  Co92  1  0.37643510  0.62553564  0.62346120  1
  Co  Co93  1  0.25085377  0.75339003  0.24921524  1
  Co  Co94  1  0.00088567  0.49831027  0.00072528  1
  Co  Co95  1  0.36913922  0.36993035  0.87531661  1
  Co  Co96  1  0.62707715  0.62381873  0.37560739  1
  Co  Co97  1  0.24751975  0.75121788  0.00222769  1
  Co  Co98  1  0.74786656  0.00240815  0.25262418  1
  Co  Co99  1  0.75563676  0.00433352  -0.00466899  1
  Co  Co100  1  0.87846521  0.12805181  0.86907938  1
  Co  Co101  1  0.62155957  0.12614713  0.37271084  1
  Co  Co102  1  0.00201411  -0.00197324  0.74777261  1
  Co  Co103  1  0.12774787  0.87111650  0.62422585  1
  Co  Co104  1  0.87609063  0.12546156  0.12743155  1
  Co  Co105  1  0.49570441  0.49786593  0.75412821  1
  Co  Co106  1  0.62572891  0.87541327  0.37812109  1
  Co  Co107  1  0.62618942  0.37556088  0.87626195  1
  Co  Co108  1  -0.00330967  0.75184656  0.24904433  1
  Co  Co109  1  0.49421292  0.00350019  -0.00104904  1
  Co  Co110  1  0.87878355  0.12151934  0.37869848  1
  Co  Co111  1  0.12464273  0.12228839  0.62187020  1
  Co  Co112  1  0.87346818  0.37515608  0.37533837  1
  Co  Co113  1  0.37498476  0.37445583  0.12548498  1
  Co  Co114  1  0.37545228  0.62905390  0.37213458  1
  Co  Co115  1  0.24866474  0.25005714  0.25034043  1
  Co  Co116  1  0.25204787  -0.00197041  0.49834195  1
  Co  Co117  1  0.12583311  0.62500402  0.12841540  1
  Co  Co118  1  0.37550347  0.37056801  0.37586406  1
  Co  Co119  1  0.24928970  0.24814872  0.00435714  1
  Co  Co120  1  0.24796071  0.24982700  0.74275950  1
  Co  Co121  1  0.75164345  0.50038209  0.75121774  1
  Co  Co122  1  0.62284631  0.61884690  0.12276123  1
  Co  Co123  1  0.37595307  0.62891274  0.87877393  1
  Co  Co124  1  0.62339853  0.12558285  0.62938548  1
  Co  Co125  1  0.74567127  0.00469256  0.50146064  1
  Co  Co126  1  0.62655970  0.88264910  0.11918474  1
  Co  Co127  1  0.12700866  0.38198673  0.62354123  1
