# generated using pymatgen
data_Fe45Co19
_symmetry_space_group_name_H-M   'P 1'
_cell_length_a   11.41570909
_cell_length_b   11.41505438
_cell_length_c   11.41475587
_cell_angle_alpha   89.99007665
_cell_angle_beta   89.99567105
_cell_angle_gamma   89.99977367
_symmetry_Int_Tables_number   1
_chemical_formula_structural   Fe45Co19
_chemical_formula_sum   'Fe90 Co38'
_cell_volume   1487.46754210
_cell_formula_units_Z   2
loop_
 _symmetry_equiv_pos_site_id
 _symmetry_equiv_pos_as_xyz
  1  'x, y, z'
loop_
 _atom_site_type_symbol
 _atom_site_label
 _atom_site_symmetry_multiplicity
 _atom_site_fract_x
 _atom_site_fract_y
 _atom_site_fract_z
 _atom_site_occupancy
  Fe  Fe0  1  0.25176954  0.00078909  0.74835701  1
  Fe  Fe1  1  0.37475557  0.37525646  0.37704522  1
  Fe  Fe2  1  0.62698925  0.12796076  0.62237403  1
  Fe  Fe3  1  0.50230900  0.25226694  0.25302721  1
  Fe  Fe4  1  0.50147214  0.00000114  0.74585526  1
  Fe  Fe5  1  0.00274078  0.50157841  0.74951568  1
  Fe  Fe6  1  0.00167520  0.50391719  0.24502171  1
  Fe  Fe7  1  0.12313740  0.87530936  0.87367205  1
  Fe  Fe8  1  0.50535380  0.49942601  0.00333366  1
  Fe  Fe9  1  0.37277782  0.62378243  0.12494158  1
  Fe  Fe10  1  0.50203785  -0.00019355  0.25120781  1
  Fe  Fe11  1  0.62467326  0.87300978  0.12532568  1
  Fe  Fe12  1  0.24983642  0.00114734  0.25120583  1
  Fe  Fe13  1  0.74995232  -0.00050085  0.74948751  1
  Fe  Fe14  1  0.37778789  0.87666694  0.87342149  1
  Fe  Fe15  1  0.87266657  0.12763733  0.62464044  1
  Fe  Fe16  1  0.37079833  0.37072948  0.62360848  1
  Fe  Fe17  1  0.62433815  0.62278161  0.37514791  1
  Fe  Fe18  1  0.87341934  0.87646696  0.37822262  1
  Fe  Fe19  1  0.12394980  0.12575696  0.12511147  1
  Fe  Fe20  1  0.37653299  0.12703228  0.37907035  1
  Fe  Fe21  1  0.37372022  0.87408118  0.37710713  1
  Fe  Fe22  1  0.37298769  0.62335963  0.37622401  1
  Fe  Fe23  1  0.75100947  0.74979395  0.25256003  1
  Fe  Fe24  1  0.37648227  0.37678717  0.87500170  1
  Fe  Fe25  1  0.25123969  0.00047639  0.50170179  1
  Fe  Fe26  1  0.50045810  0.74948391  0.49918310  1
  Fe  Fe27  1  0.62974899  0.86984347  0.62240209  1
  Fe  Fe28  1  0.12084507  0.37299607  0.87371787  1
  Fe  Fe29  1  0.87440891  0.87373105  0.87413992  1
  Fe  Fe30  1  0.49973036  0.49911192  0.50233592  1
  Fe  Fe31  1  0.49958703  0.24981594  0.74828706  1
  Fe  Fe32  1  0.62715701  0.12907872  0.12557354  1
  Fe  Fe33  1  -0.00102816  0.25036552  0.49809286  1
  Fe  Fe34  1  0.00156443  0.74555403  0.00004330  1
  Fe  Fe35  1  -0.00210992  0.00168047  0.74942824  1
  Fe  Fe36  1  0.74864148  -0.00075857  0.25171986  1
  Fe  Fe37  1  0.37335938  0.62687148  0.62546315  1
  Fe  Fe38  1  0.87820201  0.62205216  0.37296017  1
  Fe  Fe39  1  0.24901865  0.25058867  0.25302587  1
  Fe  Fe40  1  0.12234536  0.37796786  0.37410740  1
  Fe  Fe41  1  0.24756227  0.74795876  0.25336640  1
  Fe  Fe42  1  -0.00124096  0.00253678  -0.00058999  1
  Fe  Fe43  1  0.12558549  0.62677982  0.62653658  1
  Fe  Fe44  1  0.87535303  0.87164862  0.12393906  1
  Fe  Fe45  1  0.24827826  0.49990010  0.50097636  1
  Fe  Fe46  1  0.50135822  0.74980718  -0.00066970  1
  Fe  Fe47  1  0.87612971  0.37863736  0.12089457  1
  Fe  Fe48  1  0.37484983  0.12639681  0.12552416  1
  Fe  Fe49  1  0.75128356  0.25237078  0.49554554  1
  Fe  Fe50  1  0.75130066  0.25283897  0.25477817  1
  Fe  Fe51  1  0.87163729  0.87075073  0.62496094  1
  Fe  Fe52  1  -0.00041491  0.50071068  0.50379678  1
  Fe  Fe53  1  0.25036773  0.75108213  0.74991380  1
  Fe  Fe54  1  0.74680168  0.74684599  -0.00309063  1
  Fe  Fe55  1  0.12604590  0.37154597  0.62812862  1
  Fe  Fe56  1  0.24993016  0.74948318  -0.00229551  1
  Fe  Fe57  1  0.50021371  0.75044967  0.25147235  1
  Fe  Fe58  1  0.12472999  0.87305772  0.62508648  1
  Fe  Fe59  1  0.37363537  0.37486941  0.12418918  1
  Fe  Fe60  1  0.75286427  0.25552257  -0.00615269  1
  Fe  Fe61  1  0.50180978  -0.00003915  0.00216032  1
  Fe  Fe62  1  0.87567926  0.62206596  0.87484301  1
  Fe  Fe63  1  0.75214083  0.50251400  0.50203011  1
  Fe  Fe64  1  0.37617210  0.62279946  0.87374553  1
  Fe  Fe65  1  0.49955430  0.49909566  0.74623499  1
  Fe  Fe66  1  0.24940729  -0.00005653  0.00008852  1
  Fe  Fe67  1  0.50135371  0.25071393  -0.00106870  1
  Fe  Fe68  1  -0.00156075  -0.00092202  0.25018932  1
  Fe  Fe69  1  -0.00160877  0.00202382  0.50173393  1
  Fe  Fe70  1  0.24849732  0.24927839  -0.00277341  1
  Fe  Fe71  1  0.12415143  0.87288175  0.12559103  1
  Fe  Fe72  1  -0.00179757  0.74766878  0.50021470  1
  Fe  Fe73  1  0.50115357  -0.00137617  0.50154934  1
  Fe  Fe74  1  0.12772365  0.12814763  0.62599120  1
  Fe  Fe75  1  0.87513888  0.37428977  0.62847791  1
  Fe  Fe76  1  0.50039817  0.49819246  0.24765441  1
  Fe  Fe77  1  0.12391614  0.87500349  0.37740964  1
  Fe  Fe78  1  0.62735418  0.37491660  0.62447298  1
  Fe  Fe79  1  0.24605833  0.50107046  -0.00235906  1
  Fe  Fe80  1  0.50330125  0.75033871  0.75015948  1
  Fe  Fe81  1  0.62660400  0.12534954  0.87416959  1
  Fe  Fe82  1  0.74825104  0.50127140  0.75120585  1
  Fe  Fe83  1  0.74881683  0.49994090  0.24681973  1
  Fe  Fe84  1  0.87362834  0.12622332  0.12508188  1
  Fe  Fe85  1  -0.00214747  0.24964765  0.25117485  1
  Fe  Fe86  1  0.37547023  0.12328241  0.87422695  1
  Fe  Fe87  1  0.37418605  0.87447942  0.12555769  1
  Fe  Fe88  1  0.74962509  -0.00044565  -0.00025871  1
  Fe  Fe89  1  0.12438343  0.37502748  0.12375186  1
  Co  Co90  1  0.87350401  0.12347617  0.87413932  1
  Co  Co91  1  0.37388974  0.12865958  0.62209999  1
  Co  Co92  1  0.74664524  0.49846180  -0.00133248  1
  Co  Co93  1  0.25054401  0.49892608  0.25104616  1
  Co  Co94  1  0.24610628  0.25163673  0.49616899  1
  Co  Co95  1  0.87287131  0.62528700  0.12326027  1
  Co  Co96  1  0.74974840  0.00175263  0.50126376  1
  Co  Co97  1  0.25219811  0.25002867  0.75440411  1
  Co  Co98  1  0.12298336  0.62223285  0.37651805  1
  Co  Co99  1  0.12460467  0.12380251  0.87378670  1
  Co  Co100  1  0.62448664  0.62547364  0.62400958  1
  Co  Co101  1  -0.00261617  0.24798091  -0.00093814  1
  Co  Co102  1  0.87757429  0.38041658  0.37420783  1
  Co  Co103  1  0.74888572  0.74699204  0.75242544  1
  Co  Co104  1  0.62162506  0.62135925  0.87355893  1
  Co  Co105  1  0.87527517  0.12299988  0.37516767  1
  Co  Co106  1  0.62528912  0.62710858  0.12676417  1
  Co  Co107  1  0.24863600  0.74849004  0.50022357  1
  Co  Co108  1  -0.00225187  0.24625076  0.75095178  1
  Co  Co109  1  0.24973849  0.49891107  0.74992393  1
  Co  Co110  1  0.62758335  0.87369389  0.37823377  1
  Co  Co111  1  0.62534218  0.12492188  0.37638546  1
  Co  Co112  1  0.62631776  0.37975208  0.37660885  1
  Co  Co113  1  0.87637190  0.62500438  0.62944403  1
  Co  Co114  1  0.00367669  0.50391784  0.00025484  1
  Co  Co115  1  -0.00102901  0.75050808  0.74974116  1
  Co  Co116  1  0.50352857  0.25334531  0.50020388  1
  Co  Co117  1  0.12245410  0.12347063  0.37525458  1
  Co  Co118  1  0.62204553  0.37639062  0.87171800  1
  Co  Co119  1  0.62685634  0.37169211  0.12538496  1
  Co  Co120  1  0.37548456  0.87228936  0.62502319  1
  Co  Co121  1  0.87944165  0.37978803  0.87281081  1
  Co  Co122  1  0.12570637  0.62673776  0.87048512  1
  Co  Co123  1  0.75342413  0.74314699  0.49837032  1
  Co  Co124  1  0.62524089  0.87655658  0.87433734  1
  Co  Co125  1  0.12791817  0.62643955  0.12671846  1
  Co  Co126  1  0.75034211  0.25161666  0.75262137  1
  Co  Co127  1  -0.00071617  0.75020174  0.25170082  1
