# generated using pymatgen
data_Fe45Co19
_symmetry_space_group_name_H-M   'P 1'
_cell_length_a   11.41443844
_cell_length_b   11.41579903
_cell_length_c   11.41460306
_cell_angle_alpha   89.99618601
_cell_angle_beta   90.00497817
_cell_angle_gamma   89.99074685
_symmetry_Int_Tables_number   1
_chemical_formula_structural   Fe45Co19
_chemical_formula_sum   'Fe90 Co38'
_cell_volume   1487.37908486
_cell_formula_units_Z   2
loop_
 _symmetry_equiv_pos_site_id
 _symmetry_equiv_pos_as_xyz
  1  'x, y, z'
loop_
 _atom_site_type_symbol
 _atom_site_label
 _atom_site_symmetry_multiplicity
 _atom_site_fract_x
 _atom_site_fract_y
 _atom_site_fract_z
 _atom_site_occupancy
  Fe  Fe0  1  0.75159940  0.50012274  0.25262065  1
  Fe  Fe1  1  0.37727132  0.62655932  0.87292018  1
  Fe  Fe2  1  0.74766646  0.74855060  0.74850255  1
  Fe  Fe3  1  0.50307112  0.75150267  0.74806858  1
  Fe  Fe4  1  0.12298170  0.37241492  0.37560800  1
  Fe  Fe5  1  0.62533760  0.62599737  0.37631014  1
  Fe  Fe6  1  0.00038249  0.75412782  0.24887176  1
  Fe  Fe7  1  0.24698899  0.75157004  0.74777223  1
  Fe  Fe8  1  0.75216586  0.24721766  -0.00022799  1
  Fe  Fe9  1  0.50198213  -0.00044320  -0.00274666  1
  Fe  Fe10  1  0.50097786  0.25016428  0.00088419  1
  Fe  Fe11  1  0.12327952  0.62717132  0.87374412  1
  Fe  Fe12  1  0.87608952  0.12545713  0.86956688  1
  Fe  Fe13  1  0.37251906  0.37549481  0.12526528  1
  Fe  Fe14  1  0.75056603  0.24633164  0.25021732  1
  Fe  Fe15  1  0.37389068  0.12310186  0.12395818  1
  Fe  Fe16  1  0.75089652  -0.00174563  -0.00288457  1
  Fe  Fe17  1  0.24700247  0.00117449  0.25301099  1
  Fe  Fe18  1  0.49924723  0.00066319  0.49979593  1
  Fe  Fe19  1  0.12557198  0.37641280  0.12353486  1
  Fe  Fe20  1  0.87417859  0.62247452  0.62200901  1
  Fe  Fe21  1  0.37668503  0.37317100  0.87391338  1
  Fe  Fe22  1  0.37723439  0.12742966  0.37449243  1
  Fe  Fe23  1  0.62907938  0.87829334  0.62422749  1
  Fe  Fe24  1  0.12358576  0.12046382  0.62603720  1
  Fe  Fe25  1  0.74982648  0.75302568  0.24778633  1
  Fe  Fe26  1  0.87487138  0.87441239  0.37735165  1
  Fe  Fe27  1  0.75103324  0.75094364  0.00225710  1
  Fe  Fe28  1  0.24793092  0.75158856  0.24880072  1
  Fe  Fe29  1  0.11648164  0.12625622  0.37818812  1
  Fe  Fe30  1  0.87121836  0.37551757  0.87248011  1
  Fe  Fe31  1  0.87531461  0.87275576  0.87303611  1
  Fe  Fe32  1  0.12411285  0.87720639  0.11952046  1
  Fe  Fe33  1  0.50091346  0.75197255  0.24946196  1
  Fe  Fe34  1  0.37379867  0.62399607  0.12610531  1
  Fe  Fe35  1  0.12120181  0.12264505  0.12362786  1
  Fe  Fe36  1  -0.00208072  0.74962912  0.00192929  1
  Fe  Fe37  1  0.50053635  0.49862651  0.25045099  1
  Fe  Fe38  1  0.37271125  0.87746442  0.12338039  1
  Fe  Fe39  1  0.12529707  0.37924035  0.62548847  1
  Fe  Fe40  1  0.24675248  0.00330748  -0.00884787  1
  Fe  Fe41  1  0.24944769  0.24833936  0.50252997  1
  Fe  Fe42  1  0.87661364  0.36913151  0.37712403  1
  Fe  Fe43  1  0.12353942  0.62378556  0.12528218  1
  Fe  Fe44  1  0.50149707  0.24957358  0.24795699  1
  Fe  Fe45  1  0.37355313  0.37350510  0.37441128  1
  Fe  Fe46  1  0.37488033  0.12328839  0.62858548  1
  Fe  Fe47  1  0.50086152  0.25013846  0.50423435  1
  Fe  Fe48  1  0.87432425  0.62569486  0.87319361  1
  Fe  Fe49  1  0.75318862  0.24285328  0.50447762  1
  Fe  Fe50  1  0.62682235  0.12167043  0.12613102  1
  Fe  Fe51  1  0.00149871  -0.00605239  0.74968954  1
  Fe  Fe52  1  0.24943149  0.74799659  0.50313174  1
  Fe  Fe53  1  0.87403120  0.37675842  0.12526057  1
  Fe  Fe54  1  -0.00166390  0.25407539  0.74671465  1
  Fe  Fe55  1  0.50018418  0.49736396  0.50081711  1
  Fe  Fe56  1  0.62646116  0.62348190  0.12314059  1
  Fe  Fe57  1  0.87119523  0.38020858  0.62535757  1
  Fe  Fe58  1  0.12261188  0.37398269  0.87542312  1
  Fe  Fe59  1  0.25012346  0.49980047  0.49946176  1
  Fe  Fe60  1  0.50078594  0.75193834  0.50150263  1
  Fe  Fe61  1  0.87729688  0.11886418  0.12897984  1
  Fe  Fe62  1  0.62699121  0.37101285  0.37780229  1
  Fe  Fe63  1  0.12451072  0.87635467  0.38212528  1
  Fe  Fe64  1  0.24703051  0.24775737  0.24968155  1
  Fe  Fe65  1  0.37042961  0.87887928  0.62506575  1
  Fe  Fe66  1  0.37477286  0.62539773  0.37496730  1
  Fe  Fe67  1  0.50610531  0.49723219  0.75077669  1
  Fe  Fe68  1  0.62684571  0.62282700  0.62163374  1
  Fe  Fe69  1  0.62765894  0.37709053  0.12206082  1
  Fe  Fe70  1  0.50178683  -0.00042388  0.25099734  1
  Fe  Fe71  1  0.75496557  0.00585958  0.50078774  1
  Fe  Fe72  1  0.37348406  0.87332076  0.87513707  1
  Fe  Fe73  1  0.50517674  0.25377829  0.74765825  1
  Fe  Fe74  1  0.37568315  0.62273420  0.62608627  1
  Fe  Fe75  1  0.62717440  0.87682379  0.37657854  1
  Fe  Fe76  1  0.37376536  0.87399672  0.37566899  1
  Fe  Fe77  1  0.62647728  0.12573297  0.87188124  1
  Fe  Fe78  1  0.24948623  0.24784872  0.75096283  1
  Fe  Fe79  1  -0.00283972  0.24883647  0.00097298  1
  Fe  Fe80  1  0.87694375  0.62907956  0.37653638  1
  Fe  Fe81  1  0.50044973  0.75080884  0.00060919  1
  Fe  Fe82  1  0.12343865  0.62561854  0.37671151  1
  Fe  Fe83  1  0.24924386  0.24677822  -0.00322248  1
  Fe  Fe84  1  0.00235811  0.75089031  0.74243681  1
  Fe  Fe85  1  -0.00318674  0.50083007  -0.00195017  1
  Fe  Fe86  1  0.24933275  0.50041754  0.75211697  1
  Fe  Fe87  1  0.25112387  0.50179576  -0.00237321  1
  Fe  Fe88  1  -0.00129973  0.49866083  0.25223148  1
  Fe  Fe89  1  0.50112410  -0.00243645  0.75193543  1
  Co  Co90  1  -0.00193712  0.25060377  0.50778353  1
  Co  Co91  1  0.49802579  0.49936518  -0.00117814  1
  Co  Co92  1  0.75206132  0.50082668  0.49475365  1
  Co  Co93  1  -0.00162127  0.50096739  0.75099698  1
  Co  Co94  1  -0.00660124  -0.00076887  0.50343218  1
  Co  Co95  1  0.75015670  -0.00020965  0.25333355  1
  Co  Co96  1  0.25201017  0.00495468  0.49606836  1
  Co  Co97  1  0.00049089  0.25173075  0.24472982  1
  Co  Co98  1  0.12254324  0.86961504  0.87612927  1
  Co  Co99  1  0.37290873  0.37561565  0.62677098  1
  Co  Co100  1  0.62434722  0.12600144  0.37618704  1
  Co  Co101  1  0.24782351  0.00082719  0.75760620  1
  Co  Co102  1  0.63166859  0.37701269  0.62112166  1
  Co  Co103  1  0.62322966  0.12158058  0.62773051  1
  Co  Co104  1  0.62466361  0.62655076  0.87866035  1
  Co  Co105  1  0.75305892  0.50201096  -0.00169367  1
  Co  Co106  1  0.87650865  0.87879744  0.12434428  1
  Co  Co107  1  0.74805837  0.25054709  0.74684563  1
  Co  Co108  1  0.24871852  0.50032180  0.25108651  1
  Co  Co109  1  0.13029611  0.88071804  0.62132316  1
  Co  Co110  1  0.00199279  -0.00464499  0.25298446  1
  Co  Co111  1  0.25088171  0.74777698  -0.00002100  1
  Co  Co112  1  0.87569077  0.62506314  0.12773839  1
  Co  Co113  1  0.87847574  0.12332407  0.63254312  1
  Co  Co114  1  0.74877366  0.75046047  0.50076447  1
  Co  Co115  1  0.62534293  0.87635436  0.12476038  1
  Co  Co116  1  0.11740279  0.12937935  0.87096535  1
  Co  Co117  1  0.62890264  0.37349347  0.87927736  1
  Co  Co118  1  0.75120454  -0.00088326  0.75094578  1
  Co  Co119  1  0.74629379  0.50253961  0.75246441  1
  Co  Co120  1  -0.00141579  0.00095655  -0.00530276  1
  Co  Co121  1  0.87072625  0.87342636  0.62487350  1
  Co  Co122  1  -0.00084615  0.49906676  0.49792859  1
  Co  Co123  1  0.62724301  0.87302023  0.87445615  1
  Co  Co124  1  0.12436028  0.62084580  0.62418410  1
  Co  Co125  1  0.38001056  0.12736519  0.87241029  1
  Co  Co126  1  0.00136519  0.75179653  0.50561017  1
  Co  Co127  1  0.88129657  0.12742374  0.37161404  1
