# generated using pymatgen
data_Fe45Co19
_symmetry_space_group_name_H-M   'P 1'
_cell_length_a   11.41560451
_cell_length_b   11.41486094
_cell_length_c   11.41517948
_cell_angle_alpha   90.00464111
_cell_angle_beta   90.00667504
_cell_angle_gamma   89.99566481
_symmetry_Int_Tables_number   1
_chemical_formula_structural   Fe45Co19
_chemical_formula_sum   'Fe90 Co38'
_cell_volume   1487.48391600
_cell_formula_units_Z   2
loop_
 _symmetry_equiv_pos_site_id
 _symmetry_equiv_pos_as_xyz
  1  'x, y, z'
loop_
 _atom_site_type_symbol
 _atom_site_label
 _atom_site_symmetry_multiplicity
 _atom_site_fract_x
 _atom_site_fract_y
 _atom_site_fract_z
 _atom_site_occupancy
  Fe  Fe0  1  0.24882724  0.50018036  0.24846205  1
  Fe  Fe1  1  0.37452358  0.87315845  0.12355632  1
  Fe  Fe2  1  0.63064770  0.37384692  0.87637308  1
  Fe  Fe3  1  0.62871760  0.12169829  0.87353882  1
  Fe  Fe4  1  0.50269249  0.49883207  0.25192440  1
  Fe  Fe5  1  -0.00143013  -0.00211200  0.25101934  1
  Fe  Fe6  1  0.00122258  0.00074475  -0.00361751  1
  Fe  Fe7  1  0.25085733  0.00384788  0.74946187  1
  Fe  Fe8  1  0.37439034  0.37618582  0.87750972  1
  Fe  Fe9  1  0.37405476  0.12684208  0.37623252  1
  Fe  Fe10  1  0.24914820  0.74851442  0.24764509  1
  Fe  Fe11  1  0.50067334  0.25022027  0.24880899  1
  Fe  Fe12  1  0.12472361  0.12553512  0.12320346  1
  Fe  Fe13  1  0.74972855  -0.00218581  0.00087997  1
  Fe  Fe14  1  0.25174278  0.49963070  0.74887605  1
  Fe  Fe15  1  0.12733968  0.12591277  0.87672515  1
  Fe  Fe16  1  0.75070211  0.25168552  0.24502513  1
  Fe  Fe17  1  0.12572282  0.37731400  0.87573302  1
  Fe  Fe18  1  0.62425637  0.62690866  0.12613791  1
  Fe  Fe19  1  0.12348119  0.87841614  0.62487501  1
  Fe  Fe20  1  0.24982949  0.00228301  0.50254930  1
  Fe  Fe21  1  0.37428807  0.62483849  0.37412346  1
  Fe  Fe22  1  0.62853630  0.37291841  0.37612983  1
  Fe  Fe23  1  0.87655519  0.62613574  0.62439012  1
  Fe  Fe24  1  0.37640296  0.37657563  0.12323427  1
  Fe  Fe25  1  0.87587077  0.12320399  0.12470461  1
  Fe  Fe26  1  0.24675250  0.25037108  0.50210736  1
  Fe  Fe27  1  -0.00417403  0.50121618  0.75561235  1
  Fe  Fe28  1  0.87432743  0.37269598  0.37491013  1
  Fe  Fe29  1  -0.00476493  0.25105002  -0.00196281  1
  Fe  Fe30  1  0.50139492  0.75231117  0.25266669  1
  Fe  Fe31  1  0.12372838  0.87530077  0.37603536  1
  Fe  Fe32  1  0.75113375  -0.00869613  0.24767738  1
  Fe  Fe33  1  0.00217077  0.74589532  -0.00338774  1
  Fe  Fe34  1  0.74948613  0.49970756  0.24745250  1
  Fe  Fe35  1  0.37306890  0.12561805  0.12194224  1
  Fe  Fe36  1  0.12086354  0.37578948  0.62591308  1
  Fe  Fe37  1  0.87517319  0.37515941  0.62626172  1
  Fe  Fe38  1  0.87799548  0.12085642  0.62731897  1
  Fe  Fe39  1  0.62735865  0.62810698  0.87383272  1
  Fe  Fe40  1  0.87285519  0.12429006  0.37320907  1
  Fe  Fe41  1  0.62824975  0.12389384  0.37471665  1
  Fe  Fe42  1  -0.00212076  0.24844277  0.75407069  1
  Fe  Fe43  1  0.62963207  0.63108031  0.37606627  1
  Fe  Fe44  1  0.74980227  0.75410305  0.74763352  1
  Fe  Fe45  1  0.37218885  0.87433943  0.87492406  1
  Fe  Fe46  1  0.50247933  0.50041986  0.49880910  1
  Fe  Fe47  1  0.12347309  0.62407567  0.37564378  1
  Fe  Fe48  1  0.12432047  0.87280275  0.12277676  1
  Fe  Fe49  1  0.50499896  0.24956262  0.50228556  1
  Fe  Fe50  1  0.87681894  0.62321755  0.12255358  1
  Fe  Fe51  1  0.49878269  0.00019321  -0.00151135  1
  Fe  Fe52  1  0.24978331  0.00011955  0.24700107  1
  Fe  Fe53  1  0.37830160  0.62578261  0.62582490  1
  Fe  Fe54  1  0.75024148  -0.00212715  0.50151255  1
  Fe  Fe55  1  0.12856851  0.87270044  0.87585582  1
  Fe  Fe56  1  0.50232451  0.24874465  -0.00080910  1
  Fe  Fe57  1  0.50187782  0.49927542  0.75153675  1
  Fe  Fe58  1  0.75117561  0.49949873  0.50152258  1
  Fe  Fe59  1  0.24769092  0.50727076  0.00285853  1
  Fe  Fe60  1  0.62306368  0.62655468  0.62524859  1
  Fe  Fe61  1  0.88124785  0.87775501  0.62321452  1
  Fe  Fe62  1  0.49888314  -0.00072409  0.49912166  1
  Fe  Fe63  1  -0.00320079  0.75204453  0.25187795  1
  Fe  Fe64  1  0.87413133  0.87551836  0.87554539  1
  Fe  Fe65  1  0.74956347  0.24703679  0.74716444  1
  Fe  Fe66  1  0.12512227  0.12605662  0.37296489  1
  Fe  Fe67  1  0.37294300  0.87488881  0.37629004  1
  Fe  Fe68  1  0.24907638  0.74912044  0.50163138  1
  Fe  Fe69  1  0.49949185  -0.00110889  0.25107920  1
  Fe  Fe70  1  0.49793452  0.00038260  0.75033376  1
  Fe  Fe71  1  0.00018617  0.75051691  0.75074818  1
  Fe  Fe72  1  0.24848831  0.49909945  0.50062714  1
  Fe  Fe73  1  0.12005547  0.37649079  0.12354658  1
  Fe  Fe74  1  0.50254608  0.50171239  -0.00090781  1
  Fe  Fe75  1  0.62004912  0.87431386  0.62449544  1
  Fe  Fe76  1  0.87242673  0.63004080  0.37757773  1
  Fe  Fe77  1  0.25184126  0.74808900  0.74872478  1
  Fe  Fe78  1  0.12197913  0.62221019  0.62637353  1
  Fe  Fe79  1  0.75119630  0.50174931  0.75087601  1
  Fe  Fe80  1  0.49801279  0.74951883  -0.00344361  1
  Fe  Fe81  1  0.25113919  0.24933220  0.75027305  1
  Fe  Fe82  1  0.62577514  0.12273802  0.12592618  1
  Fe  Fe83  1  0.50220546  0.24935101  0.74994716  1
  Fe  Fe84  1  0.24864576  0.25192481  0.24758359  1
  Fe  Fe85  1  -0.00054155  0.24854916  0.49866622  1
  Fe  Fe86  1  0.74915676  0.75187227  0.00264064  1
  Fe  Fe87  1  0.37756167  0.37370972  0.62455298  1
  Fe  Fe88  1  0.37453905  0.37400220  0.37600519  1
  Fe  Fe89  1  -0.00166496  0.49876337  0.25313206  1
  Co  Co90  1  0.37650085  0.12766448  0.62448025  1
  Co  Co91  1  0.62454403  0.37506195  0.12330833  1
  Co  Co92  1  0.25086955  0.74402593  0.00210816  1
  Co  Co93  1  -0.00045609  0.50148014  -0.00680229  1
  Co  Co94  1  0.37446684  0.12623127  0.87588503  1
  Co  Co95  1  0.12183710  0.12526124  0.62706568  1
  Co  Co96  1  0.00104428  0.00281261  0.49574777  1
  Co  Co97  1  0.62067500  0.87472800  0.12367790  1
  Co  Co98  1  0.37410020  0.62310165  0.87317253  1
  Co  Co99  1  0.87450514  0.87262925  0.37931857  1
  Co  Co100  1  0.75053427  -0.00524923  0.74731739  1
  Co  Co101  1  0.11857825  0.62555925  0.12793887  1
  Co  Co102  1  0.75300267  0.75435699  0.24442020  1
  Co  Co103  1  0.24906885  0.25182985  0.00025016  1
  Co  Co104  1  0.00292040  0.74896880  0.50106098  1
  Co  Co105  1  -0.00247923  0.49987342  0.49860693  1
  Co  Co106  1  0.74925009  0.50166033  0.00091803  1
  Co  Co107  1  0.62589141  0.87587872  0.87538498  1
  Co  Co108  1  0.62772733  0.87329357  0.37565506  1
  Co  Co109  1  0.75008764  0.75321894  0.50622705  1
  Co  Co110  1  0.75095776  0.24740783  0.00312212  1
  Co  Co111  1  0.37976814  0.62516011  0.12810169  1
  Co  Co112  1  0.37468283  0.87449707  0.62559935  1
  Co  Co113  1  -0.00090579  0.24942384  0.24878996  1
  Co  Co114  1  0.12397292  0.37491433  0.37511570  1
  Co  Co115  1  0.25003336  -0.00105666  0.00036798  1
  Co  Co116  1  0.87998283  0.87484823  0.11987467  1
  Co  Co117  1  0.86886724  0.37416342  0.87626299  1
  Co  Co118  1  0.62712584  0.37738757  0.62580642  1
  Co  Co119  1  0.75142895  0.24862259  0.50371175  1
  Co  Co120  1  0.62516376  0.12122773  0.62543824  1
  Co  Co121  1  0.87640811  0.37879263  0.12285943  1
  Co  Co122  1  0.87031713  0.12172575  0.87406744  1
  Co  Co123  1  0.12672810  0.62487678  0.87058344  1
  Co  Co124  1  0.49967466  0.75100912  0.75280688  1
  Co  Co125  1  0.49826688  0.74982635  0.49817605  1
  Co  Co126  1  0.00262062  -0.00008548  0.75608447  1
  Co  Co127  1  0.87091929  0.62916238  0.87531026  1
