# generated using pymatgen
data_Fe45Co19
_symmetry_space_group_name_H-M   'P 1'
_cell_length_a   11.41551991
_cell_length_b   11.41613536
_cell_length_c   11.41560419
_cell_angle_alpha   89.99545153
_cell_angle_beta   89.99766849
_cell_angle_gamma   90.00763918
_symmetry_Int_Tables_number   1
_chemical_formula_structural   Fe45Co19
_chemical_formula_sum   'Fe90 Co38'
_cell_volume   1487.69431014
_cell_formula_units_Z   2
loop_
 _symmetry_equiv_pos_site_id
 _symmetry_equiv_pos_as_xyz
  1  'x, y, z'
loop_
 _atom_site_type_symbol
 _atom_site_label
 _atom_site_symmetry_multiplicity
 _atom_site_fract_x
 _atom_site_fract_y
 _atom_site_fract_z
 _atom_site_occupancy
  Fe  Fe0  1  0.87562874  0.37928139  0.37203943  1
  Fe  Fe1  1  0.87171620  0.37259889  0.62641540  1
  Fe  Fe2  1  0.49921088  0.75031947  0.24996968  1
  Fe  Fe3  1  0.49900214  0.75474370  0.75500974  1
  Fe  Fe4  1  0.62687904  0.87492090  0.62715872  1
  Fe  Fe5  1  0.87768371  0.87597199  0.12449547  1
  Fe  Fe6  1  0.00019203  0.74855403  0.25202100  1
  Fe  Fe7  1  0.62435710  0.62651345  0.62807083  1
  Fe  Fe8  1  0.24777074  0.74725603  -0.00304259  1
  Fe  Fe9  1  0.37450579  0.62644699  0.12417211  1
  Fe  Fe10  1  0.62461850  0.62387554  0.37538724  1
  Fe  Fe11  1  0.87665951  0.12480455  0.37275337  1
  Fe  Fe12  1  0.13004124  0.37161446  0.62474396  1
  Fe  Fe13  1  0.75158955  0.00324423  0.00295196  1
  Fe  Fe14  1  0.12534719  0.37386291  0.12688273  1
  Fe  Fe15  1  0.24800041  0.50217314  0.00031062  1
  Fe  Fe16  1  0.50125074  0.49973382  0.24726546  1
  Fe  Fe17  1  0.74952794  0.24832560  0.49734725  1
  Fe  Fe18  1  0.50009805  0.49953668  -0.00007678  1
  Fe  Fe19  1  0.12555199  0.87476529  0.87407315  1
  Fe  Fe20  1  0.62477023  0.87381444  0.12257907  1
  Fe  Fe21  1  0.50037433  0.75083960  0.49935295  1
  Fe  Fe22  1  0.37365597  0.62361525  0.87366649  1
  Fe  Fe23  1  0.12807108  0.62630958  0.62412294  1
  Fe  Fe24  1  0.37766361  0.13307217  0.62454396  1
  Fe  Fe25  1  0.00147522  0.49988746  0.00286064  1
  Fe  Fe26  1  0.37359537  0.87179422  0.12222476  1
  Fe  Fe27  1  0.25190056  0.00313820  0.50145077  1
  Fe  Fe28  1  0.24946994  0.74830912  0.25382106  1
  Fe  Fe29  1  0.37644326  0.12582539  0.12543462  1
  Fe  Fe30  1  -0.00028845  -0.00170990  0.50105567  1
  Fe  Fe31  1  0.12227530  0.12549181  0.87505561  1
  Fe  Fe32  1  0.12486427  0.12772387  0.62416602  1
  Fe  Fe33  1  0.87340216  0.37196064  0.12826538  1
  Fe  Fe34  1  0.50036625  0.25086983  0.25157359  1
  Fe  Fe35  1  0.75044255  0.74785606  0.25240593  1
  Fe  Fe36  1  0.11736095  0.12620110  0.12541855  1
  Fe  Fe37  1  0.62593780  0.62419877  0.87293566  1
  Fe  Fe38  1  0.87491916  0.87477052  0.87509786  1
  Fe  Fe39  1  0.87590300  0.62514512  0.12584496  1
  Fe  Fe40  1  0.12703930  0.37777803  0.87305836  1
  Fe  Fe41  1  0.75028037  0.50227425  0.50109771  1
  Fe  Fe42  1  0.87411572  0.87330707  0.37696366  1
  Fe  Fe43  1  0.74990013  0.50008920  0.00181142  1
  Fe  Fe44  1  0.62831962  0.37037928  0.62701958  1
  Fe  Fe45  1  0.12335225  0.12331641  0.37554825  1
  Fe  Fe46  1  0.24951515  0.24965773  0.25427211  1
  Fe  Fe47  1  0.87716721  0.62361665  0.87319223  1
  Fe  Fe48  1  0.12593536  0.87586288  0.37882654  1
  Fe  Fe49  1  -0.00008859  0.25134177  0.75112105  1
  Fe  Fe50  1  0.62750019  0.37636233  0.37184089  1
  Fe  Fe51  1  0.12310573  0.87236662  0.12391023  1
  Fe  Fe52  1  0.75162117  0.00346291  0.24635802  1
  Fe  Fe53  1  0.37439878  0.87673833  0.37641812  1
  Fe  Fe54  1  0.87355261  0.87333403  0.62374488  1
  Fe  Fe55  1  0.50003360  0.00163531  0.50370837  1
  Fe  Fe56  1  0.62535888  0.87637198  0.37495202  1
  Fe  Fe57  1  0.74978284  0.24679603  0.00341310  1
  Fe  Fe58  1  0.25256964  0.49794352  0.50079479  1
  Fe  Fe59  1  0.00043786  -0.00048697  0.74877775  1
  Fe  Fe60  1  0.62851525  0.37536879  0.87470861  1
  Fe  Fe61  1  0.00040104  0.49938970  0.74596937  1
  Fe  Fe62  1  0.37631714  0.12507889  0.87437967  1
  Fe  Fe63  1  0.37439781  0.37528823  0.12474741  1
  Fe  Fe64  1  0.25131145  0.00184464  0.74876259  1
  Fe  Fe65  1  0.24864118  0.24882520  -0.00057233  1
  Fe  Fe66  1  0.49929392  -0.00286413  -0.00144372  1
  Fe  Fe67  1  0.24908930  0.00053434  0.24819567  1
  Fe  Fe68  1  0.75076674  0.00232297  0.74883100  1
  Fe  Fe69  1  0.87363936  0.37637424  0.87393307  1
  Fe  Fe70  1  0.49825687  -0.00187003  0.24784121  1
  Fe  Fe71  1  0.24878685  0.50071921  0.25053666  1
  Fe  Fe72  1  0.87306412  0.62791977  0.62309861  1
  Fe  Fe73  1  0.37471647  0.62669430  0.62610631  1
  Fe  Fe74  1  0.75025364  0.74953068  -0.00237288  1
  Fe  Fe75  1  0.62474435  0.62615671  0.12376167  1
  Fe  Fe76  1  0.12001647  0.62071577  0.37815343  1
  Fe  Fe77  1  0.62294248  0.12315938  0.87166898  1
  Fe  Fe78  1  0.37742413  0.62236315  0.37611398  1
  Fe  Fe79  1  0.00233403  0.75057765  0.74751204  1
  Fe  Fe80  1  0.37118077  0.87207351  0.62472196  1
  Fe  Fe81  1  0.87809913  0.12584485  0.87740604  1
  Fe  Fe82  1  0.49941234  0.49555470  0.50337901  1
  Fe  Fe83  1  0.87564100  0.12678911  0.62428108  1
  Fe  Fe84  1  0.62341664  0.12315773  0.37452754  1
  Fe  Fe85  1  0.24732504  0.00191249  0.00172728  1
  Fe  Fe86  1  0.50016822  0.25215896  -0.00128808  1
  Fe  Fe87  1  0.00052135  0.25280167  0.49776398  1
  Fe  Fe88  1  0.74929186  0.00115471  0.50140393  1
  Fe  Fe89  1  0.49660387  0.49367541  0.74955275  1
  Co  Co90  1  0.87850695  0.62222624  0.37797226  1
  Co  Co91  1  0.00062872  -0.00303320  0.25206387  1
  Co  Co92  1  0.75019880  0.75009758  0.75131714  1
  Co  Co93  1  0.37622071  0.37724902  0.37365300  1
  Co  Co94  1  0.37726582  0.12263900  0.37424823  1
  Co  Co95  1  0.62035467  0.12432797  0.12494020  1
  Co  Co96  1  0.25088746  0.74748376  0.49649762  1
  Co  Co97  1  0.00169121  0.25231600  0.25433124  1
  Co  Co98  1  0.37101624  0.36813468  0.62332333  1
  Co  Co99  1  0.37066766  0.37568196  0.87796137  1
  Co  Co100  1  0.74975992  0.50328228  0.24917180  1
  Co  Co101  1  0.74936605  0.24562093  0.24803371  1
  Co  Co102  1  0.50215457  0.25236176  0.49655033  1
  Co  Co103  1  0.00057036  0.50059023  0.24532273  1
  Co  Co104  1  0.74726051  0.74852334  0.49878489  1
  Co  Co105  1  -0.00143221  0.49693007  0.50671907  1
  Co  Co106  1  0.62531323  0.37474023  0.12513314  1
  Co  Co107  1  0.00072564  0.25503251  -0.00231753  1
  Co  Co108  1  0.00126038  0.75144903  0.50189994  1
  Co  Co109  1  0.12284298  0.38023105  0.37613199  1
  Co  Co110  1  0.37039990  0.87661556  0.87769616  1
  Co  Co111  1  0.50052359  0.74953397  -0.00378985  1
  Co  Co112  1  0.12242101  0.62232191  0.87293919  1
  Co  Co113  1  0.24954623  0.25031920  0.49240860  1
  Co  Co114  1  0.12859325  0.87599130  0.62365768  1
  Co  Co115  1  0.49652255  -0.00242587  0.74775511  1
  Co  Co116  1  0.62823527  0.87835300  0.87519359  1
  Co  Co117  1  0.88345846  0.12641190  0.12509830  1
  Co  Co118  1  0.62345794  0.12833110  0.62705573  1
  Co  Co119  1  0.25057706  0.24856488  0.75394425  1
  Co  Co120  1  0.49897355  0.25529919  0.75262466  1
  Co  Co121  1  0.75066837  0.50105970  0.74808274  1
  Co  Co122  1  0.75165248  0.24694873  0.75289613  1
  Co  Co123  1  -0.00079480  0.74880702  -0.00108778  1
  Co  Co124  1  0.12537921  0.62761902  0.12517801  1
  Co  Co125  1  0.24900323  0.74972454  0.75218936  1
  Co  Co126  1  0.00096897  -0.00229742  -0.00131892  1
  Co  Co127  1  0.25244935  0.49988157  0.74767757  1
