# generated using pymatgen
data_Fe45Co19
_symmetry_space_group_name_H-M   'P 1'
_cell_length_a   11.41471808
_cell_length_b   11.41480714
_cell_length_c   11.41533667
_cell_angle_alpha   90.00437471
_cell_angle_beta   89.99824215
_cell_angle_gamma   89.99924078
_symmetry_Int_Tables_number   1
_chemical_formula_structural   Fe45Co19
_chemical_formula_sum   'Fe90 Co38'
_cell_volume   1487.38189658
_cell_formula_units_Z   2
loop_
 _symmetry_equiv_pos_site_id
 _symmetry_equiv_pos_as_xyz
  1  'x, y, z'
loop_
 _atom_site_type_symbol
 _atom_site_label
 _atom_site_symmetry_multiplicity
 _atom_site_fract_x
 _atom_site_fract_y
 _atom_site_fract_z
 _atom_site_occupancy
  Fe  Fe0  1  0.24879492  0.74986529  0.50269751  1
  Fe  Fe1  1  0.25103470  0.49719556  -0.00154585  1
  Fe  Fe2  1  0.12220311  0.12791751  0.12476391  1
  Fe  Fe3  1  0.00025564  0.49822194  0.50161289  1
  Fe  Fe4  1  0.12524190  0.62369499  0.87465944  1
  Fe  Fe5  1  -0.00175783  0.74810180  0.24909864  1
  Fe  Fe6  1  0.12360076  0.62332381  0.12302523  1
  Fe  Fe7  1  0.50360312  0.25419793  0.50260283  1
  Fe  Fe8  1  0.87498787  0.87389036  0.62553185  1
  Fe  Fe9  1  0.37726259  0.62288934  0.12189268  1
  Fe  Fe10  1  0.87146756  0.87800365  0.12602598  1
  Fe  Fe11  1  0.12242149  0.37314813  0.12840099  1
  Fe  Fe12  1  0.38029041  0.13174634  0.87674191  1
  Fe  Fe13  1  0.12365212  0.12658776  0.87570743  1
  Fe  Fe14  1  0.74854127  0.49687653  -0.00510048  1
  Fe  Fe15  1  0.74718445  0.74535647  0.74973605  1
  Fe  Fe16  1  0.62419952  0.62073718  0.62002110  1
  Fe  Fe17  1  0.25052722  0.00283425  0.25073330  1
  Fe  Fe18  1  -0.00133259  0.49523760  -0.00313210  1
  Fe  Fe19  1  0.74845117  0.74682089  0.25019823  1
  Fe  Fe20  1  0.37547922  0.12699268  0.12420423  1
  Fe  Fe21  1  0.74775158  0.25404826  -0.00425776  1
  Fe  Fe22  1  -0.00170229  0.50044426  0.75167742  1
  Fe  Fe23  1  0.87364287  0.62525671  0.62266410  1
  Fe  Fe24  1  0.25149915  0.25246222  0.74987243  1
  Fe  Fe25  1  0.63092158  0.37661384  0.63039114  1
  Fe  Fe26  1  0.37408642  0.37438493  0.37406532  1
  Fe  Fe27  1  0.12514194  0.87598666  0.12687342  1
  Fe  Fe28  1  0.24668524  0.25252938  0.49937407  1
  Fe  Fe29  1  0.00010089  0.75095079  0.00083101  1
  Fe  Fe30  1  0.12517335  0.87603588  0.62841254  1
  Fe  Fe31  1  0.49637977  0.49886424  0.74803973  1
  Fe  Fe32  1  0.25463976  0.74591233  0.74877765  1
  Fe  Fe33  1  0.62729191  0.87679905  0.12559400  1
  Fe  Fe34  1  0.87449800  0.12639599  0.62280406  1
  Fe  Fe35  1  0.62439635  0.87705041  0.62751649  1
  Fe  Fe36  1  0.87080980  0.37528920  0.63036190  1
  Fe  Fe37  1  -0.00027672  -0.00240449  0.49950587  1
  Fe  Fe38  1  0.74874998  0.75011784  -0.00153775  1
  Fe  Fe39  1  0.50037540  0.75125652  0.50253145  1
  Fe  Fe40  1  -0.00651563  0.00398451  0.25073884  1
  Fe  Fe41  1  0.12341594  0.87423644  0.37262110  1
  Fe  Fe42  1  0.50293042  0.50055934  0.24955214  1
  Fe  Fe43  1  -0.00122247  0.25037927  0.75288285  1
  Fe  Fe44  1  0.87539071  0.12574963  0.87885095  1
  Fe  Fe45  1  0.24943059  0.00015729  0.49990069  1
  Fe  Fe46  1  0.87525197  0.87312660  0.87269165  1
  Fe  Fe47  1  0.37747926  0.62261001  0.37876208  1
  Fe  Fe48  1  0.25429489  0.49877068  0.75032944  1
  Fe  Fe49  1  0.12363815  0.62435733  0.37690184  1
  Fe  Fe50  1  0.49876215  0.00375603  0.74932688  1
  Fe  Fe51  1  0.37853754  0.87222172  0.87238358  1
  Fe  Fe52  1  0.37587014  0.87498000  0.37486740  1
  Fe  Fe53  1  0.61946089  0.62489820  0.87752577  1
  Fe  Fe54  1  0.12490985  0.87495305  0.87240311  1
  Fe  Fe55  1  -0.00222006  0.49995820  0.25085807  1
  Fe  Fe56  1  0.87389134  0.62893953  0.38029635  1
  Fe  Fe57  1  0.50185787  0.74614360  0.24809840  1
  Fe  Fe58  1  0.12348802  0.12563789  0.62675934  1
  Fe  Fe59  1  0.62826580  0.37420628  0.37199270  1
  Fe  Fe60  1  0.87329497  0.62208990  0.12071129  1
  Fe  Fe61  1  0.00007827  0.74718199  0.74914073  1
  Fe  Fe62  1  0.62631964  0.87408016  0.37349398  1
  Fe  Fe63  1  0.75553448  0.24613434  0.24935853  1
  Fe  Fe64  1  0.25085556  0.74701154  0.24893781  1
  Fe  Fe65  1  0.62668508  0.12699634  0.37625585  1
  Fe  Fe66  1  0.24739029  0.49738093  0.50234301  1
  Fe  Fe67  1  0.62717179  0.12483133  0.62462843  1
  Fe  Fe68  1  0.75119983  0.00365535  0.75293191  1
  Fe  Fe69  1  0.24956030  0.25311913  0.00103928  1
  Fe  Fe70  1  0.37484123  0.12729917  0.62262958  1
  Fe  Fe71  1  0.87421626  0.37343767  0.37501461  1
  Fe  Fe72  1  0.00014757  -0.00151239  -0.00105166  1
  Fe  Fe73  1  0.25151306  0.74976009  -0.00050216  1
  Fe  Fe74  1  0.25090977  0.00030966  -0.00170727  1
  Fe  Fe75  1  0.75043374  0.50398422  0.25275012  1
  Fe  Fe76  1  0.50026381  0.25116292  0.24618953  1
  Fe  Fe77  1  0.50167041  0.00205663  0.24994424  1
  Fe  Fe78  1  0.25255655  0.00208795  0.75083871  1
  Fe  Fe79  1  0.12205830  0.12830751  0.37306999  1
  Fe  Fe80  1  0.62230237  0.87401901  0.87225780  1
  Fe  Fe81  1  0.50083759  -0.00030621  -0.00034479  1
  Fe  Fe82  1  0.24936435  0.50002777  0.24989655  1
  Fe  Fe83  1  0.50214704  0.49201147  0.00260115  1
  Fe  Fe84  1  0.75072651  -0.00163767  0.49772332  1
  Fe  Fe85  1  0.37615546  0.12775046  0.37574048  1
  Fe  Fe86  1  0.37521734  0.87575705  0.12631105  1
  Fe  Fe87  1  0.62946524  0.12342720  0.12219822  1
  Fe  Fe88  1  0.49975050  0.00031377  0.49990730  1
  Fe  Fe89  1  0.00048000  0.25407236  0.50033664  1
  Co  Co90  1  0.12358584  0.37488556  0.37204292  1
  Co  Co91  1  0.62688994  0.62268311  0.12073301  1
  Co  Co92  1  0.62428690  0.62501032  0.38006725  1
  Co  Co93  1  0.50079253  0.74558339  0.74544149  1
  Co  Co94  1  0.62046793  0.12772292  0.87660674  1
  Co  Co95  1  0.50127851  0.25009330  0.74401084  1
  Co  Co96  1  0.87242897  0.37680184  0.12459455  1
  Co  Co97  1  0.62288042  0.37423776  0.86821545  1
  Co  Co98  1  0.74969996  0.50719550  0.75353091  1
  Co  Co99  1  0.12635104  0.37550029  0.87251414  1
  Co  Co100  1  0.37340880  0.37359048  0.62305192  1
  Co  Co101  1  0.50016674  0.75244642  0.00298824  1
  Co  Co102  1  -0.00579817  0.24842768  0.24879636  1
  Co  Co103  1  0.25017589  0.24977475  0.24978434  1
  Co  Co104  1  0.37697469  0.62207113  0.61999876  1
  Co  Co105  1  0.37289595  0.37526025  0.12698016  1
  Co  Co106  1  -0.00133851  0.25500993  -0.00175458  1
  Co  Co107  1  0.12330733  0.37529697  0.62921664  1
  Co  Co108  1  0.37894311  0.37138740  0.87523320  1
  Co  Co109  1  0.63229993  0.37599486  0.12954731  1
  Co  Co110  1  0.75089831  0.49720712  0.49853602  1
  Co  Co111  1  0.74689617  0.75155206  0.50294215  1
  Co  Co112  1  0.87232116  0.12492570  0.11745247  1
  Co  Co113  1  0.87679875  0.62621112  0.87777896  1
  Co  Co114  1  0.74853059  -0.00236398  -0.00612855  1
  Co  Co115  1  0.87439956  0.12728738  0.38164375  1
  Co  Co116  1  0.75216444  0.00366612  0.25432353  1
  Co  Co117  1  0.74817824  0.25356647  0.50235166  1
  Co  Co118  1  0.50457210  0.25524679  0.00601109  1
  Co  Co119  1  0.87409821  0.87142719  0.37516387  1
  Co  Co120  1  0.87161878  0.37508357  0.87015080  1
  Co  Co121  1  -0.00237574  0.00247554  0.75128546  1
  Co  Co122  1  0.37545479  0.87644305  0.62587463  1
  Co  Co123  1  0.74978200  0.24392904  0.75263557  1
  Co  Co124  1  0.00322399  0.75086805  0.50221717  1
  Co  Co125  1  0.37903743  0.62315306  0.87811540  1
  Co  Co126  1  0.50338280  0.49203324  0.49906777  1
  Co  Co127  1  0.12498234  0.62224529  0.62721832  1
