# generated using pymatgen
data_Fe45Co19
_symmetry_space_group_name_H-M   'P 1'
_cell_length_a   11.41253673
_cell_length_b   11.41467920
_cell_length_c   11.41495147
_cell_angle_alpha   90.00158988
_cell_angle_beta   89.99432787
_cell_angle_gamma   90.00103662
_symmetry_Int_Tables_number   1
_chemical_formula_structural   Fe45Co19
_chemical_formula_sum   'Fe90 Co38'
_cell_volume   1487.03080749
_cell_formula_units_Z   2
loop_
 _symmetry_equiv_pos_site_id
 _symmetry_equiv_pos_as_xyz
  1  'x, y, z'
loop_
 _atom_site_type_symbol
 _atom_site_label
 _atom_site_symmetry_multiplicity
 _atom_site_fract_x
 _atom_site_fract_y
 _atom_site_fract_z
 _atom_site_occupancy
  Fe  Fe0  1  0.87167422  0.87548543  0.37919610  1
  Fe  Fe1  1  0.37053603  0.37614908  0.87352500  1
  Fe  Fe2  1  0.62496767  0.12549731  0.87202896  1
  Fe  Fe3  1  0.49703690  0.25118407  0.49716762  1
  Fe  Fe4  1  0.24665819  0.74857068  0.50356904  1
  Fe  Fe5  1  0.49783976  0.49865210  0.25265373  1
  Fe  Fe6  1  0.37364878  0.37347493  0.12767169  1
  Fe  Fe7  1  -0.00092460  -0.00147209  0.24981390  1
  Fe  Fe8  1  0.87682901  0.62334527  0.62564446  1
  Fe  Fe9  1  0.12207108  0.87347292  0.12243836  1
  Fe  Fe10  1  0.50378037  0.74846839  0.50006083  1
  Fe  Fe11  1  0.87733028  0.87280161  0.12196378  1
  Fe  Fe12  1  0.12374872  0.87691656  0.87753127  1
  Fe  Fe13  1  0.37358209  0.62407857  0.37695753  1
  Fe  Fe14  1  0.37276012  0.87534320  0.37782618  1
  Fe  Fe15  1  0.74942477  0.74981239  0.74591186  1
  Fe  Fe16  1  0.87421555  0.62275839  0.87243905  1
  Fe  Fe17  1  0.62365164  0.12709986  0.62589509  1
  Fe  Fe18  1  0.62234908  0.12701659  0.12692882  1
  Fe  Fe19  1  0.62438221  0.37524245  0.62435313  1
  Fe  Fe20  1  0.62659046  0.62223951  0.37610355  1
  Fe  Fe21  1  0.62457823  0.12356144  0.37500272  1
  Fe  Fe22  1  0.00358166  0.49662806  0.49987038  1
  Fe  Fe23  1  0.87488517  0.37249041  0.12333580  1
  Fe  Fe24  1  0.50153772  0.75136772  0.25309311  1
  Fe  Fe25  1  0.37561966  0.87307734  0.12311963  1
  Fe  Fe26  1  0.87425703  0.62313969  0.37513545  1
  Fe  Fe27  1  0.49811380  0.25053594  0.74995455  1
  Fe  Fe28  1  0.00090058  0.50169349  -0.00088993  1
  Fe  Fe29  1  0.36614070  0.37527270  0.37569959  1
  Fe  Fe30  1  0.75229135  0.00303886  0.00218731  1
  Fe  Fe31  1  0.49728766  0.49968336  -0.00141540  1
  Fe  Fe32  1  0.62416047  0.87764861  0.87306449  1
  Fe  Fe33  1  0.74977914  0.24931697  0.49942223  1
  Fe  Fe34  1  0.50162953  0.74954293  -0.00278708  1
  Fe  Fe35  1  0.87632690  0.87530703  0.87624129  1
  Fe  Fe36  1  0.37585445  0.62798331  0.62681685  1
  Fe  Fe37  1  0.49720474  -0.00068625  0.25084518  1
  Fe  Fe38  1  0.00505323  0.25297503  0.25369732  1
  Fe  Fe39  1  0.62524339  0.87700064  0.62221728  1
  Fe  Fe40  1  0.12394982  0.12249794  0.12670370  1
  Fe  Fe41  1  0.00073599  0.75113344  0.75145760  1
  Fe  Fe42  1  0.36870559  0.12506226  0.37212846  1
  Fe  Fe43  1  0.37392339  0.12358221  0.87387719  1
  Fe  Fe44  1  0.24963552  0.24894973  0.00097283  1
  Fe  Fe45  1  0.75015979  0.74951108  -0.00154485  1
  Fe  Fe46  1  0.49904432  0.00201216  -0.00116069  1
  Fe  Fe47  1  0.37280985  0.12637136  0.62554167  1
  Fe  Fe48  1  0.12261276  0.87612084  0.62410501  1
  Fe  Fe49  1  -0.00073313  0.00212860  0.75149165  1
  Fe  Fe50  1  0.87897552  0.12933091  0.62456046  1
  Fe  Fe51  1  0.62543588  0.62297341  0.87122439  1
  Fe  Fe52  1  0.37577246  0.62632450  0.12535401  1
  Fe  Fe53  1  0.49756081  0.00253470  0.50108420  1
  Fe  Fe54  1  0.75376630  0.25420472  0.74999885  1
  Fe  Fe55  1  0.25295505  -0.00453699  0.74766793  1
  Fe  Fe56  1  0.75015429  0.49897620  -0.00004801  1
  Fe  Fe57  1  0.12804088  0.37827673  0.12370889  1
  Fe  Fe58  1  0.62434911  0.87532745  0.12561221  1
  Fe  Fe59  1  0.00006349  0.00156118  0.50024379  1
  Fe  Fe60  1  0.62596400  0.37534791  0.87402597  1
  Fe  Fe61  1  0.62529106  0.37659065  0.37570092  1
  Fe  Fe62  1  0.00001331  0.49220007  0.74924443  1
  Fe  Fe63  1  0.12481224  0.62549887  0.12613681  1
  Fe  Fe64  1  0.24524825  0.25015531  0.74968129  1
  Fe  Fe65  1  -0.00061792  0.75094694  0.25181734  1
  Fe  Fe66  1  0.62349549  0.37447996  0.12603605  1
  Fe  Fe67  1  0.24817666  0.74816742  -0.00245151  1
  Fe  Fe68  1  0.75024527  0.25095319  0.25081249  1
  Fe  Fe69  1  0.75229042  0.00109313  0.74635476  1
  Fe  Fe70  1  -0.00111430  0.74991001  0.50027521  1
  Fe  Fe71  1  0.12760471  0.62121850  0.87126765  1
  Fe  Fe72  1  0.00862599  0.25102361  0.49815386  1
  Fe  Fe73  1  0.37024935  0.37370122  0.62238898  1
  Fe  Fe74  1  0.87444508  0.62611160  0.12642439  1
  Fe  Fe75  1  0.49945115  0.24993793  -0.00178725  1
  Fe  Fe76  1  0.87489646  0.12830430  0.87586064  1
  Fe  Fe77  1  0.37359604  0.62747129  0.87074008  1
  Fe  Fe78  1  0.25084210  0.00087039  0.00174753  1
  Fe  Fe79  1  -0.00014887  0.49730422  0.25168653  1
  Fe  Fe80  1  0.74899631  0.75106558  0.25282564  1
  Fe  Fe81  1  0.12511801  0.62334813  0.37468579  1
  Fe  Fe82  1  0.62483449  0.62366796  0.12641690  1
  Fe  Fe83  1  0.49865809  0.49902798  0.74806196  1
  Fe  Fe84  1  0.00356215  0.24802483  -0.00323787  1
  Fe  Fe85  1  0.24940041  0.75045615  0.25032236  1
  Fe  Fe86  1  0.87733831  0.12740046  0.37506066  1
  Fe  Fe87  1  0.75194930  0.00074053  0.25010849  1
  Fe  Fe88  1  0.75156036  0.49901081  0.50202712  1
  Fe  Fe89  1  0.12713464  0.87753773  0.37600620  1
  Co  Co90  1  0.50326952  0.75196334  0.74907072  1
  Co  Co91  1  0.12808472  0.37349019  0.62485491  1
  Co  Co92  1  0.00065516  0.74513955  -0.00310145  1
  Co  Co93  1  0.12065717  0.62541612  0.62783926  1
  Co  Co94  1  0.49761126  -0.00003965  0.74748364  1
  Co  Co95  1  0.75249224  0.49584030  0.74845292  1
  Co  Co96  1  0.37689053  0.87109021  0.62189425  1
  Co  Co97  1  0.75178733  0.49758618  0.24962736  1
  Co  Co98  1  0.00203110  0.25310935  0.75268558  1
  Co  Co99  1  0.25022151  0.50357967  0.24846489  1
  Co  Co100  1  -0.00202256  0.00435034  -0.00037853  1
  Co  Co101  1  0.75197764  0.00382431  0.50277697  1
  Co  Co102  1  0.24519089  0.24543016  0.49952105  1
  Co  Co103  1  0.49687879  0.49734076  0.50016650  1
  Co  Co104  1  0.37613652  0.87382781  0.87638186  1
  Co  Co105  1  0.25030032  -0.00226627  0.24592666  1
  Co  Co106  1  0.87730050  0.12944174  0.12748553  1
  Co  Co107  1  0.62572760  0.87818205  0.37852410  1
  Co  Co108  1  0.87573549  0.37347945  0.87997902  1
  Co  Co109  1  0.25004414  0.50065534  0.74522543  1
  Co  Co110  1  0.12834027  0.37706666  0.87620900  1
  Co  Co111  1  0.25018418  0.00085429  0.50342629  1
  Co  Co112  1  0.24711039  0.75385432  0.74860648  1
  Co  Co113  1  0.25265086  0.50220714  0.00079425  1
  Co  Co114  1  0.12834367  0.12343617  0.87292894  1
  Co  Co115  1  0.75052946  0.74758513  0.50240818  1
  Co  Co116  1  0.87715804  0.87491590  0.62468670  1
  Co  Co117  1  0.24803698  0.50519120  0.50482197  1
  Co  Co118  1  0.87525223  0.37336274  0.37699764  1
  Co  Co119  1  0.74719650  0.24879214  0.00056849  1
  Co  Co120  1  0.62449604  0.62079746  0.62510995  1
  Co  Co121  1  0.13339189  0.37869402  0.37600481  1
  Co  Co122  1  0.24542212  0.24797579  0.24821453  1
  Co  Co123  1  0.37662787  0.12765295  0.12591236  1
  Co  Co124  1  0.49891803  0.25170110  0.25443774  1
  Co  Co125  1  0.12713522  0.11956780  0.37289487  1
  Co  Co126  1  0.12431180  0.12314789  0.62846619  1
  Co  Co127  1  0.87749060  0.37213274  0.62096751  1
