# generated using pymatgen
data_Fe45Co19
_symmetry_space_group_name_H-M   'P 1'
_cell_length_a   11.41470820
_cell_length_b   11.41747533
_cell_length_c   11.41503437
_cell_angle_alpha   89.99671537
_cell_angle_beta   89.99593749
_cell_angle_gamma   90.00021449
_symmetry_Int_Tables_number   1
_chemical_formula_structural   Fe45Co19
_chemical_formula_sum   'Fe90 Co38'
_cell_volume   1487.68888201
_cell_formula_units_Z   2
loop_
 _symmetry_equiv_pos_site_id
 _symmetry_equiv_pos_as_xyz
  1  'x, y, z'
loop_
 _atom_site_type_symbol
 _atom_site_label
 _atom_site_symmetry_multiplicity
 _atom_site_fract_x
 _atom_site_fract_y
 _atom_site_fract_z
 _atom_site_occupancy
  Fe  Fe0  1  0.74903447  0.49941662  0.50013468  1
  Fe  Fe1  1  0.87675396  0.12734777  0.87728591  1
  Fe  Fe2  1  0.62196097  0.37329750  0.12487430  1
  Fe  Fe3  1  0.00155824  -0.00069140  0.49898449  1
  Fe  Fe4  1  0.12678233  0.12567052  0.62303898  1
  Fe  Fe5  1  0.50076130  0.74970051  0.75156433  1
  Fe  Fe6  1  0.37682595  0.37162533  0.87732615  1
  Fe  Fe7  1  0.87418983  0.87458863  0.37402189  1
  Fe  Fe8  1  0.74968638  0.49710383  0.00116318  1
  Fe  Fe9  1  0.75149953  -0.00058087  0.00156743  1
  Fe  Fe10  1  0.62720996  0.87574398  0.62838129  1
  Fe  Fe11  1  0.50092534  0.49865843  0.74999620  1
  Fe  Fe12  1  0.74951783  0.24871595  0.25064323  1
  Fe  Fe13  1  0.12437314  0.87679782  0.12541179  1
  Fe  Fe14  1  0.00117903  0.74797895  0.75214071  1
  Fe  Fe15  1  0.12821588  0.12301729  0.37427742  1
  Fe  Fe16  1  0.25011444  0.24906175  0.75092806  1
  Fe  Fe17  1  0.62438485  0.12314478  0.12720709  1
  Fe  Fe18  1  -0.00028930  0.24964181  0.50025056  1
  Fe  Fe19  1  0.12383205  0.37346814  0.62703669  1
  Fe  Fe20  1  0.62477326  0.12303914  0.87567063  1
  Fe  Fe21  1  0.87689676  0.37424096  0.12603759  1
  Fe  Fe22  1  0.24810367  0.75384135  -0.00440258  1
  Fe  Fe23  1  0.87722471  0.87475594  0.87599815  1
  Fe  Fe24  1  0.24936197  0.49708838  -0.00128711  1
  Fe  Fe25  1  0.25368336  0.25191111  0.49578577  1
  Fe  Fe26  1  0.37552395  0.62671699  0.62472093  1
  Fe  Fe27  1  0.25008240  0.00085652  0.75096152  1
  Fe  Fe28  1  0.37521758  0.87604324  0.62551438  1
  Fe  Fe29  1  0.00273095  0.74968616  0.49515347  1
  Fe  Fe30  1  0.62383245  0.87780413  0.87557177  1
  Fe  Fe31  1  -0.00087971  0.50333139  0.25066624  1
  Fe  Fe32  1  0.87399881  0.62710300  0.62290861  1
  Fe  Fe33  1  0.49908454  0.50199825  0.24701720  1
  Fe  Fe34  1  0.00409275  0.24842512  0.24741463  1
  Fe  Fe35  1  0.87803467  0.62412803  0.87783289  1
  Fe  Fe36  1  0.74794122  0.25107933  -0.00022751  1
  Fe  Fe37  1  0.74927970  0.74886544  0.75241570  1
  Fe  Fe38  1  0.87539225  0.37491358  0.62570779  1
  Fe  Fe39  1  0.88050556  0.37353227  0.87421812  1
  Fe  Fe40  1  0.74788274  0.49903401  0.24963875  1
  Fe  Fe41  1  0.87160921  0.12357511  0.62496935  1
  Fe  Fe42  1  0.50190355  0.75267168  0.49832180  1
  Fe  Fe43  1  0.37543458  0.12348490  0.62073578  1
  Fe  Fe44  1  0.74681144  0.00206467  0.49809761  1
  Fe  Fe45  1  0.12566339  0.62443889  0.12235936  1
  Fe  Fe46  1  0.87529754  0.37396518  0.37410986  1
  Fe  Fe47  1  0.37684580  0.37411824  0.62518549  1
  Fe  Fe48  1  0.37595593  0.87876276  0.37441290  1
  Fe  Fe49  1  0.49667663  -0.00312755  0.00541652  1
  Fe  Fe50  1  0.25362755  0.50097813  0.24820272  1
  Fe  Fe51  1  0.49333029  0.24452851  0.25410119  1
  Fe  Fe52  1  0.50157790  0.24957107  0.75049844  1
  Fe  Fe53  1  0.37665521  0.62628185  0.87686995  1
  Fe  Fe54  1  -0.00206631  0.00068795  0.24892021  1
  Fe  Fe55  1  -0.00153282  0.00183459  0.75046671  1
  Fe  Fe56  1  0.12204843  0.12481305  0.87742124  1
  Fe  Fe57  1  0.87393363  0.87501178  0.62469104  1
  Fe  Fe58  1  0.62304554  0.37086940  0.37679389  1
  Fe  Fe59  1  0.74866343  0.25027015  0.75044570  1
  Fe  Fe60  1  0.74674463  0.75137149  0.49816073  1
  Fe  Fe61  1  0.24926680  0.74927122  0.25280045  1
  Fe  Fe62  1  0.25151225  -0.00316898  -0.00018309  1
  Fe  Fe63  1  0.37536130  0.37007249  0.12409360  1
  Fe  Fe64  1  0.49983308  0.00172406  0.74835914  1
  Fe  Fe65  1  0.50115540  0.49953902  0.50183958  1
  Fe  Fe66  1  0.24859757  0.75309593  0.49800397  1
  Fe  Fe67  1  0.24918697  0.75133390  0.75297948  1
  Fe  Fe68  1  0.62489902  0.62424517  0.37408082  1
  Fe  Fe69  1  0.24890241  0.49905513  0.75238633  1
  Fe  Fe70  1  0.12370458  0.87502210  0.62739263  1
  Fe  Fe71  1  0.25064016  0.49882198  0.50057089  1
  Fe  Fe72  1  0.62277423  0.62197733  0.87888247  1
  Fe  Fe73  1  0.37790610  0.63023430  0.12173141  1
  Fe  Fe74  1  0.24290522  0.25255536  0.00181320  1
  Fe  Fe75  1  0.00118982  0.74775896  0.25188456  1
  Fe  Fe76  1  0.87459206  0.87356068  0.12524955  1
  Fe  Fe77  1  0.12698674  0.37638653  0.37135759  1
  Fe  Fe78  1  0.74725609  0.74869284  0.24862559  1
  Fe  Fe79  1  0.74890651  0.50038214  0.74908913  1
  Fe  Fe80  1  0.12676665  0.62581303  0.62486318  1
  Fe  Fe81  1  0.87394907  0.62463263  0.12419057  1
  Fe  Fe82  1  0.62325808  0.88220646  0.36661001  1
  Fe  Fe83  1  0.87623997  0.12722360  0.12306970  1
  Fe  Fe84  1  0.25531179  0.00326285  0.24679836  1
  Fe  Fe85  1  0.74669501  0.75102097  0.00132821  1
  Fe  Fe86  1  0.37554009  0.62505006  0.37638718  1
  Fe  Fe87  1  0.37570406  0.12586349  0.87901687  1
  Fe  Fe88  1  0.87423085  0.12632573  0.37450140  1
  Fe  Fe89  1  -0.00016154  0.50209987  0.49859975  1
  Co  Co90  1  0.12224011  0.87836651  0.87422270  1
  Co  Co91  1  0.50273251  0.75463125  0.00036783  1
  Co  Co92  1  0.12595194  0.87903238  0.37036902  1
  Co  Co93  1  0.37268821  0.13128362  0.11789719  1
  Co  Co94  1  0.75497646  0.00341158  0.24864606  1
  Co  Co95  1  0.62593198  0.87854537  0.12889843  1
  Co  Co96  1  0.49697052  0.49774791  0.00210683  1
  Co  Co97  1  0.00185733  0.75059215  0.00153341  1
  Co  Co98  1  0.12606457  0.12054942  0.12492097  1
  Co  Co99  1  0.12814538  0.62166069  0.37492274  1
  Co  Co100  1  0.50159095  0.74937389  0.25075486  1
  Co  Co101  1  0.87106955  0.62577957  0.37475426  1
  Co  Co102  1  0.62429018  0.37715225  0.87533437  1
  Co  Co103  1  0.25296332  0.24710351  0.25283733  1
  Co  Co104  1  0.00123789  0.49730539  0.00119256  1
  Co  Co105  1  0.00382062  0.25213898  0.00470355  1
  Co  Co106  1  0.62479222  0.62634329  0.62531498  1
  Co  Co107  1  0.50576330  -0.00122200  0.50269325  1
  Co  Co108  1  0.50466404  0.24905557  -0.00073503  1
  Co  Co109  1  0.37600031  0.37918462  0.37384402  1
  Co  Co110  1  0.24669361  -0.00421197  0.50268379  1
  Co  Co111  1  -0.00281768  -0.00027345  0.00122551  1
  Co  Co112  1  0.37700275  0.87635530  0.87266468  1
  Co  Co113  1  0.12555454  0.37815915  0.13061750  1
  Co  Co114  1  0.37290779  0.86871928  0.12665563  1
  Co  Co115  1  0.12061322  0.37329870  0.87096325  1
  Co  Co116  1  0.49179011  0.00363732  0.24354858  1
  Co  Co117  1  0.62393884  0.62400093  0.12222418  1
  Co  Co118  1  0.37397587  0.11714554  0.38212491  1
  Co  Co119  1  0.62630437  0.12750379  0.62595384  1
  Co  Co120  1  0.62536483  0.37229167  0.62334769  1
  Co  Co121  1  0.49709727  0.24896282  0.49815013  1
  Co  Co122  1  0.75143864  -0.00002878  0.75234517  1
  Co  Co123  1  0.75117284  0.24765303  0.49892304  1
  Co  Co124  1  0.00114004  0.50324302  0.74853418  1
  Co  Co125  1  0.62311798  0.12381151  0.37151993  1
  Co  Co126  1  0.12492121  0.62347024  0.87732544  1
  Co  Co127  1  -0.00058327  0.24589361  0.74655880  1
