# generated using pymatgen
data_Fe45Co19
_symmetry_space_group_name_H-M   'P 1'
_cell_length_a   11.41581426
_cell_length_b   11.41448970
_cell_length_c   11.41552560
_cell_angle_alpha   90.00798898
_cell_angle_beta   89.99827100
_cell_angle_gamma   89.99970746
_symmetry_Int_Tables_number   1
_chemical_formula_structural   Fe45Co19
_chemical_formula_sum   'Fe90 Co38'
_cell_volume   1487.50797389
_cell_formula_units_Z   2
loop_
 _symmetry_equiv_pos_site_id
 _symmetry_equiv_pos_as_xyz
  1  'x, y, z'
loop_
 _atom_site_type_symbol
 _atom_site_label
 _atom_site_symmetry_multiplicity
 _atom_site_fract_x
 _atom_site_fract_y
 _atom_site_fract_z
 _atom_site_occupancy
  Fe  Fe0  1  0.37355880  0.12395901  0.12650026  1
  Fe  Fe1  1  0.62302050  0.62517709  0.87478167  1
  Fe  Fe2  1  0.50238705  -0.00122111  0.24907006  1
  Fe  Fe3  1  0.62804082  0.12519191  0.62321493  1
  Fe  Fe4  1  0.62820489  0.12608133  0.12486845  1
  Fe  Fe5  1  0.74925268  0.75192714  0.25518905  1
  Fe  Fe6  1  0.36976905  0.62797270  0.12803191  1
  Fe  Fe7  1  0.00035166  0.50087289  0.74858136  1
  Fe  Fe8  1  0.49914617  0.74827317  0.74676122  1
  Fe  Fe9  1  0.12197226  0.62793540  0.37310261  1
  Fe  Fe10  1  0.62606981  0.87410580  0.12525495  1
  Fe  Fe11  1  0.87194049  0.12457217  0.12772363  1
  Fe  Fe12  1  0.12329183  0.37588514  0.87702676  1
  Fe  Fe13  1  0.75199115  0.74894119  -0.00398324  1
  Fe  Fe14  1  0.49782898  0.49936936  0.00482060  1
  Fe  Fe15  1  0.00012238  0.50264527  0.50109367  1
  Fe  Fe16  1  -0.00062743  -0.00132232  0.00127498  1
  Fe  Fe17  1  0.25097318  0.50257896  0.49665804  1
  Fe  Fe18  1  0.12594713  0.62517320  0.87808153  1
  Fe  Fe19  1  0.49824084  -0.00217704  0.00169709  1
  Fe  Fe20  1  0.87568989  0.37447820  0.62157065  1
  Fe  Fe21  1  0.38065061  0.87293389  0.37389566  1
  Fe  Fe22  1  0.87821228  0.62991049  0.37600253  1
  Fe  Fe23  1  -0.00134275  0.74779323  0.00306574  1
  Fe  Fe24  1  0.12794123  0.12386599  0.62366219  1
  Fe  Fe25  1  0.37640230  0.12402911  0.37530006  1
  Fe  Fe26  1  0.25020098  0.50108520  0.25172652  1
  Fe  Fe27  1  0.00052495  0.75112117  0.74864393  1
  Fe  Fe28  1  0.87254127  0.87324222  0.12510362  1
  Fe  Fe29  1  0.87633203  0.37650572  0.87539194  1
  Fe  Fe30  1  0.12912467  0.87687672  0.62550736  1
  Fe  Fe31  1  -0.00215412  0.50415430  0.24720359  1
  Fe  Fe32  1  0.24843858  0.25006996  0.49636103  1
  Fe  Fe33  1  0.62951684  0.62488897  0.12517635  1
  Fe  Fe34  1  0.24896499  0.25040188  0.25195285  1
  Fe  Fe35  1  0.49973278  0.50071970  0.74617505  1
  Fe  Fe36  1  0.50136200  0.25117737  0.24713041  1
  Fe  Fe37  1  0.61933311  0.62523232  0.37481934  1
  Fe  Fe38  1  0.62411954  0.12372947  0.37549026  1
  Fe  Fe39  1  0.50027041  0.25074395  0.50097992  1
  Fe  Fe40  1  -0.00051975  0.24821808  0.74711075  1
  Fe  Fe41  1  0.87209235  0.62664360  0.62575836  1
  Fe  Fe42  1  0.12623237  0.12434143  0.12633242  1
  Fe  Fe43  1  0.74959965  -0.00022809  -0.00229778  1
  Fe  Fe44  1  0.11949838  0.87260782  0.37549251  1
  Fe  Fe45  1  0.49639438  0.75193968  0.00371650  1
  Fe  Fe46  1  0.86890222  0.37676889  0.12676718  1
  Fe  Fe47  1  0.74944738  0.50011152  0.75223093  1
  Fe  Fe48  1  0.12520994  0.87472928  0.87398283  1
  Fe  Fe49  1  0.25093235  0.74893547  0.49705061  1
  Fe  Fe50  1  0.49959370  0.74609628  0.50324779  1
  Fe  Fe51  1  0.37273646  0.12346310  0.62219656  1
  Fe  Fe52  1  0.25024469  0.24954991  0.75083085  1
  Fe  Fe53  1  0.62269224  0.37824032  0.37383396  1
  Fe  Fe54  1  -0.00114243  -0.00185998  0.24952588  1
  Fe  Fe55  1  0.37907145  0.37827714  0.37423509  1
  Fe  Fe56  1  0.50115193  0.00116834  0.74723893  1
  Fe  Fe57  1  0.74979489  -0.00422315  0.25445593  1
  Fe  Fe58  1  0.12353018  0.12431343  0.87591019  1
  Fe  Fe59  1  0.25076137  0.25088462  0.00056573  1
  Fe  Fe60  1  0.24904914  -0.00291718  0.25411531  1
  Fe  Fe61  1  0.12590613  0.37695450  0.12423829  1
  Fe  Fe62  1  0.75064248  0.75193454  0.75224296  1
  Fe  Fe63  1  0.62588582  0.87316988  0.62294010  1
  Fe  Fe64  1  0.62641611  0.37586169  0.62366686  1
  Fe  Fe65  1  -0.00256555  0.25056743  0.25139633  1
  Fe  Fe66  1  0.37865797  0.12656792  0.87530546  1
  Fe  Fe67  1  0.63102755  0.37551437  0.12484235  1
  Fe  Fe68  1  -0.00016694  0.00298986  0.50106230  1
  Fe  Fe69  1  0.74942484  0.50318580  0.49734773  1
  Fe  Fe70  1  0.75351326  0.25014399  0.49534778  1
  Fe  Fe71  1  0.62259168  0.87423414  0.87547809  1
  Fe  Fe72  1  0.12826811  0.62453322  0.62563685  1
  Fe  Fe73  1  0.37207943  0.87567609  0.62622775  1
  Fe  Fe74  1  0.74983063  -0.00330177  0.49648430  1
  Fe  Fe75  1  0.37798890  0.37253057  0.87562658  1
  Fe  Fe76  1  0.25071823  0.50027469  0.75232587  1
  Fe  Fe77  1  0.37375229  0.37643767  0.62345044  1
  Fe  Fe78  1  0.37461326  0.62729173  0.87514069  1
  Fe  Fe79  1  0.87342587  0.87556041  0.62401973  1
  Fe  Fe80  1  0.62191932  0.37318155  0.87705251  1
  Fe  Fe81  1  0.25307485  -0.00317435  -0.00182543  1
  Fe  Fe82  1  -0.00348163  0.24905925  0.00210709  1
  Fe  Fe83  1  0.75034384  0.25015080  0.75141605  1
  Fe  Fe84  1  0.12086010  0.37515828  0.37551686  1
  Fe  Fe85  1  0.12504768  0.37485657  0.62293464  1
  Fe  Fe86  1  0.87520630  0.12041935  0.87159264  1
  Fe  Fe87  1  0.62295183  0.12684883  0.87515678  1
  Fe  Fe88  1  -0.00312928  0.50408014  0.00373972  1
  Fe  Fe89  1  0.12802766  0.87270556  0.12560104  1
  Co  Co90  1  0.50044097  0.25130138  0.00613874  1
  Co  Co91  1  0.74605814  -0.00322779  0.75086106  1
  Co  Co92  1  0.50043340  0.49975648  0.24314095  1
  Co  Co93  1  0.86824165  0.62635250  0.12649625  1
  Co  Co94  1  0.12325074  0.12499288  0.37286790  1
  Co  Co95  1  0.13136763  0.62568280  0.12371484  1
  Co  Co96  1  0.50034932  -0.00045249  0.50244849  1
  Co  Co97  1  0.50207929  0.74902752  0.24582752  1
  Co  Co98  1  0.75198646  0.24853278  -0.00305142  1
  Co  Co99  1  0.88037645  0.87217101  0.37691923  1
  Co  Co100  1  0.75038816  0.50319113  0.25596333  1
  Co  Co101  1  0.00200975  -0.00125186  0.74745503  1
  Co  Co102  1  0.37748690  0.87371197  0.87015723  1
  Co  Co103  1  0.87697415  0.87601547  0.87551036  1
  Co  Co104  1  0.25267792  0.75471049  -0.00092216  1
  Co  Co105  1  0.25113247  0.00186275  0.75338300  1
  Co  Co106  1  0.62902317  0.62522122  0.62661864  1
  Co  Co107  1  0.87678313  0.62563564  0.87230862  1
  Co  Co108  1  0.37427317  0.87595306  0.12968621  1
  Co  Co109  1  0.37137625  0.37377021  0.12735231  1
  Co  Co110  1  0.74990283  0.25049402  0.25462735  1
  Co  Co111  1  0.87115750  0.12324513  0.62588227  1
  Co  Co112  1  0.00242574  0.74954687  0.50598508  1
  Co  Co113  1  0.87595117  0.12226404  0.37326282  1
  Co  Co114  1  0.75045745  0.50138358  -0.00450042  1
  Co  Co115  1  0.74801006  0.74981541  0.49631155  1
  Co  Co116  1  0.24950813  -0.00241484  0.49447368  1
  Co  Co117  1  0.61910500  0.87361850  0.37665127  1
  Co  Co118  1  0.25285154  0.49864730  -0.00129694  1
  Co  Co119  1  0.87809290  0.37760624  0.37628394  1
  Co  Co120  1  0.38012489  0.62381722  0.37281535  1
  Co  Co121  1  -0.00013625  0.74845691  0.24379434  1
  Co  Co122  1  -0.00069192  0.24592251  0.50002132  1
  Co  Co123  1  0.50093313  0.50188903  0.50432844  1
  Co  Co124  1  0.37181948  0.62388015  0.62472185  1
  Co  Co125  1  0.50039951  0.24904394  0.74444046  1
  Co  Co126  1  0.24929666  0.75180136  0.25555223  1
  Co  Co127  1  0.24863557  0.74865113  0.75048793  1
