# generated using pymatgen
data_Fe45Co19
_symmetry_space_group_name_H-M   'P 1'
_cell_length_a   11.41635960
_cell_length_b   11.41518486
_cell_length_c   11.41526596
_cell_angle_alpha   89.99365696
_cell_angle_beta   90.00061579
_cell_angle_gamma   89.99558474
_symmetry_Int_Tables_number   1
_chemical_formula_structural   Fe45Co19
_chemical_formula_sum   'Fe90 Co38'
_cell_volume   1487.63579406
_cell_formula_units_Z   2
loop_
 _symmetry_equiv_pos_site_id
 _symmetry_equiv_pos_as_xyz
  1  'x, y, z'
loop_
 _atom_site_type_symbol
 _atom_site_label
 _atom_site_symmetry_multiplicity
 _atom_site_fract_x
 _atom_site_fract_y
 _atom_site_fract_z
 _atom_site_occupancy
  Fe  Fe0  1  0.75209467  0.74724020  0.25233697  1
  Fe  Fe1  1  -0.00262888  0.25362846  0.50163122  1
  Fe  Fe2  1  0.75433860  0.50020305  0.75323206  1
  Fe  Fe3  1  0.12619876  0.12594609  0.37431942  1
  Fe  Fe4  1  0.37575764  0.37642771  0.87249021  1
  Fe  Fe5  1  0.62630949  0.62397359  0.87530645  1
  Fe  Fe6  1  0.49964839  0.74745231  0.75016941  1
  Fe  Fe7  1  0.37720714  0.37195051  0.37472717  1
  Fe  Fe8  1  0.25256192  0.74854469  0.24665675  1
  Fe  Fe9  1  0.87523179  0.12680360  0.87586733  1
  Fe  Fe10  1  0.87506883  0.62471430  0.62124256  1
  Fe  Fe11  1  0.62397481  0.62758328  0.37651631  1
  Fe  Fe12  1  0.37355051  0.62590011  0.62353264  1
  Fe  Fe13  1  0.24815790  0.75145511  0.74973155  1
  Fe  Fe14  1  0.75051929  0.25548767  0.00054411  1
  Fe  Fe15  1  -0.00281121  0.74834454  0.25266973  1
  Fe  Fe16  1  0.37199258  0.62381592  0.87818261  1
  Fe  Fe17  1  0.87590139  0.12376400  0.12516961  1
  Fe  Fe18  1  0.75170204  0.74915272  0.00130828  1
  Fe  Fe19  1  0.24704713  0.50089091  0.75040655  1
  Fe  Fe20  1  0.37401483  0.37528698  0.62764291  1
  Fe  Fe21  1  0.12480138  0.37545765  0.12683214  1
  Fe  Fe22  1  0.12683692  0.37288521  0.37442490  1
  Fe  Fe23  1  0.37609250  0.12444431  0.12038574  1
  Fe  Fe24  1  0.24998395  0.49974340  0.25026583  1
  Fe  Fe25  1  -0.00041415  0.49912474  -0.00047564  1
  Fe  Fe26  1  0.62515996  0.87241800  0.37490821  1
  Fe  Fe27  1  0.50228239  0.00217743  0.75375822  1
  Fe  Fe28  1  0.50064587  0.00125037  0.49991145  1
  Fe  Fe29  1  0.25157548  0.24989247  0.50156700  1
  Fe  Fe30  1  0.25136930  0.49871278  0.49906178  1
  Fe  Fe31  1  0.62587010  0.62480377  0.62527679  1
  Fe  Fe32  1  0.87459210  0.12365313  0.62348395  1
  Fe  Fe33  1  0.50166925  0.24808386  0.75331979  1
  Fe  Fe34  1  0.74811168  0.49726290  0.49752869  1
  Fe  Fe35  1  0.62511455  0.87478801  0.12584642  1
  Fe  Fe36  1  0.37608070  0.87411650  0.37424620  1
  Fe  Fe37  1  0.87625805  0.87317043  0.87560596  1
  Fe  Fe38  1  0.37490877  0.87548433  0.87549706  1
  Fe  Fe39  1  0.62550872  0.37503538  0.62714228  1
  Fe  Fe40  1  0.74838639  0.00428724  0.25110247  1
  Fe  Fe41  1  0.75072112  0.74968991  0.74957435  1
  Fe  Fe42  1  -0.00171834  0.74972480  0.00216829  1
  Fe  Fe43  1  0.50072051  0.49772107  0.50112570  1
  Fe  Fe44  1  0.24579686  -0.00025324  0.75273526  1
  Fe  Fe45  1  0.12591664  0.87443764  0.37294042  1
  Fe  Fe46  1  0.87516387  0.62001203  0.12804778  1
  Fe  Fe47  1  -0.00072326  0.24970415  0.24931582  1
  Fe  Fe48  1  0.12490910  0.62553291  0.37636563  1
  Fe  Fe49  1  0.87150415  0.37710160  0.36813963  1
  Fe  Fe50  1  0.75042167  -0.00090666  -0.00015782  1
  Fe  Fe51  1  0.74981473  -0.00069037  0.75193910  1
  Fe  Fe52  1  0.50069021  0.00353588  0.25056607  1
  Fe  Fe53  1  0.00042237  0.49648213  0.49970857  1
  Fe  Fe54  1  0.75179668  0.49673665  0.00056687  1
  Fe  Fe55  1  0.12249889  0.87712481  0.12590998  1
  Fe  Fe56  1  0.11935549  0.37366442  0.87018348  1
  Fe  Fe57  1  0.00196933  0.00077284  0.75304290  1
  Fe  Fe58  1  0.12754925  0.62312443  0.12341887  1
  Fe  Fe59  1  0.74847951  0.00060097  0.49850869  1
  Fe  Fe60  1  0.12613686  0.62712832  0.87837320  1
  Fe  Fe61  1  0.50115520  0.49781019  -0.00128049  1
  Fe  Fe62  1  0.62227105  0.12831254  0.12010362  1
  Fe  Fe63  1  0.87408670  0.12625013  0.37481291  1
  Fe  Fe64  1  -0.00071156  0.25044316  0.00211941  1
  Fe  Fe65  1  0.00068628  0.74828219  0.74872844  1
  Fe  Fe66  1  0.24759336  0.24834270  0.75031439  1
  Fe  Fe67  1  0.12552271  0.62516031  0.62083824  1
  Fe  Fe68  1  0.24978626  0.25228205  -0.00224705  1
  Fe  Fe69  1  0.62524295  0.87361556  0.62440300  1
  Fe  Fe70  1  0.37739567  0.87740716  0.12564204  1
  Fe  Fe71  1  0.87576117  0.87506912  0.62294570  1
  Fe  Fe72  1  0.37474860  0.12371505  0.62633833  1
  Fe  Fe73  1  0.12494112  0.12276985  0.12525859  1
  Fe  Fe74  1  0.49795197  0.74919919  0.00125979  1
  Fe  Fe75  1  0.62688144  0.12719081  0.62460630  1
  Fe  Fe76  1  0.37631234  0.37624632  0.12452268  1
  Fe  Fe77  1  0.00066029  -0.00248454  0.49698853  1
  Fe  Fe78  1  0.62507322  0.87382255  0.87643151  1
  Fe  Fe79  1  0.87501549  0.87779008  0.12837629  1
  Fe  Fe80  1  0.12396061  0.12523559  0.62367109  1
  Fe  Fe81  1  0.24973419  -0.00064576  0.49874734  1
  Fe  Fe82  1  0.62401259  0.62505582  0.12447197  1
  Fe  Fe83  1  0.24709693  -0.00134203  -0.00206863  1
  Fe  Fe84  1  0.75216347  0.25140562  0.75047385  1
  Fe  Fe85  1  0.50317961  0.49843549  0.25095774  1
  Fe  Fe86  1  0.62303802  0.13350269  0.37728689  1
  Fe  Fe87  1  0.37478977  0.87522753  0.62478426  1
  Fe  Fe88  1  0.37713916  0.62719545  0.37469176  1
  Fe  Fe89  1  0.25295219  0.24760400  0.24889128  1
  Co  Co90  1  0.49811247  0.50278802  0.74923285  1
  Co  Co91  1  0.87621250  0.37844847  0.12926491  1
  Co  Co92  1  0.49697981  0.24850433  0.24742880  1
  Co  Co93  1  0.49949006  0.25262947  -0.00512322  1
  Co  Co94  1  0.49896549  0.74916508  0.24696787  1
  Co  Co95  1  -0.00088182  0.00055895  -0.00178276  1
  Co  Co96  1  0.25139351  0.00143813  0.24964663  1
  Co  Co97  1  0.87181364  0.87702907  0.37417618  1
  Co  Co98  1  0.62323920  0.37255185  0.12644512  1
  Co  Co99  1  0.12333830  0.12784116  0.87618018  1
  Co  Co100  1  0.62548936  0.37790196  0.87230303  1
  Co  Co101  1  0.25222171  0.75302875  0.00428515  1
  Co  Co102  1  0.37299552  0.12410321  0.87626668  1
  Co  Co103  1  0.12605326  0.37540540  0.62598818  1
  Co  Co104  1  0.00049724  0.50500672  0.74892828  1
  Co  Co105  1  0.00463180  0.50024038  0.25063508  1
  Co  Co106  1  0.25053019  0.75136431  0.49916975  1
  Co  Co107  1  -0.00182415  0.24769315  0.74473721  1
  Co  Co108  1  0.62515553  0.36836876  0.37462219  1
  Co  Co109  1  0.24724157  0.49482312  -0.00185591  1
  Co  Co110  1  0.75013716  0.24853509  0.24567597  1
  Co  Co111  1  0.12419082  0.87503348  0.62435191  1
  Co  Co112  1  0.62896218  0.12574511  0.87758482  1
  Co  Co113  1  0.49777092  0.25154457  0.50498576  1
  Co  Co114  1  0.87501096  0.37808730  0.62792460  1
  Co  Co115  1  0.75441584  0.25304984  0.50177524  1
  Co  Co116  1  0.87986278  0.37387686  0.87371007  1
  Co  Co117  1  0.75131072  0.74978970  0.49943197  1
  Co  Co118  1  0.37574090  0.12566116  0.37698575  1
  Co  Co119  1  0.87520155  0.61957789  0.37562186  1
  Co  Co120  1  0.50155841  -0.00033848  -0.00252445  1
  Co  Co121  1  0.49992185  0.75006504  0.50275615  1
  Co  Co122  1  0.87502024  0.62580737  0.87665102  1
  Co  Co123  1  0.12303138  0.87171275  0.87741213  1
  Co  Co124  1  -0.00157228  0.75182783  0.49710291  1
  Co  Co125  1  0.74338964  0.50089736  0.24951049  1
  Co  Co126  1  0.37470678  0.61922268  0.12363918  1
  Co  Co127  1  -0.00085301  0.00151336  0.25197279  1
