# generated using pymatgen
data_Fe45Co19
_symmetry_space_group_name_H-M   'P 1'
_cell_length_a   11.41592613
_cell_length_b   11.41435594
_cell_length_c   11.41553859
_cell_angle_alpha   90.01089547
_cell_angle_beta   89.99926816
_cell_angle_gamma   90.00670358
_symmetry_Int_Tables_number   1
_chemical_formula_structural   Fe45Co19
_chemical_formula_sum   'Fe90 Co38'
_cell_volume   1487.50679052
_cell_formula_units_Z   2
loop_
 _symmetry_equiv_pos_site_id
 _symmetry_equiv_pos_as_xyz
  1  'x, y, z'
loop_
 _atom_site_type_symbol
 _atom_site_label
 _atom_site_symmetry_multiplicity
 _atom_site_fract_x
 _atom_site_fract_y
 _atom_site_fract_z
 _atom_site_occupancy
  Fe  Fe0  1  0.12513167  0.12333940  0.62468478  1
  Fe  Fe1  1  0.74949524  0.25115743  0.50024726  1
  Fe  Fe2  1  0.12770088  0.62455227  0.87805339  1
  Fe  Fe3  1  0.00253959  -0.00348432  0.49938687  1
  Fe  Fe4  1  0.62385088  0.12410478  0.62426569  1
  Fe  Fe5  1  0.00382420  0.75219493  0.49887437  1
  Fe  Fe6  1  0.12397938  0.37518111  0.37083871  1
  Fe  Fe7  1  0.74882500  0.49934252  0.50059481  1
  Fe  Fe8  1  0.12199968  0.12401779  0.37224838  1
  Fe  Fe9  1  0.25432653  0.50071322  0.24648409  1
  Fe  Fe10  1  0.87395868  0.86959468  0.12061802  1
  Fe  Fe11  1  0.62426146  0.87465120  0.87221959  1
  Fe  Fe12  1  0.37607664  0.37432017  0.37411633  1
  Fe  Fe13  1  0.24953617  0.25150112  0.50035135  1
  Fe  Fe14  1  0.12876293  0.37773661  0.62615349  1
  Fe  Fe15  1  0.12312245  0.87392733  0.13238462  1
  Fe  Fe16  1  0.12293512  0.12299124  0.12654616  1
  Fe  Fe17  1  0.62641569  0.37362764  0.87288900  1
  Fe  Fe18  1  -0.00009429  0.25069962  0.00175875  1
  Fe  Fe19  1  0.12635258  0.87503069  0.87404124  1
  Fe  Fe20  1  0.62511792  0.62493391  0.37499271  1
  Fe  Fe21  1  0.25157431  0.00157313  0.75105923  1
  Fe  Fe22  1  0.62248739  0.37384506  0.62452872  1
  Fe  Fe23  1  0.24781314  0.75332959  0.49576813  1
  Fe  Fe24  1  0.49948750  0.49879626  0.49850158  1
  Fe  Fe25  1  0.62720349  0.12637319  0.87462816  1
  Fe  Fe26  1  0.49778424  0.49893120  0.00115928  1
  Fe  Fe27  1  0.87652400  0.12533515  0.62388880  1
  Fe  Fe28  1  0.87394024  0.12744239  0.12401647  1
  Fe  Fe29  1  0.87631269  0.37469149  0.62477833  1
  Fe  Fe30  1  0.74775645  0.75132114  0.50276493  1
  Fe  Fe31  1  0.87549967  0.87302609  0.37606534  1
  Fe  Fe32  1  -0.00381770  0.50389021  0.24760942  1
  Fe  Fe33  1  0.24994445  0.75063961  0.00545988  1
  Fe  Fe34  1  0.24676063  -0.00364764  0.49605039  1
  Fe  Fe35  1  0.37266011  0.62346465  0.62199990  1
  Fe  Fe36  1  0.75102141  0.75115733  0.74919850  1
  Fe  Fe37  1  0.12793658  0.37526651  0.87612823  1
  Fe  Fe38  1  0.50304455  0.24948849  0.25256862  1
  Fe  Fe39  1  0.62355974  0.12238759  0.12481358  1
  Fe  Fe40  1  0.49494924  0.50117087  0.75016509  1
  Fe  Fe41  1  0.00022751  0.75115157  0.75059909  1
  Fe  Fe42  1  0.25113423  -0.00012227  0.00238643  1
  Fe  Fe43  1  0.75102340  0.50042463  0.74976818  1
  Fe  Fe44  1  0.75076348  0.50179911  0.25140013  1
  Fe  Fe45  1  -0.00258824  -0.00224497  0.75163443  1
  Fe  Fe46  1  0.50087069  0.24928005  -0.00129198  1
  Fe  Fe47  1  0.50125790  0.75369518  0.25143822  1
  Fe  Fe48  1  0.12515818  0.12486528  0.87577886  1
  Fe  Fe49  1  0.37183254  0.37334956  0.87431716  1
  Fe  Fe50  1  -0.00031612  0.50135807  0.00145622  1
  Fe  Fe51  1  0.75171981  0.74792269  0.24920860  1
  Fe  Fe52  1  0.87309149  0.37408001  0.12577837  1
  Fe  Fe53  1  0.37455562  0.87443070  0.87618227  1
  Fe  Fe54  1  0.49678600  0.24920130  0.74893637  1
  Fe  Fe55  1  0.87258729  0.37146327  0.87515692  1
  Fe  Fe56  1  0.37429212  0.87586490  0.62395604  1
  Fe  Fe57  1  0.87652312  0.62593406  0.62281642  1
  Fe  Fe58  1  0.24844701  0.24872369  0.24764425  1
  Fe  Fe59  1  0.74818108  0.50060234  -0.00093985  1
  Fe  Fe60  1  0.50195016  0.75259963  0.00104119  1
  Fe  Fe61  1  0.62325186  0.62575560  0.62668703  1
  Fe  Fe62  1  0.37448334  0.12449043  0.62257370  1
  Fe  Fe63  1  0.87531081  0.37317115  0.37421782  1
  Fe  Fe64  1  0.37501876  0.12351328  0.37440999  1
  Fe  Fe65  1  0.62464572  0.37545360  0.12704307  1
  Fe  Fe66  1  0.62644018  0.12504886  0.37573994  1
  Fe  Fe67  1  0.62179350  0.62562238  0.87311646  1
  Fe  Fe68  1  -0.00097239  -0.00206825  -0.00043570  1
  Fe  Fe69  1  0.50157919  -0.00333557  0.49680166  1
  Fe  Fe70  1  0.00001236  0.50135875  0.75189402  1
  Fe  Fe71  1  0.12680832  0.62417731  0.62435831  1
  Fe  Fe72  1  0.37830372  0.87893542  0.12880657  1
  Fe  Fe73  1  0.37897746  0.12301281  0.12536573  1
  Fe  Fe74  1  0.25366689  0.50143456  0.00506457  1
  Fe  Fe75  1  0.74973521  -0.00098141  -0.00152484  1
  Fe  Fe76  1  0.00132848  0.24958757  0.74939942  1
  Fe  Fe77  1  0.12575047  0.62624143  0.36996789  1
  Fe  Fe78  1  0.87714372  0.12778046  0.37487923  1
  Fe  Fe79  1  0.24974988  0.24887464  0.00303407  1
  Fe  Fe80  1  0.75394068  -0.00096377  0.75095759  1
  Fe  Fe81  1  0.00209846  0.49992179  0.49863966  1
  Fe  Fe82  1  0.49746842  0.00057441  0.75230858  1
  Fe  Fe83  1  0.50128663  0.75350682  0.50013498  1
  Fe  Fe84  1  0.75151354  -0.00109726  0.24950796  1
  Fe  Fe85  1  0.87458472  0.62885904  0.87894818  1
  Fe  Fe86  1  0.74942616  -0.00227635  0.50067742  1
  Fe  Fe87  1  0.37619354  0.62591408  0.37348079  1
  Fe  Fe88  1  0.62287482  0.62388454  0.12642215  1
  Fe  Fe89  1  0.25254817  0.74739617  0.75012028  1
  Co  Co90  1  0.24914167  0.49988864  0.49524515  1
  Co  Co91  1  0.37540797  0.62684353  0.88022216  1
  Co  Co92  1  -0.00547419  -0.00037591  0.24813738  1
  Co  Co93  1  0.12691792  0.87511530  0.62816731  1
  Co  Co94  1  0.49959217  0.49873950  0.25113580  1
  Co  Co95  1  0.87596318  0.87447463  0.62286071  1
  Co  Co96  1  0.12592378  0.62489311  0.12839173  1
  Co  Co97  1  0.87291896  0.62689244  0.11806194  1
  Co  Co98  1  0.74784802  0.24928649  0.25057930  1
  Co  Co99  1  0.62552292  0.87705800  0.12640855  1
  Co  Co100  1  0.25050967  0.00224533  0.24997385  1
  Co  Co101  1  0.00607141  0.74997528  0.00117180  1
  Co  Co102  1  0.00050818  0.24985574  0.24723634  1
  Co  Co103  1  0.49830665  0.25006811  0.49899985  1
  Co  Co104  1  0.37761729  0.37117582  0.12615397  1
  Co  Co105  1  0.74989319  0.24933858  0.74679628  1
  Co  Co106  1  0.25367231  0.75057853  0.24940699  1
  Co  Co107  1  0.25181307  0.50343263  0.75203543  1
  Co  Co108  1  0.49619015  0.74943870  0.74866776  1
  Co  Co109  1  0.12231398  0.87490364  0.36653317  1
  Co  Co110  1  0.62396014  0.87687836  0.62812604  1
  Co  Co111  1  0.12448863  0.37785646  0.12522845  1
  Co  Co112  1  0.37272667  0.37704683  0.62426821  1
  Co  Co113  1  0.74797338  0.25022347  0.00201647  1
  Co  Co114  1  0.62521365  0.37585738  0.37610048  1
  Co  Co115  1  0.62879938  0.87403256  0.37414182  1
  Co  Co116  1  0.37296667  0.12643028  0.87751808  1
  Co  Co117  1  -0.00599704  0.74567666  0.24919372  1
  Co  Co118  1  0.87507102  0.12769255  0.87620074  1
  Co  Co119  1  0.87523951  0.87107272  0.87912892  1
  Co  Co120  1  0.00277913  0.25164404  0.50064252  1
  Co  Co121  1  0.50076720  -0.00093084  -0.00322488  1
  Co  Co122  1  0.50288331  -0.00057826  0.25436538  1
  Co  Co123  1  0.74224512  0.74907503  -0.00110636  1
  Co  Co124  1  0.24961237  0.24811220  0.74777898  1
  Co  Co125  1  0.37436303  0.87668798  0.37348291  1
  Co  Co126  1  0.87390559  0.62523322  0.38081519  1
  Co  Co127  1  0.37932350  0.62737431  0.12637181  1
