# generated using pymatgen
data_Fe45Co19
_symmetry_space_group_name_H-M   'P 1'
_cell_length_a   11.41500175
_cell_length_b   11.41413025
_cell_length_c   11.41495431
_cell_angle_alpha   90.00090707
_cell_angle_beta   90.00399558
_cell_angle_gamma   90.00992576
_symmetry_Int_Tables_number   1
_chemical_formula_structural   Fe45Co19
_chemical_formula_sum   'Fe90 Co38'
_cell_volume   1487.28081709
_cell_formula_units_Z   2
loop_
 _symmetry_equiv_pos_site_id
 _symmetry_equiv_pos_as_xyz
  1  'x, y, z'
loop_
 _atom_site_type_symbol
 _atom_site_label
 _atom_site_symmetry_multiplicity
 _atom_site_fract_x
 _atom_site_fract_y
 _atom_site_fract_z
 _atom_site_occupancy
  Fe  Fe0  1  0.87436061  0.12654595  0.37666947  1
  Fe  Fe1  1  0.62358162  0.62118003  0.12649184  1
  Fe  Fe2  1  0.62393772  0.37130084  0.37530737  1
  Fe  Fe3  1  0.87776049  0.12494807  0.12232701  1
  Fe  Fe4  1  0.62428205  0.87794083  0.37419948  1
  Fe  Fe5  1  0.87491557  0.62451304  0.62451665  1
  Fe  Fe6  1  0.37694614  0.87511292  0.12317067  1
  Fe  Fe7  1  0.74994876  0.24950142  0.24849750  1
  Fe  Fe8  1  0.12356257  0.12299424  0.63124103  1
  Fe  Fe9  1  0.74947591  0.75256489  0.24771517  1
  Fe  Fe10  1  0.62014927  0.36981519  0.62404481  1
  Fe  Fe11  1  0.49823277  0.24829553  0.25113040  1
  Fe  Fe12  1  0.50109412  0.00324339  0.49837677  1
  Fe  Fe13  1  0.25009519  0.24820463  0.50216212  1
  Fe  Fe14  1  0.37469257  0.37539831  0.12756036  1
  Fe  Fe15  1  0.24812368  0.75182492  0.24830314  1
  Fe  Fe16  1  0.87366187  0.62458804  0.87630975  1
  Fe  Fe17  1  0.11951559  0.88076197  0.12028793  1
  Fe  Fe18  1  0.49867496  0.00165735  -0.00233399  1
  Fe  Fe19  1  0.00189674  0.49957008  0.24936704  1
  Fe  Fe20  1  0.50210023  0.74872932  0.00027808  1
  Fe  Fe21  1  0.87673974  0.12681070  0.62674168  1
  Fe  Fe22  1  0.00069466  0.49910763  0.50209059  1
  Fe  Fe23  1  0.37300951  0.12236125  0.37417470  1
  Fe  Fe24  1  0.62545999  0.87561715  0.87518271  1
  Fe  Fe25  1  0.25303661  0.75478476  0.74940423  1
  Fe  Fe26  1  0.00245928  0.24629555  0.25133211  1
  Fe  Fe27  1  0.62612134  0.62507089  0.37600772  1
  Fe  Fe28  1  0.75068880  0.00156165  -0.00190688  1
  Fe  Fe29  1  0.62578513  0.62254986  0.87234944  1
  Fe  Fe30  1  0.49829000  0.75042875  0.50107096  1
  Fe  Fe31  1  0.12582676  0.87772535  0.37506922  1
  Fe  Fe32  1  0.74957226  0.49708057  0.24980435  1
  Fe  Fe33  1  0.50125987  0.49700552  -0.00141107  1
  Fe  Fe34  1  0.87557040  0.87616134  0.37631568  1
  Fe  Fe35  1  0.75040643  0.75215293  0.50270481  1
  Fe  Fe36  1  0.37862589  0.12741154  0.62716440  1
  Fe  Fe37  1  0.87677786  0.37160826  0.12273547  1
  Fe  Fe38  1  0.37098049  0.12752518  0.11983911  1
  Fe  Fe39  1  0.37265921  0.37341598  0.87107619  1
  Fe  Fe40  1  0.24973340  -0.00001391  0.24617938  1
  Fe  Fe41  1  0.37312034  0.62543593  0.37416642  1
  Fe  Fe42  1  0.75125782  -0.00036391  0.24845525  1
  Fe  Fe43  1  0.74983504  0.49747565  0.50225855  1
  Fe  Fe44  1  0.12580519  0.62512476  0.37504636  1
  Fe  Fe45  1  0.25150180  0.75446078  0.50229314  1
  Fe  Fe46  1  0.12666861  0.12387425  0.37424136  1
  Fe  Fe47  1  0.12707798  0.62594819  0.62723133  1
  Fe  Fe48  1  0.87301813  0.37177596  0.87579875  1
  Fe  Fe49  1  0.00052580  0.75144829  0.50193549  1
  Fe  Fe50  1  0.62453957  0.12584280  0.12468410  1
  Fe  Fe51  1  0.87640185  0.62391811  0.12428586  1
  Fe  Fe52  1  0.37384628  0.62242812  0.12564928  1
  Fe  Fe53  1  0.00419398  0.24427708  -0.00494418  1
  Fe  Fe54  1  0.49938997  0.00071034  0.24841285  1
  Fe  Fe55  1  0.12324173  0.87899251  0.62958376  1
  Fe  Fe56  1  0.00061488  0.75049432  0.24814105  1
  Fe  Fe57  1  0.00239144  0.50007303  -0.00056125  1
  Fe  Fe58  1  0.12626730  0.62632048  0.87389108  1
  Fe  Fe59  1  0.12453644  0.37272958  0.62725939  1
  Fe  Fe60  1  0.74732153  0.74886741  0.00158305  1
  Fe  Fe61  1  0.25154828  -0.00052628  0.50398767  1
  Fe  Fe62  1  0.74874190  0.25077095  0.74666810  1
  Fe  Fe63  1  0.49885016  0.74939743  0.74884586  1
  Fe  Fe64  1  0.12642769  0.37180946  0.12688912  1
  Fe  Fe65  1  0.50219866  0.25254107  -0.00333974  1
  Fe  Fe66  1  0.75076870  0.49734854  0.74651931  1
  Fe  Fe67  1  0.12658997  0.37258998  0.87120304  1
  Fe  Fe68  1  0.62820396  0.12697822  0.87354917  1
  Fe  Fe69  1  0.75104342  0.75292584  0.74806722  1
  Fe  Fe70  1  0.49863487  0.50121262  0.50226044  1
  Fe  Fe71  1  0.62307580  0.87840442  0.62664319  1
  Fe  Fe72  1  0.50122735  0.75094071  0.24982134  1
  Fe  Fe73  1  0.74763698  0.00402319  0.50298576  1
  Fe  Fe74  1  -0.00327787  0.75234256  0.75152032  1
  Fe  Fe75  1  0.24807267  0.75232554  0.00009428  1
  Fe  Fe76  1  0.49662487  0.00235148  0.75473990  1
  Fe  Fe77  1  0.12579071  0.37316707  0.37522877  1
  Fe  Fe78  1  0.37361325  0.62486039  0.87390340  1
  Fe  Fe79  1  0.24903579  0.49834600  -0.00069127  1
  Fe  Fe80  1  0.25067660  0.49935461  0.50323991  1
  Fe  Fe81  1  0.87922083  0.87797950  0.11969597  1
  Fe  Fe82  1  0.49863708  0.50007415  0.74780757  1
  Fe  Fe83  1  0.37425013  0.37521541  0.37513801  1
  Fe  Fe84  1  0.74750501  0.49656788  0.00165594  1
  Fe  Fe85  1  -0.00520032  0.00106447  0.75962189  1
  Fe  Fe86  1  0.87503616  0.62492757  0.37540575  1
  Fe  Fe87  1  -0.00127395  0.49867276  0.74997693  1
  Fe  Fe88  1  0.87626683  0.37196486  0.37854644  1
  Fe  Fe89  1  -0.00039492  0.00154226  0.49941085  1
  Co  Co90  1  0.36919375  0.12831852  0.87902703  1
  Co  Co91  1  0.62590051  0.62554268  0.62513863  1
  Co  Co92  1  0.13488804  0.12388817  0.87235991  1
  Co  Co93  1  0.25081732  -0.00355595  -0.00152478  1
  Co  Co94  1  0.25161342  0.24880324  0.74610208  1
  Co  Co95  1  0.62396838  0.87822738  0.12309331  1
  Co  Co96  1  0.12594958  0.12338334  0.12293245  1
  Co  Co97  1  0.25688535  -0.00220467  0.75109303  1
  Co  Co98  1  -0.00043071  0.00225747  0.25233383  1
  Co  Co99  1  0.00360624  0.24761534  0.50051950  1
  Co  Co100  1  0.62617521  0.12457311  0.37093303  1
  Co  Co101  1  0.24856263  0.49981650  0.25023521  1
  Co  Co102  1  0.62215768  0.37376666  0.12793737  1
  Co  Co103  1  0.37214810  0.62517947  0.62550063  1
  Co  Co104  1  0.74608443  0.25115701  0.00235120  1
  Co  Co105  1  0.87241217  0.87200708  0.88021237  1
  Co  Co106  1  0.24967431  0.49903030  0.74958942  1
  Co  Co107  1  0.25082705  0.24822475  0.25148561  1
  Co  Co108  1  0.37495012  0.87716485  0.37394179  1
  Co  Co109  1  0.87672601  0.87862695  0.62378414  1
  Co  Co110  1  0.49879704  0.24913310  0.75610327  1
  Co  Co111  1  0.24818997  0.25449858  -0.00032853  1
  Co  Co112  1  -0.00041686  0.00722325  -0.00980107  1
  Co  Co113  1  0.74777078  0.24628488  0.50262076  1
  Co  Co114  1  0.37927016  0.87776747  0.62424445  1
  Co  Co115  1  0.12649695  0.62349522  0.12384728  1
  Co  Co116  1  0.87734099  0.37042765  0.62347212  1
  Co  Co117  1  0.62081537  0.12639434  0.62929997  1
  Co  Co118  1  0.37706182  0.87284171  0.87767359  1
  Co  Co119  1  0.37685891  0.37168228  0.62529348  1
  Co  Co120  1  0.50043698  0.50053991  0.25217221  1
  Co  Co121  1  0.00180318  0.74795939  -0.00109355  1
  Co  Co122  1  0.49853546  0.24626890  0.49581349  1
  Co  Co123  1  0.00053247  0.24845608  0.75387171  1
  Co  Co124  1  0.62777481  0.37540038  0.87162145  1
  Co  Co125  1  0.86801233  0.13188465  0.87434295  1
  Co  Co126  1  0.12488167  0.87617484  0.87381411  1
  Co  Co127  1  0.75193598  -0.00061311  0.74963243  1
