# generated using pymatgen
data_Fe45Co19
_symmetry_space_group_name_H-M   'P 1'
_cell_length_a   11.41471433
_cell_length_b   11.41558397
_cell_length_c   11.41612268
_cell_angle_alpha   89.99181700
_cell_angle_beta   89.98763606
_cell_angle_gamma   89.99518978
_symmetry_Int_Tables_number   1
_chemical_formula_structural   Fe45Co19
_chemical_formula_sum   'Fe90 Co38'
_cell_volume   1487.58500341
_cell_formula_units_Z   2
loop_
 _symmetry_equiv_pos_site_id
 _symmetry_equiv_pos_as_xyz
  1  'x, y, z'
loop_
 _atom_site_type_symbol
 _atom_site_label
 _atom_site_symmetry_multiplicity
 _atom_site_fract_x
 _atom_site_fract_y
 _atom_site_fract_z
 _atom_site_occupancy
  Fe  Fe0  1  0.75103466  0.25151158  0.24990277  1
  Fe  Fe1  1  0.62265031  0.37683536  0.37098156  1
  Fe  Fe2  1  0.75363532  0.25217143  -0.00443741  1
  Fe  Fe3  1  0.37669392  0.12501695  0.87385082  1
  Fe  Fe4  1  0.37399978  0.62583577  0.62258573  1
  Fe  Fe5  1  0.87953734  0.37204659  0.12297733  1
  Fe  Fe6  1  0.49877248  0.50299838  0.00156651  1
  Fe  Fe7  1  0.25123325  0.00080125  0.50089776  1
  Fe  Fe8  1  0.37103009  0.62818856  0.12370693  1
  Fe  Fe9  1  0.74821945  0.75050213  0.00074267  1
  Fe  Fe10  1  0.62466208  0.12527343  0.37431025  1
  Fe  Fe11  1  0.50053642  0.50003310  0.50015918  1
  Fe  Fe12  1  0.24722922  0.25113908  -0.00170674  1
  Fe  Fe13  1  0.87422923  0.87546952  0.12544367  1
  Fe  Fe14  1  0.62721275  0.62191871  0.37167080  1
  Fe  Fe15  1  0.37297173  0.12582437  0.12409133  1
  Fe  Fe16  1  0.37242615  0.62569827  0.87608914  1
  Fe  Fe17  1  0.62512483  0.12604136  0.87449206  1
  Fe  Fe18  1  -0.00533751  0.74806519  0.50014806  1
  Fe  Fe19  1  0.49895355  0.74630177  0.25015354  1
  Fe  Fe20  1  0.12093542  0.37780187  0.87460412  1
  Fe  Fe21  1  0.25151418  0.50176679  0.25120054  1
  Fe  Fe22  1  -0.00122976  0.00332275  0.24698155  1
  Fe  Fe23  1  0.24615996  0.49741822  0.50172521  1
  Fe  Fe24  1  0.37765445  0.87614540  0.62422030  1
  Fe  Fe25  1  0.75151742  0.49893857  0.49813976  1
  Fe  Fe26  1  -0.00211368  0.74665669  0.74792171  1
  Fe  Fe27  1  0.62681474  0.62082397  0.87362105  1
  Fe  Fe28  1  0.87658671  0.37740870  0.62519789  1
  Fe  Fe29  1  0.12660292  0.12733991  0.62348420  1
  Fe  Fe30  1  0.24947164  0.24935973  0.25074856  1
  Fe  Fe31  1  0.37670850  0.37599289  0.87603514  1
  Fe  Fe32  1  0.37625779  0.87081168  0.12300169  1
  Fe  Fe33  1  0.12343264  0.87354838  0.62381632  1
  Fe  Fe34  1  0.75329142  0.75081160  0.25172494  1
  Fe  Fe35  1  0.75369390  0.49710747  -0.00192861  1
  Fe  Fe36  1  0.12393703  0.37400510  0.37415738  1
  Fe  Fe37  1  0.49991633  0.24974248  0.00020557  1
  Fe  Fe38  1  0.12227237  0.37275269  0.12446744  1
  Fe  Fe39  1  0.37482770  0.37457898  0.12555244  1
  Fe  Fe40  1  0.62412012  0.87487761  0.62474013  1
  Fe  Fe41  1  0.24896288  0.75048074  0.74974405  1
  Fe  Fe42  1  -0.00055508  0.24737916  0.75211347  1
  Fe  Fe43  1  0.00038003  0.25099838  0.50000577  1
  Fe  Fe44  1  0.24947981  0.75133094  0.49786455  1
  Fe  Fe45  1  0.87431474  0.62428251  0.12505876  1
  Fe  Fe46  1  0.75040337  -0.00110670  0.50011829  1
  Fe  Fe47  1  0.25155486  -0.00013858  0.74843734  1
  Fe  Fe48  1  0.24998392  0.24935170  0.75026430  1
  Fe  Fe49  1  -0.00148699  0.50083253  0.24974897  1
  Fe  Fe50  1  0.12286344  0.87494971  0.87491239  1
  Fe  Fe51  1  0.24538294  0.50165628  0.00092661  1
  Fe  Fe52  1  0.87687552  0.87470027  0.87556834  1
  Fe  Fe53  1  0.12359344  0.62663571  0.37395579  1
  Fe  Fe54  1  0.75305524  0.75081010  0.49826122  1
  Fe  Fe55  1  0.87583199  0.37581261  0.37522929  1
  Fe  Fe56  1  0.62627437  0.87635314  0.37249844  1
  Fe  Fe57  1  0.12369054  0.12231606  0.87757952  1
  Fe  Fe58  1  0.12585595  0.87213704  0.12787985  1
  Fe  Fe59  1  0.50049282  0.74795645  0.75097120  1
  Fe  Fe60  1  0.62838980  0.62093495  0.62738485  1
  Fe  Fe61  1  0.74749092  0.25619126  0.75210500  1
  Fe  Fe62  1  0.87210684  0.12580147  0.62682520  1
  Fe  Fe63  1  -0.00070727  0.00038127  0.74859039  1
  Fe  Fe64  1  0.12522687  0.12567924  0.37545400  1
  Fe  Fe65  1  0.50215635  -0.00098947  0.00055181  1
  Fe  Fe66  1  0.75287192  0.74877298  0.74911699  1
  Fe  Fe67  1  0.24918243  0.49998182  0.74710509  1
  Fe  Fe68  1  0.12105345  0.87414650  0.37369807  1
  Fe  Fe69  1  0.50251970  0.74823380  0.49904162  1
  Fe  Fe70  1  0.87377073  0.12485793  0.37427933  1
  Fe  Fe71  1  0.62339126  0.37567831  0.12464300  1
  Fe  Fe72  1  0.50083682  0.00127705  0.24876130  1
  Fe  Fe73  1  0.62062787  0.12422480  0.62605683  1
  Fe  Fe74  1  0.37737080  0.37484277  0.37391038  1
  Fe  Fe75  1  0.37607635  0.37133402  0.62454908  1
  Fe  Fe76  1  0.00376140  0.74574914  0.00125990  1
  Fe  Fe77  1  0.62730892  0.62344045  0.12669262  1
  Fe  Fe78  1  0.75156359  -0.00060758  0.00105064  1
  Fe  Fe79  1  0.25000167  -0.00051303  0.24999871  1
  Fe  Fe80  1  0.37610555  0.87246678  0.87778232  1
  Fe  Fe81  1  0.37661325  0.12771662  0.37784579  1
  Fe  Fe82  1  -0.00210275  0.00107049  0.50246760  1
  Fe  Fe83  1  0.74723203  0.25255380  0.50176543  1
  Fe  Fe84  1  0.62779437  0.12602793  0.12515762  1
  Fe  Fe85  1  0.62450516  0.87369670  0.87547906  1
  Fe  Fe86  1  0.24824001  -0.00200233  0.00116145  1
  Fe  Fe87  1  -0.00218955  0.50548797  0.74878449  1
  Fe  Fe88  1  0.74942751  -0.00188843  0.75007520  1
  Fe  Fe89  1  0.37731036  0.87462134  0.37508388  1
  Co  Co90  1  0.00249075  0.49996225  0.49940170  1
  Co  Co91  1  0.49647738  0.50049390  0.74947926  1
  Co  Co92  1  0.87427128  0.87598531  0.62568041  1
  Co  Co93  1  0.50364309  0.25260580  0.50084421  1
  Co  Co94  1  0.87400646  0.12841863  0.12485878  1
  Co  Co95  1  0.24443442  0.74946186  -0.00142537  1
  Co  Co96  1  0.37390979  0.62285929  0.37901001  1
  Co  Co97  1  0.24871118  0.25194788  0.50020226  1
  Co  Co98  1  0.50406150  0.74676393  -0.00079201  1
  Co  Co99  1  0.87138525  0.62132635  0.62272251  1
  Co  Co100  1  0.87297372  0.12267027  0.87295215  1
  Co  Co101  1  -0.00027068  0.24602192  -0.00295347  1
  Co  Co102  1  0.00185675  0.50503903  0.00191262  1
  Co  Co103  1  0.75395094  0.49624808  0.75462070  1
  Co  Co104  1  0.00001958  0.24895451  0.25239543  1
  Co  Co105  1  0.12123333  0.37368272  0.62858110  1
  Co  Co106  1  0.62088897  0.37894974  0.87785073  1
  Co  Co107  1  0.50039902  0.24948862  0.24831240  1
  Co  Co108  1  0.25295586  0.75018235  0.25387707  1
  Co  Co109  1  0.88199471  0.37655286  0.87503196  1
  Co  Co110  1  0.87358002  0.62707400  0.87769400  1
  Co  Co111  1  0.50079302  -0.00092203  0.49875787  1
  Co  Co112  1  0.49758360  0.50268622  0.24727705  1
  Co  Co113  1  -0.00477440  0.74867642  0.24917041  1
  Co  Co114  1  0.62443902  0.87412009  0.12781167  1
  Co  Co115  1  0.12632901  0.12800000  0.12429345  1
  Co  Co116  1  0.12723890  0.62603418  0.13087562  1
  Co  Co117  1  0.87475126  0.62159689  0.37454169  1
  Co  Co118  1  0.75135654  0.00088855  0.24882592  1
  Co  Co119  1  0.12593386  0.62698510  0.62285896  1
  Co  Co120  1  0.50294731  0.25294551  0.75034435  1
  Co  Co121  1  0.37793372  0.12672033  0.62474076  1
  Co  Co122  1  0.75317556  0.49632763  0.24746774  1
  Co  Co123  1  -0.00071340  0.00067306  0.00332127  1
  Co  Co124  1  0.12653358  0.62360893  0.87171629  1
  Co  Co125  1  0.62556010  0.38151104  0.62626931  1
  Co  Co126  1  0.49950228  -0.00198552  0.75221488  1
  Co  Co127  1  0.87635976  0.87865344  0.37419717  1
