# generated using pymatgen
data_Fe45Co19
_symmetry_space_group_name_H-M   'P 1'
_cell_length_a   11.41366595
_cell_length_b   11.41533313
_cell_length_c   11.41465213
_cell_angle_alpha   89.99292975
_cell_angle_beta   90.00158899
_cell_angle_gamma   89.99601901
_symmetry_Int_Tables_number   1
_chemical_formula_structural   Fe45Co19
_chemical_formula_sum   'Fe90 Co38'
_cell_volume   1487.22413139
_cell_formula_units_Z   2
loop_
 _symmetry_equiv_pos_site_id
 _symmetry_equiv_pos_as_xyz
  1  'x, y, z'
loop_
 _atom_site_type_symbol
 _atom_site_label
 _atom_site_symmetry_multiplicity
 _atom_site_fract_x
 _atom_site_fract_y
 _atom_site_fract_z
 _atom_site_occupancy
  Fe  Fe0  1  0.24990376  0.00028339  0.75151544  1
  Fe  Fe1  1  0.12507835  0.37432423  0.37687388  1
  Fe  Fe2  1  0.62423620  0.62270217  0.12811916  1
  Fe  Fe3  1  0.12873697  0.62229555  0.62543674  1
  Fe  Fe4  1  0.62634592  0.12575799  0.12685347  1
  Fe  Fe5  1  0.87397049  0.87756162  0.37522130  1
  Fe  Fe6  1  0.37217641  0.37699643  0.62380744  1
  Fe  Fe7  1  0.00152595  0.50008343  0.75187355  1
  Fe  Fe8  1  0.24901458  -0.00052307  0.25150014  1
  Fe  Fe9  1  0.49835384  0.25125170  0.74784242  1
  Fe  Fe10  1  0.74907933  0.74981577  0.75060296  1
  Fe  Fe11  1  0.00038047  0.00037429  0.24900415  1
  Fe  Fe12  1  0.24921034  0.75351448  0.25018414  1
  Fe  Fe13  1  0.00012872  0.75058637  0.25064928  1
  Fe  Fe14  1  0.49929400  0.00108789  0.24883342  1
  Fe  Fe15  1  0.87635611  0.62264703  0.12713799  1
  Fe  Fe16  1  0.62503550  0.87799369  0.37417033  1
  Fe  Fe17  1  0.75165633  0.49964455  0.49782961  1
  Fe  Fe18  1  0.12496081  0.87670654  0.12433632  1
  Fe  Fe19  1  0.12750712  0.87662617  0.62299100  1
  Fe  Fe20  1  0.24708274  0.49403909  0.75587256  1
  Fe  Fe21  1  0.62412635  0.62432029  0.62487257  1
  Fe  Fe22  1  0.00035561  0.00142529  0.75024868  1
  Fe  Fe23  1  0.75005267  0.49818590  -0.00026820  1
  Fe  Fe24  1  0.87191636  0.12637710  0.62356884  1
  Fe  Fe25  1  0.00003417  0.24978133  0.24885990  1
  Fe  Fe26  1  0.74821205  0.00196083  0.75382882  1
  Fe  Fe27  1  0.12504023  0.12406672  0.37470456  1
  Fe  Fe28  1  -0.00073624  0.50176761  0.49782058  1
  Fe  Fe29  1  0.49816549  0.24933596  0.00260973  1
  Fe  Fe30  1  0.87538116  0.62549522  0.62537614  1
  Fe  Fe31  1  0.12663564  0.37621003  0.12427979  1
  Fe  Fe32  1  0.25222046  0.49653866  0.25468103  1
  Fe  Fe33  1  0.12766984  0.62277668  0.12542853  1
  Fe  Fe34  1  0.74773284  0.74994765  0.00114017  1
  Fe  Fe35  1  0.75293470  0.25012815  0.25404874  1
  Fe  Fe36  1  0.75236681  0.49640781  0.25040135  1
  Fe  Fe37  1  0.37240827  0.37569556  0.12542716  1
  Fe  Fe38  1  0.38047179  0.87498146  0.87797044  1
  Fe  Fe39  1  0.50182924  0.00119124  0.75197978  1
  Fe  Fe40  1  0.37335614  0.87453343  0.37773184  1
  Fe  Fe41  1  0.00221148  0.24795668  0.00341864  1
  Fe  Fe42  1  0.00195510  0.24992521  0.74702656  1
  Fe  Fe43  1  0.00079345  0.74949370  0.49963578  1
  Fe  Fe44  1  0.25141031  0.75052312  0.74927865  1
  Fe  Fe45  1  0.50028205  0.49925425  0.74927035  1
  Fe  Fe46  1  0.87594350  0.87405562  0.87469521  1
  Fe  Fe47  1  0.50103485  0.00216457  0.50012404  1
  Fe  Fe48  1  0.50156113  0.24897458  0.50090142  1
  Fe  Fe49  1  0.87809100  0.37293267  0.87600116  1
  Fe  Fe50  1  0.62688303  0.37483189  0.62368644  1
  Fe  Fe51  1  0.75044258  0.75186665  0.24932988  1
  Fe  Fe52  1  0.37553546  0.62402283  0.87442643  1
  Fe  Fe53  1  0.12771746  0.12826922  0.87485174  1
  Fe  Fe54  1  0.12702726  0.62648281  0.37453165  1
  Fe  Fe55  1  0.37386136  0.62306562  0.12747292  1
  Fe  Fe56  1  0.00029114  0.24905369  0.50077251  1
  Fe  Fe57  1  0.87720826  0.62677897  0.87428559  1
  Fe  Fe58  1  0.49891416  0.25071487  0.24883043  1
  Fe  Fe59  1  0.62255549  0.37230382  0.87555942  1
  Fe  Fe60  1  0.36942897  0.12362316  0.12323376  1
  Fe  Fe61  1  0.75014313  0.74964258  0.49852780  1
  Fe  Fe62  1  0.75057289  0.49836713  0.75129160  1
  Fe  Fe63  1  0.87380578  0.87566626  0.62576123  1
  Fe  Fe64  1  0.74537124  0.00132389  -0.00305051  1
  Fe  Fe65  1  0.37416741  0.87689688  0.62346401  1
  Fe  Fe66  1  0.87389117  0.87711265  0.12357637  1
  Fe  Fe67  1  0.00045497  0.00054165  0.50096083  1
  Fe  Fe68  1  0.37214310  0.12434720  0.62556551  1
  Fe  Fe69  1  0.50021594  0.49915931  0.00281088  1
  Fe  Fe70  1  0.75076164  0.25001658  -0.00173075  1
  Fe  Fe71  1  0.87448618  0.12416040  0.12454744  1
  Fe  Fe72  1  0.62829146  0.12751950  0.62571125  1
  Fe  Fe73  1  0.62243035  0.62682510  0.87439095  1
  Fe  Fe74  1  0.62436394  0.87477925  0.62641982  1
  Fe  Fe75  1  0.62335199  0.62384023  0.37288412  1
  Fe  Fe76  1  0.62232190  0.37498639  0.37433440  1
  Fe  Fe77  1  0.37676106  0.87767031  0.12109769  1
  Fe  Fe78  1  0.49437187  0.50250310  0.49679599  1
  Fe  Fe79  1  0.00285070  0.00158850  -0.00110912  1
  Fe  Fe80  1  0.25117325  0.74945005  0.00009598  1
  Fe  Fe81  1  0.12394693  0.87218206  0.87443338  1
  Fe  Fe82  1  0.49656653  0.74723773  0.50247179  1
  Fe  Fe83  1  0.37321100  0.12720183  0.87575563  1
  Fe  Fe84  1  0.87425820  0.37396983  0.62336504  1
  Fe  Fe85  1  0.00230727  0.50102665  -0.00031510  1
  Fe  Fe86  1  0.24760136  0.24928722  0.50261182  1
  Fe  Fe87  1  0.50015551  0.75175827  0.24828452  1
  Fe  Fe88  1  0.00098622  0.74848994  0.00121234  1
  Fe  Fe89  1  0.37399723  0.12751547  0.37532971  1
  Co  Co90  1  0.62412541  0.87691328  0.12445463  1
  Co  Co91  1  0.75029581  0.00141538  0.24941095  1
  Co  Co92  1  0.87488372  0.62495583  0.37248385  1
  Co  Co93  1  0.62206433  0.13060854  0.87348840  1
  Co  Co94  1  0.74798142  0.00156310  0.50041954  1
  Co  Co95  1  0.12670530  0.12283974  0.62598204  1
  Co  Co96  1  0.00174523  0.49879255  0.25036974  1
  Co  Co97  1  0.12560355  0.62788351  0.87489298  1
  Co  Co98  1  0.87755173  0.12585335  0.87576303  1
  Co  Co99  1  0.75182032  0.25176355  0.75145830  1
  Co  Co100  1  0.12519990  0.87624556  0.37703267  1
  Co  Co101  1  0.25065596  0.25271116  0.00015977  1
  Co  Co102  1  0.25345486  0.49984596  0.49463151  1
  Co  Co103  1  0.87691646  0.12274195  0.37629605  1
  Co  Co104  1  0.25007908  0.49855977  -0.00347163  1
  Co  Co105  1  0.00147424  0.74963842  0.74646371  1
  Co  Co106  1  0.62087231  0.87145152  0.87551603  1
  Co  Co107  1  0.49727773  0.74870841  0.74631020  1
  Co  Co108  1  0.37394663  0.62921185  0.37084512  1
  Co  Co109  1  0.12135108  0.36966615  0.87742782  1
  Co  Co110  1  0.49655891  0.49633346  0.25077279  1
  Co  Co111  1  0.50006671  0.74615574  0.00383729  1
  Co  Co112  1  0.37004924  0.62009597  0.62862897  1
  Co  Co113  1  0.25050368  0.00304661  0.49805895  1
  Co  Co114  1  0.12504408  0.37855334  0.62231425  1
  Co  Co115  1  0.50351915  0.00436630  -0.00008124  1
  Co  Co116  1  0.37525625  0.36852289  0.37663110  1
  Co  Co117  1  0.12867126  0.12378764  0.12482160  1
  Co  Co118  1  0.74922993  0.25071509  0.49508235  1
  Co  Co119  1  0.87829359  0.37534631  0.37547820  1
  Co  Co120  1  0.37857157  0.37316397  0.87576844  1
  Co  Co121  1  0.25129929  0.74853174  0.50175958  1
  Co  Co122  1  0.24807768  0.25049868  0.24976821  1
  Co  Co123  1  0.62306879  0.12392566  0.37325826  1
  Co  Co124  1  0.87629099  0.37467405  0.12415132  1
  Co  Co125  1  0.62657179  0.37304556  0.12578766  1
  Co  Co126  1  0.24760942  -0.00152511  -0.00233949  1
  Co  Co127  1  0.24899682  0.25313638  0.74817409  1
