# generated using pymatgen
data_Fe45Co19
_symmetry_space_group_name_H-M   'P 1'
_cell_length_a   11.41606829
_cell_length_b   11.41640173
_cell_length_c   11.41556047
_cell_angle_alpha   89.99351673
_cell_angle_beta   90.00606834
_cell_angle_gamma   89.99815419
_symmetry_Int_Tables_number   1
_chemical_formula_structural   Fe45Co19
_chemical_formula_sum   'Fe90 Co38'
_cell_volume   1487.79479227
_cell_formula_units_Z   2
loop_
 _symmetry_equiv_pos_site_id
 _symmetry_equiv_pos_as_xyz
  1  'x, y, z'
loop_
 _atom_site_type_symbol
 _atom_site_label
 _atom_site_symmetry_multiplicity
 _atom_site_fract_x
 _atom_site_fract_y
 _atom_site_fract_z
 _atom_site_occupancy
  Fe  Fe0  1  0.00242982  0.75038405  0.25058768  1
  Fe  Fe1  1  0.37416578  0.87357906  0.62290095  1
  Fe  Fe2  1  0.37091830  0.12449523  0.37357577  1
  Fe  Fe3  1  0.12485103  0.87613805  0.62554803  1
  Fe  Fe4  1  0.12257790  0.12454549  0.62587733  1
  Fe  Fe5  1  0.87568660  0.87411098  0.37579471  1
  Fe  Fe6  1  0.62237714  0.37652710  0.12694510  1
  Fe  Fe7  1  0.12496692  0.62195136  0.12275687  1
  Fe  Fe8  1  0.74751235  0.74849936  0.49877019  1
  Fe  Fe9  1  0.62572963  0.87940271  0.37302614  1
  Fe  Fe10  1  0.37495211  0.12458448  0.12713045  1
  Fe  Fe11  1  0.75072746  0.50207857  0.74943622  1
  Fe  Fe12  1  0.49219260  0.50191034  0.25351581  1
  Fe  Fe13  1  0.74826735  0.24929066  0.75105506  1
  Fe  Fe14  1  0.49848646  0.24896984  0.25056627  1
  Fe  Fe15  1  0.74763508  0.24829694  0.49982831  1
  Fe  Fe16  1  0.37757211  0.62654971  0.61802117  1
  Fe  Fe17  1  0.49948728  0.74947937  0.25420606  1
  Fe  Fe18  1  0.74695490  0.75086671  0.00201568  1
  Fe  Fe19  1  0.50016057  0.24998317  -0.00035721  1
  Fe  Fe20  1  0.74965239  0.50037662  0.49896640  1
  Fe  Fe21  1  0.12524878  0.12396772  0.12418761  1
  Fe  Fe22  1  0.74763510  0.75024278  0.24910005  1
  Fe  Fe23  1  0.25108225  0.24991530  0.00034280  1
  Fe  Fe24  1  0.50202008  0.75219784  0.00039666  1
  Fe  Fe25  1  0.37234596  0.37245291  0.62660752  1
  Fe  Fe26  1  0.87717434  0.12629909  0.62658880  1
  Fe  Fe27  1  0.62312880  0.11783909  0.12687705  1
  Fe  Fe28  1  0.00164044  0.25226550  0.75285031  1
  Fe  Fe29  1  0.87691459  0.62693869  0.62302499  1
  Fe  Fe30  1  0.00252537  0.25193921  0.49774946  1
  Fe  Fe31  1  0.75167584  0.50156709  0.24813752  1
  Fe  Fe32  1  0.74818059  0.24859275  -0.00051061  1
  Fe  Fe33  1  -0.00249840  -0.00259492  -0.00375435  1
  Fe  Fe34  1  0.62600267  0.87838490  0.62476789  1
  Fe  Fe35  1  0.25332152  0.00039362  0.00023360  1
  Fe  Fe36  1  0.37697651  0.12760689  0.62842270  1
  Fe  Fe37  1  0.12784483  0.87804238  0.37702672  1
  Fe  Fe38  1  0.87418057  0.37391034  0.37293343  1
  Fe  Fe39  1  0.12473816  0.62355474  0.62341606  1
  Fe  Fe40  1  0.12774260  0.37638838  0.62762175  1
  Fe  Fe41  1  0.25633424  0.50162613  0.00126950  1
  Fe  Fe42  1  0.62114791  0.12145821  0.87278562  1
  Fe  Fe43  1  0.37758221  0.12721653  0.87145744  1
  Fe  Fe44  1  0.50208941  0.24906214  0.50008449  1
  Fe  Fe45  1  0.62499629  0.37722193  0.87561531  1
  Fe  Fe46  1  0.37106618  0.87526083  0.37752751  1
  Fe  Fe47  1  0.75348493  0.00101351  0.75266798  1
  Fe  Fe48  1  0.00065524  0.25612768  -0.00056536  1
  Fe  Fe49  1  0.62219516  0.62302732  0.87603136  1
  Fe  Fe50  1  0.50113797  0.75119510  0.74881170  1
  Fe  Fe51  1  0.87580014  0.62606200  0.37486438  1
  Fe  Fe52  1  0.62131527  0.62375968  0.62139584  1
  Fe  Fe53  1  0.12794635  0.62212818  0.37494211  1
  Fe  Fe54  1  0.87672094  0.12633822  0.37408243  1
  Fe  Fe55  1  0.24884039  0.74560553  0.75050304  1
  Fe  Fe56  1  0.62451007  0.87806134  0.87602080  1
  Fe  Fe57  1  0.62541663  0.37544212  0.62459982  1
  Fe  Fe58  1  0.37367912  0.87318604  0.87414951  1
  Fe  Fe59  1  -0.00192924  0.49883138  0.24487856  1
  Fe  Fe60  1  0.00128354  -0.00034941  0.24996013  1
  Fe  Fe61  1  0.13043191  0.37720655  0.37009125  1
  Fe  Fe62  1  0.25012458  0.74802212  0.25070121  1
  Fe  Fe63  1  0.00458763  0.25072273  0.24876914  1
  Fe  Fe64  1  0.87357956  0.87459935  0.12438735  1
  Fe  Fe65  1  0.24938572  0.74806148  -0.00165703  1
  Fe  Fe66  1  0.49957701  0.00154470  0.50042458  1
  Fe  Fe67  1  0.49540681  0.49838223  0.00016188  1
  Fe  Fe68  1  0.87445300  0.37421615  0.62546945  1
  Fe  Fe69  1  0.12946413  0.38057548  0.87585096  1
  Fe  Fe70  1  0.87553535  0.87338929  0.62496665  1
  Fe  Fe71  1  0.49624509  0.49838405  0.74990091  1
  Fe  Fe72  1  0.00267325  0.75098514  0.75307941  1
  Fe  Fe73  1  -0.00072698  0.50004098  0.75174382  1
  Fe  Fe74  1  0.62373004  0.37555491  0.37368398  1
  Fe  Fe75  1  0.00114590  0.00020677  0.49971122  1
  Fe  Fe76  1  0.74765622  0.74828577  0.75027947  1
  Fe  Fe77  1  0.74754069  0.24741026  0.24953493  1
  Fe  Fe78  1  0.62179087  0.62434347  0.12680954  1
  Fe  Fe79  1  0.87642576  0.62523671  0.87737954  1
  Fe  Fe80  1  0.75379799  0.49954372  0.00341851  1
  Fe  Fe81  1  0.24728626  0.24887356  0.49949235  1
  Fe  Fe82  1  0.87564604  0.12586443  0.12360388  1
  Fe  Fe83  1  0.24991063  0.00149773  0.74958769  1
  Fe  Fe84  1  0.37580805  0.87368180  0.12576622  1
  Fe  Fe85  1  0.12693219  0.87587930  0.12284158  1
  Fe  Fe86  1  0.00056052  0.49831463  0.49882809  1
  Fe  Fe87  1  0.12387378  0.12252095  0.87548153  1
  Fe  Fe88  1  0.00197976  0.75091949  -0.00230129  1
  Fe  Fe89  1  0.75012294  0.00385721  0.49884476  1
  Co  Co90  1  0.50352211  0.25435676  0.75057568  1
  Co  Co91  1  0.25455266  0.50533330  0.74892742  1
  Co  Co92  1  0.87641065  0.63005863  0.12437545  1
  Co  Co93  1  0.62400751  0.12295599  0.62821003  1
  Co  Co94  1  0.12959938  0.87658987  0.87485864  1
  Co  Co95  1  0.25042587  0.00282885  0.50389078  1
  Co  Co96  1  0.37255807  0.37206847  0.87340547  1
  Co  Co97  1  0.50460526  0.75446102  0.49752179  1
  Co  Co98  1  0.62314282  0.87869714  0.12657859  1
  Co  Co99  1  -0.00054751  -0.00238210  0.75183099  1
  Co  Co100  1  0.12742407  0.12317221  0.37398387  1
  Co  Co101  1  0.49742442  -0.00359119  0.74953558  1
  Co  Co102  1  0.37475859  0.37169416  0.12581848  1
  Co  Co103  1  -0.00548113  0.49524202  0.00344618  1
  Co  Co104  1  0.24555956  0.75020252  0.50122063  1
  Co  Co105  1  0.49569687  -0.00148635  0.25171724  1
  Co  Co106  1  0.37812898  0.62846791  0.87539787  1
  Co  Co107  1  0.87222627  0.37484456  0.87321860  1
  Co  Co108  1  0.37220755  0.37109741  0.37536623  1
  Co  Co109  1  0.49613076  -0.00057910  -0.00023239  1
  Co  Co110  1  0.62382803  0.62226398  0.37500443  1
  Co  Co111  1  0.87232380  0.36928119  0.12753822  1
  Co  Co112  1  0.37728801  0.62996434  0.12329920  1
  Co  Co113  1  0.75353270  0.00038595  0.24963856  1
  Co  Co114  1  0.25784025  0.50400827  0.24798957  1
  Co  Co115  1  0.37325212  0.62770470  0.38316454  1
  Co  Co116  1  0.49844204  0.49499563  0.49848556  1
  Co  Co117  1  0.12420522  0.62024999  0.87896255  1
  Co  Co118  1  0.24993364  0.49769670  0.50095387  1
  Co  Co119  1  0.62362792  0.12355483  0.37304822  1
  Co  Co120  1  0.24589041  0.24800113  0.75170260  1
  Co  Co121  1  0.13082160  0.37866993  0.12446864  1
  Co  Co122  1  0.87801294  0.12785793  0.87533966  1
  Co  Co123  1  0.00258529  0.74989071  0.49836515  1
  Co  Co124  1  0.87305665  0.87099723  0.87484763  1
  Co  Co125  1  0.24824780  0.24863213  0.24755127  1
  Co  Co126  1  0.75137858  0.00092848  -0.00111696  1
  Co  Co127  1  0.24897842  -0.00143476  0.24698946  1
