# generated using pymatgen
data_Fe45Co19
_symmetry_space_group_name_H-M   'P 1'
_cell_length_a   11.41632810
_cell_length_b   11.41488666
_cell_length_c   11.41390233
_cell_angle_alpha   90.00108777
_cell_angle_beta   89.99723487
_cell_angle_gamma   90.00033416
_symmetry_Int_Tables_number   1
_chemical_formula_structural   Fe45Co19
_chemical_formula_sum   'Fe90 Co38'
_cell_volume   1487.41513666
_cell_formula_units_Z   2
loop_
 _symmetry_equiv_pos_site_id
 _symmetry_equiv_pos_as_xyz
  1  'x, y, z'
loop_
 _atom_site_type_symbol
 _atom_site_label
 _atom_site_symmetry_multiplicity
 _atom_site_fract_x
 _atom_site_fract_y
 _atom_site_fract_z
 _atom_site_occupancy
  Fe  Fe0  1  0.75353507  0.24948947  -0.00621364  1
  Fe  Fe1  1  0.12032432  0.37217490  0.87319748  1
  Fe  Fe2  1  0.25079186  0.24796136  0.75332918  1
  Fe  Fe3  1  0.87176771  0.12263249  0.62692889  1
  Fe  Fe4  1  0.37705365  0.37435363  0.87271150  1
  Fe  Fe5  1  0.25045965  0.49542251  -0.00081111  1
  Fe  Fe6  1  0.75202563  0.00027427  -0.00151665  1
  Fe  Fe7  1  -0.00176573  0.24694296  0.25139957  1
  Fe  Fe8  1  0.37673086  0.37659640  0.37563630  1
  Fe  Fe9  1  0.87500938  0.87443927  0.62613907  1
  Fe  Fe10  1  0.37643253  0.62507025  0.87783182  1
  Fe  Fe11  1  0.24982792  0.00059966  0.49863901  1
  Fe  Fe12  1  0.00064905  -0.00047073  0.74852660  1
  Fe  Fe13  1  0.74856241  -0.00125880  0.49980895  1
  Fe  Fe14  1  0.12644876  0.37340068  0.12493587  1
  Fe  Fe15  1  0.25033504  0.50095285  0.75046965  1
  Fe  Fe16  1  0.62634812  0.87515516  0.62786968  1
  Fe  Fe17  1  0.87215857  0.37439543  0.12369248  1
  Fe  Fe18  1  0.12722369  0.37549082  0.62609150  1
  Fe  Fe19  1  0.87393995  0.37955930  0.63145207  1
  Fe  Fe20  1  0.50324238  0.25264227  0.50588018  1
  Fe  Fe21  1  0.37773168  0.12645139  0.37565871  1
  Fe  Fe22  1  0.12112181  0.12769848  0.87570246  1
  Fe  Fe23  1  0.75086309  0.74924540  0.24689201  1
  Fe  Fe24  1  0.74880805  0.25102002  0.25218512  1
  Fe  Fe25  1  0.62271437  0.37899279  0.87147036  1
  Fe  Fe26  1  0.75031028  0.24927672  0.75220198  1
  Fe  Fe27  1  0.24913922  0.00210958  0.25198754  1
  Fe  Fe28  1  0.61977282  0.62525677  0.87727347  1
  Fe  Fe29  1  0.62417900  0.87351779  0.87589333  1
  Fe  Fe30  1  0.00079810  0.00164483  0.49805288  1
  Fe  Fe31  1  0.00035705  0.49897205  0.00136480  1
  Fe  Fe32  1  0.75005010  0.50059094  0.50006299  1
  Fe  Fe33  1  0.12602984  0.62589009  0.87734620  1
  Fe  Fe34  1  0.25142156  0.25023181  0.49988798  1
  Fe  Fe35  1  0.25010574  0.74599410  0.25170775  1
  Fe  Fe36  1  0.62059246  0.12149781  0.87049048  1
  Fe  Fe37  1  0.49825323  -0.00364692  0.00234311  1
  Fe  Fe38  1  0.25047094  0.24957450  0.25151906  1
  Fe  Fe39  1  0.75054456  0.49986552  -0.00376530  1
  Fe  Fe40  1  0.75125039  0.74832040  0.75189463  1
  Fe  Fe41  1  0.37785120  0.12590604  0.62851658  1
  Fe  Fe42  1  0.12263395  0.87494790  0.37315992  1
  Fe  Fe43  1  0.37264388  0.62580683  0.62278264  1
  Fe  Fe44  1  0.50283382  0.49618165  0.24499284  1
  Fe  Fe45  1  0.37383278  0.12714581  0.12257909  1
  Fe  Fe46  1  0.37379701  0.87469648  0.87477452  1
  Fe  Fe47  1  0.87695846  0.87531166  0.37190521  1
  Fe  Fe48  1  0.49969214  0.49740056  0.50439554  1
  Fe  Fe49  1  0.25008843  0.00077570  0.75127172  1
  Fe  Fe50  1  -0.00064341  0.74624354  0.24357542  1
  Fe  Fe51  1  0.00224729  0.74836841  0.74864193  1
  Fe  Fe52  1  0.00055200  0.50168656  0.24749257  1
  Fe  Fe53  1  0.49767575  0.74999033  0.74922190  1
  Fe  Fe54  1  0.50005701  -0.00038585  0.24707809  1
  Fe  Fe55  1  0.87841916  0.62492688  0.87599596  1
  Fe  Fe56  1  0.25029973  0.00230218  -0.00161782  1
  Fe  Fe57  1  0.12503561  0.12761472  0.12386311  1
  Fe  Fe58  1  0.49862478  0.25313275  -0.00031493  1
  Fe  Fe59  1  0.12424709  0.87319441  0.87488539  1
  Fe  Fe60  1  0.74806997  0.25168049  0.50304565  1
  Fe  Fe61  1  0.25042195  0.75128050  0.00089698  1
  Fe  Fe62  1  0.37150249  0.87251347  0.62454994  1
  Fe  Fe63  1  0.24912419  0.74787339  0.49513994  1
  Fe  Fe64  1  0.74733392  0.49928840  0.24969977  1
  Fe  Fe65  1  0.62355974  0.87415344  0.37301780  1
  Fe  Fe66  1  0.87466840  0.37600687  0.37525251  1
  Fe  Fe67  1  0.12447745  0.87503916  0.12519766  1
  Fe  Fe68  1  0.62606146  0.12657553  0.12262032  1
  Fe  Fe69  1  0.87579171  0.62433450  0.37437997  1
  Fe  Fe70  1  0.50113922  -0.00118719  0.50248233  1
  Fe  Fe71  1  0.62188638  0.62490699  0.37534534  1
  Fe  Fe72  1  0.50233754  0.25319060  0.24812187  1
  Fe  Fe73  1  0.62518455  0.62612376  0.11990332  1
  Fe  Fe74  1  0.12717405  0.62581661  0.62357898  1
  Fe  Fe75  1  -0.00226060  0.24890080  0.50172018  1
  Fe  Fe76  1  0.00010020  0.50055120  0.50250320  1
  Fe  Fe77  1  -0.00039686  0.74951031  0.50173784  1
  Fe  Fe78  1  0.37703527  0.87334346  0.37440911  1
  Fe  Fe79  1  0.62485603  0.12595984  0.37688015  1
  Fe  Fe80  1  0.37426209  0.62284469  0.12313619  1
  Fe  Fe81  1  0.49958215  0.75165975  0.24477903  1
  Fe  Fe82  1  0.62630084  0.62382581  0.62667266  1
  Fe  Fe83  1  0.12547423  0.12503375  0.62507953  1
  Fe  Fe84  1  0.75114899  0.00038376  0.24856157  1
  Fe  Fe85  1  0.12408361  0.37489965  0.37696070  1
  Fe  Fe86  1  -0.00182363  0.00185365  0.00246277  1
  Fe  Fe87  1  0.87711902  0.87339107  0.87648372  1
  Fe  Fe88  1  0.24930356  0.50240920  0.25455553  1
  Fe  Fe89  1  0.74973977  0.74972206  0.49918266  1
  Co  Co90  1  0.37928008  0.12449437  0.87527488  1
  Co  Co91  1  0.49715723  -0.00536225  0.74827738  1
  Co  Co92  1  0.75172870  -0.00245340  0.75311818  1
  Co  Co93  1  0.87842025  0.12365279  0.87260046  1
  Co  Co94  1  0.62401530  0.37592988  0.37770477  1
  Co  Co95  1  0.38257430  0.62394343  0.37465077  1
  Co  Co96  1  0.25057895  0.25116117  -0.00359276  1
  Co  Co97  1  0.75110555  0.50480536  0.75485727  1
  Co  Co98  1  -0.00177900  0.24843612  0.74684183  1
  Co  Co99  1  0.75152963  0.74921121  -0.00142509  1
  Co  Co100  1  0.12663687  0.87462411  0.62416488  1
  Co  Co101  1  0.00016614  0.74753924  0.00294870  1
  Co  Co102  1  0.37114550  0.37448972  0.12654168  1
  Co  Co103  1  0.36944249  0.87620327  0.12623421  1
  Co  Co104  1  0.87252705  0.12673024  0.12517082  1
  Co  Co105  1  0.62940330  0.87514042  0.12308360  1
  Co  Co106  1  0.50171989  0.25232144  0.74851674  1
  Co  Co107  1  0.11961075  0.62502705  0.37619323  1
  Co  Co108  1  0.49588000  0.50210015  0.74730008  1
  Co  Co109  1  0.87605371  0.87619159  0.12400609  1
  Co  Co110  1  0.12936386  0.62321509  0.12168929  1
  Co  Co111  1  0.87954223  0.37752026  0.87145787  1
  Co  Co112  1  0.63041738  0.37246887  0.12019174  1
  Co  Co113  1  0.00367500  0.50484167  0.74914496  1
  Co  Co114  1  0.00004367  0.00466224  0.25029552  1
  Co  Co115  1  0.37090899  0.37413175  0.62706971  1
  Co  Co116  1  0.87136120  0.12531085  0.37681317  1
  Co  Co117  1  0.25013251  0.50175772  0.49693796  1
  Co  Co118  1  0.49735544  0.75433168  0.00279929  1
  Co  Co119  1  0.24964332  0.74891234  0.75122078  1
  Co  Co120  1  -0.00334897  0.25084336  0.00131924  1
  Co  Co121  1  0.62899959  0.37939047  0.63127293  1
  Co  Co122  1  0.87416957  0.62505230  0.62505126  1
  Co  Co123  1  0.62571111  0.12244642  0.62931833  1
  Co  Co124  1  0.12609497  0.12685358  0.37716854  1
  Co  Co125  1  0.49914392  0.49537934  0.00280796  1
  Co  Co126  1  0.50207969  0.75144842  0.50245304  1
  Co  Co127  1  0.87179041  0.62178747  0.12279584  1
