# generated using pymatgen
data_Fe45Co19
_symmetry_space_group_name_H-M   'P 1'
_cell_length_a   11.41488296
_cell_length_b   11.41610282
_cell_length_c   11.41463656
_cell_angle_alpha   90.00124197
_cell_angle_beta   89.99223686
_cell_angle_gamma   89.99879337
_symmetry_Int_Tables_number   1
_chemical_formula_structural   Fe45Co19
_chemical_formula_sum   'Fe90 Co38'
_cell_volume   1487.48097104
_cell_formula_units_Z   2
loop_
 _symmetry_equiv_pos_site_id
 _symmetry_equiv_pos_as_xyz
  1  'x, y, z'
loop_
 _atom_site_type_symbol
 _atom_site_label
 _atom_site_symmetry_multiplicity
 _atom_site_fract_x
 _atom_site_fract_y
 _atom_site_fract_z
 _atom_site_occupancy
  Fe  Fe0  1  0.00094210  -0.00309628  0.00066888  1
  Fe  Fe1  1  0.62551748  0.37613984  0.62212650  1
  Fe  Fe2  1  0.87724308  0.62495892  0.87615490  1
  Fe  Fe3  1  0.24762448  0.50222398  0.75644947  1
  Fe  Fe4  1  0.00208887  0.49920054  0.49953475  1
  Fe  Fe5  1  0.12560450  0.37343810  0.62617876  1
  Fe  Fe6  1  0.37588264  0.62174794  0.62664284  1
  Fe  Fe7  1  0.49733769  0.25163556  0.25277811  1
  Fe  Fe8  1  0.37217096  0.62097800  0.12349975  1
  Fe  Fe9  1  0.87378904  0.62798584  0.12394507  1
  Fe  Fe10  1  -0.00087649  0.75252279  0.24841722  1
  Fe  Fe11  1  0.63119536  0.37169961  0.12835431  1
  Fe  Fe12  1  0.75147141  0.50161279  0.25382941  1
  Fe  Fe13  1  0.75030438  -0.00251099  0.24784239  1
  Fe  Fe14  1  -0.00325565  0.25159090  0.74890825  1
  Fe  Fe15  1  0.25081036  0.24828893  0.49750925  1
  Fe  Fe16  1  0.49921717  0.00038456  0.00010579  1
  Fe  Fe17  1  0.12979530  0.87591361  0.62894144  1
  Fe  Fe18  1  0.37308230  0.87497656  0.62856605  1
  Fe  Fe19  1  0.00071970  0.75281694  0.74917677  1
  Fe  Fe20  1  0.25064161  0.74890231  0.50067586  1
  Fe  Fe21  1  -0.00013741  -0.00380956  0.24600980  1
  Fe  Fe22  1  0.75176583  0.24850233  0.50192588  1
  Fe  Fe23  1  0.36971289  0.37666826  0.12506552  1
  Fe  Fe24  1  0.87636804  0.12349232  0.37465122  1
  Fe  Fe25  1  0.74854165  -0.00054708  0.00120836  1
  Fe  Fe26  1  0.37700759  0.62212289  0.37393355  1
  Fe  Fe27  1  0.50000070  0.74705952  0.50118452  1
  Fe  Fe28  1  0.49790022  0.25235937  0.49643280  1
  Fe  Fe29  1  0.00088141  0.50005315  0.24881224  1
  Fe  Fe30  1  0.50239228  0.25292676  0.00192353  1
  Fe  Fe31  1  0.74844975  0.74612097  0.49686120  1
  Fe  Fe32  1  0.62546557  0.12685605  0.37409245  1
  Fe  Fe33  1  0.24909228  0.24784585  -0.00280710  1
  Fe  Fe34  1  0.87597056  0.87399922  0.37677210  1
  Fe  Fe35  1  0.12690683  0.62769125  0.12409972  1
  Fe  Fe36  1  0.50083899  0.49635000  0.24994051  1
  Fe  Fe37  1  0.87416965  0.12341825  0.62773958  1
  Fe  Fe38  1  0.37439185  0.87632621  0.37559606  1
  Fe  Fe39  1  0.00132421  0.75377949  -0.00078539  1
  Fe  Fe40  1  0.74849015  0.50115765  0.00091835  1
  Fe  Fe41  1  0.50121158  0.25327447  0.75032007  1
  Fe  Fe42  1  0.12347722  0.62844475  0.37482982  1
  Fe  Fe43  1  0.87372833  0.37616416  0.87595406  1
  Fe  Fe44  1  0.25063162  0.24723345  0.75420324  1
  Fe  Fe45  1  0.62730526  0.12703693  0.12647835  1
  Fe  Fe46  1  0.00196141  0.49874419  0.00059175  1
  Fe  Fe47  1  0.74707372  0.50452241  0.49758993  1
  Fe  Fe48  1  0.74758464  0.00069476  0.50225650  1
  Fe  Fe49  1  0.25017303  0.00198630  0.50091804  1
  Fe  Fe50  1  -0.00408285  0.25064044  0.24731206  1
  Fe  Fe51  1  0.37677466  0.37900986  0.87814694  1
  Fe  Fe52  1  0.12576684  0.37173410  0.37348333  1
  Fe  Fe53  1  0.62653438  0.12724878  0.87307819  1
  Fe  Fe54  1  0.62326625  0.87532351  0.87600748  1
  Fe  Fe55  1  0.62764625  0.62849315  0.12817525  1
  Fe  Fe56  1  0.12336031  0.12508021  0.62772722  1
  Fe  Fe57  1  0.24966097  0.00102582  0.24828349  1
  Fe  Fe58  1  0.37178252  0.87585784  0.12173095  1
  Fe  Fe59  1  0.12721587  0.37421131  0.12495438  1
  Fe  Fe60  1  0.49758256  0.75201993  0.24764417  1
  Fe  Fe61  1  0.87251600  0.87369170  0.62472802  1
  Fe  Fe62  1  0.37309018  0.37722892  0.62439216  1
  Fe  Fe63  1  0.62502436  0.87265821  0.62576331  1
  Fe  Fe64  1  0.12410091  0.62587134  0.62649186  1
  Fe  Fe65  1  0.50007326  0.00072183  0.75033429  1
  Fe  Fe66  1  0.00068314  0.49848765  0.75035916  1
  Fe  Fe67  1  0.49962892  0.74891803  0.00024946  1
  Fe  Fe68  1  0.12354472  0.12556247  0.37369507  1
  Fe  Fe69  1  0.74902114  0.74866835  0.75287147  1
  Fe  Fe70  1  -0.00403562  0.25115565  0.00131255  1
  Fe  Fe71  1  0.12368312  0.12473243  0.12322558  1
  Fe  Fe72  1  0.25208734  0.74709830  -0.00537036  1
  Fe  Fe73  1  0.37833490  0.12641218  0.62466653  1
  Fe  Fe74  1  0.49991380  -0.00056851  0.24854060  1
  Fe  Fe75  1  0.87650489  0.62522170  0.62373164  1
  Fe  Fe76  1  0.87320978  0.12385641  0.87320408  1
  Fe  Fe77  1  0.13134501  0.87864666  0.87173801  1
  Fe  Fe78  1  0.75001094  0.49968362  0.74821459  1
  Fe  Fe79  1  0.12666046  0.87362992  0.37466792  1
  Fe  Fe80  1  0.37515257  0.12647145  0.12472845  1
  Fe  Fe81  1  0.62122528  0.62147456  0.87460039  1
  Fe  Fe82  1  0.24875335  0.50032924  0.49753961  1
  Fe  Fe83  1  0.62632336  0.37613627  0.87569924  1
  Fe  Fe84  1  0.62359854  0.87326351  0.37373764  1
  Fe  Fe85  1  0.00096133  -0.00089107  0.50242239  1
  Fe  Fe86  1  0.49761307  0.74813144  0.75184500  1
  Fe  Fe87  1  0.50117553  0.00046109  0.50042584  1
  Fe  Fe88  1  0.87259513  0.87580352  0.87493434  1
  Fe  Fe89  1  0.87508269  0.37492521  0.37716441  1
  Co  Co90  1  0.62770338  0.37241064  0.37557748  1
  Co  Co91  1  0.24643487  0.50193615  0.25136783  1
  Co  Co92  1  0.50155379  0.49992301  0.49901245  1
  Co  Co93  1  0.62443388  0.62550342  0.62765335  1
  Co  Co94  1  0.75200778  0.24952696  -0.00006296  1
  Co  Co95  1  0.37519071  0.12216327  0.37474743  1
  Co  Co96  1  0.75242159  0.75190592  0.25308894  1
  Co  Co97  1  0.11971259  0.12406083  0.87452946  1
  Co  Co98  1  0.75053070  0.25260529  0.74777604  1
  Co  Co99  1  0.87497543  0.37842276  0.62190786  1
  Co  Co100  1  0.13065293  0.87346104  0.12344187  1
  Co  Co101  1  0.87939867  0.62592154  0.37563695  1
  Co  Co102  1  0.25212151  0.74402577  0.75313319  1
  Co  Co103  1  0.62557872  0.87301319  0.12434233  1
  Co  Co104  1  0.38069186  0.12768168  0.87642709  1
  Co  Co105  1  0.87242973  0.37881355  0.12473731  1
  Co  Co106  1  0.38122558  0.61813457  0.87751737  1
  Co  Co107  1  0.37344278  0.87623618  0.87409936  1
  Co  Co108  1  0.11977848  0.62681849  0.87528243  1
  Co  Co109  1  0.62020906  0.62713698  0.37050280  1
  Co  Co110  1  -0.00193724  -0.00250820  0.74877910  1
  Co  Co111  1  0.50472499  0.49732316  0.00706789  1
  Co  Co112  1  0.74721258  -0.00122659  0.74891414  1
  Co  Co113  1  0.25110959  0.00484902  -0.00189939  1
  Co  Co114  1  0.37226179  0.37817689  0.37362906  1
  Co  Co115  1  0.62226238  0.12707776  0.62562136  1
  Co  Co116  1  0.00189803  0.75272594  0.50271646  1
  Co  Co117  1  0.25067179  0.24736969  0.25018636  1
  Co  Co118  1  0.87157417  0.87185587  0.12241000  1
  Co  Co119  1  0.25253397  0.74913583  0.25128192  1
  Co  Co120  1  0.50107268  0.49741836  0.74710987  1
  Co  Co121  1  0.12241871  0.37176180  0.87513744  1
  Co  Co122  1  0.24503713  0.50110054  -0.00389413  1
  Co  Co123  1  -0.00095194  0.24890322  0.50162964  1
  Co  Co124  1  0.75582166  0.24848715  0.24989719  1
  Co  Co125  1  0.25415294  0.00755297  0.75159874  1
  Co  Co126  1  0.87500184  0.12132394  0.12341681  1
  Co  Co127  1  0.74726880  0.74865960  -0.00380014  1
