# generated using pymatgen
data_Fe45Co19
_symmetry_space_group_name_H-M   'P 1'
_cell_length_a   11.41516994
_cell_length_b   11.41672021
_cell_length_c   11.41538946
_cell_angle_alpha   89.99404137
_cell_angle_beta   89.99621825
_cell_angle_gamma   89.99830923
_symmetry_Int_Tables_number   1
_chemical_formula_structural   Fe45Co19
_chemical_formula_sum   'Fe90 Co38'
_cell_volume   1487.69693623
_cell_formula_units_Z   2
loop_
 _symmetry_equiv_pos_site_id
 _symmetry_equiv_pos_as_xyz
  1  'x, y, z'
loop_
 _atom_site_type_symbol
 _atom_site_label
 _atom_site_symmetry_multiplicity
 _atom_site_fract_x
 _atom_site_fract_y
 _atom_site_fract_z
 _atom_site_occupancy
  Fe  Fe0  1  0.25244285  0.00233525  -0.00303267  1
  Fe  Fe1  1  0.74552902  0.74975302  -0.00045687  1
  Fe  Fe2  1  0.12405257  0.62576061  0.37344444  1
  Fe  Fe3  1  0.49979071  0.49866437  0.75088249  1
  Fe  Fe4  1  0.74936095  0.00622980  0.25241019  1
  Fe  Fe5  1  0.50249033  0.49783967  0.49697602  1
  Fe  Fe6  1  0.37585320  0.62557546  0.62259624  1
  Fe  Fe7  1  0.87500080  0.62638718  0.37514400  1
  Fe  Fe8  1  0.49856281  -0.00060381  0.50078161  1
  Fe  Fe9  1  0.00050342  0.49979456  0.24742704  1
  Fe  Fe10  1  0.87437143  0.37311161  0.37381562  1
  Fe  Fe11  1  0.37610595  0.37597173  0.12597761  1
  Fe  Fe12  1  0.74792744  0.50025221  0.74971769  1
  Fe  Fe13  1  -0.00170191  0.24852763  0.24906679  1
  Fe  Fe14  1  0.12366181  0.62345087  0.87635887  1
  Fe  Fe15  1  -0.00059367  0.75129774  0.00053385  1
  Fe  Fe16  1  0.00338045  0.25215689  0.50147695  1
  Fe  Fe17  1  0.62518020  0.37402373  0.87416489  1
  Fe  Fe18  1  0.74846057  0.75056331  0.49884750  1
  Fe  Fe19  1  0.12323119  0.12581639  0.87242068  1
  Fe  Fe20  1  -0.00065975  0.75209471  0.24856771  1
  Fe  Fe21  1  0.74930886  0.24802323  0.49719282  1
  Fe  Fe22  1  0.12816568  0.87474182  0.87313368  1
  Fe  Fe23  1  0.13207535  0.87716410  0.62882432  1
  Fe  Fe24  1  0.25090951  0.24863646  0.00188017  1
  Fe  Fe25  1  0.74952041  0.24995141  -0.00007245  1
  Fe  Fe26  1  0.25190462  0.50140240  0.75067484  1
  Fe  Fe27  1  0.12364610  0.12501132  0.37520774  1
  Fe  Fe28  1  0.75111040  -0.00100375  -0.00563122  1
  Fe  Fe29  1  0.12554078  0.87578302  0.12458325  1
  Fe  Fe30  1  0.24950043  0.25041907  0.74937990  1
  Fe  Fe31  1  0.00009897  0.49478307  0.75283462  1
  Fe  Fe32  1  0.74932632  0.00241270  0.49906324  1
  Fe  Fe33  1  0.49960300  0.25098952  0.49935165  1
  Fe  Fe34  1  0.37266530  0.37521434  0.62354969  1
  Fe  Fe35  1  0.75115412  0.24793457  0.75131515  1
  Fe  Fe36  1  -0.00140657  0.25383818  -0.00473961  1
  Fe  Fe37  1  0.87462582  0.62546699  0.12404991  1
  Fe  Fe38  1  0.37170971  0.12478758  0.62334633  1
  Fe  Fe39  1  0.00097802  0.49808619  0.49900658  1
  Fe  Fe40  1  0.24859522  0.49840173  0.49794636  1
  Fe  Fe41  1  0.00018683  0.75214881  0.50146165  1
  Fe  Fe42  1  0.00163581  -0.00192218  0.50113768  1
  Fe  Fe43  1  0.37540114  0.12511940  0.37426676  1
  Fe  Fe44  1  0.87396015  0.87738314  0.37397122  1
  Fe  Fe45  1  0.87451745  0.62406052  0.87589352  1
  Fe  Fe46  1  0.24898989  0.50133505  0.24751324  1
  Fe  Fe47  1  0.24950152  0.75110570  0.49965163  1
  Fe  Fe48  1  0.87771923  0.12489869  0.62802647  1
  Fe  Fe49  1  0.50080854  0.25011064  0.00457136  1
  Fe  Fe50  1  0.37477604  0.37263403  0.37348152  1
  Fe  Fe51  1  0.62435998  0.12331472  0.62642750  1
  Fe  Fe52  1  0.62466569  0.87738167  0.62710321  1
  Fe  Fe53  1  0.62295870  0.12496782  0.87491878  1
  Fe  Fe54  1  0.50235887  0.75218440  0.49828304  1
  Fe  Fe55  1  0.37789915  0.62470786  0.87949139  1
  Fe  Fe56  1  0.37578624  0.87548902  0.12370165  1
  Fe  Fe57  1  0.24777223  0.50111505  0.00408243  1
  Fe  Fe58  1  0.37735777  0.87496696  0.37322303  1
  Fe  Fe59  1  0.62585413  0.37606344  0.13241219  1
  Fe  Fe60  1  0.49735468  0.75097371  0.75053487  1
  Fe  Fe61  1  0.25157476  0.74921448  0.24670199  1
  Fe  Fe62  1  0.24973001  0.24922219  0.24907410  1
  Fe  Fe63  1  0.49324980  -0.00175609  0.75247134  1
  Fe  Fe64  1  0.74656728  0.50115414  0.00090251  1
  Fe  Fe65  1  -0.00122156  -0.00272081  -0.00227131  1
  Fe  Fe66  1  0.74781158  0.75154614  0.75252498  1
  Fe  Fe67  1  0.87424167  0.37542980  0.12445685  1
  Fe  Fe68  1  0.12680306  0.12352013  0.62722879  1
  Fe  Fe69  1  0.87539164  0.62469813  0.62570401  1
  Fe  Fe70  1  0.50539337  0.74882322  0.00433317  1
  Fe  Fe71  1  0.24844882  0.00029677  0.24978643  1
  Fe  Fe72  1  0.12480229  0.62326079  0.62501550  1
  Fe  Fe73  1  0.24912998  0.74722302  0.00238411  1
  Fe  Fe74  1  0.87224059  0.87622302  0.12584482  1
  Fe  Fe75  1  0.74420267  0.74971870  0.24984553  1
  Fe  Fe76  1  0.37428147  0.37375186  0.87703104  1
  Fe  Fe77  1  0.49726223  0.00258999  -0.00024601  1
  Fe  Fe78  1  0.12351702  0.12491372  0.12364075  1
  Fe  Fe79  1  0.87346446  0.87643593  0.62793165  1
  Fe  Fe80  1  0.87550203  0.12385051  0.12203393  1
  Fe  Fe81  1  0.50285413  0.00280586  0.24729339  1
  Fe  Fe82  1  0.49909791  0.25117250  0.74840110  1
  Fe  Fe83  1  0.00151943  0.75133711  0.74976323  1
  Fe  Fe84  1  0.74823502  0.49967906  0.49724281  1
  Fe  Fe85  1  0.37701492  0.62742005  0.37351976  1
  Fe  Fe86  1  0.62623012  0.37370923  0.62388147  1
  Fe  Fe87  1  0.87430514  0.37399741  0.62581980  1
  Fe  Fe88  1  0.12435856  0.87465069  0.37344124  1
  Fe  Fe89  1  0.62404981  0.62545257  0.62454753  1
  Co  Co90  1  0.12747189  0.37608005  0.62559337  1
  Co  Co91  1  0.49723181  0.50038102  0.25330162  1
  Co  Co92  1  0.00008165  0.00019667  0.24821447  1
  Co  Co93  1  0.00007046  0.25475298  0.75214610  1
  Co  Co94  1  0.87976652  0.12406675  0.37770811  1
  Co  Co95  1  0.87519229  0.87202856  0.87385819  1
  Co  Co96  1  0.12408885  0.37213826  0.12466660  1
  Co  Co97  1  0.37274142  0.12366930  0.12634321  1
  Co  Co98  1  0.25235526  0.74626280  0.75108353  1
  Co  Co99  1  0.62505653  0.87834165  0.37467137  1
  Co  Co100  1  0.49958468  0.24673565  0.24656248  1
  Co  Co101  1  0.50322404  0.75111887  0.24733426  1
  Co  Co102  1  0.87697264  0.12557534  0.87409282  1
  Co  Co103  1  0.37930449  0.62441538  0.12389092  1
  Co  Co104  1  0.62260993  0.61971343  0.12905340  1
  Co  Co105  1  0.50341915  0.49644215  -0.00035562  1
  Co  Co106  1  0.62163276  0.12714704  0.37628323  1
  Co  Co107  1  0.37724102  0.13144247  0.87574983  1
  Co  Co108  1  0.75102652  0.00086203  0.75350812  1
  Co  Co109  1  0.62365723  0.62432306  0.87333723  1
  Co  Co110  1  0.25621765  0.00132040  0.75540066  1
  Co  Co111  1  0.12506066  0.37461893  0.37201276  1
  Co  Co112  1  -0.00047211  -0.00187683  0.75074236  1
  Co  Co113  1  0.12202371  0.62670628  0.12607522  1
  Co  Co114  1  0.75315945  0.50058963  0.25155325  1
  Co  Co115  1  0.62555869  0.37161065  0.37068855  1
  Co  Co116  1  0.00040883  0.49873094  0.00081170  1
  Co  Co117  1  0.62792050  0.12387556  0.12226589  1
  Co  Co118  1  0.62665846  0.88040947  0.12423094  1
  Co  Co119  1  0.75272070  0.24500439  0.25083078  1
  Co  Co120  1  0.62458516  0.62368932  0.37385604  1
  Co  Co121  1  0.24913364  0.25005969  0.49887273  1
  Co  Co122  1  0.62133391  0.87721695  0.87505219  1
  Co  Co123  1  0.37500666  0.86976050  0.88034438  1
  Co  Co124  1  0.87035423  0.37732217  0.87596694  1
  Co  Co125  1  0.37154032  0.87414205  0.62395474  1
  Co  Co126  1  0.12975191  0.37498370  0.87720771  1
  Co  Co127  1  0.25040378  -0.00056270  0.49661464  1
