# generated using pymatgen
data_Fe45Co19
_symmetry_space_group_name_H-M   'P 1'
_cell_length_a   11.41670559
_cell_length_b   11.41752252
_cell_length_c   11.41645269
_cell_angle_alpha   90.00384520
_cell_angle_beta   89.99547721
_cell_angle_gamma   90.00975886
_symmetry_Int_Tables_number   1
_chemical_formula_structural   Fe45Co19
_chemical_formula_sum   'Fe90 Co38'
_cell_volume   1488.14020930
_cell_formula_units_Z   2
loop_
 _symmetry_equiv_pos_site_id
 _symmetry_equiv_pos_as_xyz
  1  'x, y, z'
loop_
 _atom_site_type_symbol
 _atom_site_label
 _atom_site_symmetry_multiplicity
 _atom_site_fract_x
 _atom_site_fract_y
 _atom_site_fract_z
 _atom_site_occupancy
  Fe  Fe0  1  0.50050557  0.00216108  0.24958095  1
  Fe  Fe1  1  0.25131722  0.25159038  0.00245627  1
  Fe  Fe2  1  0.74907612  0.75282739  0.25029190  1
  Fe  Fe3  1  0.87693009  0.87284035  0.12327683  1
  Fe  Fe4  1  0.62502038  0.37440039  0.87557953  1
  Fe  Fe5  1  0.75068638  0.50205290  0.50021697  1
  Fe  Fe6  1  0.25067110  0.00030541  0.50285135  1
  Fe  Fe7  1  0.87627409  0.62999929  0.62733818  1
  Fe  Fe8  1  0.87438372  0.12674274  0.12609484  1
  Fe  Fe9  1  0.74982472  0.49761085  0.74886494  1
  Fe  Fe10  1  0.12397511  0.87461503  0.87704883  1
  Fe  Fe11  1  0.25035544  0.50035044  0.50236801  1
  Fe  Fe12  1  0.24813787  0.25174334  0.74988469  1
  Fe  Fe13  1  0.87520020  0.37601284  0.87757367  1
  Fe  Fe14  1  0.49959478  0.74830826  0.24656781  1
  Fe  Fe15  1  0.25096311  0.49936672  0.74913972  1
  Fe  Fe16  1  0.12472297  0.37671341  0.37458536  1
  Fe  Fe17  1  0.37188349  0.12433599  0.87419595  1
  Fe  Fe18  1  0.24970738  0.75184834  0.74995743  1
  Fe  Fe19  1  0.62683545  0.62521770  0.37336157  1
  Fe  Fe20  1  0.50098226  0.75055969  0.50033782  1
  Fe  Fe21  1  0.74913610  0.75402141  0.75427882  1
  Fe  Fe22  1  0.62467514  0.13052605  0.12695427  1
  Fe  Fe23  1  0.62595535  0.87676854  0.62567255  1
  Fe  Fe24  1  0.25023498  -0.00277724  0.74764976  1
  Fe  Fe25  1  0.12038228  0.87171335  0.62311612  1
  Fe  Fe26  1  0.24841069  0.49814549  0.00307868  1
  Fe  Fe27  1  0.49707700  -0.00070530  0.74669731  1
  Fe  Fe28  1  0.50051697  0.00427240  0.00056558  1
  Fe  Fe29  1  -0.00017416  0.24871292  -0.00055413  1
  Fe  Fe30  1  0.62127617  0.37059921  0.12565029  1
  Fe  Fe31  1  0.37389948  0.87375543  0.37353052  1
  Fe  Fe32  1  0.75591688  -0.00098561  0.74930488  1
  Fe  Fe33  1  0.12616542  0.12625200  0.12578558  1
  Fe  Fe34  1  0.75123941  0.24622656  0.49863835  1
  Fe  Fe35  1  0.75108944  0.00095922  0.00150900  1
  Fe  Fe36  1  -0.00316873  -0.00191194  0.75186610  1
  Fe  Fe37  1  0.75158145  0.75064551  0.49824228  1
  Fe  Fe38  1  0.37615162  0.37609629  0.37611437  1
  Fe  Fe39  1  0.74458202  0.74940873  -0.00310000  1
  Fe  Fe40  1  0.37685218  0.37615597  0.87725098  1
  Fe  Fe41  1  0.62403085  0.62599218  0.62846373  1
  Fe  Fe42  1  0.50109057  0.24551751  0.49867168  1
  Fe  Fe43  1  0.62539666  0.37307797  0.37497425  1
  Fe  Fe44  1  -0.00120793  0.24959618  0.25314918  1
  Fe  Fe45  1  0.37763996  0.62622508  0.87462469  1
  Fe  Fe46  1  0.12346118  0.37686817  0.87712147  1
  Fe  Fe47  1  0.50068318  0.50094158  0.24986823  1
  Fe  Fe48  1  0.37910295  0.87374233  0.87791910  1
  Fe  Fe49  1  0.12593680  0.12403979  0.87515676  1
  Fe  Fe50  1  0.62500325  0.37276831  0.62414219  1
  Fe  Fe51  1  0.00279277  0.75095093  0.25651624  1
  Fe  Fe52  1  0.25031287  0.49745873  0.24639497  1
  Fe  Fe53  1  0.37772729  0.62691741  0.62719545  1
  Fe  Fe54  1  0.12214081  0.62735869  0.62563754  1
  Fe  Fe55  1  0.37601261  0.37258338  0.62403507  1
  Fe  Fe56  1  -0.00162738  0.50442578  0.49725995  1
  Fe  Fe57  1  0.00039851  0.50427636  0.75422641  1
  Fe  Fe58  1  -0.00173629  0.24916248  0.75178227  1
  Fe  Fe59  1  0.74831867  0.50049589  0.00138847  1
  Fe  Fe60  1  -0.00106094  0.74507775  -0.00529990  1
  Fe  Fe61  1  0.24822278  0.74880751  0.49845604  1
  Fe  Fe62  1  0.62468814  0.87632653  0.37471224  1
  Fe  Fe63  1  0.12535724  0.62579971  0.12575082  1
  Fe  Fe64  1  -0.00135081  0.50037837  0.25074929  1
  Fe  Fe65  1  0.87665807  0.37415770  0.62337707  1
  Fe  Fe66  1  0.74949036  -0.00015815  0.24814630  1
  Fe  Fe67  1  0.12317487  0.12422014  0.62572330  1
  Fe  Fe68  1  0.50069495  0.24932204  0.75054823  1
  Fe  Fe69  1  0.62949377  0.12520291  0.87206830  1
  Fe  Fe70  1  0.75223283  0.00065054  0.50087769  1
  Fe  Fe71  1  0.49899361  0.00114266  0.50211413  1
  Fe  Fe72  1  0.25274552  0.25262421  0.24746394  1
  Fe  Fe73  1  0.37254118  0.62559869  0.37199473  1
  Fe  Fe74  1  0.24946107  -0.00203658  0.00327253  1
  Fe  Fe75  1  0.87310933  0.62604193  0.12558366  1
  Fe  Fe76  1  0.62236951  0.87492853  0.12290645  1
  Fe  Fe77  1  0.50248844  0.50453993  0.00158976  1
  Fe  Fe78  1  0.24755893  -0.00557690  0.24554755  1
  Fe  Fe79  1  0.00023060  0.24780947  0.49620724  1
  Fe  Fe80  1  0.00173618  -0.00174274  0.25122124  1
  Fe  Fe81  1  -0.00088873  0.00186727  -0.00020080  1
  Fe  Fe82  1  0.12241792  0.37671750  0.62535440  1
  Fe  Fe83  1  0.75037304  0.49659982  0.25005311  1
  Fe  Fe84  1  -0.00245948  -0.00088814  0.49720087  1
  Fe  Fe85  1  0.87670213  0.37427857  0.12351080  1
  Fe  Fe86  1  0.24747788  0.24979069  0.50060349  1
  Fe  Fe87  1  0.50110538  0.50182947  0.50090652  1
  Fe  Fe88  1  0.37241145  0.12319832  0.37354168  1
  Fe  Fe89  1  0.25247579  0.75234530  0.00450380  1
  Co  Co90  1  0.49692326  0.24843134  0.25223483  1
  Co  Co91  1  0.37347297  0.12826868  0.62616838  1
  Co  Co92  1  0.75266871  0.25209394  0.74968315  1
  Co  Co93  1  0.37298931  0.62421068  0.12490145  1
  Co  Co94  1  0.87281623  0.12209220  0.37292316  1
  Co  Co95  1  0.37413465  0.87213828  0.62314702  1
  Co  Co96  1  0.87427621  0.37566871  0.37740935  1
  Co  Co97  1  0.12781091  0.87718964  0.37826024  1
  Co  Co98  1  0.86866945  0.62304470  0.87514591  1
  Co  Co99  1  0.87220331  0.87683596  0.37320631  1
  Co  Co100  1  0.37339969  0.12376427  0.12533440  1
  Co  Co101  1  0.87477718  0.87521701  0.87925407  1
  Co  Co102  1  0.12810115  0.12419308  0.37302572  1
  Co  Co103  1  0.00062744  0.74911923  0.75663459  1
  Co  Co104  1  0.38108046  0.87604895  0.12404605  1
  Co  Co105  1  -0.00122110  0.74820738  0.49281862  1
  Co  Co106  1  0.11859090  0.87194147  0.12112809  1
  Co  Co107  1  0.50430535  0.74637853  0.00122179  1
  Co  Co108  1  0.00046486  0.50433234  -0.00051476  1
  Co  Co109  1  0.62674422  0.12362689  0.37385827  1
  Co  Co110  1  0.12897082  0.62174671  0.37299300  1
  Co  Co111  1  0.75011381  0.25059458  0.00066327  1
  Co  Co112  1  0.75158879  0.25128048  0.25094596  1
  Co  Co113  1  0.12101979  0.37430218  0.12482604  1
  Co  Co114  1  0.62678400  0.12353341  0.62763521  1
  Co  Co115  1  0.87352917  0.12600192  0.87630073  1
  Co  Co116  1  0.49924772  0.24552859  -0.00241440  1
  Co  Co117  1  0.62896017  0.62474492  0.12841435  1
  Co  Co118  1  0.49936364  0.49685538  0.74762526  1
  Co  Co119  1  0.24829075  0.75422179  0.24691033  1
  Co  Co120  1  0.62322669  0.88059654  0.87560794  1
  Co  Co121  1  0.62333097  0.62235797  0.86946051  1
  Co  Co122  1  0.87666668  0.12659809  0.62448042  1
  Co  Co123  1  0.50179056  0.75418386  0.75009527  1
  Co  Co124  1  0.87805042  0.87037794  0.62434550  1
  Co  Co125  1  0.87064617  0.62443714  0.37197259  1
  Co  Co126  1  0.13168458  0.62522035  0.87681606  1
  Co  Co127  1  0.38112463  0.37588148  0.12259933  1
