# generated using pymatgen
data_Fe45Co19
_symmetry_space_group_name_H-M   'P 1'
_cell_length_a   11.41458194
_cell_length_b   11.41529199
_cell_length_c   11.41477901
_cell_angle_alpha   89.99740045
_cell_angle_beta   90.00328809
_cell_angle_gamma   90.00567177
_symmetry_Int_Tables_number   1
_chemical_formula_structural   Fe45Co19
_chemical_formula_sum   'Fe90 Co38'
_cell_volume   1487.35466341
_cell_formula_units_Z   2
loop_
 _symmetry_equiv_pos_site_id
 _symmetry_equiv_pos_as_xyz
  1  'x, y, z'
loop_
 _atom_site_type_symbol
 _atom_site_label
 _atom_site_symmetry_multiplicity
 _atom_site_fract_x
 _atom_site_fract_y
 _atom_site_fract_z
 _atom_site_occupancy
  Fe  Fe0  1  0.74923785  0.49980564  0.00181490  1
  Fe  Fe1  1  0.24316983  0.00023771  0.49950114  1
  Fe  Fe2  1  0.62717146  0.37465456  0.62600693  1
  Fe  Fe3  1  0.62172436  0.62601574  0.62071153  1
  Fe  Fe4  1  0.00416643  0.75143846  0.49886781  1
  Fe  Fe5  1  0.87676444  0.62419502  0.62116848  1
  Fe  Fe6  1  0.24562333  0.24979795  0.50197016  1
  Fe  Fe7  1  0.62522062  0.12384066  0.62575003  1
  Fe  Fe8  1  0.87477894  0.37662539  0.62570582  1
  Fe  Fe9  1  0.62629375  0.37491229  0.12783503  1
  Fe  Fe10  1  -0.00146018  0.24930945  0.24923670  1
  Fe  Fe11  1  0.00169762  0.25259885  0.00008766  1
  Fe  Fe12  1  0.74920366  0.74976255  0.49774403  1
  Fe  Fe13  1  0.25018623  0.25063136  0.00113592  1
  Fe  Fe14  1  0.37395633  0.37381685  0.37501301  1
  Fe  Fe15  1  0.25122725  0.49786266  -0.00069292  1
  Fe  Fe16  1  0.50210752  0.25194795  0.00142230  1
  Fe  Fe17  1  0.37072135  0.87559006  0.37359897  1
  Fe  Fe18  1  0.12764070  0.87627789  0.87067577  1
  Fe  Fe19  1  0.74853823  0.00094841  0.00058384  1
  Fe  Fe20  1  0.87631185  0.62625079  0.12271587  1
  Fe  Fe21  1  0.24693878  0.75138538  0.49956969  1
  Fe  Fe22  1  0.75062305  0.74874550  0.74895811  1
  Fe  Fe23  1  0.49961322  0.75135131  0.74902213  1
  Fe  Fe24  1  0.87595538  0.87196986  0.12560577  1
  Fe  Fe25  1  -0.00147027  0.74994971  0.74997653  1
  Fe  Fe26  1  0.24957428  0.49783018  0.50174631  1
  Fe  Fe27  1  0.62308106  0.12622407  0.37228605  1
  Fe  Fe28  1  0.62735960  0.87641480  0.62513571  1
  Fe  Fe29  1  0.24925454  0.24917026  0.74953011  1
  Fe  Fe30  1  0.49812687  -0.00054638  0.75023635  1
  Fe  Fe31  1  0.12158225  0.12373364  0.87316302  1
  Fe  Fe32  1  0.12013930  0.12338715  0.62892077  1
  Fe  Fe33  1  0.25179799  0.75152390  0.00133668  1
  Fe  Fe34  1  0.37582334  0.12477508  0.62352973  1
  Fe  Fe35  1  0.25117654  0.74673520  0.74898101  1
  Fe  Fe36  1  0.37101687  0.87659540  0.62587926  1
  Fe  Fe37  1  0.75049005  0.24757332  0.49986153  1
  Fe  Fe38  1  0.62216764  0.62557543  0.12422536  1
  Fe  Fe39  1  0.50033622  0.49867209  0.74998282  1
  Fe  Fe40  1  0.37539629  0.12530588  0.37517020  1
  Fe  Fe41  1  0.37883908  0.12461628  0.12695505  1
  Fe  Fe42  1  0.49909547  -0.00314786  0.00038951  1
  Fe  Fe43  1  0.00141966  0.25267838  0.50156853  1
  Fe  Fe44  1  0.87251776  0.37752550  0.37261994  1
  Fe  Fe45  1  0.25131732  0.24958969  0.24841775  1
  Fe  Fe46  1  0.87555490  0.12558655  0.12170889  1
  Fe  Fe47  1  -0.00048823  0.50212108  0.25023252  1
  Fe  Fe48  1  0.75104323  0.00090721  0.25025488  1
  Fe  Fe49  1  0.62573264  0.87429058  0.87419095  1
  Fe  Fe50  1  0.62535021  0.87309748  0.37447864  1
  Fe  Fe51  1  0.25190639  0.00032660  -0.00090346  1
  Fe  Fe52  1  0.87342555  0.37394966  0.87551290  1
  Fe  Fe53  1  0.37633796  0.37353170  0.87392182  1
  Fe  Fe54  1  0.75048327  0.74640648  0.25130567  1
  Fe  Fe55  1  0.00397322  0.74572908  0.25051013  1
  Fe  Fe56  1  0.24858087  0.00296443  0.25068060  1
  Fe  Fe57  1  0.87523817  0.87839112  0.62092960  1
  Fe  Fe58  1  0.12461438  0.12559790  0.12546378  1
  Fe  Fe59  1  0.75052734  0.50319613  0.75058279  1
  Fe  Fe60  1  0.12562971  0.37559887  0.37369294  1
  Fe  Fe61  1  0.24996164  0.50239485  0.24961663  1
  Fe  Fe62  1  0.37781332  0.12644091  0.87433968  1
  Fe  Fe63  1  0.37456057  0.37423895  0.62656501  1
  Fe  Fe64  1  0.00092605  -0.00304245  0.00127315  1
  Fe  Fe65  1  0.62465117  0.87516566  0.12626508  1
  Fe  Fe66  1  0.87858282  0.12150286  0.37802716  1
  Fe  Fe67  1  0.12491230  0.37658811  0.87017566  1
  Fe  Fe68  1  0.37802314  0.62412069  0.62189758  1
  Fe  Fe69  1  0.87836644  0.87653981  0.37504863  1
  Fe  Fe70  1  0.37820732  0.62573633  0.87726036  1
  Fe  Fe71  1  0.50139026  0.49721988  0.25287917  1
  Fe  Fe72  1  0.75109599  0.24800261  0.24851078  1
  Fe  Fe73  1  0.75227778  0.24530603  0.75158587  1
  Fe  Fe74  1  0.37633460  0.62372093  0.12290853  1
  Fe  Fe75  1  0.12793011  0.87348813  0.12863704  1
  Fe  Fe76  1  0.62311425  0.62617082  0.87757775  1
  Fe  Fe77  1  0.12483447  0.62403885  0.87536547  1
  Fe  Fe78  1  0.74763673  0.50235509  0.49558772  1
  Fe  Fe79  1  -0.00026238  0.49890688  -0.00022703  1
  Fe  Fe80  1  0.87460832  0.62787022  0.87862901  1
  Fe  Fe81  1  0.49641800  0.75205792  0.24931350  1
  Fe  Fe82  1  0.12541109  0.37678581  0.12648986  1
  Fe  Fe83  1  0.12304309  0.62045330  0.62506929  1
  Fe  Fe84  1  0.37764997  0.62520975  0.37871055  1
  Fe  Fe85  1  0.87353279  0.87261987  0.87802009  1
  Fe  Fe86  1  0.50154881  -0.00211887  0.49810112  1
  Fe  Fe87  1  0.74655645  0.24917877  -0.00020694  1
  Fe  Fe88  1  0.75429312  0.00330920  0.75147736  1
  Fe  Fe89  1  0.50118455  0.25234984  0.49939804  1
  Co  Co90  1  0.87633350  0.62507108  0.37654390  1
  Co  Co91  1  0.74672175  0.74976994  0.00197645  1
  Co  Co92  1  0.50144977  0.49380591  0.49926324  1
  Co  Co93  1  0.12642204  0.62227382  0.37862577  1
  Co  Co94  1  0.74916207  0.50482492  0.24973910  1
  Co  Co95  1  0.49839856  0.75486000  0.00144134  1
  Co  Co96  1  0.25415632  0.50150078  0.75042290  1
  Co  Co97  1  0.74678820  0.00045380  0.49660126  1
  Co  Co98  1  0.87438800  0.37489104  0.12537480  1
  Co  Co99  1  0.25064527  0.74419800  0.25032428  1
  Co  Co100  1  0.62262702  0.12372744  0.87409621  1
  Co  Co101  1  0.62228097  0.12435656  0.12699441  1
  Co  Co102  1  0.62675832  0.37507712  0.87287718  1
  Co  Co103  1  0.00717892  -0.00197492  0.49914232  1
  Co  Co104  1  0.37469868  0.37601783  0.12529401  1
  Co  Co105  1  0.50102719  0.49602331  -0.00044090  1
  Co  Co106  1  0.12362216  0.37863036  0.62961054  1
  Co  Co107  1  -0.00625835  -0.00190441  0.75191608  1
  Co  Co108  1  -0.00414515  0.50182921  0.75219659  1
  Co  Co109  1  0.50090102  0.25106784  0.74801659  1
  Co  Co110  1  0.00447144  0.75233952  -0.00032574  1
  Co  Co111  1  0.37111290  0.87699374  0.12823060  1
  Co  Co112  1  0.25215457  0.00445530  0.75065181  1
  Co  Co113  1  0.12596428  0.62353058  0.12137839  1
  Co  Co114  1  0.12589086  0.87576994  0.63112792  1
  Co  Co115  1  0.49882917  0.25296076  0.25061585  1
  Co  Co116  1  0.12515210  0.87413452  0.36881917  1
  Co  Co117  1  0.37298222  0.87413566  0.87239525  1
  Co  Co118  1  -0.00082405  0.49631295  0.49841199  1
  Co  Co119  1  0.87724917  0.12183691  0.62011127  1
  Co  Co120  1  0.49846012  0.75690416  0.50099351  1
  Co  Co121  1  -0.00064186  0.00177343  0.24726399  1
  Co  Co122  1  0.50053342  -0.00275423  0.25242521  1
  Co  Co123  1  0.62928948  0.37282008  0.37347366  1
  Co  Co124  1  0.12327784  0.12717692  0.37248436  1
  Co  Co125  1  -0.00364845  0.25025010  0.74927396  1
  Co  Co126  1  0.61996615  0.62818310  0.37713380  1
  Co  Co127  1  0.87765813  0.12621737  0.88073924  1
