# generated using pymatgen
data_Fe45Co19
_symmetry_space_group_name_H-M   'P 1'
_cell_length_a   11.41424636
_cell_length_b   11.41426534
_cell_length_c   11.41623686
_cell_angle_alpha   89.99818768
_cell_angle_beta   90.00602208
_cell_angle_gamma   89.98919121
_symmetry_Int_Tables_number   1
_chemical_formula_structural   Fe45Co19
_chemical_formula_sum   'Fe90 Co38'
_cell_volume   1487.36708481
_cell_formula_units_Z   2
loop_
 _symmetry_equiv_pos_site_id
 _symmetry_equiv_pos_as_xyz
  1  'x, y, z'
loop_
 _atom_site_type_symbol
 _atom_site_label
 _atom_site_symmetry_multiplicity
 _atom_site_fract_x
 _atom_site_fract_y
 _atom_site_fract_z
 _atom_site_occupancy
  Fe  Fe0  1  0.12459996  0.62600190  0.87242165  1
  Fe  Fe1  1  0.87818930  0.87616074  0.37944705  1
  Fe  Fe2  1  0.62898070  0.62831604  0.87611927  1
  Fe  Fe3  1  -0.00097337  0.00074740  0.74784729  1
  Fe  Fe4  1  0.74963409  0.00079785  0.75230963  1
  Fe  Fe5  1  0.62761125  0.37272739  0.36976786  1
  Fe  Fe6  1  0.50152438  0.24869428  0.24748934  1
  Fe  Fe7  1  0.25071801  0.74986599  0.25158978  1
  Fe  Fe8  1  0.62655205  0.62637181  0.12480415  1
  Fe  Fe9  1  0.12577248  0.62670195  0.12583524  1
  Fe  Fe10  1  0.87389748  0.62574834  0.37592804  1
  Fe  Fe11  1  0.62411532  0.37290226  0.87803930  1
  Fe  Fe12  1  0.37360877  0.87460317  0.62462081  1
  Fe  Fe13  1  -0.00153245  0.49991564  0.49762504  1
  Fe  Fe14  1  0.24754369  0.75330733  -0.00187483  1
  Fe  Fe15  1  0.62630889  0.12394184  0.12379248  1
  Fe  Fe16  1  0.37603177  0.62442066  0.37537609  1
  Fe  Fe17  1  0.37606109  0.37412963  0.87376828  1
  Fe  Fe18  1  0.24552498  0.25605280  0.75012460  1
  Fe  Fe19  1  0.49981354  0.50206735  0.24793999  1
  Fe  Fe20  1  0.87431642  0.87269965  0.87397075  1
  Fe  Fe21  1  0.87731137  0.12700359  0.87737734  1
  Fe  Fe22  1  0.87262480  0.37329146  0.36910452  1
  Fe  Fe23  1  -0.00157275  0.24944691  0.49987079  1
  Fe  Fe24  1  0.00196208  0.49857218  0.74939560  1
  Fe  Fe25  1  0.12430431  0.87346585  0.62346559  1
  Fe  Fe26  1  0.74845559  0.00067716  0.49899003  1
  Fe  Fe27  1  0.12572339  0.62534470  0.37681658  1
  Fe  Fe28  1  0.75366053  0.50049345  0.00348283  1
  Fe  Fe29  1  0.62659146  0.37210469  0.62638335  1
  Fe  Fe30  1  0.62302551  0.87461289  0.37415391  1
  Fe  Fe31  1  0.37334313  0.87544072  0.12544552  1
  Fe  Fe32  1  0.62457355  0.12782247  0.87694652  1
  Fe  Fe33  1  0.75003252  0.49778209  0.49719758  1
  Fe  Fe34  1  0.62916541  0.62544764  0.62487743  1
  Fe  Fe35  1  0.87274629  0.12697595  0.62574767  1
  Fe  Fe36  1  0.50010463  0.74918652  0.74956942  1
  Fe  Fe37  1  0.12364623  0.12586741  0.87609065  1
  Fe  Fe38  1  0.62793752  0.87382364  0.62684006  1
  Fe  Fe39  1  0.62521287  0.62608034  0.37526232  1
  Fe  Fe40  1  0.49976741  0.25104642  0.49945684  1
  Fe  Fe41  1  0.62721548  0.12871786  0.62473926  1
  Fe  Fe42  1  0.24871022  0.25044601  0.00147240  1
  Fe  Fe43  1  0.24774369  -0.00269273  0.75199436  1
  Fe  Fe44  1  -0.00521449  0.74820632  0.74469280  1
  Fe  Fe45  1  0.37624735  0.37506719  0.12526435  1
  Fe  Fe46  1  0.75125518  0.49865015  0.75321008  1
  Fe  Fe47  1  0.50081835  -0.00104381  -0.00061375  1
  Fe  Fe48  1  0.37227936  0.62416900  0.62617325  1
  Fe  Fe49  1  0.37406141  0.12715579  0.37350756  1
  Fe  Fe50  1  0.87511467  0.12415952  0.37547148  1
  Fe  Fe51  1  0.37367949  0.12741150  0.62683414  1
  Fe  Fe52  1  0.50044248  0.00208883  0.50068421  1
  Fe  Fe53  1  0.50023068  0.49734233  0.50013684  1
  Fe  Fe54  1  0.87510929  0.87604756  0.12589238  1
  Fe  Fe55  1  0.74723252  -0.00455211  -0.00134073  1
  Fe  Fe56  1  0.49980882  0.75008561  0.50042604  1
  Fe  Fe57  1  0.50214626  0.75241220  0.00266898  1
  Fe  Fe58  1  0.75271273  0.25208781  0.00419896  1
  Fe  Fe59  1  0.12174459  0.87557485  0.37824203  1
  Fe  Fe60  1  0.24880487  0.00081147  0.49820308  1
  Fe  Fe61  1  0.37365639  0.12602316  0.87423709  1
  Fe  Fe62  1  0.75046997  0.75030537  0.25031235  1
  Fe  Fe63  1  -0.00227014  0.24517007  0.24544507  1
  Fe  Fe64  1  0.25116227  0.25274252  0.49816954  1
  Fe  Fe65  1  0.25246443  0.49637293  0.49925948  1
  Fe  Fe66  1  0.75031850  0.00151894  0.25149828  1
  Fe  Fe67  1  0.00316128  -0.00274400  0.00046577  1
  Fe  Fe68  1  0.12539973  0.12698290  0.62379134  1
  Fe  Fe69  1  0.37324308  0.62552983  0.87484278  1
  Fe  Fe70  1  0.25108856  0.49991048  0.24920347  1
  Fe  Fe71  1  0.24918043  0.49995792  -0.00090852  1
  Fe  Fe72  1  0.88018173  0.37301004  0.87686955  1
  Fe  Fe73  1  0.50071388  0.00110326  0.25003651  1
  Fe  Fe74  1  0.50062057  0.50018611  0.75082839  1
  Fe  Fe75  1  0.24691023  -0.00029678  0.25186887  1
  Fe  Fe76  1  0.87479383  0.37385151  0.62612322  1
  Fe  Fe77  1  0.50006067  0.50053979  0.00124857  1
  Fe  Fe78  1  0.37631286  0.87591597  0.87475052  1
  Fe  Fe79  1  0.37676866  0.87482940  0.37492942  1
  Fe  Fe80  1  0.37282772  0.12319918  0.12424755  1
  Fe  Fe81  1  0.50146588  0.00190114  0.75031484  1
  Fe  Fe82  1  -0.00132470  0.50249802  0.00224426  1
  Fe  Fe83  1  0.12463495  0.37221080  0.37262972  1
  Fe  Fe84  1  0.00027721  0.75111921  0.25081084  1
  Fe  Fe85  1  -0.00084947  0.75016840  0.00115576  1
  Fe  Fe86  1  0.12829328  0.62395283  0.62425587  1
  Fe  Fe87  1  0.12550759  0.12121224  0.12478137  1
  Fe  Fe88  1  0.12272915  0.37564645  0.12499442  1
  Fe  Fe89  1  -0.00099415  0.50262550  0.24989464  1
  Co  Co90  1  0.37314249  0.62644648  0.12265535  1
  Co  Co91  1  0.12517404  0.87467242  0.12706830  1
  Co  Co92  1  0.75198711  0.24497259  0.24577933  1
  Co  Co93  1  0.11988265  0.87277620  0.87132646  1
  Co  Co94  1  0.87141920  0.61879945  0.62340235  1
  Co  Co95  1  0.49887859  0.24931521  0.00169969  1
  Co  Co96  1  0.24890707  0.25041562  0.24665581  1
  Co  Co97  1  0.87297144  0.87891538  0.62264902  1
  Co  Co98  1  0.62560446  0.37580490  0.12661987  1
  Co  Co99  1  0.87378081  0.11816869  0.12073847  1
  Co  Co100  1  0.75439770  0.74892393  0.74831234  1
  Co  Co101  1  0.49867557  0.74820180  0.24871372  1
  Co  Co102  1  0.87539705  0.62444517  0.87552719  1
  Co  Co103  1  0.75119963  0.75033793  0.49943841  1
  Co  Co104  1  0.87613559  0.62729712  0.12647826  1
  Co  Co105  1  -0.00037013  0.24830669  0.00542548  1
  Co  Co106  1  0.37704046  0.37480012  0.62799538  1
  Co  Co107  1  0.75117838  0.25146770  0.49796374  1
  Co  Co108  1  0.75128030  0.25089882  0.75438160  1
  Co  Co109  1  0.62488406  0.12635581  0.37553618  1
  Co  Co110  1  0.12291036  0.37625808  0.61981480  1
  Co  Co111  1  0.25072146  0.75007654  0.49798943  1
  Co  Co112  1  0.75076430  0.75100695  0.00205670  1
  Co  Co113  1  0.50214281  0.24928578  0.75092615  1
  Co  Co114  1  0.25066251  0.75208091  0.75143524  1
  Co  Co115  1  0.00064810  0.00124114  0.25038332  1
  Co  Co116  1  0.37637637  0.37434247  0.37134066  1
  Co  Co117  1  0.00127629  0.00388279  0.50189302  1
  Co  Co118  1  0.75039344  0.50364475  0.24831416  1
  Co  Co119  1  0.62545389  0.87177846  0.87178242  1
  Co  Co120  1  0.12450795  0.12763106  0.37440702  1
  Co  Co121  1  0.24759915  -0.00237851  -0.00267784  1
  Co  Co122  1  0.00204123  0.25044499  0.74882418  1
  Co  Co123  1  0.62567701  0.87573988  0.12860128  1
  Co  Co124  1  0.12106907  0.37494006  0.87968809  1
  Co  Co125  1  0.87618389  0.37737950  0.12855253  1
  Co  Co126  1  -0.00185378  0.74660607  0.50325806  1
  Co  Co127  1  0.24799795  0.49646835  0.75146879  1
