# generated using pymatgen
data_Fe45Co19
_symmetry_space_group_name_H-M   'P 1'
_cell_length_a   11.42245403
_cell_length_b   11.42327782
_cell_length_c   11.42225333
_cell_angle_alpha   90.00822880
_cell_angle_beta   89.99378503
_cell_angle_gamma   90.00272542
_symmetry_Int_Tables_number   1
_chemical_formula_structural   Fe45Co19
_chemical_formula_sum   'Fe90 Co38'
_cell_volume   1490.39690136
_cell_formula_units_Z   2
loop_
 _symmetry_equiv_pos_site_id
 _symmetry_equiv_pos_as_xyz
  1  'x, y, z'
loop_
 _atom_site_type_symbol
 _atom_site_label
 _atom_site_symmetry_multiplicity
 _atom_site_fract_x
 _atom_site_fract_y
 _atom_site_fract_z
 _atom_site_occupancy
  Fe  Fe0  1  0.37775552  0.12372773  0.87343659  1
  Fe  Fe1  1  0.62332518  0.12474390  0.37442662  1
  Fe  Fe2  1  0.87179167  0.62548483  0.12515999  1
  Fe  Fe3  1  0.25025147  0.25118492  0.25170671  1
  Fe  Fe4  1  0.74759608  -0.00114782  0.25139269  1
  Fe  Fe5  1  0.75140761  0.49969677  0.49879369  1
  Fe  Fe6  1  0.12576484  0.37626001  0.87659375  1
  Fe  Fe7  1  -0.00151598  0.00040555  0.49763155  1
  Fe  Fe8  1  -0.00218110  0.50053563  0.00044270  1
  Fe  Fe9  1  0.87655879  0.62782094  0.37627025  1
  Fe  Fe10  1  0.87183963  0.87211970  0.62147857  1
  Fe  Fe11  1  0.37708059  0.12518771  0.62551357  1
  Fe  Fe12  1  0.62434161  0.62280810  0.62510659  1
  Fe  Fe13  1  0.25227234  0.50099527  0.49805580  1
  Fe  Fe14  1  0.25083811  0.74979511  0.50050666  1
  Fe  Fe15  1  0.12608640  0.12297335  0.87732144  1
  Fe  Fe16  1  0.49942483  0.25352601  0.49980469  1
  Fe  Fe17  1  0.50015789  -0.00091899  0.00202793  1
  Fe  Fe18  1  0.37871928  0.37534683  0.87450808  1
  Fe  Fe19  1  0.62260784  0.87422111  0.12785049  1
  Fe  Fe20  1  0.12282628  0.37520921  0.37502614  1
  Fe  Fe21  1  0.74976100  0.75224845  0.00064542  1
  Fe  Fe22  1  0.12703489  0.87576793  0.87534661  1
  Fe  Fe23  1  0.12647286  0.37706839  0.12485656  1
  Fe  Fe24  1  0.25166978  -0.00084780  0.49893698  1
  Fe  Fe25  1  0.37531637  0.87611926  0.87191673  1
  Fe  Fe26  1  0.37447307  0.37683677  0.12767322  1
  Fe  Fe27  1  0.87381280  0.37484121  0.87504212  1
  Fe  Fe28  1  0.87242794  0.12315025  0.87746036  1
  Fe  Fe29  1  0.74702565  0.25199839  0.74999288  1
  Fe  Fe30  1  0.62453410  0.62402352  0.87646817  1
  Fe  Fe31  1  0.62580557  0.87401911  0.62274606  1
  Fe  Fe32  1  0.12531166  0.62512136  0.87620191  1
  Fe  Fe33  1  0.50107621  -0.00144913  0.49924221  1
  Fe  Fe34  1  0.62106838  0.62344247  0.37431106  1
  Fe  Fe35  1  -0.00131313  0.75085599  0.00243066  1
  Fe  Fe36  1  0.50315867  0.49904636  0.00393002  1
  Fe  Fe37  1  -0.00050987  0.50188842  0.24998972  1
  Fe  Fe38  1  0.25220211  0.75033349  -0.00008061  1
  Fe  Fe39  1  0.74793679  0.74919270  0.25149112  1
  Fe  Fe40  1  0.12631201  0.12375878  0.12533403  1
  Fe  Fe41  1  0.12558517  0.37507366  0.62375715  1
  Fe  Fe42  1  0.87182216  0.37742477  0.12684274  1
  Fe  Fe43  1  0.00004232  0.24973543  0.75122368  1
  Fe  Fe44  1  0.12452782  0.87358967  0.37443775  1
  Fe  Fe45  1  0.87472451  0.87565397  0.87581571  1
  Fe  Fe46  1  0.25175709  0.24948389  0.74974240  1
  Fe  Fe47  1  0.62354103  0.12535244  0.87582659  1
  Fe  Fe48  1  0.25042235  0.74824354  0.25006810  1
  Fe  Fe49  1  0.12634988  0.87495408  0.62527740  1
  Fe  Fe50  1  0.50150229  0.74922600  0.49902332  1
  Fe  Fe51  1  0.25204067  0.25056046  0.00008444  1
  Fe  Fe52  1  0.87321104  0.62571523  0.87452309  1
  Fe  Fe53  1  0.62398370  0.12676275  0.62345356  1
  Fe  Fe54  1  0.75107387  0.25156500  0.49758307  1
  Fe  Fe55  1  0.49953969  0.75012777  0.00183944  1
  Fe  Fe56  1  -0.00219873  0.24833120  0.49661983  1
  Fe  Fe57  1  -0.00093380  -0.00020516  0.74960211  1
  Fe  Fe58  1  0.74820508  0.49738261  0.74990582  1
  Fe  Fe59  1  0.37705215  0.12531075  0.12694311  1
  Fe  Fe60  1  0.12415511  0.62678712  0.37613478  1
  Fe  Fe61  1  0.12608562  0.87563234  0.12494360  1
  Fe  Fe62  1  0.87169446  0.12152773  0.12308889  1
  Fe  Fe63  1  0.37766184  0.37797444  0.37276140  1
  Fe  Fe64  1  0.25273731  -0.00010885  0.25033506  1
  Fe  Fe65  1  0.87284675  0.87216190  0.37728774  1
  Fe  Fe66  1  0.37713065  0.62460448  0.62569393  1
  Fe  Fe67  1  0.74724310  0.25170236  0.00147470  1
  Fe  Fe68  1  -0.00131767  0.24835736  0.24988602  1
  Fe  Fe69  1  -0.00266420  0.50159818  0.50245989  1
  Fe  Fe70  1  0.37422477  0.62409787  0.12695460  1
  Fe  Fe71  1  0.74814509  -0.00051180  0.74885023  1
  Fe  Fe72  1  0.37664475  0.12529331  0.37467879  1
  Fe  Fe73  1  0.37874544  0.62460628  0.87412758  1
  Fe  Fe74  1  0.25136971  0.25053034  0.49805445  1
  Fe  Fe75  1  -0.00109298  0.50070027  0.74779214  1
  Fe  Fe76  1  0.62400221  0.37714708  0.37287324  1
  Fe  Fe77  1  0.12658995  0.62345674  0.12421081  1
  Fe  Fe78  1  0.74935088  0.24974855  0.25058455  1
  Fe  Fe79  1  0.62327701  0.87455317  0.87460666  1
  Fe  Fe80  1  -0.00210508  -0.00074896  0.25060514  1
  Fe  Fe81  1  0.37641122  0.87389849  0.62758929  1
  Fe  Fe82  1  -0.00096006  0.25020888  0.00151983  1
  Fe  Fe83  1  0.37856874  0.87229632  0.37202838  1
  Fe  Fe84  1  0.25164889  0.50087690  0.75100186  1
  Fe  Fe85  1  0.74788059  0.75002257  0.74968469  1
  Fe  Fe86  1  0.50243832  0.25201755  0.00407248  1
  Fe  Fe87  1  0.12517750  0.12498563  0.62256122  1
  Fe  Fe88  1  0.00069088  0.74850986  0.74723373  1
  Fe  Fe89  1  0.87342247  0.12625732  0.62399723  1
  Co  Co90  1  0.50079559  0.25148840  0.24966699  1
  Co  Co91  1  0.25017242  0.00162551  0.74860143  1
  Co  Co92  1  0.49885118  0.49994584  0.49930597  1
  Co  Co93  1  0.74826896  0.00161310  0.49979303  1
  Co  Co94  1  0.24918750  0.50077401  0.25347831  1
  Co  Co95  1  0.74960416  0.49920808  -0.00172329  1
  Co  Co96  1  0.62835319  0.37772232  0.12946435  1
  Co  Co97  1  -0.00057556  0.74993741  0.24785490  1
  Co  Co98  1  0.87461272  0.37313933  0.62477552  1
  Co  Co99  1  0.00164413  0.74931955  0.50304641  1
  Co  Co100  1  0.12819142  0.62322463  0.62406504  1
  Co  Co101  1  0.12645227  0.12386096  0.37364774  1
  Co  Co102  1  0.87584524  0.37594905  0.37323850  1
  Co  Co103  1  0.62412390  0.87560001  0.37434548  1
  Co  Co104  1  0.25265694  0.50012011  -0.00186615  1
  Co  Co105  1  0.50244660  0.74946854  0.74949432  1
  Co  Co106  1  0.87230179  0.12363562  0.37385755  1
  Co  Co107  1  0.50142326  0.25248926  0.74826004  1
  Co  Co108  1  0.37390469  0.37636634  0.62526536  1
  Co  Co109  1  0.49994127  0.00068399  0.25035227  1
  Co  Co110  1  0.75000436  0.50378248  0.25335470  1
  Co  Co111  1  0.50056324  0.50258646  0.24710266  1
  Co  Co112  1  0.37607988  0.87361006  0.12783917  1
  Co  Co113  1  0.62498928  0.37603814  0.62141877  1
  Co  Co114  1  0.25327189  -0.00025881  0.00093027  1
  Co  Co115  1  0.37616333  0.62680789  0.37474803  1
  Co  Co116  1  0.62514444  0.12433108  0.12662586  1
  Co  Co117  1  0.62312227  0.37535814  0.87691315  1
  Co  Co118  1  0.74535692  -0.00280576  0.00004236  1
  Co  Co119  1  0.50300072  -0.00033852  0.74808533  1
  Co  Co120  1  0.87230492  0.87619894  0.12605284  1
  Co  Co121  1  0.50165279  0.74631873  0.24884531  1
  Co  Co122  1  0.00026471  -0.00117786  0.00070380  1
  Co  Co123  1  0.50221909  0.49755144  0.74884012  1
  Co  Co124  1  0.74492973  0.74596657  0.49792213  1
  Co  Co125  1  0.62855142  0.62528144  0.12325325  1
  Co  Co126  1  0.25038879  0.74817242  0.75050905  1
  Co  Co127  1  0.87101326  0.62654180  0.62523750  1
