# generated using pymatgen
data_Fe45Co19
_symmetry_space_group_name_H-M   'P 1'
_cell_length_a   11.41499886
_cell_length_b   11.41436666
_cell_length_c   11.41558339
_cell_angle_alpha   90.00868813
_cell_angle_beta   90.00676569
_cell_angle_gamma   89.98795329
_symmetry_Int_Tables_number   1
_chemical_formula_structural   Fe45Co19
_chemical_formula_sum   'Fe90 Co38'
_cell_volume   1487.39317572
_cell_formula_units_Z   2
loop_
 _symmetry_equiv_pos_site_id
 _symmetry_equiv_pos_as_xyz
  1  'x, y, z'
loop_
 _atom_site_type_symbol
 _atom_site_label
 _atom_site_symmetry_multiplicity
 _atom_site_fract_x
 _atom_site_fract_y
 _atom_site_fract_z
 _atom_site_occupancy
  Fe  Fe0  1  0.37720324  0.37640367  0.87727132  1
  Fe  Fe1  1  0.75045887  0.24963499  0.49960933  1
  Fe  Fe2  1  0.75086417  0.00322133  0.00162618  1
  Fe  Fe3  1  0.00247323  0.00045985  0.25212397  1
  Fe  Fe4  1  0.24879980  -0.00046406  -0.00031446  1
  Fe  Fe5  1  0.75046573  0.24735675  0.00350863  1
  Fe  Fe6  1  0.24868192  0.75001611  0.75003208  1
  Fe  Fe7  1  0.74952227  0.00193971  0.49711897  1
  Fe  Fe8  1  0.25206234  0.25110260  0.00065152  1
  Fe  Fe9  1  -0.00051207  0.75040916  0.74911439  1
  Fe  Fe10  1  -0.00024481  0.25108754  0.49945894  1
  Fe  Fe11  1  0.49896252  -0.00082458  0.25077449  1
  Fe  Fe12  1  -0.00081880  0.49881744  0.75027610  1
  Fe  Fe13  1  0.12879386  0.62097876  0.12679098  1
  Fe  Fe14  1  0.12270144  0.62564109  0.87573831  1
  Fe  Fe15  1  0.87629095  0.87403752  0.37547659  1
  Fe  Fe16  1  0.62203107  0.12955971  0.37003525  1
  Fe  Fe17  1  0.12710276  0.12657396  0.12606402  1
  Fe  Fe18  1  0.13028544  0.12609754  0.37802797  1
  Fe  Fe19  1  0.37371752  0.87188043  0.62368014  1
  Fe  Fe20  1  0.12738058  0.37517482  0.62310137  1
  Fe  Fe21  1  0.49901944  0.00128408  0.00103137  1
  Fe  Fe22  1  0.74823381  0.49982078  -0.00068929  1
  Fe  Fe23  1  0.37857814  0.38099355  0.37823380  1
  Fe  Fe24  1  0.25006156  0.74245501  0.49732500  1
  Fe  Fe25  1  0.62254297  0.37724277  0.62177094  1
  Fe  Fe26  1  0.87489671  0.37609041  0.62272415  1
  Fe  Fe27  1  0.62232331  0.37335420  0.87734845  1
  Fe  Fe28  1  0.87159740  0.62241333  0.62611810  1
  Fe  Fe29  1  0.87517809  0.12726442  0.37265750  1
  Fe  Fe30  1  0.75119872  0.25456251  0.24713233  1
  Fe  Fe31  1  0.24869799  0.74823053  0.00314267  1
  Fe  Fe32  1  0.74917272  0.74776909  0.50021461  1
  Fe  Fe33  1  0.49789564  0.74866355  0.24743006  1
  Fe  Fe34  1  0.12407301  0.38013422  0.37727895  1
  Fe  Fe35  1  0.87721280  0.62155231  0.37294124  1
  Fe  Fe36  1  0.37400430  0.87325945  0.87462160  1
  Fe  Fe37  1  0.87749127  0.87677129  0.12446474  1
  Fe  Fe38  1  0.87569576  0.87649039  0.62350817  1
  Fe  Fe39  1  0.49940000  0.74789861  0.00095302  1
  Fe  Fe40  1  0.87772654  0.87420657  0.87702389  1
  Fe  Fe41  1  0.00198072  0.75012548  0.24690720  1
  Fe  Fe42  1  0.25066973  -0.00327139  0.25271356  1
  Fe  Fe43  1  0.00151791  0.25286159  0.24943804  1
  Fe  Fe44  1  0.74952929  0.25065257  0.74937836  1
  Fe  Fe45  1  -0.00033319  0.49579914  0.24707460  1
  Fe  Fe46  1  0.62451003  0.87535243  0.12392941  1
  Fe  Fe47  1  0.25250263  0.25480373  0.25229075  1
  Fe  Fe48  1  0.37318440  0.87352296  0.12498035  1
  Fe  Fe49  1  0.00176899  0.00230831  -0.00142932  1
  Fe  Fe50  1  0.74993839  0.74932437  0.00082315  1
  Fe  Fe51  1  0.62539837  0.62244983  0.12738545  1
  Fe  Fe52  1  0.37450828  0.38004224  0.62181058  1
  Fe  Fe53  1  0.62308229  0.62575111  0.87076898  1
  Fe  Fe54  1  0.87631453  0.62556360  0.87556474  1
  Fe  Fe55  1  0.62320417  0.87145458  0.37695323  1
  Fe  Fe56  1  0.24999870  0.49798069  0.75266134  1
  Fe  Fe57  1  0.00319027  0.00107376  0.50100996  1
  Fe  Fe58  1  0.74794267  -0.00222416  0.75064654  1
  Fe  Fe59  1  0.49758153  0.25138006  0.74832453  1
  Fe  Fe60  1  -0.00132616  0.24870010  0.00203504  1
  Fe  Fe61  1  0.49980131  0.24897105  0.00435603  1
  Fe  Fe62  1  0.49990414  -0.00295796  0.74923806  1
  Fe  Fe63  1  0.74675002  0.50009668  0.49428754  1
  Fe  Fe64  1  0.74651495  0.75489261  0.74904605  1
  Fe  Fe65  1  0.12564013  0.62323046  0.62585557  1
  Fe  Fe66  1  0.24519114  -0.00083644  0.74772063  1
  Fe  Fe67  1  0.75186140  0.75009664  0.24954056  1
  Fe  Fe68  1  0.87623267  0.12453743  0.62667668  1
  Fe  Fe69  1  0.50052616  0.74151856  0.50465940  1
  Fe  Fe70  1  0.37401594  0.12441159  0.12838045  1
  Fe  Fe71  1  -0.00042094  0.74622825  0.50032027  1
  Fe  Fe72  1  0.37533046  0.87081870  0.37693968  1
  Fe  Fe73  1  0.74918147  -0.00094945  0.25055035  1
  Fe  Fe74  1  0.12429694  0.37368563  0.87814298  1
  Fe  Fe75  1  0.00191176  0.24861104  0.75010755  1
  Fe  Fe76  1  0.87446822  0.62092174  0.12467019  1
  Fe  Fe77  1  0.37730878  0.62555699  0.87237517  1
  Fe  Fe78  1  0.36885259  0.12644764  0.62399219  1
  Fe  Fe79  1  0.62403742  0.12446594  0.62544374  1
  Fe  Fe80  1  0.12588494  0.87146474  0.37649756  1
  Fe  Fe81  1  0.37265679  0.12556188  0.87301753  1
  Fe  Fe82  1  0.49773988  0.00233656  0.49857008  1
  Fe  Fe83  1  0.00638926  0.00146873  0.74939795  1
  Fe  Fe84  1  0.50286510  0.50009723  0.25118832  1
  Fe  Fe85  1  0.37436475  0.38248800  0.12251017  1
  Fe  Fe86  1  0.49692594  0.24819689  0.49907712  1
  Fe  Fe87  1  0.87624442  0.37399884  0.87809926  1
  Fe  Fe88  1  0.74936938  0.49631209  0.75219436  1
  Fe  Fe89  1  0.62404954  0.12510073  0.87516066  1
  Co  Co90  1  0.24972895  0.50223534  -0.00425315  1
  Co  Co91  1  0.12484068  0.87258023  0.87651935  1
  Co  Co92  1  0.50286799  0.50717983  0.49910733  1
  Co  Co93  1  0.25260840  0.25492314  0.49525515  1
  Co  Co94  1  0.87465726  0.12512712  0.87222574  1
  Co  Co95  1  0.50349186  0.75366326  0.74796317  1
  Co  Co96  1  0.37538115  0.62391092  0.36988916  1
  Co  Co97  1  0.50152564  0.50386378  -0.00121860  1
  Co  Co98  1  0.24913001  0.75048512  0.24997800  1
  Co  Co99  1  0.25007092  -0.00317137  0.50055615  1
  Co  Co100  1  0.62418595  0.37702629  0.12455822  1
  Co  Co101  1  0.12551915  0.86986218  0.62251612  1
  Co  Co102  1  0.62374463  0.87609803  0.87961648  1
  Co  Co103  1  0.74878499  0.49760929  0.25307211  1
  Co  Co104  1  0.12540037  0.87717720  0.12481788  1
  Co  Co105  1  0.62164673  0.37101279  0.37506322  1
  Co  Co106  1  0.37286152  0.62121764  0.12716817  1
  Co  Co107  1  -0.00005617  0.50093648  0.50268242  1
  Co  Co108  1  0.62365406  0.87668007  0.61916215  1
  Co  Co109  1  0.49352462  0.25390717  0.24702844  1
  Co  Co110  1  0.00150930  0.50060571  0.00024429  1
  Co  Co111  1  0.12759345  0.37547709  0.12261717  1
  Co  Co112  1  0.62452775  0.62852768  0.37120450  1
  Co  Co113  1  0.37429644  0.62219955  0.63046604  1
  Co  Co114  1  0.25146828  0.25424737  0.75157670  1
  Co  Co115  1  0.87612793  0.37593652  0.37563511  1
  Co  Co116  1  0.12961100  0.13023869  0.62153497  1
  Co  Co117  1  0.87763784  0.12459683  0.12863187  1
  Co  Co118  1  0.62306735  0.12535818  0.12845554  1
  Co  Co119  1  0.37276527  0.12441605  0.37360550  1
  Co  Co120  1  0.49962737  0.49691241  0.75074095  1
  Co  Co121  1  0.24960789  0.50544135  0.49890634  1
  Co  Co122  1  0.25019830  0.49730220  0.25340464  1
  Co  Co123  1  0.12181127  0.62223079  0.37111544  1
  Co  Co124  1  0.12836816  0.12788484  0.87620319  1
  Co  Co125  1  0.00185913  0.74783707  0.00405021  1
  Co  Co126  1  0.62811367  0.62120615  0.63048310  1
  Co  Co127  1  0.87396060  0.37727179  0.12273692  1
