# generated using pymatgen
data_Fe45Co19
_symmetry_space_group_name_H-M   'P 1'
_cell_length_a   11.41516706
_cell_length_b   11.41419066
_cell_length_c   11.41631844
_cell_angle_alpha   90.01286810
_cell_angle_beta   89.99849321
_cell_angle_gamma   90.00255369
_symmetry_Int_Tables_number   1
_chemical_formula_structural   Fe45Co19
_chemical_formula_sum   'Fe90 Co38'
_cell_volume   1487.48795249
_cell_formula_units_Z   2
loop_
 _symmetry_equiv_pos_site_id
 _symmetry_equiv_pos_as_xyz
  1  'x, y, z'
loop_
 _atom_site_type_symbol
 _atom_site_label
 _atom_site_symmetry_multiplicity
 _atom_site_fract_x
 _atom_site_fract_y
 _atom_site_fract_z
 _atom_site_occupancy
  Fe  Fe0  1  0.87810162  0.37265598  0.12153094  1
  Fe  Fe1  1  0.37390468  0.12041314  0.37072308  1
  Fe  Fe2  1  0.49550065  0.00243667  0.00611489  1
  Fe  Fe3  1  0.87489429  0.87498161  0.87527253  1
  Fe  Fe4  1  0.25376818  0.00027959  0.75227672  1
  Fe  Fe5  1  0.12670720  0.12448422  0.87593731  1
  Fe  Fe6  1  0.87607698  0.62140974  0.87432408  1
  Fe  Fe7  1  0.74861813  0.74866716  -0.00037702  1
  Fe  Fe8  1  0.87743198  0.62694398  0.12193579  1
  Fe  Fe9  1  0.62557319  0.87514730  0.62505377  1
  Fe  Fe10  1  0.62336812  0.37548471  0.62594284  1
  Fe  Fe11  1  0.87780213  0.12592368  0.37501139  1
  Fe  Fe12  1  0.12520285  0.62483081  0.37403247  1
  Fe  Fe13  1  0.87589876  0.87481083  0.62726214  1
  Fe  Fe14  1  0.00263557  0.49772958  0.50154804  1
  Fe  Fe15  1  0.12736709  0.62529105  0.87577932  1
  Fe  Fe16  1  0.50252702  0.00032543  0.49987959  1
  Fe  Fe17  1  0.12282328  0.12571710  0.62664989  1
  Fe  Fe18  1  0.62731965  0.12332095  0.37401219  1
  Fe  Fe19  1  0.74785535  0.25294348  0.75278425  1
  Fe  Fe20  1  0.75036221  0.75000225  0.49802762  1
  Fe  Fe21  1  0.37441604  0.87509444  0.62402803  1
  Fe  Fe22  1  0.24937413  0.75310825  0.49683841  1
  Fe  Fe23  1  0.24864342  0.49905167  0.24864504  1
  Fe  Fe24  1  0.25139590  0.75101485  0.00079679  1
  Fe  Fe25  1  0.37432834  0.12504589  0.62425888  1
  Fe  Fe26  1  0.62092636  0.87759320  0.87546129  1
  Fe  Fe27  1  0.12007440  0.12309619  0.37413022  1
  Fe  Fe28  1  0.49983424  0.74760710  0.00048502  1
  Fe  Fe29  1  0.00347905  0.25440911  0.75410065  1
  Fe  Fe30  1  0.25044757  0.75281724  0.25285462  1
  Fe  Fe31  1  0.37238580  0.37265380  0.62394089  1
  Fe  Fe32  1  0.12447647  0.12853983  0.12428389  1
  Fe  Fe33  1  0.12391972  0.87579931  0.62699271  1
  Fe  Fe34  1  0.00271592  0.49888626  0.24660106  1
  Fe  Fe35  1  0.62461873  0.62392033  0.62561173  1
  Fe  Fe36  1  0.74891623  0.00088017  0.74994930  1
  Fe  Fe37  1  0.12535682  0.62564920  0.62558633  1
  Fe  Fe38  1  0.50026483  0.24920258  0.00241378  1
  Fe  Fe39  1  0.49788571  0.75121776  0.75042163  1
  Fe  Fe40  1  0.87551545  0.12574538  0.87460520  1
  Fe  Fe41  1  0.62578483  0.37751883  0.37254644  1
  Fe  Fe42  1  0.87584703  0.62329088  0.62713166  1
  Fe  Fe43  1  0.75236863  0.74875770  0.24904465  1
  Fe  Fe44  1  0.37411167  0.37446563  0.37474411  1
  Fe  Fe45  1  0.25085454  0.24924935  -0.00186314  1
  Fe  Fe46  1  0.74843716  0.25227676  -0.00284132  1
  Fe  Fe47  1  0.87549387  0.12750031  0.12327651  1
  Fe  Fe48  1  0.49823976  0.50072952  0.49814080  1
  Fe  Fe49  1  0.75084560  0.25087959  0.50079006  1
  Fe  Fe50  1  0.00497910  0.49912484  0.00032073  1
  Fe  Fe51  1  0.62496237  0.87389629  0.12567916  1
  Fe  Fe52  1  0.24970911  0.49915768  0.49873887  1
  Fe  Fe53  1  0.87765501  0.12610292  0.62706711  1
  Fe  Fe54  1  0.00146501  0.74967115  0.75286317  1
  Fe  Fe55  1  0.75177209  0.00061826  0.50160259  1
  Fe  Fe56  1  0.00053827  0.75172736  0.49875630  1
  Fe  Fe57  1  0.25125325  0.50075024  0.00330510  1
  Fe  Fe58  1  0.75093480  0.25175053  0.24906897  1
  Fe  Fe59  1  0.62209480  0.12353399  0.87562697  1
  Fe  Fe60  1  0.62210116  0.61999177  0.87392299  1
  Fe  Fe61  1  0.87788892  0.87698751  0.37320277  1
  Fe  Fe62  1  0.75123561  -0.00049839  0.24716055  1
  Fe  Fe63  1  0.87761032  0.37517053  0.37455528  1
  Fe  Fe64  1  0.37349255  0.62667872  0.62385592  1
  Fe  Fe65  1  0.74976251  0.49902343  0.50123249  1
  Fe  Fe66  1  0.24704011  0.24845967  0.49812832  1
  Fe  Fe67  1  0.87707284  0.37645168  0.62808630  1
  Fe  Fe68  1  0.87559145  0.62167812  0.37539875  1
  Fe  Fe69  1  0.37549417  0.37430775  0.87423264  1
  Fe  Fe70  1  -0.00074923  -0.00047339  0.00086015  1
  Fe  Fe71  1  0.12707942  0.87509255  0.87536494  1
  Fe  Fe72  1  0.62343754  0.37843275  0.12580836  1
  Fe  Fe73  1  0.24963370  0.49880683  0.74911817  1
  Fe  Fe74  1  0.25301208  -0.00113614  0.00420208  1
  Fe  Fe75  1  0.49967850  0.75068079  0.49561807  1
  Fe  Fe76  1  0.50155047  0.24793101  0.24954336  1
  Fe  Fe77  1  0.50075961  0.24790146  0.49810517  1
  Fe  Fe78  1  0.37407638  0.37255228  0.12676524  1
  Fe  Fe79  1  0.11951713  0.87028536  0.12679007  1
  Fe  Fe80  1  0.37405169  0.62569948  0.87361921  1
  Fe  Fe81  1  0.49987739  0.75081979  0.25376886  1
  Fe  Fe82  1  0.49919589  0.24800500  0.74949724  1
  Fe  Fe83  1  0.24604506  0.25012432  0.25241092  1
  Fe  Fe84  1  0.37536556  0.62688797  0.12803693  1
  Fe  Fe85  1  0.62720999  0.62115887  0.37159878  1
  Fe  Fe86  1  0.75086576  -0.00079714  0.00117294  1
  Fe  Fe87  1  0.74731016  0.49985102  0.00078509  1
  Fe  Fe88  1  0.24627953  -0.00083914  0.49768757  1
  Fe  Fe89  1  0.74902478  0.74842600  0.75204862  1
  Co  Co90  1  0.49617049  0.50121401  0.00266430  1
  Co  Co91  1  0.37594653  0.87541747  0.87710200  1
  Co  Co92  1  0.00024503  0.25079489  0.24912595  1
  Co  Co93  1  -0.00307326  0.74689614  0.25245674  1
  Co  Co94  1  0.25021831  0.75134497  0.74999511  1
  Co  Co95  1  0.00081349  0.24914501  -0.00339640  1
  Co  Co96  1  0.37225648  0.62474575  0.37472840  1
  Co  Co97  1  0.37073108  0.12858637  0.12858512  1
  Co  Co98  1  0.74869481  0.49890824  0.75049561  1
  Co  Co99  1  0.12896792  0.37567852  0.87790649  1
  Co  Co100  1  0.87651804  0.87224898  0.12367989  1
  Co  Co101  1  0.50087899  0.00266421  0.24592184  1
  Co  Co102  1  0.37640413  0.87204307  0.12746770  1
  Co  Co103  1  0.49607121  0.49978687  0.74782554  1
  Co  Co104  1  0.49726639  0.00065692  0.74770563  1
  Co  Co105  1  0.62381120  0.62402832  0.12869726  1
  Co  Co106  1  0.12421876  0.37581873  0.37560401  1
  Co  Co107  1  0.37627156  0.12482594  0.87724353  1
  Co  Co108  1  0.75501663  0.49910254  0.24619949  1
  Co  Co109  1  0.62882704  0.12564390  0.12391541  1
  Co  Co110  1  0.00465464  0.49897386  0.75119623  1
  Co  Co111  1  0.12646714  0.37134112  0.12277592  1
  Co  Co112  1  0.24613565  -0.00179171  0.24632682  1
  Co  Co113  1  0.00070754  -0.00075404  0.75259690  1
  Co  Co114  1  0.62651650  0.87735105  0.37354568  1
  Co  Co115  1  0.62055104  0.37751898  0.87549584  1
  Co  Co116  1  0.37527255  0.88076135  0.37444136  1
  Co  Co117  1  -0.00009594  0.75008912  -0.00466729  1
  Co  Co118  1  0.87590014  0.37817744  0.87663509  1
  Co  Co119  1  0.12563404  0.62931412  0.12542478  1
  Co  Co120  1  -0.00064551  0.00250964  0.24575519  1
  Co  Co121  1  0.49596996  0.49961658  0.25007614  1
  Co  Co122  1  0.12799614  0.37365271  0.62413431  1
  Co  Co123  1  0.62669226  0.12559168  0.62516231  1
  Co  Co124  1  0.25003624  0.24785835  0.75058811  1
  Co  Co125  1  0.00039092  0.25129137  0.50095204  1
  Co  Co126  1  -0.00079989  -0.00064294  0.50126909  1
  Co  Co127  1  0.12178976  0.87579635  0.37206403  1
