# generated using pymatgen
data_Fe45Co19
_symmetry_space_group_name_H-M   'P 1'
_cell_length_a   11.41466088
_cell_length_b   11.41493221
_cell_length_c   11.41396515
_cell_angle_alpha   90.00543952
_cell_angle_beta   90.01433772
_cell_angle_gamma   89.99569015
_symmetry_Int_Tables_number   1
_chemical_formula_structural   Fe45Co19
_chemical_formula_sum   'Fe90 Co38'
_cell_volume   1487.21198080
_cell_formula_units_Z   2
loop_
 _symmetry_equiv_pos_site_id
 _symmetry_equiv_pos_as_xyz
  1  'x, y, z'
loop_
 _atom_site_type_symbol
 _atom_site_label
 _atom_site_symmetry_multiplicity
 _atom_site_fract_x
 _atom_site_fract_y
 _atom_site_fract_z
 _atom_site_occupancy
  Fe  Fe0  1  0.12527489  0.37328177  0.87519912  1
  Fe  Fe1  1  0.74940029  0.25151153  -0.00497329  1
  Fe  Fe2  1  -0.00099620  0.74866776  0.24849453  1
  Fe  Fe3  1  0.12138507  0.87505450  0.87359879  1
  Fe  Fe4  1  -0.00028612  0.25312768  0.24772292  1
  Fe  Fe5  1  0.12627579  0.12427377  0.12560121  1
  Fe  Fe6  1  0.86858091  0.13180695  0.62500471  1
  Fe  Fe7  1  0.12734174  0.62333936  0.12722775  1
  Fe  Fe8  1  0.87432173  0.87532888  0.62244919  1
  Fe  Fe9  1  0.37467298  0.37342695  0.62507042  1
  Fe  Fe10  1  0.87671740  0.87717350  0.87581607  1
  Fe  Fe11  1  0.87480800  0.12726761  0.37409423  1
  Fe  Fe12  1  0.24982751  -0.00170970  0.74794534  1
  Fe  Fe13  1  0.25021361  0.00141880  0.00087836  1
  Fe  Fe14  1  0.49882742  0.50217978  -0.00112700  1
  Fe  Fe15  1  0.49975884  0.74797022  0.24975133  1
  Fe  Fe16  1  0.74815133  0.00067427  0.49495442  1
  Fe  Fe17  1  -0.00138903  0.25447670  0.50332888  1
  Fe  Fe18  1  0.25294068  0.24969831  0.75284815  1
  Fe  Fe19  1  0.24695814  0.74921847  0.49973078  1
  Fe  Fe20  1  0.49570615  0.24674104  -0.00117458  1
  Fe  Fe21  1  0.37618028  0.87588227  0.87467969  1
  Fe  Fe22  1  0.50623708  0.24903044  0.50170630  1
  Fe  Fe23  1  0.87370032  0.37537152  0.12113248  1
  Fe  Fe24  1  0.50387339  0.49994795  0.50510990  1
  Fe  Fe25  1  0.75213979  0.49763968  0.24938845  1
  Fe  Fe26  1  0.37012560  0.37639303  0.11939166  1
  Fe  Fe27  1  0.62830239  0.87346145  0.62248781  1
  Fe  Fe28  1  0.37448266  0.62326262  0.37692864  1
  Fe  Fe29  1  0.74967589  0.49611777  0.75202080  1
  Fe  Fe30  1  0.37228147  0.87640079  0.12724518  1
  Fe  Fe31  1  0.49881395  0.00158380  0.00131386  1
  Fe  Fe32  1  0.75231784  0.75208839  0.25427493  1
  Fe  Fe33  1  0.62639027  0.62329439  0.37579105  1
  Fe  Fe34  1  0.75136019  0.00333149  0.00055580  1
  Fe  Fe35  1  0.00039455  0.50151321  0.00237498  1
  Fe  Fe36  1  0.87502427  0.87593272  0.12371107  1
  Fe  Fe37  1  0.37116714  0.62329015  0.12331793  1
  Fe  Fe38  1  -0.00021768  0.74695177  0.50229021  1
  Fe  Fe39  1  0.00032785  0.49564487  0.74436286  1
  Fe  Fe40  1  0.61914306  0.37605494  0.87293077  1
  Fe  Fe41  1  0.24724013  0.49965246  0.50173436  1
  Fe  Fe42  1  0.12304599  0.87176157  0.62674293  1
  Fe  Fe43  1  0.00051732  0.24868156  0.00013994  1
  Fe  Fe44  1  0.37491627  0.87435332  0.62290016  1
  Fe  Fe45  1  0.87804462  0.61992365  0.37669550  1
  Fe  Fe46  1  0.87779349  0.12660176  0.87447216  1
  Fe  Fe47  1  0.12213894  0.61982427  0.37518485  1
  Fe  Fe48  1  0.74983730  0.00084678  0.75033662  1
  Fe  Fe49  1  0.62336649  0.62413046  0.87292807  1
  Fe  Fe50  1  0.62537841  0.87574472  0.87559536  1
  Fe  Fe51  1  0.49875338  0.25230222  0.24895999  1
  Fe  Fe52  1  0.12419682  0.12807674  0.37630761  1
  Fe  Fe53  1  0.62755495  0.87599563  0.12591793  1
  Fe  Fe54  1  0.12293803  0.62796883  0.86930837  1
  Fe  Fe55  1  0.62443641  0.37545738  0.12309748  1
  Fe  Fe56  1  0.87584676  0.62151833  0.87578943  1
  Fe  Fe57  1  0.12426929  0.12398512  0.87412935  1
  Fe  Fe58  1  0.37575498  0.87550015  0.37585978  1
  Fe  Fe59  1  -0.00067366  0.74923125  0.00088279  1
  Fe  Fe60  1  0.12239648  0.87600142  0.37498841  1
  Fe  Fe61  1  0.37640607  0.12472378  0.62658032  1
  Fe  Fe62  1  0.25258361  0.50048325  0.75269854  1
  Fe  Fe63  1  0.62060505  0.12348972  0.87088769  1
  Fe  Fe64  1  -0.00106403  0.00120078  0.24771343  1
  Fe  Fe65  1  0.24855229  0.00123878  0.49944096  1
  Fe  Fe66  1  0.62693833  0.12600882  0.12748143  1
  Fe  Fe67  1  0.24863242  0.74960188  -0.00177943  1
  Fe  Fe68  1  0.12925561  0.37691057  0.12293843  1
  Fe  Fe69  1  0.49742071  0.50011566  0.24830373  1
  Fe  Fe70  1  0.50286325  0.74708051  0.50086051  1
  Fe  Fe71  1  0.75216955  0.74986340  0.75038730  1
  Fe  Fe72  1  0.12660627  0.12961534  0.62502264  1
  Fe  Fe73  1  0.74966024  0.49379974  0.50045198  1
  Fe  Fe74  1  0.74953017  0.25350190  0.25288489  1
  Fe  Fe75  1  0.50141337  -0.00013351  0.25021772  1
  Fe  Fe76  1  0.24937670  0.75009665  0.25219633  1
  Fe  Fe77  1  0.62816332  0.62391132  0.12502083  1
  Fe  Fe78  1  0.75053742  0.74822284  -0.00156887  1
  Fe  Fe79  1  0.37268137  0.62632158  0.62648277  1
  Fe  Fe80  1  0.50149727  0.75071820  0.74799604  1
  Fe  Fe81  1  0.50394982  0.00229822  0.50120295  1
  Fe  Fe82  1  0.37710480  0.37569204  0.37809455  1
  Fe  Fe83  1  0.25127165  0.25135583  0.25098114  1
  Fe  Fe84  1  0.37595219  0.12541741  0.37465620  1
  Fe  Fe85  1  0.50089060  0.74979406  0.00182041  1
  Fe  Fe86  1  0.87309226  0.62299047  0.62379454  1
  Fe  Fe87  1  -0.00137019  0.00233193  0.74728113  1
  Fe  Fe88  1  0.12316824  0.37624682  0.37647499  1
  Fe  Fe89  1  0.00035243  0.00325350  0.50253463  1
  Co  Co90  1  0.25062365  0.24464437  -0.00121535  1
  Co  Co91  1  0.25264858  0.75214755  0.75098421  1
  Co  Co92  1  0.62750784  0.37111037  0.62925114  1
  Co  Co93  1  0.37440925  0.37444528  0.87846870  1
  Co  Co94  1  0.88130652  0.87669208  0.37691819  1
  Co  Co95  1  0.37851966  0.62811072  0.87441214  1
  Co  Co96  1  -0.00105710  0.00200931  0.00162874  1
  Co  Co97  1  0.74574448  0.25290718  0.49318693  1
  Co  Co98  1  0.12507929  0.87585542  0.12503099  1
  Co  Co99  1  0.12993368  0.37125341  0.62651221  1
  Co  Co100  1  0.86975610  0.36904913  0.62732196  1
  Co  Co101  1  0.49751714  0.50021813  0.74753193  1
  Co  Co102  1  0.87193927  0.12810416  0.12586086  1
  Co  Co103  1  0.62128713  0.37853468  0.37319560  1
  Co  Co104  1  -0.00143746  0.49818819  0.24525539  1
  Co  Co105  1  0.50202426  -0.00355902  0.74684635  1
  Co  Co106  1  0.24781175  0.00154684  0.25356393  1
  Co  Co107  1  0.62964938  0.62465846  0.62580184  1
  Co  Co108  1  -0.00667492  0.75050429  0.74852020  1
  Co  Co109  1  0.49737456  0.25088323  0.74941755  1
  Co  Co110  1  0.74940610  0.25182177  0.75843983  1
  Co  Co111  1  0.62953366  0.12802215  0.62810876  1
  Co  Co112  1  0.25217739  0.24966040  0.49831901  1
  Co  Co113  1  0.75200900  -0.00236904  0.25252518  1
  Co  Co114  1  0.24765029  0.50478680  -0.00621780  1
  Co  Co115  1  0.75237317  0.75049330  0.49641577  1
  Co  Co116  1  0.88037867  0.37615956  0.87625076  1
  Co  Co117  1  0.37430322  0.12421986  0.12821168  1
  Co  Co118  1  0.74838964  0.49761144  -0.00269439  1
  Co  Co119  1  0.37573201  0.12103880  0.87116547  1
  Co  Co120  1  0.12631346  0.62704855  0.62925176  1
  Co  Co121  1  0.62517613  0.12539721  0.37066704  1
  Co  Co122  1  0.62163205  0.87330632  0.37538743  1
  Co  Co123  1  0.00064787  0.24997681  0.74907014  1
  Co  Co124  1  0.87902990  0.37628030  0.37549400  1
  Co  Co125  1  0.87142211  0.62455412  0.12395962  1
  Co  Co126  1  0.25183869  0.49730357  0.25310238  1
  Co  Co127  1  0.00181901  0.49555382  0.50756530  1
