# generated using pymatgen
data_Fe45Co19
_symmetry_space_group_name_H-M   'P 1'
_cell_length_a   11.41562939
_cell_length_b   11.41463653
_cell_length_c   11.41559249
_cell_angle_alpha   90.00013525
_cell_angle_beta   89.99696776
_cell_angle_gamma   90.01030586
_symmetry_Int_Tables_number   1
_chemical_formula_structural   Fe45Co19
_chemical_formula_sum   'Fe90 Co38'
_cell_volume   1487.51172344
_cell_formula_units_Z   2
loop_
 _symmetry_equiv_pos_site_id
 _symmetry_equiv_pos_as_xyz
  1  'x, y, z'
loop_
 _atom_site_type_symbol
 _atom_site_label
 _atom_site_symmetry_multiplicity
 _atom_site_fract_x
 _atom_site_fract_y
 _atom_site_fract_z
 _atom_site_occupancy
  Fe  Fe0  1  0.50127439  0.24925531  0.50041768  1
  Fe  Fe1  1  0.12397978  0.87519980  0.87334186  1
  Fe  Fe2  1  0.75215548  0.50125321  0.24989160  1
  Fe  Fe3  1  0.87902034  0.12444318  0.37564942  1
  Fe  Fe4  1  0.75176792  0.24857296  0.75224483  1
  Fe  Fe5  1  0.24925846  0.24852815  -0.00171682  1
  Fe  Fe6  1  0.24968780  0.50326384  0.25265444  1
  Fe  Fe7  1  -0.00328648  -0.00263080  0.74816731  1
  Fe  Fe8  1  0.50067406  0.50024150  0.50079363  1
  Fe  Fe9  1  0.87987230  0.62603060  0.37825462  1
  Fe  Fe10  1  0.49871216  0.75413172  0.24781437  1
  Fe  Fe11  1  0.37389543  0.37645767  0.87284687  1
  Fe  Fe12  1  0.24837456  0.00089237  0.25116997  1
  Fe  Fe13  1  0.50154940  0.24697803  0.25175697  1
  Fe  Fe14  1  0.12518913  0.37414055  0.12545721  1
  Fe  Fe15  1  0.50150218  -0.00125259  0.50108345  1
  Fe  Fe16  1  0.87806969  0.12613819  0.62338043  1
  Fe  Fe17  1  0.50108770  0.75310293  0.50011896  1
  Fe  Fe18  1  0.00040355  0.49837567  -0.00008563  1
  Fe  Fe19  1  0.74904362  0.24825925  -0.00116368  1
  Fe  Fe20  1  0.87298388  0.87495660  0.12495400  1
  Fe  Fe21  1  0.37277369  0.87603686  0.37457359  1
  Fe  Fe22  1  0.37449891  0.62725609  0.12450606  1
  Fe  Fe23  1  0.50131057  0.50024312  0.74863537  1
  Fe  Fe24  1  0.12533627  0.37309602  0.87200387  1
  Fe  Fe25  1  0.49928035  0.24810394  0.74999359  1
  Fe  Fe26  1  0.12211145  0.12447551  0.87052089  1
  Fe  Fe27  1  0.12478310  0.37168295  0.62683339  1
  Fe  Fe28  1  0.50280583  -0.00589608  0.00448888  1
  Fe  Fe29  1  0.37572080  0.62700043  0.87376519  1
  Fe  Fe30  1  0.62501678  0.37263591  0.12471908  1
  Fe  Fe31  1  0.75385448  0.74759427  0.25085688  1
  Fe  Fe32  1  0.37202668  0.87666550  0.62565822  1
  Fe  Fe33  1  0.62567739  0.62629020  0.12609519  1
  Fe  Fe34  1  0.12505437  0.87340237  0.12682106  1
  Fe  Fe35  1  0.75063264  0.24906302  0.49787952  1
  Fe  Fe36  1  0.24563172  0.00291844  0.50138975  1
  Fe  Fe37  1  0.75030622  -0.00023228  0.49855436  1
  Fe  Fe38  1  0.25103126  0.50358733  0.49884448  1
  Fe  Fe39  1  0.87477769  0.37293668  0.12348459  1
  Fe  Fe40  1  0.24873051  0.75045706  -0.00161457  1
  Fe  Fe41  1  0.24731857  0.24563569  0.50256657  1
  Fe  Fe42  1  -0.00169860  0.50028268  0.74875623  1
  Fe  Fe43  1  0.12556580  0.62795867  0.62390772  1
  Fe  Fe44  1  0.37453517  0.37428439  0.12456464  1
  Fe  Fe45  1  0.49903662  0.49844222  0.24949792  1
  Fe  Fe46  1  0.24754920  -0.00046301  0.00001600  1
  Fe  Fe47  1  0.25070175  0.24876536  0.25014599  1
  Fe  Fe48  1  -0.00294709  0.75008359  0.74859106  1
  Fe  Fe49  1  0.87699010  0.12415612  0.87726886  1
  Fe  Fe50  1  0.12355989  0.62689925  0.87352275  1
  Fe  Fe51  1  0.37345261  0.37444402  0.62606980  1
  Fe  Fe52  1  0.75042054  0.50110307  0.49813705  1
  Fe  Fe53  1  0.87510518  0.62675957  0.87757285  1
  Fe  Fe54  1  0.50071536  0.24959769  -0.00194568  1
  Fe  Fe55  1  0.12251937  0.12554425  0.12606869  1
  Fe  Fe56  1  0.50030652  0.49923804  0.00050644  1
  Fe  Fe57  1  0.37554268  0.11979098  0.87309459  1
  Fe  Fe58  1  0.37358233  0.87636883  0.87408188  1
  Fe  Fe59  1  0.62644685  0.37486484  0.37494767  1
  Fe  Fe60  1  0.62530729  0.12258835  0.62519422  1
  Fe  Fe61  1  0.62693548  0.87850614  0.37109966  1
  Fe  Fe62  1  0.62851054  0.62843236  0.62350825  1
  Fe  Fe63  1  0.62753374  0.37427510  0.62651711  1
  Fe  Fe64  1  0.12743282  0.87315059  0.62500011  1
  Fe  Fe65  1  0.24747990  0.74723849  0.25497553  1
  Fe  Fe66  1  0.86975013  0.87127372  0.62360828  1
  Fe  Fe67  1  0.50410823  0.75589117  0.00221523  1
  Fe  Fe68  1  0.37385865  0.62789877  0.62637269  1
  Fe  Fe69  1  0.37463252  0.37476988  0.37628123  1
  Fe  Fe70  1  0.74889375  0.49931547  -0.00000539  1
  Fe  Fe71  1  -0.00094121  0.50030000  0.24995197  1
  Fe  Fe72  1  0.12504562  0.37463758  0.37570417  1
  Fe  Fe73  1  0.62238950  0.62602866  0.37408154  1
  Fe  Fe74  1  -0.00142190  0.49746531  0.50145458  1
  Fe  Fe75  1  0.62453420  0.62652090  0.87598494  1
  Fe  Fe76  1  -0.00077560  0.24985162  0.25146393  1
  Fe  Fe77  1  0.87397340  0.37415627  0.62513999  1
  Fe  Fe78  1  0.12205989  0.62699761  0.12419467  1
  Fe  Fe79  1  0.00326694  -0.00028822  0.50051484  1
  Fe  Fe80  1  0.37550200  0.12380241  0.37685818  1
  Fe  Fe81  1  0.87831607  0.87597205  0.37419099  1
  Fe  Fe82  1  0.86988201  0.87449777  0.87703389  1
  Fe  Fe83  1  0.50408779  0.75578418  0.74974308  1
  Fe  Fe84  1  0.75084072  0.50100855  0.75172616  1
  Fe  Fe85  1  0.24967397  0.50099820  -0.00104273  1
  Fe  Fe86  1  0.37595872  0.12290260  0.12388986  1
  Fe  Fe87  1  -0.00061835  -0.00098093  0.00265369  1
  Fe  Fe88  1  0.74923359  0.24511806  0.25093920  1
  Fe  Fe89  1  0.62519006  0.11944461  0.87406256  1
  Co  Co90  1  0.11865896  0.62616688  0.37874163  1
  Co  Co91  1  -0.00064436  0.75310387  0.50289434  1
  Co  Co92  1  0.37735370  0.12175588  0.62496020  1
  Co  Co93  1  0.62443691  0.37514847  0.87352021  1
  Co  Co94  1  -0.00046039  -0.00090957  0.24783961  1
  Co  Co95  1  0.11958906  0.12649621  0.62965649  1
  Co  Co96  1  0.24983879  0.75115280  0.75152495  1
  Co  Co97  1  0.63184801  0.87928927  0.87376771  1
  Co  Co98  1  -0.00070934  0.75281471  0.00004950  1
  Co  Co99  1  0.87829667  0.12762691  0.12349585  1
  Co  Co100  1  0.12288349  0.12452109  0.37301398  1
  Co  Co101  1  0.75096867  0.00261914  0.00371368  1
  Co  Co102  1  0.75324578  0.00245513  0.74750677  1
  Co  Co103  1  -0.00395236  0.25146206  0.75081145  1
  Co  Co104  1  0.75400562  0.00517282  0.24961749  1
  Co  Co105  1  0.00271275  0.25031068  -0.00055685  1
  Co  Co106  1  0.87638350  0.62469121  0.12135509  1
  Co  Co107  1  0.49779779  -0.00034219  0.24836203  1
  Co  Co108  1  0.24839541  0.00147992  0.74853204  1
  Co  Co109  1  0.24905039  0.50126461  0.74927360  1
  Co  Co110  1  0.12325937  0.87423964  0.37516206  1
  Co  Co111  1  0.62402255  0.12144356  0.37674310  1
  Co  Co112  1  0.62264849  0.12292465  0.12447194  1
  Co  Co113  1  0.50223496  -0.00383271  0.74834312  1
  Co  Co114  1  0.25139176  0.74824340  0.49699370  1
  Co  Co115  1  0.74960193  0.74879513  0.75157598  1
  Co  Co116  1  0.63162570  0.87729606  0.13084828  1
  Co  Co117  1  0.74714566  0.75013081  0.00163836  1
  Co  Co118  1  0.74924620  0.75049065  0.49447088  1
  Co  Co119  1  0.25280809  0.24642141  0.74966800  1
  Co  Co120  1  0.87405403  0.37419244  0.37431091  1
  Co  Co121  1  0.63074534  0.87582938  0.62481221  1
  Co  Co122  1  0.00063153  0.25044064  0.49775088  1
  Co  Co123  1  0.37955870  0.62539317  0.37479758  1
  Co  Co124  1  0.36909472  0.87441709  0.12596019  1
  Co  Co125  1  -0.00164143  0.74998738  0.24846968  1
  Co  Co126  1  0.87552862  0.37561238  0.87720493  1
  Co  Co127  1  0.87242538  0.62672609  0.62297407  1
