# generated using pymatgen
data_Fe45Co19
_symmetry_space_group_name_H-M   'P 1'
_cell_length_a   11.41418077
_cell_length_b   11.41529082
_cell_length_c   11.41495643
_cell_angle_alpha   89.99980918
_cell_angle_beta   90.00194897
_cell_angle_gamma   89.98773986
_symmetry_Int_Tables_number   1
_chemical_formula_structural   Fe45Co19
_chemical_formula_sum   'Fe90 Co38'
_cell_volume   1487.32533039
_cell_formula_units_Z   2
loop_
 _symmetry_equiv_pos_site_id
 _symmetry_equiv_pos_as_xyz
  1  'x, y, z'
loop_
 _atom_site_type_symbol
 _atom_site_label
 _atom_site_symmetry_multiplicity
 _atom_site_fract_x
 _atom_site_fract_y
 _atom_site_fract_z
 _atom_site_occupancy
  Fe  Fe0  1  0.37242182  0.87459587  0.62700603  1
  Fe  Fe1  1  0.37762156  0.62510718  0.62461854  1
  Fe  Fe2  1  0.37496555  0.12688326  0.87602614  1
  Fe  Fe3  1  0.88005631  0.12074980  0.12839369  1
  Fe  Fe4  1  0.50034296  -0.00060523  0.75167523  1
  Fe  Fe5  1  0.62389346  0.62286536  0.62550840  1
  Fe  Fe6  1  0.12154092  0.62862620  0.62161796  1
  Fe  Fe7  1  0.49819908  0.25433083  -0.00148567  1
  Fe  Fe8  1  0.74945976  0.74562917  0.75248929  1
  Fe  Fe9  1  0.37627954  0.37650124  0.62532052  1
  Fe  Fe10  1  0.37555057  0.12495999  0.62419764  1
  Fe  Fe11  1  0.62582776  0.37598960  0.37511171  1
  Fe  Fe12  1  0.75190526  0.24756676  0.49765715  1
  Fe  Fe13  1  0.50085032  0.25105056  0.75149212  1
  Fe  Fe14  1  0.87615136  0.37550834  0.87469928  1
  Fe  Fe15  1  0.49772345  0.49733651  0.24983007  1
  Fe  Fe16  1  0.12565182  0.37689854  0.37526732  1
  Fe  Fe17  1  0.75132730  0.00009280  0.00142281  1
  Fe  Fe18  1  0.62827423  0.87451129  0.62596853  1
  Fe  Fe19  1  0.62514820  0.12204038  0.37545612  1
  Fe  Fe20  1  0.62508920  0.12505463  0.62427277  1
  Fe  Fe21  1  0.62123366  0.62785326  0.12255556  1
  Fe  Fe22  1  0.62616911  0.37331308  0.12579781  1
  Fe  Fe23  1  0.49891017  -0.00311805  0.24964441  1
  Fe  Fe24  1  0.50124981  -0.00356303  -0.00235874  1
  Fe  Fe25  1  0.87516478  0.37483087  0.12560434  1
  Fe  Fe26  1  0.25146215  0.74875087  0.00261408  1
  Fe  Fe27  1  0.62311438  0.62619025  0.37321216  1
  Fe  Fe28  1  0.87749197  0.62470856  0.87383968  1
  Fe  Fe29  1  0.37207663  0.87450372  0.87441039  1
  Fe  Fe30  1  0.24705993  0.00257855  -0.00075442  1
  Fe  Fe31  1  0.50009875  -0.00287537  0.50110460  1
  Fe  Fe32  1  0.49952826  0.75122190  0.49984986  1
  Fe  Fe33  1  0.49837138  0.25130870  0.25214374  1
  Fe  Fe34  1  0.37544173  0.12409304  0.12383160  1
  Fe  Fe35  1  0.12220646  0.12254544  0.87103862  1
  Fe  Fe36  1  0.62673357  0.87590101  0.37581586  1
  Fe  Fe37  1  0.00172509  0.24877343  0.00116043  1
  Fe  Fe38  1  0.74932926  0.00284012  0.74961743  1
  Fe  Fe39  1  0.75224538  0.24780289  0.00062615  1
  Fe  Fe40  1  0.49529322  0.75453888  0.24874880  1
  Fe  Fe41  1  -0.00077752  0.24942734  0.50165485  1
  Fe  Fe42  1  0.62155833  0.62414094  0.87833039  1
  Fe  Fe43  1  0.24979452  0.50425267  0.24741270  1
  Fe  Fe44  1  0.75251045  0.24578186  0.25123076  1
  Fe  Fe45  1  0.62246013  0.12579643  0.12314631  1
  Fe  Fe46  1  0.12715634  0.37488955  0.87617959  1
  Fe  Fe47  1  0.12030964  0.12280104  0.37591889  1
  Fe  Fe48  1  0.49953473  0.25247084  0.49811540  1
  Fe  Fe49  1  0.24835286  0.24699112  0.25105694  1
  Fe  Fe50  1  0.74944818  0.50301699  0.24884764  1
  Fe  Fe51  1  0.12166957  0.12197371  0.12801389  1
  Fe  Fe52  1  0.12997884  0.87331926  0.37595375  1
  Fe  Fe53  1  0.37479874  0.62600386  0.37386053  1
  Fe  Fe54  1  0.24838138  0.24993050  0.50055914  1
  Fe  Fe55  1  0.12799482  0.87580516  0.87062391  1
  Fe  Fe56  1  0.25094176  0.74968530  0.50036063  1
  Fe  Fe57  1  0.00185229  0.75048431  0.25316209  1
  Fe  Fe58  1  -0.00012164  0.50020389  0.00154832  1
  Fe  Fe59  1  0.00213634  0.50012395  0.74928567  1
  Fe  Fe60  1  0.37812493  0.62446129  0.87864470  1
  Fe  Fe61  1  0.00240573  0.25031046  0.74676174  1
  Fe  Fe62  1  0.62844160  0.87206808  0.12293449  1
  Fe  Fe63  1  0.12427024  0.62619139  0.87748520  1
  Fe  Fe64  1  0.87343154  0.87644438  0.87405909  1
  Fe  Fe65  1  -0.00063397  0.75397197  0.00028257  1
  Fe  Fe66  1  0.86985394  0.87716299  0.37219518  1
  Fe  Fe67  1  0.25107655  0.50098063  0.50056219  1
  Fe  Fe68  1  0.00152989  0.75318100  0.74729130  1
  Fe  Fe69  1  0.87793089  0.12339180  0.87353369  1
  Fe  Fe70  1  0.87546709  0.37585775  0.37272199  1
  Fe  Fe71  1  0.25075501  0.00052714  0.50061295  1
  Fe  Fe72  1  0.12784987  0.87474791  0.12704927  1
  Fe  Fe73  1  0.00231490  0.50203824  0.24918437  1
  Fe  Fe74  1  0.25232788  0.50024913  0.00240006  1
  Fe  Fe75  1  0.75080726  0.50254063  0.00041195  1
  Fe  Fe76  1  0.87437694  0.37623762  0.62669484  1
  Fe  Fe77  1  0.75219395  0.74688531  0.49848757  1
  Fe  Fe78  1  0.49983776  0.75066960  0.75189464  1
  Fe  Fe79  1  0.37646815  0.12331701  0.37568272  1
  Fe  Fe80  1  0.62418156  0.37819767  0.62394279  1
  Fe  Fe81  1  0.24782435  0.24916097  0.74728417  1
  Fe  Fe82  1  -0.00321153  -0.00426487  0.50581250  1
  Fe  Fe83  1  0.75157124  0.50279454  0.50014900  1
  Fe  Fe84  1  0.74864495  0.25024507  0.75107077  1
  Fe  Fe85  1  0.62606510  0.37709081  0.87552663  1
  Fe  Fe86  1  0.12626035  0.37428598  0.12455149  1
  Fe  Fe87  1  -0.00188391  0.50212199  0.49937897  1
  Fe  Fe88  1  0.87601992  0.62890317  0.12636157  1
  Fe  Fe89  1  0.24926674  0.50348088  0.74921056  1
  Co  Co90  1  0.62468999  0.12515917  0.87699167  1
  Co  Co91  1  0.49851559  0.49362830  0.00178025  1
  Co  Co92  1  0.25043448  0.00271993  0.25181054  1
  Co  Co93  1  0.25081287  0.74456894  0.75041895  1
  Co  Co94  1  0.49871506  0.75576480  -0.00096219  1
  Co  Co95  1  0.12502247  0.37793803  0.62334618  1
  Co  Co96  1  0.37139008  0.37565991  0.37423368  1
  Co  Co97  1  0.25188472  0.74800453  0.24784282  1
  Co  Co98  1  -0.00289055  0.75517962  0.49815102  1
  Co  Co99  1  0.12432935  0.12060278  0.62455673  1
  Co  Co100  1  0.49941136  0.50036400  0.49722751  1
  Co  Co101  1  0.87638473  0.62423146  0.37252937  1
  Co  Co102  1  0.37157113  0.37135679  0.12678956  1
  Co  Co103  1  0.75198800  0.74813235  -0.00209919  1
  Co  Co104  1  0.87390366  0.87347463  0.12699622  1
  Co  Co105  1  0.12272223  0.62757301  0.12331681  1
  Co  Co106  1  0.74923739  0.74873035  0.25078505  1
  Co  Co107  1  0.75146188  0.00242886  0.50028614  1
  Co  Co108  1  0.13065275  0.87394833  0.62622485  1
  Co  Co109  1  0.37263300  0.87499719  0.37612083  1
  Co  Co110  1  0.37982316  0.62585729  0.12318377  1
  Co  Co111  1  -0.00123087  -0.00397086  0.74479992  1
  Co  Co112  1  0.87789572  0.62623695  0.62654866  1
  Co  Co113  1  0.00185951  -0.00639606  0.25176412  1
  Co  Co114  1  0.74692629  0.00239553  0.24662755  1
  Co  Co115  1  0.37081293  0.87877767  0.12296921  1
  Co  Co116  1  0.37004979  0.37391143  0.87309376  1
  Co  Co117  1  0.87869041  0.12153610  0.37331184  1
  Co  Co118  1  0.00074202  0.25217366  0.25009792  1
  Co  Co119  1  0.86865876  0.87204247  0.62684097  1
  Co  Co120  1  0.49898185  0.50000481  0.75159811  1
  Co  Co121  1  0.87396724  0.12687003  0.62664707  1
  Co  Co122  1  0.12586648  0.62630044  0.37781855  1
  Co  Co123  1  0.74979369  0.50130908  0.75092101  1
  Co  Co124  1  0.24632356  0.24614005  0.00110162  1
  Co  Co125  1  0.62890319  0.87486748  0.87413081  1
  Co  Co126  1  0.00180626  -0.00369799  -0.00056976  1
  Co  Co127  1  0.25252506  0.00293853  0.75027966  1
