# generated using pymatgen
data_Fe45Co19
_symmetry_space_group_name_H-M   'P 1'
_cell_length_a   11.41446536
_cell_length_b   11.41579505
_cell_length_c   11.41400018
_cell_angle_alpha   90.00316912
_cell_angle_beta   89.99752185
_cell_angle_gamma   90.00110182
_symmetry_Int_Tables_number   1
_chemical_formula_structural   Fe45Co19
_chemical_formula_sum   'Fe90 Co38'
_cell_volume   1487.30353942
_cell_formula_units_Z   2
loop_
 _symmetry_equiv_pos_site_id
 _symmetry_equiv_pos_as_xyz
  1  'x, y, z'
loop_
 _atom_site_type_symbol
 _atom_site_label
 _atom_site_symmetry_multiplicity
 _atom_site_fract_x
 _atom_site_fract_y
 _atom_site_fract_z
 _atom_site_occupancy
  Fe  Fe0  1  0.49945965  -0.00117032  0.00273221  1
  Fe  Fe1  1  0.62238630  0.12534388  0.87404533  1
  Fe  Fe2  1  0.62435093  0.12585147  0.12739888  1
  Fe  Fe3  1  -0.00113443  0.74971634  0.74868843  1
  Fe  Fe4  1  0.12788553  0.36978695  0.62534738  1
  Fe  Fe5  1  0.37498103  0.12736086  0.12650327  1
  Fe  Fe6  1  0.24984538  0.49906620  0.00168232  1
  Fe  Fe7  1  0.87593811  0.87696055  0.62476728  1
  Fe  Fe8  1  0.75446733  0.75043250  0.49865110  1
  Fe  Fe9  1  0.62368979  0.87486662  0.87517394  1
  Fe  Fe10  1  0.50011265  0.49841025  0.24952328  1
  Fe  Fe11  1  0.75088403  0.25061548  0.75031320  1
  Fe  Fe12  1  0.49973016  0.75235880  0.25083330  1
  Fe  Fe13  1  0.00060474  0.00042079  -0.00056769  1
  Fe  Fe14  1  0.12483419  0.12853509  0.12336876  1
  Fe  Fe15  1  0.75046600  0.24895608  -0.00066304  1
  Fe  Fe16  1  0.62814556  0.62565064  0.12787553  1
  Fe  Fe17  1  0.87541376  0.37667536  0.87416498  1
  Fe  Fe18  1  0.88222472  0.87956043  0.37502186  1
  Fe  Fe19  1  0.37221702  0.62471543  0.12835579  1
  Fe  Fe20  1  0.75151887  0.00296479  0.50019001  1
  Fe  Fe21  1  0.49938315  0.74880661  0.00071852  1
  Fe  Fe22  1  0.12468845  0.62754272  0.62088701  1
  Fe  Fe23  1  0.62541330  0.87534233  0.62176613  1
  Fe  Fe24  1  0.75223871  0.00163396  0.24959365  1
  Fe  Fe25  1  0.37463017  0.62302699  0.37489518  1
  Fe  Fe26  1  0.25338383  0.25114154  -0.00499925  1
  Fe  Fe27  1  0.37535598  0.37558993  0.37477645  1
  Fe  Fe28  1  0.12537570  0.62388005  0.12849037  1
  Fe  Fe29  1  0.12496168  0.87434517  0.12478318  1
  Fe  Fe30  1  0.62410231  0.87743534  0.37576019  1
  Fe  Fe31  1  0.62618334  0.12662046  0.62464610  1
  Fe  Fe32  1  0.24854275  -0.00049642  0.25013243  1
  Fe  Fe33  1  0.12136266  0.12374346  0.37433990  1
  Fe  Fe34  1  0.62230875  0.12295688  0.37379373  1
  Fe  Fe35  1  0.37620798  0.12417772  0.37314373  1
  Fe  Fe36  1  0.24840990  0.49922941  0.74955703  1
  Fe  Fe37  1  0.37504245  0.87763431  0.37836918  1
  Fe  Fe38  1  0.62728228  0.62394425  0.62375880  1
  Fe  Fe39  1  0.62443264  0.37635439  0.87311009  1
  Fe  Fe40  1  0.87703327  0.12428393  0.87308714  1
  Fe  Fe41  1  0.24813360  0.00178715  0.50089392  1
  Fe  Fe42  1  0.87270717  0.37135691  0.62324242  1
  Fe  Fe43  1  0.12712402  0.87278144  0.62203117  1
  Fe  Fe44  1  0.49775059  0.75156486  0.74869138  1
  Fe  Fe45  1  0.75172747  0.24893473  0.25234687  1
  Fe  Fe46  1  0.24796432  0.00134115  -0.00533056  1
  Fe  Fe47  1  0.88247067  0.62088570  0.37626630  1
  Fe  Fe48  1  0.49739122  0.25154179  -0.00109445  1
  Fe  Fe49  1  0.00052207  0.50039050  0.00254688  1
  Fe  Fe50  1  0.75152297  0.75037591  0.74988793  1
  Fe  Fe51  1  0.62784988  0.87431583  0.12735100  1
  Fe  Fe52  1  0.87479058  0.37461314  0.12773774  1
  Fe  Fe53  1  0.12090337  0.37668965  0.37489200  1
  Fe  Fe54  1  0.49688714  0.25247915  0.74981866  1
  Fe  Fe55  1  0.74993924  -0.00003714  0.75090769  1
  Fe  Fe56  1  0.75025188  0.49997406  0.00132970  1
  Fe  Fe57  1  0.00022458  0.74854279  0.00087077  1
  Fe  Fe58  1  0.37105259  0.12523639  0.62699480  1
  Fe  Fe59  1  0.37131057  0.87323506  0.12420223  1
  Fe  Fe60  1  0.62580395  0.37410643  0.12748339  1
  Fe  Fe61  1  0.00361499  0.00058720  0.74995115  1
  Fe  Fe62  1  0.75120930  0.00076980  -0.00095807  1
  Fe  Fe63  1  0.12505584  0.62595812  0.87371551  1
  Fe  Fe64  1  0.12726978  0.13065354  0.62854823  1
  Fe  Fe65  1  0.49880338  0.74983919  0.50063698  1
  Fe  Fe66  1  0.49960070  0.24925686  0.50004540  1
  Fe  Fe67  1  0.24464649  0.75013019  0.25642590  1
  Fe  Fe68  1  0.87846492  0.37558711  0.37525025  1
  Fe  Fe69  1  0.49698417  -0.00304927  0.74768352  1
  Fe  Fe70  1  0.75164647  0.75023706  -0.00195868  1
  Fe  Fe71  1  0.87475425  0.62359620  0.87329781  1
  Fe  Fe72  1  0.37354513  0.62454477  0.87515027  1
  Fe  Fe73  1  0.75447437  0.74822481  0.25336533  1
  Fe  Fe74  1  0.62475330  0.62355792  0.37610473  1
  Fe  Fe75  1  -0.00020733  0.49893590  0.74632969  1
  Fe  Fe76  1  -0.00189350  0.25000452  0.00043891  1
  Fe  Fe77  1  0.87592658  0.87421597  0.12593989  1
  Fe  Fe78  1  0.24803752  0.25242106  0.25114108  1
  Fe  Fe79  1  0.75140298  0.49952927  0.50143297  1
  Fe  Fe80  1  0.37262874  0.62542747  0.62255814  1
  Fe  Fe81  1  0.62497841  0.37576207  0.37725246  1
  Fe  Fe82  1  0.24813506  0.50027046  0.49831039  1
  Fe  Fe83  1  0.49935892  0.50015267  0.00231101  1
  Fe  Fe84  1  0.50011946  0.49920029  0.74633118  1
  Fe  Fe85  1  0.62645878  0.62314252  0.87282260  1
  Fe  Fe86  1  0.37203244  0.37390779  0.62297420  1
  Fe  Fe87  1  0.12419918  0.37344218  0.87443490  1
  Fe  Fe88  1  0.88084063  0.12418178  0.37542348  1
  Fe  Fe89  1  0.25157944  0.75290331  0.75075786  1
  Co  Co90  1  0.87460076  0.12514512  0.62649565  1
  Co  Co91  1  0.49859722  -0.00266186  0.24702049  1
  Co  Co92  1  0.24658507  -0.00182408  0.75220943  1
  Co  Co93  1  0.12100530  0.87951834  0.37746088  1
  Co  Co94  1  0.75149207  0.49854711  0.74742814  1
  Co  Co95  1  0.00092510  0.24903703  0.50085967  1
  Co  Co96  1  0.00209682  0.74969536  0.25104859  1
  Co  Co97  1  0.00125236  0.49880811  0.24507782  1
  Co  Co98  1  0.49889551  0.49961013  0.50162577  1
  Co  Co99  1  0.00299863  0.00379998  0.50595222  1
  Co  Co100  1  0.00252426  0.00142925  0.24459588  1
  Co  Co101  1  0.37172274  0.87594418  0.62134545  1
  Co  Co102  1  0.87717800  0.87557895  0.87416136  1
  Co  Co103  1  0.37701987  0.12099052  0.87332200  1
  Co  Co104  1  0.11939342  0.62034731  0.37768387  1
  Co  Co105  1  0.12600156  0.37203514  0.12275523  1
  Co  Co106  1  0.49928090  0.00272319  0.50187468  1
  Co  Co107  1  0.25356192  0.25085076  0.75624372  1
  Co  Co108  1  0.87485109  0.62587851  0.62405905  1
  Co  Co109  1  0.24901186  0.24939133  0.49531372  1
  Co  Co110  1  0.62643088  0.37348407  0.62313548  1
  Co  Co111  1  0.87439120  0.62544741  0.12528408  1
  Co  Co112  1  -0.00236220  0.25197957  0.74868545  1
  Co  Co113  1  0.75118080  0.24747553  0.49737164  1
  Co  Co114  1  0.75146675  0.50044354  0.25157080  1
  Co  Co115  1  0.87513624  0.12580727  0.12496279  1
  Co  Co116  1  0.12248659  0.12981946  0.87385891  1
  Co  Co117  1  0.37349155  0.37383542  0.12682848  1
  Co  Co118  1  0.00122925  0.49626896  0.50694011  1
  Co  Co119  1  0.24881638  0.74887203  0.49441121  1
  Co  Co120  1  0.37359774  0.87451644  0.87744002  1
  Co  Co121  1  0.24803605  0.74701936  0.00014304  1
  Co  Co122  1  0.37513853  0.38056748  0.87449669  1
  Co  Co123  1  0.24767035  0.49808031  0.25166100  1
  Co  Co124  1  0.12454544  0.87145426  0.87596439  1
  Co  Co125  1  0.50051156  0.25143938  0.25184743  1
  Co  Co126  1  0.00073025  0.24963091  0.24928300  1
  Co  Co127  1  -0.00060069  0.75123669  0.49877922  1
