# generated using pymatgen
data_Fe45Co19
_symmetry_space_group_name_H-M   'P 1'
_cell_length_a   11.41650576
_cell_length_b   11.41522021
_cell_length_c   11.41478176
_cell_angle_alpha   90.00802781
_cell_angle_beta   89.99317413
_cell_angle_gamma   90.00939119
_symmetry_Int_Tables_number   1
_chemical_formula_structural   Fe45Co19
_chemical_formula_sum   'Fe90 Co38'
_cell_volume   1487.59631311
_cell_formula_units_Z   2
loop_
 _symmetry_equiv_pos_site_id
 _symmetry_equiv_pos_as_xyz
  1  'x, y, z'
loop_
 _atom_site_type_symbol
 _atom_site_label
 _atom_site_symmetry_multiplicity
 _atom_site_fract_x
 _atom_site_fract_y
 _atom_site_fract_z
 _atom_site_occupancy
  Fe  Fe0  1  0.25299811  0.00185118  -0.00110750  1
  Fe  Fe1  1  0.62504357  0.87469255  0.12339398  1
  Fe  Fe2  1  0.62586107  0.12401728  0.87640388  1
  Fe  Fe3  1  0.25184433  0.49924159  0.24890117  1
  Fe  Fe4  1  0.49836528  0.24599269  0.00042313  1
  Fe  Fe5  1  0.00229332  0.25290993  0.49656119  1
  Fe  Fe6  1  0.12391750  0.87759290  0.62433361  1
  Fe  Fe7  1  -0.00170787  0.49962646  0.25113215  1
  Fe  Fe8  1  0.74733840  0.49550810  0.24576296  1
  Fe  Fe9  1  0.24556105  0.75204536  0.75044355  1
  Fe  Fe10  1  0.25077782  0.25134443  0.74705283  1
  Fe  Fe11  1  0.12700273  0.12432402  0.87368356  1
  Fe  Fe12  1  0.75087525  -0.00042288  0.00039896  1
  Fe  Fe13  1  0.37947109  0.37405246  0.12763551  1
  Fe  Fe14  1  0.87487721  0.62653539  0.12484396  1
  Fe  Fe15  1  0.37510367  0.62618418  0.62625614  1
  Fe  Fe16  1  0.49888654  0.50254479  -0.00033004  1
  Fe  Fe17  1  0.50184313  0.75045706  0.25145103  1
  Fe  Fe18  1  0.49586074  -0.00005683  0.75519866  1
  Fe  Fe19  1  0.37574396  0.37336340  0.87606687  1
  Fe  Fe20  1  0.74958766  -0.00260239  0.25030512  1
  Fe  Fe21  1  0.87395253  0.87240766  0.37546642  1
  Fe  Fe22  1  0.37601325  0.87553590  0.12403002  1
  Fe  Fe23  1  0.50188874  0.75123380  0.75003427  1
  Fe  Fe24  1  0.12467554  0.12702030  0.12884561  1
  Fe  Fe25  1  0.12602561  0.62129975  0.37611393  1
  Fe  Fe26  1  0.24807269  0.75149552  0.24980892  1
  Fe  Fe27  1  0.12473248  0.12573492  0.62418583  1
  Fe  Fe28  1  0.37383077  0.87603540  0.37335405  1
  Fe  Fe29  1  0.25081079  0.24956911  0.00284009  1
  Fe  Fe30  1  0.25007838  0.00087865  0.49926474  1
  Fe  Fe31  1  -0.00159618  0.00297283  0.00044910  1
  Fe  Fe32  1  0.87451857  0.12731258  0.87509064  1
  Fe  Fe33  1  0.75219919  -0.00149100  0.74986371  1
  Fe  Fe34  1  0.12136280  0.37335721  0.12704012  1
  Fe  Fe35  1  0.25262779  0.49656694  0.74745838  1
  Fe  Fe36  1  0.87538855  0.37416756  0.87813075  1
  Fe  Fe37  1  0.00093193  0.74922581  0.24957832  1
  Fe  Fe38  1  0.24397006  0.74767162  -0.00177615  1
  Fe  Fe39  1  0.24950839  0.50074659  0.00206538  1
  Fe  Fe40  1  0.74903950  0.25172107  0.74964394  1
  Fe  Fe41  1  0.24912477  0.25223596  0.49638560  1
  Fe  Fe42  1  0.24901378  0.74860622  0.50061169  1
  Fe  Fe43  1  0.37235332  0.62596890  0.87467208  1
  Fe  Fe44  1  0.62449600  0.37727496  0.62397077  1
  Fe  Fe45  1  0.50165897  0.75010292  0.50068848  1
  Fe  Fe46  1  -0.00136657  -0.00021609  0.74931274  1
  Fe  Fe47  1  0.49782713  0.50217436  0.50063362  1
  Fe  Fe48  1  0.87779455  0.87141686  0.87663629  1
  Fe  Fe49  1  0.87278418  0.62599002  0.37332642  1
  Fe  Fe50  1  0.00015038  0.00086328  0.25143801  1
  Fe  Fe51  1  0.75166610  0.50047966  0.50261107  1
  Fe  Fe52  1  -0.00057364  0.74743421  0.50184608  1
  Fe  Fe53  1  0.50179199  0.75065190  -0.00271397  1
  Fe  Fe54  1  0.37624897  0.12371750  0.13252669  1
  Fe  Fe55  1  0.49944128  0.49909659  0.74973286  1
  Fe  Fe56  1  0.62430057  0.12166874  0.62553933  1
  Fe  Fe57  1  0.74848684  0.75085184  0.50408354  1
  Fe  Fe58  1  0.74959581  -0.00174964  0.50045009  1
  Fe  Fe59  1  0.62673501  0.62454535  0.87302587  1
  Fe  Fe60  1  0.50075627  0.24963193  0.75019924  1
  Fe  Fe61  1  0.00204611  0.50321696  -0.00071240  1
  Fe  Fe62  1  0.12358855  0.87499869  0.37619462  1
  Fe  Fe63  1  0.00024324  0.25330534  0.74971317  1
  Fe  Fe64  1  0.74744771  0.75259362  0.74784259  1
  Fe  Fe65  1  0.37517654  0.12617481  0.62369770  1
  Fe  Fe66  1  0.62394940  0.37488306  0.87786657  1
  Fe  Fe67  1  0.12340079  0.61821507  0.62475212  1
  Fe  Fe68  1  0.87262542  0.37430412  0.37430206  1
  Fe  Fe69  1  0.37475808  0.62719142  0.12513600  1
  Fe  Fe70  1  0.74733782  0.25013819  0.50022353  1
  Fe  Fe71  1  -0.00144131  0.00110566  0.49858396  1
  Fe  Fe72  1  0.62429562  0.12593470  0.12840203  1
  Fe  Fe73  1  0.62512372  0.62546543  0.12484706  1
  Fe  Fe74  1  0.87557363  0.87117579  0.12361653  1
  Fe  Fe75  1  0.37670878  0.37626829  0.37385610  1
  Fe  Fe76  1  0.74984696  0.49966329  0.00102460  1
  Fe  Fe77  1  0.50147094  0.24715265  0.49477468  1
  Fe  Fe78  1  0.62640899  0.62435784  0.37530450  1
  Fe  Fe79  1  0.37571172  0.87548751  0.62533966  1
  Fe  Fe80  1  0.87573763  0.12992692  0.12820161  1
  Fe  Fe81  1  0.87212066  0.12695140  0.37340696  1
  Fe  Fe82  1  0.37373404  0.62539811  0.37353667  1
  Fe  Fe83  1  0.12626371  0.37527114  0.87600749  1
  Fe  Fe84  1  0.50098758  0.00123939  0.49416945  1
  Fe  Fe85  1  0.75044561  0.25163657  0.00376183  1
  Fe  Fe86  1  0.12354758  0.87561545  0.12286575  1
  Fe  Fe87  1  0.87648376  0.62323382  0.62912653  1
  Fe  Fe88  1  0.87734164  0.62702301  0.87249807  1
  Fe  Fe89  1  0.87532580  0.12731390  0.62349959  1
  Co  Co90  1  0.12442957  0.62051456  0.86991394  1
  Co  Co91  1  -0.00484092  0.49905585  0.49946253  1
  Co  Co92  1  0.00067386  0.25011053  0.25517227  1
  Co  Co93  1  0.87333227  0.37255123  0.62374859  1
  Co  Co94  1  0.37863025  0.37192843  0.62314543  1
  Co  Co95  1  0.75082394  0.49710276  0.75141084  1
  Co  Co96  1  0.62500011  0.62169567  0.62527034  1
  Co  Co97  1  0.62627354  0.87725997  0.87562004  1
  Co  Co98  1  0.88106170  0.37385611  0.12271541  1
  Co  Co99  1  0.74862884  0.25641097  0.24694454  1
  Co  Co100  1  0.50139944  0.50232265  0.24975712  1
  Co  Co101  1  0.37087711  0.12321270  0.37095078  1
  Co  Co102  1  0.12322283  0.87938416  0.87690242  1
  Co  Co103  1  0.00414355  0.74582762  0.00048889  1
  Co  Co104  1  0.63062130  0.12531413  0.37131388  1
  Co  Co105  1  0.12575299  0.38122283  0.37494808  1
  Co  Co106  1  0.87594692  0.87505857  0.62412140  1
  Co  Co107  1  0.62789787  0.87231150  0.37622429  1
  Co  Co108  1  -0.00256908  0.49378266  0.75005413  1
  Co  Co109  1  0.25276184  0.00008440  0.74952145  1
  Co  Co110  1  0.49842437  0.00173368  -0.00090961  1
  Co  Co111  1  0.37258668  0.12856626  0.87421252  1
  Co  Co112  1  0.62217658  0.87968602  0.62536290  1
  Co  Co113  1  0.50317027  -0.00180889  0.25289006  1
  Co  Co114  1  0.12693841  0.12352712  0.37383363  1
  Co  Co115  1  0.00450821  0.75173428  0.74807304  1
  Co  Co116  1  0.12549299  0.62342083  0.12952524  1
  Co  Co117  1  0.24903123  0.25326016  0.25204296  1
  Co  Co118  1  0.12430920  0.37770055  0.62176394  1
  Co  Co119  1  0.61903057  0.37401355  0.12226005  1
  Co  Co120  1  0.24740280  -0.00320820  0.24952786  1
  Co  Co121  1  0.00166624  0.24709109  -0.00233447  1
  Co  Co122  1  0.25488185  0.49926244  0.50115599  1
  Co  Co123  1  0.74853903  0.74944992  0.24882269  1
  Co  Co124  1  0.62506283  0.37836475  0.37750089  1
  Co  Co125  1  0.50248477  0.24958290  0.25531540  1
  Co  Co126  1  0.37230918  0.87140783  0.87703183  1
  Co  Co127  1  0.74979446  0.74855693  -0.00087558  1
