# generated using pymatgen
data_Fe45Co19
_symmetry_space_group_name_H-M   'P 1'
_cell_length_a   11.41511000
_cell_length_b   11.41623269
_cell_length_c   11.41518945
_cell_angle_alpha   90.00951660
_cell_angle_beta   90.00581998
_cell_angle_gamma   89.99513757
_symmetry_Int_Tables_number   1
_chemical_formula_structural   Fe45Co19
_chemical_formula_sum   'Fe90 Co38'
_cell_volume   1487.59951045
_cell_formula_units_Z   2
loop_
 _symmetry_equiv_pos_site_id
 _symmetry_equiv_pos_as_xyz
  1  'x, y, z'
loop_
 _atom_site_type_symbol
 _atom_site_label
 _atom_site_symmetry_multiplicity
 _atom_site_fract_x
 _atom_site_fract_y
 _atom_site_fract_z
 _atom_site_occupancy
  Fe  Fe0  1  0.74451139  0.74545027  0.49723096  1
  Fe  Fe1  1  0.12391366  0.12421514  0.12762970  1
  Fe  Fe2  1  0.00185213  0.25072284  0.00176251  1
  Fe  Fe3  1  0.75324411  -0.00032065  0.74804723  1
  Fe  Fe4  1  0.00085848  0.75325706  0.74587898  1
  Fe  Fe5  1  0.13004253  0.37311872  0.87719966  1
  Fe  Fe6  1  0.00267371  0.24883519  0.49569338  1
  Fe  Fe7  1  0.75241703  0.50024548  0.00017082  1
  Fe  Fe8  1  0.37484288  0.37539708  0.37764507  1
  Fe  Fe9  1  0.37438874  0.12755638  0.37435737  1
  Fe  Fe10  1  0.87435496  0.37406051  0.37360262  1
  Fe  Fe11  1  0.74905574  0.74766368  -0.00067363  1
  Fe  Fe12  1  0.62622975  0.37618693  0.12465662  1
  Fe  Fe13  1  0.87655682  0.62665836  0.87498630  1
  Fe  Fe14  1  0.12391634  0.62521244  0.87133162  1
  Fe  Fe15  1  0.37672188  0.62576951  0.37478869  1
  Fe  Fe16  1  0.24752072  0.74862779  0.50367009  1
  Fe  Fe17  1  0.00364013  0.75026540  0.50169225  1
  Fe  Fe18  1  -0.00226958  -0.00059495  0.00149046  1
  Fe  Fe19  1  0.00249669  0.75136916  0.00170534  1
  Fe  Fe20  1  0.50062126  0.00017054  0.75079408  1
  Fe  Fe21  1  0.49546911  0.49925155  -0.00523924  1
  Fe  Fe22  1  0.37559522  0.87202659  0.62498579  1
  Fe  Fe23  1  0.12376743  0.12253275  0.62302047  1
  Fe  Fe24  1  0.50133439  0.75059944  0.25178640  1
  Fe  Fe25  1  0.24518286  0.25406184  0.25124886  1
  Fe  Fe26  1  0.37520571  0.87339625  0.12346062  1
  Fe  Fe27  1  0.37672274  0.37012635  0.62588673  1
  Fe  Fe28  1  0.87474592  0.12689259  0.87485753  1
  Fe  Fe29  1  0.12285499  0.62138374  0.12873015  1
  Fe  Fe30  1  0.62791930  0.87798139  0.87663953  1
  Fe  Fe31  1  0.12742769  0.87730657  0.37696157  1
  Fe  Fe32  1  0.25256545  0.50251385  0.50224848  1
  Fe  Fe33  1  0.37916646  0.12827216  0.62535865  1
  Fe  Fe34  1  0.12363926  0.62116472  0.37399925  1
  Fe  Fe35  1  -0.00185023  -0.00080885  0.25241932  1
  Fe  Fe36  1  0.50075822  0.25278926  0.25101050  1
  Fe  Fe37  1  -0.00123932  0.50013279  0.50051893  1
  Fe  Fe38  1  -0.00191972  -0.00021236  0.49822507  1
  Fe  Fe39  1  0.62659299  0.87461087  0.12676468  1
  Fe  Fe40  1  0.62387937  0.38028306  0.37386728  1
  Fe  Fe41  1  0.62837951  0.12503811  0.87494431  1
  Fe  Fe42  1  0.49833273  0.24966804  -0.00402010  1
  Fe  Fe43  1  0.37894920  0.62972536  0.63045705  1
  Fe  Fe44  1  0.74977381  0.00105404  0.49876539  1
  Fe  Fe45  1  0.87456214  0.37283180  0.12825122  1
  Fe  Fe46  1  0.24723909  0.74842665  0.00010174  1
  Fe  Fe47  1  0.87436790  0.37329755  0.62434726  1
  Fe  Fe48  1  0.62440747  0.37501798  0.62876813  1
  Fe  Fe49  1  0.87443613  0.12985272  0.13017305  1
  Fe  Fe50  1  0.74646664  0.24959901  0.49941172  1
  Fe  Fe51  1  0.12516113  0.12467901  0.87385402  1
  Fe  Fe52  1  0.36980581  0.37550235  0.12043053  1
  Fe  Fe53  1  0.24763848  0.24894784  0.49959698  1
  Fe  Fe54  1  0.25097473  0.00045387  0.74734139  1
  Fe  Fe55  1  0.37343099  0.87303965  0.87483359  1
  Fe  Fe56  1  0.25268451  0.50084497  0.75107727  1
  Fe  Fe57  1  0.12438373  0.87679596  0.87425486  1
  Fe  Fe58  1  -0.00207063  0.49788224  0.75001192  1
  Fe  Fe59  1  0.87330058  0.37232978  0.87363989  1
  Fe  Fe60  1  0.87479378  0.12669467  0.62273153  1
  Fe  Fe61  1  0.49886519  0.00104344  -0.00007906  1
  Fe  Fe62  1  0.62553105  0.12680998  0.12569755  1
  Fe  Fe63  1  0.87488263  0.62628555  0.62410614  1
  Fe  Fe64  1  0.49956500  0.50223454  0.50445851  1
  Fe  Fe65  1  0.62352867  0.62168580  0.87059950  1
  Fe  Fe66  1  0.25139311  -0.00163074  0.24994314  1
  Fe  Fe67  1  0.50007306  -0.00208499  0.25038577  1
  Fe  Fe68  1  0.74860819  0.50284100  0.50058728  1
  Fe  Fe69  1  0.62398439  0.62197788  0.12581894  1
  Fe  Fe70  1  0.50174150  0.74999454  -0.00194139  1
  Fe  Fe71  1  0.00132632  0.25081716  0.74872633  1
  Fe  Fe72  1  0.75011124  0.74422677  0.25275450  1
  Fe  Fe73  1  0.37581346  0.12652215  0.12678581  1
  Fe  Fe74  1  0.24760056  0.75002017  0.24943416  1
  Fe  Fe75  1  0.37482922  0.62582812  0.12436533  1
  Fe  Fe76  1  0.75332284  0.00087044  0.00316749  1
  Fe  Fe77  1  0.37450736  0.87259741  0.37689556  1
  Fe  Fe78  1  0.25077357  0.00105309  0.00120878  1
  Fe  Fe79  1  0.75034367  0.75040870  0.75019292  1
  Fe  Fe80  1  0.62536750  0.87511708  0.62239996  1
  Fe  Fe81  1  0.49610173  0.49880459  0.24792639  1
  Fe  Fe82  1  0.62825840  0.37524030  0.87195476  1
  Fe  Fe83  1  0.87475255  0.87117474  0.12602873  1
  Fe  Fe84  1  0.62505726  0.12337711  0.37374229  1
  Fe  Fe85  1  0.12575643  0.37719568  0.62377899  1
  Fe  Fe86  1  0.49862345  -0.00060927  0.49824144  1
  Fe  Fe87  1  -0.00022187  0.49882729  0.00025645  1
  Fe  Fe88  1  0.87271767  0.87249951  0.37553936  1
  Fe  Fe89  1  -0.00383469  -0.00281487  0.74813103  1
  Co  Co90  1  0.36843179  0.37077323  0.87644841  1
  Co  Co91  1  0.62580045  0.87629209  0.37416734  1
  Co  Co92  1  0.25513999  0.00150746  0.50214215  1
  Co  Co93  1  0.12303505  0.62021057  0.62654244  1
  Co  Co94  1  0.24880208  0.24436106  0.00247019  1
  Co  Co95  1  0.25205658  0.49915097  0.25114481  1
  Co  Co96  1  0.12771269  0.12098757  0.37536681  1
  Co  Co97  1  0.50487972  0.75483771  0.75217949  1
  Co  Co98  1  0.75071045  0.24814348  0.74768535  1
  Co  Co99  1  0.12728374  0.37864284  0.12234780  1
  Co  Co100  1  0.87263679  0.12728347  0.37371861  1
  Co  Co101  1  0.00542999  0.25215134  0.25371303  1
  Co  Co102  1  0.25058832  0.50674612  -0.00279302  1
  Co  Co103  1  0.75119251  -0.00000158  0.24857741  1
  Co  Co104  1  0.12571002  0.87996450  0.62326850  1
  Co  Co105  1  0.62364905  0.12398618  0.62452307  1
  Co  Co106  1  0.50385360  0.25010277  0.49780234  1
  Co  Co107  1  0.75056926  0.25090074  0.00020581  1
  Co  Co108  1  -0.00328629  0.49769669  0.24962744  1
  Co  Co109  1  0.87759758  0.62645283  0.12310825  1
  Co  Co110  1  0.00110904  0.75159361  0.25180154  1
  Co  Co111  1  0.37240872  0.12544253  0.87288789  1
  Co  Co112  1  0.62357243  0.62394213  0.62962308  1
  Co  Co113  1  0.50308512  0.74910225  0.49931547  1
  Co  Co114  1  0.37639594  0.63043219  0.87153607  1
  Co  Co115  1  0.12553643  0.38134791  0.37778649  1
  Co  Co116  1  0.61964490  0.61950313  0.37271675  1
  Co  Co117  1  0.24777645  0.24841479  0.74579323  1
  Co  Co118  1  0.75456257  0.50062765  0.74882553  1
  Co  Co119  1  0.74563804  0.25171278  0.25241224  1
  Co  Co120  1  0.87222933  0.87236141  0.62039196  1
  Co  Co121  1  0.75326910  0.50306594  0.24984342  1
  Co  Co122  1  0.87893914  0.62514368  0.37746254  1
  Co  Co123  1  0.87564672  0.87318162  0.87737465  1
  Co  Co124  1  0.12449340  0.87729564  0.12564586  1
  Co  Co125  1  0.49526292  0.49580572  0.75141667  1
  Co  Co126  1  0.50166357  0.24969321  0.75468002  1
  Co  Co127  1  0.24516843  0.75097755  0.74775128  1
