# generated using pymatgen
data_Fe45Co19
_symmetry_space_group_name_H-M   'P 1'
_cell_length_a   11.41523543
_cell_length_b   11.41417670
_cell_length_c   11.41469973
_cell_angle_alpha   89.99466823
_cell_angle_beta   89.99938536
_cell_angle_gamma   90.01088944
_symmetry_Int_Tables_number   1
_chemical_formula_structural   Fe45Co19
_chemical_formula_sum   'Fe90 Co38'
_cell_volume   1487.28413793
_cell_formula_units_Z   2
loop_
 _symmetry_equiv_pos_site_id
 _symmetry_equiv_pos_as_xyz
  1  'x, y, z'
loop_
 _atom_site_type_symbol
 _atom_site_label
 _atom_site_symmetry_multiplicity
 _atom_site_fract_x
 _atom_site_fract_y
 _atom_site_fract_z
 _atom_site_occupancy
  Fe  Fe0  1  0.74340272  -0.00356728  0.25279805  1
  Fe  Fe1  1  -0.00263389  0.50112249  0.49695109  1
  Fe  Fe2  1  0.12460047  0.12511393  0.62217433  1
  Fe  Fe3  1  0.87547443  0.62429636  0.87464146  1
  Fe  Fe4  1  0.24926355  -0.00339010  0.49648813  1
  Fe  Fe5  1  0.87551115  0.12536511  0.87214097  1
  Fe  Fe6  1  0.37531878  0.37668562  0.87410346  1
  Fe  Fe7  1  0.24711596  0.75059430  0.74924816  1
  Fe  Fe8  1  0.37369061  0.12365350  0.62570888  1
  Fe  Fe9  1  -0.00118899  0.25062426  0.00089894  1
  Fe  Fe10  1  0.87569372  0.87519067  0.87287118  1
  Fe  Fe11  1  0.75026708  -0.00065676  0.00141613  1
  Fe  Fe12  1  0.12585620  0.12473584  0.12535664  1
  Fe  Fe13  1  0.62320549  0.62583389  0.37879031  1
  Fe  Fe14  1  0.87356138  0.12472134  0.12841047  1
  Fe  Fe15  1  0.62500756  0.62609923  0.87667816  1
  Fe  Fe16  1  0.75165143  0.49958769  -0.00035130  1
  Fe  Fe17  1  0.50640513  0.00006677  0.25103456  1
  Fe  Fe18  1  0.87499273  0.37638778  0.12860996  1
  Fe  Fe19  1  0.24722045  -0.00162178  0.74986880  1
  Fe  Fe20  1  0.00216010  -0.00179177  0.74963789  1
  Fe  Fe21  1  0.75260837  0.25216622  0.49907586  1
  Fe  Fe22  1  0.12332172  0.87255244  0.62057134  1
  Fe  Fe23  1  0.37542251  0.12530486  0.37339990  1
  Fe  Fe24  1  0.12437919  0.62410617  0.87878213  1
  Fe  Fe25  1  0.87520298  0.12455406  0.37206028  1
  Fe  Fe26  1  0.87487828  0.12333041  0.62817453  1
  Fe  Fe27  1  0.25035822  0.74935089  0.00238909  1
  Fe  Fe28  1  0.50546014  0.50267136  0.74386316  1
  Fe  Fe29  1  0.25460695  0.50433393  0.49755457  1
  Fe  Fe30  1  0.00162351  0.49924874  0.75048550  1
  Fe  Fe31  1  0.37780686  0.87612631  0.12683484  1
  Fe  Fe32  1  0.37178333  0.62323235  0.13014616  1
  Fe  Fe33  1  0.87386511  0.37482767  0.87183797  1
  Fe  Fe34  1  0.37476678  0.87383802  0.87407658  1
  Fe  Fe35  1  0.24937708  -0.00049480  0.00063374  1
  Fe  Fe36  1  0.49777498  0.74854491  0.00216652  1
  Fe  Fe37  1  0.37559398  0.62558816  0.86955418  1
  Fe  Fe38  1  0.49891428  0.25110792  0.50037415  1
  Fe  Fe39  1  0.75030077  0.25125267  0.00036972  1
  Fe  Fe40  1  -0.00279269  0.25081242  0.49896462  1
  Fe  Fe41  1  0.62596308  0.12508377  0.87563866  1
  Fe  Fe42  1  0.00435868  0.50111890  0.25133315  1
  Fe  Fe43  1  0.12518514  0.37699579  0.62072278  1
  Fe  Fe44  1  0.12609333  0.37625127  0.87886232  1
  Fe  Fe45  1  0.50002291  0.50163481  0.25060220  1
  Fe  Fe46  1  0.62475900  0.37627284  0.87417131  1
  Fe  Fe47  1  -0.00176569  0.74981198  0.00258885  1
  Fe  Fe48  1  0.49794424  0.24994899  0.00201887  1
  Fe  Fe49  1  -0.00134939  -0.00130531  0.00172905  1
  Fe  Fe50  1  0.75225454  -0.00424918  0.49773789  1
  Fe  Fe51  1  0.24664484  -0.00284507  0.25359352  1
  Fe  Fe52  1  0.00389639  0.25171925  0.25115244  1
  Fe  Fe53  1  0.74579168  0.24993338  0.25182255  1
  Fe  Fe54  1  0.50236491  -0.00119564  0.75003396  1
  Fe  Fe55  1  0.12404091  0.12546312  0.87594232  1
  Fe  Fe56  1  0.62817309  0.62766962  0.12367243  1
  Fe  Fe57  1  0.37522119  0.87433902  0.62785623  1
  Fe  Fe58  1  0.62319732  0.37507918  0.12560098  1
  Fe  Fe59  1  0.87252184  0.87287610  0.13029605  1
  Fe  Fe60  1  0.12604700  0.62478454  0.62235449  1
  Fe  Fe61  1  0.37369627  0.12469160  0.87332361  1
  Fe  Fe62  1  0.62358194  0.37712960  0.37840950  1
  Fe  Fe63  1  0.12897249  0.63109011  0.37523203  1
  Fe  Fe64  1  0.49755127  0.50125662  0.00215033  1
  Fe  Fe65  1  0.62453790  0.87333412  0.87794588  1
  Fe  Fe66  1  0.00098965  0.74938323  0.74848504  1
  Fe  Fe67  1  0.62491270  0.87244314  0.62252574  1
  Fe  Fe68  1  0.12829540  0.38001714  0.12030644  1
  Fe  Fe69  1  0.74880009  0.75030648  0.75022262  1
  Fe  Fe70  1  -0.00066701  -0.00226547  0.49567033  1
  Fe  Fe71  1  0.49871171  0.00034026  0.49929417  1
  Fe  Fe72  1  0.87244663  0.37746760  0.62730488  1
  Fe  Fe73  1  0.24710195  0.25171316  0.74927294  1
  Fe  Fe74  1  0.74828782  0.50111089  0.25237707  1
  Fe  Fe75  1  0.50082093  0.00081295  0.00148838  1
  Fe  Fe76  1  0.50243412  0.25091987  0.74692475  1
  Fe  Fe77  1  0.37423454  0.37818511  0.62580325  1
  Fe  Fe78  1  0.37749399  0.87048650  0.37246049  1
  Fe  Fe79  1  0.49351359  0.74384142  0.50366099  1
  Fe  Fe80  1  0.37586107  0.12638228  0.12805284  1
  Fe  Fe81  1  0.87537475  0.62534227  0.37282431  1
  Fe  Fe82  1  0.87350903  0.62506420  0.12626914  1
  Fe  Fe83  1  0.37629826  0.37718574  0.37319469  1
  Fe  Fe84  1  0.75589329  0.75254272  0.49686624  1
  Fe  Fe85  1  0.62620206  0.12475007  0.62258192  1
  Fe  Fe86  1  0.12241523  0.87383915  0.12716351  1
  Fe  Fe87  1  0.25155512  0.24949133  0.49885978  1
  Fe  Fe88  1  0.87268152  0.62360630  0.62559558  1
  Fe  Fe89  1  0.24833970  0.25324848  0.25083410  1
  Co  Co90  1  0.62630235  0.87104330  0.12191771  1
  Co  Co91  1  0.61983591  0.86983248  0.38002341  1
  Co  Co92  1  0.87949953  0.87500758  0.36877615  1
  Co  Co93  1  -0.00432911  0.74883992  0.49998507  1
  Co  Co94  1  0.24694314  0.49836010  0.25186180  1
  Co  Co95  1  0.37124467  0.62365455  0.63195250  1
  Co  Co96  1  0.50287921  0.74867690  0.24699521  1
  Co  Co97  1  0.12549948  0.62248799  0.12186266  1
  Co  Co98  1  0.25516515  0.75054738  0.50107040  1
  Co  Co99  1  0.50374387  0.74909432  0.74812996  1
  Co  Co100  1  0.00287948  0.00151345  0.25124163  1
  Co  Co101  1  0.74793207  0.24896511  0.74905034  1
  Co  Co102  1  0.37322144  0.62750467  0.36883263  1
  Co  Co103  1  0.12522470  0.37558962  0.38000454  1
  Co  Co104  1  0.49569478  0.50416496  0.50249414  1
  Co  Co105  1  0.62494741  0.12644958  0.12371869  1
  Co  Co106  1  0.37521979  0.37476553  0.12710085  1
  Co  Co107  1  0.62586206  0.12566645  0.37990792  1
  Co  Co108  1  0.75350547  0.49931419  0.49618909  1
  Co  Co109  1  0.74730671  -0.00152971  0.74925332  1
  Co  Co110  1  0.87647789  0.87512700  0.62730125  1
  Co  Co111  1  0.12445608  0.87327579  0.87739263  1
  Co  Co112  1  0.25223403  0.24892851  0.00013065  1
  Co  Co113  1  0.00090303  0.74530996  0.24846207  1
  Co  Co114  1  0.50256555  0.24962959  0.25259631  1
  Co  Co115  1  0.75291838  0.74928174  -0.00168245  1
  Co  Co116  1  0.62849701  0.37689948  0.62090340  1
  Co  Co117  1  0.63082984  0.62655545  0.61881135  1
  Co  Co118  1  0.00247151  0.25228060  0.74862539  1
  Co  Co119  1  0.12177507  0.86863059  0.37567215  1
  Co  Co120  1  0.74703742  0.50271069  0.75156371  1
  Co  Co121  1  -0.00466935  0.49944727  -0.00015492  1
  Co  Co122  1  0.24619683  0.49859852  0.75124344  1
  Co  Co123  1  0.25610400  0.50319724  -0.00129891  1
  Co  Co124  1  0.24888456  0.75308609  0.24639566  1
  Co  Co125  1  0.12478591  0.12686230  0.37673092  1
  Co  Co126  1  0.74680337  0.75055841  0.25457631  1
  Co  Co127  1  0.87611126  0.37506232  0.37074138  1
