# generated using pymatgen
data_Fe45Co19
_symmetry_space_group_name_H-M   'P 1'
_cell_length_a   11.41581830
_cell_length_b   11.41500112
_cell_length_c   11.41497637
_cell_angle_alpha   90.01634020
_cell_angle_beta   89.99741283
_cell_angle_gamma   89.99855834
_symmetry_Int_Tables_number   1
_chemical_formula_structural   Fe45Co19
_chemical_formula_sum   'Fe90 Co38'
_cell_volume   1487.50352891
_cell_formula_units_Z   2
loop_
 _symmetry_equiv_pos_site_id
 _symmetry_equiv_pos_as_xyz
  1  'x, y, z'
loop_
 _atom_site_type_symbol
 _atom_site_label
 _atom_site_symmetry_multiplicity
 _atom_site_fract_x
 _atom_site_fract_y
 _atom_site_fract_z
 _atom_site_occupancy
  Fe  Fe0  1  0.00247511  0.75383384  0.49795454  1
  Fe  Fe1  1  0.12308461  0.62474455  0.37315773  1
  Fe  Fe2  1  0.37478157  0.37725745  0.87640535  1
  Fe  Fe3  1  0.00192264  -0.00189820  0.00174936  1
  Fe  Fe4  1  0.49957375  -0.00493929  0.49745945  1
  Fe  Fe5  1  0.62595806  0.87479559  0.13196546  1
  Fe  Fe6  1  0.87977553  0.37464435  0.87657090  1
  Fe  Fe7  1  0.24642165  0.24966931  -0.00197765  1
  Fe  Fe8  1  0.49913660  0.24828684  0.25212262  1
  Fe  Fe9  1  0.87358963  0.87399194  0.62262621  1
  Fe  Fe10  1  0.00352938  0.74755381  0.00030534  1
  Fe  Fe11  1  0.37881964  0.62625378  0.37776887  1
  Fe  Fe12  1  0.25255516  0.74760843  0.75318919  1
  Fe  Fe13  1  0.37308505  0.87405793  0.13050338  1
  Fe  Fe14  1  0.12308183  0.62814817  0.62702691  1
  Fe  Fe15  1  0.75303562  0.50603983  0.25081398  1
  Fe  Fe16  1  0.25143831  0.74832209  -0.00268825  1
  Fe  Fe17  1  0.24918971  -0.00101190  0.00178549  1
  Fe  Fe18  1  0.75231019  0.50116714  0.74900154  1
  Fe  Fe19  1  0.49814586  0.25066567  0.75080615  1
  Fe  Fe20  1  0.62648315  0.11980321  0.37443075  1
  Fe  Fe21  1  0.37675038  0.62550788  0.62339930  1
  Fe  Fe22  1  0.12708634  0.87031982  0.12967769  1
  Fe  Fe23  1  -0.00056933  -0.00255484  0.25030245  1
  Fe  Fe24  1  0.37298047  0.37336586  0.12377906  1
  Fe  Fe25  1  -0.00137292  0.24991199  0.24969706  1
  Fe  Fe26  1  0.00126814  -0.00168073  0.74665313  1
  Fe  Fe27  1  0.62528772  0.12364413  0.87583434  1
  Fe  Fe28  1  0.62562115  0.37367801  0.62409427  1
  Fe  Fe29  1  0.62372750  0.87619374  0.87355357  1
  Fe  Fe30  1  0.74593223  0.50218422  0.49843691  1
  Fe  Fe31  1  0.75112147  -0.00009430  0.74956491  1
  Fe  Fe32  1  0.13060915  0.87665183  0.37225460  1
  Fe  Fe33  1  0.62535570  0.87305198  0.62687832  1
  Fe  Fe34  1  0.87667550  0.12508705  0.12436817  1
  Fe  Fe35  1  0.50309974  0.49947898  0.50108306  1
  Fe  Fe36  1  0.87844625  0.62443723  0.87710308  1
  Fe  Fe37  1  0.12516505  0.12225890  0.37673054  1
  Fe  Fe38  1  0.24978949  0.24911863  0.25129272  1
  Fe  Fe39  1  0.75201345  0.24834163  0.25182288  1
  Fe  Fe40  1  0.11995257  0.37411035  0.87264778  1
  Fe  Fe41  1  0.37396590  0.12868011  0.62128740  1
  Fe  Fe42  1  0.62135142  0.62434590  0.87677031  1
  Fe  Fe43  1  0.49834286  0.49987521  0.24816067  1
  Fe  Fe44  1  0.12553321  0.87376622  0.87193779  1
  Fe  Fe45  1  0.75162827  0.74809640  0.75133893  1
  Fe  Fe46  1  0.87416369  0.87051955  0.12697031  1
  Fe  Fe47  1  0.87533233  0.37902976  0.37606218  1
  Fe  Fe48  1  0.75186477  0.49969017  0.00209703  1
  Fe  Fe49  1  0.37608980  0.62587867  0.12140616  1
  Fe  Fe50  1  0.12390615  0.37684718  0.12680950  1
  Fe  Fe51  1  0.49884929  0.00065439  0.74915716  1
  Fe  Fe52  1  0.24899868  0.00127227  0.74793975  1
  Fe  Fe53  1  0.25278702  0.50305648  0.25000645  1
  Fe  Fe54  1  0.75060384  -0.00124497  0.00175043  1
  Fe  Fe55  1  0.49835938  0.74868464  0.75232104  1
  Fe  Fe56  1  0.74807978  0.25079591  0.49787553  1
  Fe  Fe57  1  0.62420452  0.12543650  0.62430935  1
  Fe  Fe58  1  0.12368137  0.37820087  0.37129781  1
  Fe  Fe59  1  0.74374520  0.74863329  0.49642214  1
  Fe  Fe60  1  0.74682983  0.75117190  -0.00071672  1
  Fe  Fe61  1  0.37389127  0.37258137  0.62182797  1
  Fe  Fe62  1  0.87614383  0.12143097  0.37798102  1
  Fe  Fe63  1  0.62774704  0.37477788  0.12899690  1
  Fe  Fe64  1  0.37337086  0.12298056  0.87723540  1
  Fe  Fe65  1  0.87090738  0.87589845  0.37506228  1
  Fe  Fe66  1  0.75276965  0.25007134  0.74926150  1
  Fe  Fe67  1  0.49843775  -0.00280162  0.00279389  1
  Fe  Fe68  1  0.62593055  0.37582025  0.87480707  1
  Fe  Fe69  1  0.87680274  0.62448138  0.62077835  1
  Fe  Fe70  1  0.87827912  0.12396720  0.87596339  1
  Fe  Fe71  1  -0.00401321  0.50627362  0.24552880  1
  Fe  Fe72  1  0.37140587  0.12302860  0.37758209  1
  Fe  Fe73  1  0.00070327  0.25319844  0.49973144  1
  Fe  Fe74  1  0.49973536  0.49960328  0.74911232  1
  Fe  Fe75  1  0.24728259  0.50000658  0.49961528  1
  Fe  Fe76  1  0.62456183  0.12413803  0.12542251  1
  Fe  Fe77  1  0.25000255  0.50157743  0.75109126  1
  Fe  Fe78  1  0.75202129  0.25028816  0.00076533  1
  Fe  Fe79  1  0.87638576  0.87505135  0.87598832  1
  Fe  Fe80  1  0.12467632  0.12524724  0.12538626  1
  Fe  Fe81  1  0.87490363  0.12366043  0.62142504  1
  Fe  Fe82  1  0.50097558  0.25195606  -0.00011688  1
  Fe  Fe83  1  0.24554092  0.50311875  -0.00185375  1
  Fe  Fe84  1  0.37414713  0.87320214  0.62516691  1
  Fe  Fe85  1  0.12644704  0.12663722  0.62281341  1
  Fe  Fe86  1  0.37571090  0.37487711  0.37704833  1
  Fe  Fe87  1  0.25077572  0.75066603  0.49842855  1
  Fe  Fe88  1  0.12623562  0.37329348  0.62726679  1
  Fe  Fe89  1  0.62311103  0.62679296  0.12474145  1
  Co  Co90  1  0.37938679  0.62275135  0.87785915  1
  Co  Co91  1  0.50200004  0.49628536  0.00271386  1
  Co  Co92  1  0.00522840  0.49828302  0.50230946  1
  Co  Co93  1  0.49917810  0.75028526  0.25178022  1
  Co  Co94  1  0.00167464  0.50201842  0.00362860  1
  Co  Co95  1  0.25011172  0.00387010  0.24768877  1
  Co  Co96  1  0.87483926  0.37477438  0.12651109  1
  Co  Co97  1  0.12657202  0.62718422  0.12779607  1
  Co  Co98  1  0.12704778  0.87097975  0.62748507  1
  Co  Co99  1  0.74691473  -0.00205220  0.50205397  1
  Co  Co100  1  0.87277307  0.37722826  0.62073376  1
  Co  Co101  1  0.49576950  0.00278855  0.25084945  1
  Co  Co102  1  0.75399804  0.00167228  0.24743332  1
  Co  Co103  1  0.37371219  0.87716571  0.87320012  1
  Co  Co104  1  0.25268455  0.74450659  0.25248494  1
  Co  Co105  1  0.61961871  0.62448869  0.37288686  1
  Co  Co106  1  0.25040455  -0.00261464  0.50286637  1
  Co  Co107  1  0.87872776  0.62432668  0.38109541  1
  Co  Co108  1  -0.00416319  0.75101906  0.74886312  1
  Co  Co109  1  0.00273806  -0.00404393  0.50074533  1
  Co  Co110  1  0.12352688  0.12357945  0.87467675  1
  Co  Co111  1  0.50190037  0.75462358  0.49792615  1
  Co  Co112  1  0.12170092  0.62634697  0.87106377  1
  Co  Co113  1  0.37134159  0.87531475  0.37204599  1
  Co  Co114  1  0.00097147  0.25016632  0.00272268  1
  Co  Co115  1  0.62361016  0.62620280  0.62707805  1
  Co  Co116  1  0.62574933  0.37772924  0.37173237  1
  Co  Co117  1  0.25150250  0.24976805  0.75216188  1
  Co  Co118  1  0.87417688  0.63116952  0.12126037  1
  Co  Co119  1  -0.00154256  0.49987706  0.74689253  1
  Co  Co120  1  -0.00232276  0.24888136  0.74624330  1
  Co  Co121  1  0.37409020  0.12817080  0.12215677  1
  Co  Co122  1  -0.00167510  0.75003866  0.25331150  1
  Co  Co123  1  0.50271447  0.24952484  0.49618045  1
  Co  Co124  1  0.75130266  0.74432308  0.25389866  1
  Co  Co125  1  0.49937484  0.75527088  0.00099873  1
  Co  Co126  1  0.24663706  0.25354831  0.49660445  1
  Co  Co127  1  0.62718454  0.87732534  0.36885504  1
