# generated using pymatgen
data_Fe45Co19
_symmetry_space_group_name_H-M   'P 1'
_cell_length_a   11.41432923
_cell_length_b   11.41482350
_cell_length_c   11.41398515
_cell_angle_alpha   90.00019352
_cell_angle_beta   89.99594876
_cell_angle_gamma   90.00282022
_symmetry_Int_Tables_number   1
_chemical_formula_structural   Fe45Co19
_chemical_formula_sum   'Fe90 Co38'
_cell_volume   1487.15726578
_cell_formula_units_Z   2
loop_
 _symmetry_equiv_pos_site_id
 _symmetry_equiv_pos_as_xyz
  1  'x, y, z'
loop_
 _atom_site_type_symbol
 _atom_site_label
 _atom_site_symmetry_multiplicity
 _atom_site_fract_x
 _atom_site_fract_y
 _atom_site_fract_z
 _atom_site_occupancy
  Fe  Fe0  1  0.62555564  0.87616862  0.62912861  1
  Fe  Fe1  1  0.37555057  0.87558411  0.87313799  1
  Fe  Fe2  1  0.75217542  -0.00209539  0.00088681  1
  Fe  Fe3  1  0.37363497  0.12612369  0.37520876  1
  Fe  Fe4  1  0.88027940  0.37793438  0.87072125  1
  Fe  Fe5  1  0.24998413  -0.00075758  0.74968578  1
  Fe  Fe6  1  0.87885175  0.37592587  0.62843534  1
  Fe  Fe7  1  0.50233815  0.24977944  0.25201389  1
  Fe  Fe8  1  -0.00071298  0.50188855  0.24774749  1
  Fe  Fe9  1  0.24394514  0.25130830  0.24632033  1
  Fe  Fe10  1  0.12438135  0.12673799  0.62468489  1
  Fe  Fe11  1  0.62778268  0.61976216  0.87609490  1
  Fe  Fe12  1  0.24805657  0.25304811  0.49970679  1
  Fe  Fe13  1  0.87594004  0.87121003  0.12748159  1
  Fe  Fe14  1  0.87644819  0.37287192  0.12593552  1
  Fe  Fe15  1  0.50248847  0.49886950  0.75013650  1
  Fe  Fe16  1  0.62697204  0.37507567  0.62273260  1
  Fe  Fe17  1  0.75020180  0.75186835  -0.00195104  1
  Fe  Fe18  1  0.37405077  0.62418241  0.62641305  1
  Fe  Fe19  1  -0.00082366  -0.00460529  -0.00138043  1
  Fe  Fe20  1  0.50214063  0.74930717  -0.00226655  1
  Fe  Fe21  1  0.37346462  0.62199716  0.87508179  1
  Fe  Fe22  1  0.62462274  0.12705063  0.62408044  1
  Fe  Fe23  1  0.87531134  0.12441177  0.37554318  1
  Fe  Fe24  1  0.75025486  0.74915241  0.49985915  1
  Fe  Fe25  1  0.00043619  0.74128474  0.75877198  1
  Fe  Fe26  1  0.12508993  0.62260340  0.37602752  1
  Fe  Fe27  1  0.87410455  0.12551957  0.87654351  1
  Fe  Fe28  1  0.00248356  0.25130270  -0.00015170  1
  Fe  Fe29  1  -0.00090742  -0.00284779  0.50162302  1
  Fe  Fe30  1  0.62705937  0.87847623  0.87249016  1
  Fe  Fe31  1  0.12364846  0.62270376  0.11702158  1
  Fe  Fe32  1  0.37494007  0.12764760  0.62504746  1
  Fe  Fe33  1  0.87516902  0.87088413  0.63135300  1
  Fe  Fe34  1  0.24913417  0.00073878  0.24718785  1
  Fe  Fe35  1  0.62850297  0.62278475  0.62518335  1
  Fe  Fe36  1  0.75317789  -0.00149176  0.50238305  1
  Fe  Fe37  1  0.24262544  0.50190681  0.74956706  1
  Fe  Fe38  1  0.24867339  -0.00189221  0.50206602  1
  Fe  Fe39  1  0.24458223  0.25328176  0.75390267  1
  Fe  Fe40  1  0.87482789  0.62831522  0.12354033  1
  Fe  Fe41  1  0.87626429  0.12847193  0.62540455  1
  Fe  Fe42  1  0.49883177  0.00095292  0.50089038  1
  Fe  Fe43  1  0.87540167  0.37655156  0.37484106  1
  Fe  Fe44  1  0.62700340  0.12637645  0.37812188  1
  Fe  Fe45  1  0.74947118  0.25232850  0.75230373  1
  Fe  Fe46  1  0.62732912  0.12473252  0.87619114  1
  Fe  Fe47  1  0.62622513  0.62286155  0.12537887  1
  Fe  Fe48  1  0.50010915  0.49975355  0.49845815  1
  Fe  Fe49  1  0.50090002  0.74754335  0.50039233  1
  Fe  Fe50  1  0.75305906  0.49533953  0.00076183  1
  Fe  Fe51  1  0.37663837  0.87222891  0.12482536  1
  Fe  Fe52  1  0.74970991  -0.00126330  0.24854048  1
  Fe  Fe53  1  0.12306368  0.87409795  0.12393608  1
  Fe  Fe54  1  0.24754854  0.49907275  0.50261098  1
  Fe  Fe55  1  0.37364168  0.37555692  0.37191673  1
  Fe  Fe56  1  0.37205151  0.12793487  0.12271920  1
  Fe  Fe57  1  0.49468820  0.49810737  0.00284530  1
  Fe  Fe58  1  0.37525963  0.87469125  0.37291509  1
  Fe  Fe59  1  0.62633418  0.87482140  0.37460382  1
  Fe  Fe60  1  0.12409180  0.12429009  0.37563617  1
  Fe  Fe61  1  0.37600624  0.62422901  0.37298572  1
  Fe  Fe62  1  0.12694899  0.12265379  0.87972852  1
  Fe  Fe63  1  0.75042798  0.25105937  0.25015174  1
  Fe  Fe64  1  0.25198835  0.75007969  0.49989026  1
  Fe  Fe65  1  0.37596703  0.87358366  0.62801613  1
  Fe  Fe66  1  0.00342496  0.25046996  0.24913910  1
  Fe  Fe67  1  0.25158772  0.50042419  0.24413793  1
  Fe  Fe68  1  0.50115827  0.74791779  0.75085962  1
  Fe  Fe69  1  0.62400246  0.37407465  0.12358328  1
  Fe  Fe70  1  0.62712933  0.12720021  0.12123133  1
  Fe  Fe71  1  0.50118820  0.25118074  0.75132800  1
  Fe  Fe72  1  0.37375639  0.37528463  0.62761205  1
  Fe  Fe73  1  -0.00101231  0.00175552  0.75136692  1
  Fe  Fe74  1  0.49770781  0.25227847  -0.00306724  1
  Fe  Fe75  1  0.37156126  0.12605719  0.87654630  1
  Fe  Fe76  1  0.87164369  0.62574331  0.37223115  1
  Fe  Fe77  1  0.24874731  0.75153827  -0.00298647  1
  Fe  Fe78  1  0.50373866  0.74784931  0.24961083  1
  Fe  Fe79  1  0.50110912  0.00125331  0.24768408  1
  Fe  Fe80  1  -0.00252912  0.74871702  0.49805644  1
  Fe  Fe81  1  0.12351398  0.86916093  0.62961733  1
  Fe  Fe82  1  0.00030904  -0.00063020  0.25015420  1
  Fe  Fe83  1  0.49862783  0.00028872  0.00001829  1
  Fe  Fe84  1  0.00124832  0.25185430  0.49839871  1
  Fe  Fe85  1  0.12378063  0.87412839  0.37497916  1
  Fe  Fe86  1  0.24674535  0.74759635  0.24887529  1
  Fe  Fe87  1  0.87570070  0.12619735  0.12447663  1
  Fe  Fe88  1  0.00010291  0.50206444  0.50378279  1
  Fe  Fe89  1  0.62738270  0.37779724  0.37614595  1
  Co  Co90  1  0.24706951  0.25673222  -0.00045282  1
  Co  Co91  1  0.25035318  0.74614050  0.75420840  1
  Co  Co92  1  0.75355112  0.50102725  0.50078281  1
  Co  Co93  1  0.12469379  0.37916363  0.37372591  1
  Co  Co94  1  0.74732662  0.74682954  0.75313115  1
  Co  Co95  1  0.12660991  0.61843082  0.88502387  1
  Co  Co96  1  0.62342777  0.37755836  0.87808799  1
  Co  Co97  1  0.12419776  0.12314916  0.12087780  1
  Co  Co98  1  0.12061351  0.37346786  0.62700214  1
  Co  Co99  1  0.49784601  0.25289410  0.49920523  1
  Co  Co100  1  -0.00140238  0.75267559  -0.00532229  1
  Co  Co101  1  0.12040312  0.38226296  0.87754716  1
  Co  Co102  1  0.49968958  0.50039555  0.24835564  1
  Co  Co103  1  0.37571917  0.63018441  0.12405222  1
  Co  Co104  1  0.25079021  -0.00442455  0.00092596  1
  Co  Co105  1  0.74764116  0.75012746  0.24857049  1
  Co  Co106  1  0.49854563  0.00301187  0.75086438  1
  Co  Co107  1  0.62413224  0.87502582  0.12323189  1
  Co  Co108  1  0.87482132  0.87341293  0.37223362  1
  Co  Co109  1  0.87234711  0.87487278  0.87055439  1
  Co  Co110  1  0.62723327  0.62245992  0.37340571  1
  Co  Co111  1  0.12593278  0.63103414  0.62229674  1
  Co  Co112  1  -0.00721170  0.50073126  0.00127165  1
  Co  Co113  1  0.75178195  0.49836076  0.24708597  1
  Co  Co114  1  0.12469353  0.87586310  0.87122043  1
  Co  Co115  1  0.75021932  0.49722275  0.75037533  1
  Co  Co116  1  0.37465807  0.37697998  0.87016374  1
  Co  Co117  1  0.00387469  0.50900688  0.74724437  1
  Co  Co118  1  0.00311440  0.74635450  0.24955782  1
  Co  Co119  1  0.87054262  0.62155517  0.87643256  1
  Co  Co120  1  0.75211838  0.00474252  0.74865029  1
  Co  Co121  1  0.37752492  0.36943040  0.12857156  1
  Co  Co122  1  0.12170160  0.37977887  0.12169429  1
  Co  Co123  1  0.87209182  0.62606690  0.62797686  1
  Co  Co124  1  0.00283796  0.24699569  0.75409098  1
  Co  Co125  1  0.75327582  0.25427013  -0.00212746  1
  Co  Co126  1  0.75323501  0.25160778  0.50040240  1
  Co  Co127  1  0.25797086  0.49432565  0.00323815  1
