# generated using pymatgen
data_Fe45Co19
_symmetry_space_group_name_H-M   'P 1'
_cell_length_a   11.41475475
_cell_length_b   11.41532511
_cell_length_c   11.41405332
_cell_angle_alpha   89.99855310
_cell_angle_beta   89.99493759
_cell_angle_gamma   89.99916290
_symmetry_Int_Tables_number   1
_chemical_formula_structural   Fe45Co19
_chemical_formula_sum   'Fe90 Co38'
_cell_volume   1487.28694116
_cell_formula_units_Z   2
loop_
 _symmetry_equiv_pos_site_id
 _symmetry_equiv_pos_as_xyz
  1  'x, y, z'
loop_
 _atom_site_type_symbol
 _atom_site_label
 _atom_site_symmetry_multiplicity
 _atom_site_fract_x
 _atom_site_fract_y
 _atom_site_fract_z
 _atom_site_occupancy
  Fe  Fe0  1  0.37514847  0.12576121  0.37495729  1
  Fe  Fe1  1  0.37174012  0.62391078  0.12635998  1
  Fe  Fe2  1  0.87198878  0.12485476  0.37653355  1
  Fe  Fe3  1  0.87521805  0.87626459  0.87462257  1
  Fe  Fe4  1  0.37090026  0.87227851  0.12663957  1
  Fe  Fe5  1  0.37614376  0.37691801  0.37547833  1
  Fe  Fe6  1  -0.00109615  0.24831056  0.49980643  1
  Fe  Fe7  1  0.87646101  0.62482787  0.87494877  1
  Fe  Fe8  1  0.00150263  -0.00003894  0.00265395  1
  Fe  Fe9  1  0.12672875  0.12641247  0.37197079  1
  Fe  Fe10  1  0.74914261  0.49941498  0.00050477  1
  Fe  Fe11  1  0.24941643  0.00239294  0.00222014  1
  Fe  Fe12  1  0.49475367  0.24729322  0.74849819  1
  Fe  Fe13  1  0.74830219  0.75176276  0.74935460  1
  Fe  Fe14  1  0.37178203  0.87377838  0.37128850  1
  Fe  Fe15  1  0.00010914  0.00100102  0.50094426  1
  Fe  Fe16  1  0.24490905  0.74518060  0.00010129  1
  Fe  Fe17  1  0.24839363  0.49801239  0.24945917  1
  Fe  Fe18  1  0.62591591  0.87222662  0.12625513  1
  Fe  Fe19  1  0.00042564  0.74891373  0.75054482  1
  Fe  Fe20  1  0.12325026  0.87411323  0.62283426  1
  Fe  Fe21  1  0.75121206  0.49963633  0.24979336  1
  Fe  Fe22  1  0.62518240  0.12647527  0.12592740  1
  Fe  Fe23  1  0.62461078  0.87169985  0.37208004  1
  Fe  Fe24  1  0.74984229  0.25212800  0.00177986  1
  Fe  Fe25  1  0.24978555  0.50058704  0.50070004  1
  Fe  Fe26  1  0.62424609  0.12559026  0.87621486  1
  Fe  Fe27  1  0.12413067  0.62465584  0.37340629  1
  Fe  Fe28  1  0.25120608  0.25341685  0.00161215  1
  Fe  Fe29  1  0.49909184  0.50170885  0.74950312  1
  Fe  Fe30  1  0.12710312  0.12751895  0.87437769  1
  Fe  Fe31  1  0.74966592  0.49987656  0.75013423  1
  Fe  Fe32  1  0.49951308  0.74891225  0.75212562  1
  Fe  Fe33  1  0.50193620  0.50237421  0.25041223  1
  Fe  Fe34  1  0.12457133  0.87499789  0.87688092  1
  Fe  Fe35  1  0.74939404  -0.00029940  0.00080648  1
  Fe  Fe36  1  0.49840153  0.74693926  0.49592722  1
  Fe  Fe37  1  0.00303132  0.75209441  0.24747263  1
  Fe  Fe38  1  0.87636508  0.37324021  0.62462025  1
  Fe  Fe39  1  0.50094367  0.25161553  0.24992373  1
  Fe  Fe40  1  -0.00098489  0.24949790  0.00057800  1
  Fe  Fe41  1  0.87525149  0.12472049  0.12564939  1
  Fe  Fe42  1  0.24999075  0.74842343  0.49791498  1
  Fe  Fe43  1  0.75088853  0.75241996  0.50017119  1
  Fe  Fe44  1  0.25176398  0.49882721  0.74896759  1
  Fe  Fe45  1  0.49961259  0.74913692  0.00062166  1
  Fe  Fe46  1  0.62732866  0.12526843  0.62299252  1
  Fe  Fe47  1  0.75059853  0.25247058  0.24984433  1
  Fe  Fe48  1  0.62662114  0.62682140  0.12619417  1
  Fe  Fe49  1  0.12442307  0.37298070  0.62742587  1
  Fe  Fe50  1  0.37342491  0.12742643  0.12586960  1
  Fe  Fe51  1  0.12283441  0.37357626  0.37341998  1
  Fe  Fe52  1  0.25093361  0.25148210  0.50012915  1
  Fe  Fe53  1  0.12424117  0.37485070  0.87142832  1
  Fe  Fe54  1  0.62446237  0.62574880  0.62446417  1
  Fe  Fe55  1  0.87580207  0.37436485  0.37494941  1
  Fe  Fe56  1  0.49925581  -0.00081145  0.24935345  1
  Fe  Fe57  1  0.12631430  0.12773583  0.62624853  1
  Fe  Fe58  1  0.50338104  0.25208719  0.49963278  1
  Fe  Fe59  1  0.74793045  0.49729077  0.50021682  1
  Fe  Fe60  1  0.24971417  -0.00038658  0.49847201  1
  Fe  Fe61  1  0.87855465  0.87450034  0.37460596  1
  Fe  Fe62  1  0.25230172  0.00132948  0.74913206  1
  Fe  Fe63  1  0.62323797  0.37389053  0.87483356  1
  Fe  Fe64  1  0.74967903  -0.00212517  0.24974886  1
  Fe  Fe65  1  0.87687204  0.37654937  0.87550939  1
  Fe  Fe66  1  0.87533301  0.62620412  0.37504529  1
  Fe  Fe67  1  0.49836559  0.00177991  0.75027703  1
  Fe  Fe68  1  0.50160413  0.50072604  0.50029585  1
  Fe  Fe69  1  0.00015894  0.50067390  0.50070479  1
  Fe  Fe70  1  -0.00070031  0.00242019  0.74852167  1
  Fe  Fe71  1  0.87539618  0.62567813  0.62434619  1
  Fe  Fe72  1  0.12528256  0.62493780  0.62665043  1
  Fe  Fe73  1  0.37672335  0.87461717  0.62365722  1
  Fe  Fe74  1  0.87424895  0.12323727  0.87419665  1
  Fe  Fe75  1  0.49926120  0.00037800  0.00204672  1
  Fe  Fe76  1  0.37291548  0.62342411  0.87644538  1
  Fe  Fe77  1  0.62513838  0.87591497  0.87557829  1
  Fe  Fe78  1  0.87817896  0.62492354  0.12535113  1
  Fe  Fe79  1  0.75244459  0.24962127  0.74949440  1
  Fe  Fe80  1  0.50123380  0.50016806  0.00086301  1
  Fe  Fe81  1  0.37375383  0.87606404  0.87726566  1
  Fe  Fe82  1  0.12116613  0.37349522  0.12862801  1
  Fe  Fe83  1  0.74936477  -0.00376410  0.50226146  1
  Fe  Fe84  1  0.25101377  0.75080914  0.75015095  1
  Fe  Fe85  1  0.37548149  0.37502692  0.87683907  1
  Fe  Fe86  1  0.00414893  0.00045579  0.24773644  1
  Fe  Fe87  1  0.50145723  -0.00060070  0.49752220  1
  Fe  Fe88  1  0.00320660  0.50183442  -0.00087576  1
  Fe  Fe89  1  0.75229177  0.75049816  0.00046710  1
  Co  Co90  1  0.62036001  0.87315889  0.62491356  1
  Co  Co91  1  -0.00342118  0.24807101  0.25152187  1
  Co  Co92  1  0.62552779  0.62517756  0.87595797  1
  Co  Co93  1  0.49925319  0.25053786  0.00199882  1
  Co  Co94  1  0.00104046  0.74771498  0.49955650  1
  Co  Co95  1  0.74834338  0.25357755  0.49917828  1
  Co  Co96  1  0.12607526  0.12908819  0.12587332  1
  Co  Co97  1  0.62830521  0.62543285  0.37530874  1
  Co  Co98  1  0.12481592  0.87553464  0.37599644  1
  Co  Co99  1  -0.00142411  0.49942724  0.25263091  1
  Co  Co100  1  0.37279972  0.62173034  0.37328462  1
  Co  Co101  1  0.24653054  0.49794679  0.00108699  1
  Co  Co102  1  -0.00244919  0.24856943  0.75014727  1
  Co  Co103  1  0.12390919  0.62242530  0.12766564  1
  Co  Co104  1  0.49862993  0.74784794  0.25060719  1
  Co  Co105  1  0.25424185  0.24926915  0.74962887  1
  Co  Co106  1  0.87767426  0.37643971  0.12427574  1
  Co  Co107  1  0.74880878  -0.00100503  0.74745390  1
  Co  Co108  1  0.75281004  0.75003456  0.24953058  1
  Co  Co109  1  0.12794063  0.87517667  0.12307095  1
  Co  Co110  1  0.37638900  0.37764075  0.12617227  1
  Co  Co111  1  0.37367422  0.12487257  0.87916448  1
  Co  Co112  1  0.25246028  0.25224881  0.25099925  1
  Co  Co113  1  0.37550744  0.37569055  0.62259881  1
  Co  Co114  1  0.62397590  0.37455397  0.62885632  1
  Co  Co115  1  0.37449610  0.12385416  0.61988557  1
  Co  Co116  1  0.24915125  0.00149158  0.25002872  1
  Co  Co117  1  0.87599172  0.87625639  0.12445917  1
  Co  Co118  1  0.62701392  0.12457587  0.37450939  1
  Co  Co119  1  0.62512820  0.37597435  0.12507752  1
  Co  Co120  1  0.62461525  0.37670353  0.37253028  1
  Co  Co121  1  0.12553749  0.62312858  0.87129121  1
  Co  Co122  1  -0.00146501  0.50010748  0.74813076  1
  Co  Co123  1  0.37484601  0.62558471  0.62485990  1
  Co  Co124  1  0.87878583  0.87437666  0.62566647  1
  Co  Co125  1  0.24717481  0.74868272  0.25170155  1
  Co  Co126  1  0.00126517  0.74934565  0.00012747  1
  Co  Co127  1  0.87240851  0.12539835  0.62273533  1
