# generated using pymatgen
data_Fe45Co19
_symmetry_space_group_name_H-M   'P 1'
_cell_length_a   11.41413148
_cell_length_b   11.41401376
_cell_length_c   11.41422181
_cell_angle_alpha   89.99724004
_cell_angle_beta   89.99206937
_cell_angle_gamma   90.00287308
_symmetry_Int_Tables_number   1
_chemical_formula_structural   Fe45Co19
_chemical_formula_sum   'Fe90 Co38'
_cell_volume   1487.05682818
_cell_formula_units_Z   2
loop_
 _symmetry_equiv_pos_site_id
 _symmetry_equiv_pos_as_xyz
  1  'x, y, z'
loop_
 _atom_site_type_symbol
 _atom_site_label
 _atom_site_symmetry_multiplicity
 _atom_site_fract_x
 _atom_site_fract_y
 _atom_site_fract_z
 _atom_site_occupancy
  Fe  Fe0  1  -0.00063494  0.75072480  0.25232995  1
  Fe  Fe1  1  0.12770672  0.87746862  0.37776404  1
  Fe  Fe2  1  0.50373174  0.50112430  0.74513253  1
  Fe  Fe3  1  0.87581238  0.12398197  0.87590045  1
  Fe  Fe4  1  0.62302836  0.62542490  0.87532312  1
  Fe  Fe5  1  0.12541775  0.87453735  0.12442614  1
  Fe  Fe6  1  0.50106405  0.25107696  0.49814947  1
  Fe  Fe7  1  0.62486704  0.87543788  0.62352922  1
  Fe  Fe8  1  0.74973112  0.24923824  -0.00128159  1
  Fe  Fe9  1  0.12493520  0.87590783  0.87322596  1
  Fe  Fe10  1  0.37348341  0.37262545  0.12683012  1
  Fe  Fe11  1  0.62466868  0.62254677  0.37784929  1
  Fe  Fe12  1  -0.00133251  0.24938091  0.75044907  1
  Fe  Fe13  1  0.24962170  0.74742448  0.75159824  1
  Fe  Fe14  1  0.87589048  0.87673054  0.62591102  1
  Fe  Fe15  1  0.62451217  0.87855096  0.87399522  1
  Fe  Fe16  1  0.74913770  0.25182057  0.49913622  1
  Fe  Fe17  1  0.50069699  0.75025406  0.74815045  1
  Fe  Fe18  1  0.87603892  0.12263246  0.37670556  1
  Fe  Fe19  1  0.75092469  0.00197751  0.74753730  1
  Fe  Fe20  1  0.12459141  0.62339379  0.37355575  1
  Fe  Fe21  1  0.49792804  0.00133542  0.50154662  1
  Fe  Fe22  1  0.87506808  0.62469532  0.87497327  1
  Fe  Fe23  1  0.37010542  0.12371096  0.37304227  1
  Fe  Fe24  1  -0.00210782  0.75168626  -0.00189117  1
  Fe  Fe25  1  0.75037773  0.24862885  0.75154833  1
  Fe  Fe26  1  0.75147601  0.50042156  0.25135462  1
  Fe  Fe27  1  -0.00002180  0.75186265  0.75017781  1
  Fe  Fe28  1  0.62553876  0.37505971  0.87426919  1
  Fe  Fe29  1  0.62808147  0.12108253  0.37625547  1
  Fe  Fe30  1  0.00132364  0.00014195  0.50426993  1
  Fe  Fe31  1  -0.00129970  0.49853828  0.00090042  1
  Fe  Fe32  1  0.25035327  0.24861579  0.75026602  1
  Fe  Fe33  1  0.00145232  0.25178701  0.50015285  1
  Fe  Fe34  1  0.00483992  0.24922245  0.24795338  1
  Fe  Fe35  1  0.24817351  0.24808935  0.00396249  1
  Fe  Fe36  1  0.87539605  0.62428351  0.37662035  1
  Fe  Fe37  1  0.87182470  0.37569659  0.62650271  1
  Fe  Fe38  1  0.37605846  0.37638078  0.87514172  1
  Fe  Fe39  1  0.37516072  0.37332609  0.62447415  1
  Fe  Fe40  1  0.49943575  0.75065029  0.49862386  1
  Fe  Fe41  1  0.50195747  0.75276618  0.00013748  1
  Fe  Fe42  1  0.00105194  0.75191681  0.50075066  1
  Fe  Fe43  1  0.62451598  0.12563496  0.62445083  1
  Fe  Fe44  1  -0.00248257  -0.00278130  -0.00100230  1
  Fe  Fe45  1  0.12401430  0.37441758  0.87578396  1
  Fe  Fe46  1  0.12427335  0.12650790  0.62422047  1
  Fe  Fe47  1  0.25044971  0.74999317  0.25110002  1
  Fe  Fe48  1  0.87252565  0.62917464  0.12607866  1
  Fe  Fe49  1  0.37461521  0.37487087  0.37298671  1
  Fe  Fe50  1  0.37563298  0.62352701  0.37675620  1
  Fe  Fe51  1  0.25087767  0.00189756  0.74626911  1
  Fe  Fe52  1  0.87018788  0.87144400  0.12733182  1
  Fe  Fe53  1  0.87708939  0.12495200  0.12490744  1
  Fe  Fe54  1  0.37334502  0.87706943  0.37495753  1
  Fe  Fe55  1  0.49939246  0.50103962  0.24941626  1
  Fe  Fe56  1  0.62765792  0.62980164  0.12661844  1
  Fe  Fe57  1  -0.00035455  0.49905067  0.74921574  1
  Fe  Fe58  1  0.87421771  0.37363078  0.37302594  1
  Fe  Fe59  1  0.37938374  0.87579274  0.12855050  1
  Fe  Fe60  1  0.74888032  -0.00191554  0.00184744  1
  Fe  Fe61  1  0.75013548  0.49957863  -0.00109554  1
  Fe  Fe62  1  0.25027055  0.50248610  -0.00172868  1
  Fe  Fe63  1  0.87090199  0.62383578  0.62291555  1
  Fe  Fe64  1  0.62515719  0.37361635  0.12765696  1
  Fe  Fe65  1  0.12652413  0.37747930  0.37083578  1
  Fe  Fe66  1  0.50058692  0.24797629  -0.00126754  1
  Fe  Fe67  1  0.50076501  0.49967187  0.00204386  1
  Fe  Fe68  1  0.50054547  0.24704560  0.25132663  1
  Fe  Fe69  1  0.37172512  0.87418031  0.62364159  1
  Fe  Fe70  1  0.37738680  0.12260190  0.87554913  1
  Fe  Fe71  1  0.24968810  0.50156024  0.75208449  1
  Fe  Fe72  1  0.12354492  0.12321761  0.87738751  1
  Fe  Fe73  1  0.24808635  0.24945312  0.49929390  1
  Fe  Fe74  1  -0.00019063  0.49772282  0.50067856  1
  Fe  Fe75  1  0.37580731  0.62750865  0.12403782  1
  Fe  Fe76  1  0.37568935  0.87557172  0.87356951  1
  Fe  Fe77  1  0.62285327  0.12187084  0.12473165  1
  Fe  Fe78  1  0.25087795  0.74860756  -0.00243997  1
  Fe  Fe79  1  0.87540738  0.37308729  0.12538663  1
  Fe  Fe80  1  0.75080766  0.75580908  0.49517166  1
  Fe  Fe81  1  0.74986358  0.74950205  0.75161530  1
  Fe  Fe82  1  0.24981423  0.49983876  0.50077673  1
  Fe  Fe83  1  0.37540023  0.62532462  0.62416621  1
  Fe  Fe84  1  0.25290289  0.00010044  0.00329138  1
  Fe  Fe85  1  0.00057585  -0.00115978  0.24957113  1
  Fe  Fe86  1  0.74944904  0.24703391  0.25000422  1
  Fe  Fe87  1  0.50069585  0.24830938  0.75113313  1
  Fe  Fe88  1  0.12409655  0.62424111  0.12604493  1
  Fe  Fe89  1  0.12499192  0.62558245  0.62504171  1
  Co  Co90  1  0.62891746  0.62897089  0.61977790  1
  Co  Co91  1  0.62148648  0.87957633  0.37320016  1
  Co  Co92  1  0.62533973  0.87344503  0.12925379  1
  Co  Co93  1  0.00079027  0.00160423  0.74808607  1
  Co  Co94  1  0.12625644  0.37930406  0.12582362  1
  Co  Co95  1  0.75044134  -0.00248465  0.50103357  1
  Co  Co96  1  0.74838352  0.49536741  0.49874647  1
  Co  Co97  1  0.87452287  0.37515761  0.87394393  1
  Co  Co98  1  0.74880181  0.75178055  -0.00419325  1
  Co  Co99  1  0.12187013  0.12067154  0.12282379  1
  Co  Co100  1  0.49860938  -0.00016385  0.74696477  1
  Co  Co101  1  0.74705804  0.50247547  0.75064261  1
  Co  Co102  1  0.87423180  0.87696418  0.87258821  1
  Co  Co103  1  0.25311315  0.50247271  0.24911691  1
  Co  Co104  1  0.24901551  0.00057112  0.24670145  1
  Co  Co105  1  0.00099975  0.25144527  0.00108938  1
  Co  Co106  1  0.24504145  0.24617232  0.24665166  1
  Co  Co107  1  0.12414991  0.12184545  0.37633743  1
  Co  Co108  1  0.62647345  0.37122411  0.62627089  1
  Co  Co109  1  0.62477088  0.12203349  0.87442094  1
  Co  Co110  1  0.37749413  0.12529790  0.12579325  1
  Co  Co111  1  0.12654107  0.37452228  0.62622786  1
  Co  Co112  1  0.12114308  0.62610419  0.87532345  1
  Co  Co113  1  0.50023157  0.74771480  0.25358630  1
  Co  Co114  1  0.38019415  0.62492829  0.87455397  1
  Co  Co115  1  0.50148844  0.49743838  0.50278351  1
  Co  Co116  1  0.25015858  0.00298978  0.50394203  1
  Co  Co117  1  -0.00384961  0.50029253  0.24934244  1
  Co  Co118  1  0.37656567  0.12880590  0.62440511  1
  Co  Co119  1  0.50053606  -0.00143678  0.00031783  1
  Co  Co120  1  0.75122766  -0.00045517  0.24995726  1
  Co  Co121  1  0.87879510  0.87968636  0.37571918  1
  Co  Co122  1  0.74956236  0.75178082  0.25823682  1
  Co  Co123  1  0.62410938  0.37548771  0.37103617  1
  Co  Co124  1  0.12710891  0.87385089  0.62562662  1
  Co  Co125  1  0.24923236  0.74741524  0.49873462  1
  Co  Co126  1  0.87472531  0.12614958  0.62230537  1
  Co  Co127  1  0.49981276  0.00307358  0.25163892  1
