# generated using pymatgen
data_Ca2Al2SiO7
_symmetry_space_group_name_H-M   'P 1'
_cell_length_a   15.45351615
_cell_length_b   15.45362632
_cell_length_c   15.28025904
_cell_angle_alpha   89.99750692
_cell_angle_beta   89.99821255
_cell_angle_gamma   90.00527184
_symmetry_Int_Tables_number   1
_chemical_formula_structural   Ca2Al2SiO7
_chemical_formula_sum   'Ca48 Al48 Si24 O168'
_cell_volume   3649.12240259
_cell_formula_units_Z   24
loop_
 _symmetry_equiv_pos_site_id
 _symmetry_equiv_pos_as_xyz
  1  'x, y, z'
loop_
 _atom_type_symbol
 _atom_type_oxidation_number
  Ca2+  2.0
  Al0+  0.0
  Si0+  0.0
  O2-  -2.0
loop_
 _atom_site_type_symbol
 _atom_site_label
 _atom_site_symmetry_multiplicity
 _atom_site_fract_x
 _atom_site_fract_y
 _atom_site_fract_z
 _atom_site_occupancy
  Ca2+  Ca0  1  0.16831485  0.08922298  0.17549262  1
  Ca2+  Ca1  1  0.16778020  0.08278760  0.50004195  1
  Ca2+  Ca2  1  0.15990356  0.07666416  0.83534176  1
  Ca2+  Ca3  1  0.17796626  0.57934366  0.17655543  1
  Ca2+  Ca4  1  0.17531128  0.58839555  0.50537038  1
  Ca2+  Ca5  1  0.17700163  0.59308659  0.83473917  1
  Ca2+  Ca6  1  0.67923257  0.07716113  0.16966570  1
  Ca2+  Ca7  1  0.67209120  0.07708873  0.50793224  1
  Ca2+  Ca8  1  0.67111502  0.07440515  0.83872689  1
  Ca2+  Ca9  1  0.66788882  0.57939170  0.17304971  1
  Ca2+  Ca10  1  0.66877772  0.58254887  0.50471987  1
  Ca2+  Ca11  1  0.66009403  0.57240103  0.83369702  1
  Ca2+  Ca12  1  0.08359798  0.32698510  0.16654396  1
  Ca2+  Ca13  1  0.07442425  0.33315917  0.48961434  1
  Ca2+  Ca14  1  0.07564384  0.32519549  0.82694126  1
  Ca2+  Ca15  1  0.07537397  0.83685116  0.16673289  1
  Ca2+  Ca16  1  0.07670797  0.83249991  0.50153722  1
  Ca2+  Ca17  1  0.07702685  0.83034779  0.82112147  1
  Ca2+  Ca18  1  0.58467012  0.33437568  0.16311775  1
  Ca2+  Ca19  1  0.58681917  0.32981510  0.50125612  1
  Ca2+  Ca20  1  0.59142804  0.32928380  0.82410135  1
  Ca2+  Ca21  1  0.57863892  0.82781528  0.16131803  1
  Ca2+  Ca22  1  0.59139144  0.81983996  0.49683553  1
  Ca2+  Ca23  1  0.57985252  0.83424763  0.82615368  1
  Ca2+  Ca24  1  0.32764027  0.42616294  0.17579905  1
  Ca2+  Ca25  1  0.32484852  0.42450832  0.50078443  1
  Ca2+  Ca26  1  0.33635015  0.43233163  0.83746754  1
  Ca2+  Ca27  1  0.33320629  0.92089375  0.17135738  1
  Ca2+  Ca28  1  0.32649468  0.92087745  0.50482883  1
  Ca2+  Ca29  1  0.32713802  0.91095950  0.83612652  1
  Ca2+  Ca30  1  0.82978414  0.42029749  0.17366471  1
  Ca2+  Ca31  1  0.83684884  0.42007470  0.50426367  1
  Ca2+  Ca32  1  0.82403724  0.41006484  0.83321711  1
  Ca2+  Ca33  1  0.83539946  0.92515253  0.17220527  1
  Ca2+  Ca34  1  0.83728001  0.92044177  0.50480004  1
  Ca2+  Ca35  1  0.82146370  0.91401308  0.83780104  1
  Ca2+  Ca36  1  0.41456322  0.16758776  0.16318337  1
  Ca2+  Ca37  1  0.42336087  0.16087183  0.49547610  1
  Ca2+  Ca38  1  0.42768697  0.17159625  0.82519796  1
  Ca2+  Ca39  1  0.41758362  0.66594479  0.16250516  1
  Ca2+  Ca40  1  0.42621604  0.65621995  0.49762255  1
  Ca2+  Ca41  1  0.41808149  0.66863453  0.82777963  1
  Ca2+  Ca42  1  0.92292329  0.16393293  0.16592159  1
  Ca2+  Ca43  1  0.91715061  0.17895825  0.48992770  1
  Ca2+  Ca44  1  0.91449972  0.16808974  0.83097923  1
  Ca2+  Ca45  1  0.91211591  0.66941290  0.16980432  1
  Ca2+  Ca46  1  0.91194723  0.67877382  0.49324416  1
  Ca2+  Ca47  1  0.92457448  0.67326411  0.82024176  1
  Al0+  Al48  1  0.00002894  -0.00020967  -0.00198942  1
  Al0+  Al49  1  -0.00107122  0.00027457  0.33067743  1
  Al0+  Al50  1  0.00203592  0.00144704  0.66786599  1
  Al0+  Al51  1  0.00000932  0.49873080  -0.00238868  1
  Al0+  Al52  1  -0.00246067  0.50100442  0.33495267  1
  Al0+  Al53  1  0.00302218  0.49959007  0.66130488  1
  Al0+  Al54  1  0.49890545  -0.00086817  -0.00137561  1
  Al0+  Al55  1  0.49968145  -0.00210742  0.33624021  1
  Al0+  Al56  1  0.50113154  0.00125142  0.66588487  1
  Al0+  Al57  1  0.49946484  0.50046918  0.00876123  1
  Al0+  Al58  1  0.50021058  0.49819620  0.33153212  1
  Al0+  Al59  1  0.49945262  0.49988371  0.67086299  1
  Al0+  Al60  1  0.24891464  0.25009267  -0.00927814  1
  Al0+  Al61  1  0.25169847  0.25002397  0.33982717  1
  Al0+  Al62  1  0.25126402  0.25217746  0.66845409  1
  Al0+  Al63  1  0.25097499  0.75158082  0.00291260  1
  Al0+  Al64  1  0.25103955  0.75113523  0.33741507  1
  Al0+  Al65  1  0.24994502  0.75275634  0.67074810  1
  Al0+  Al66  1  0.75040761  0.24964380  0.00911123  1
  Al0+  Al67  1  0.74981489  0.24790046  0.33158348  1
  Al0+  Al68  1  0.75045385  0.24998377  0.66092956  1
  Al0+  Al69  1  0.74806699  0.74765526  0.00141186  1
  Al0+  Al70  1  0.74818219  0.74758058  0.32495290  1
  Al0+  Al71  1  0.74937728  0.75096479  0.66490303  1
  Al0+  Al72  1  0.81868607  0.57149342  0.34695481  1
  Al0+  Al73  1  0.67952286  0.92729827  0.67912426  1
  Al0+  Al74  1  0.92931815  0.31931777  0.65297217  1
  Al0+  Al75  1  0.31949986  0.56964840  0.68174644  1
  Al0+  Al76  1  0.17794662  0.42910681  0.34790271  1
  Al0+  Al77  1  0.42930485  0.82121887  0.98574540  1
  Al0+  Al78  1  0.67997049  0.42941518  0.01437989  1
  Al0+  Al79  1  0.07165319  0.18094835  0.31962354  1
  Al0+  Al80  1  0.56890853  0.67733135  0.31785399  1
  Al0+  Al81  1  0.07398377  0.67961966  0.65160341  1
  Al0+  Al82  1  0.18030073  0.93247580  0.68080791  1
  Al0+  Al83  1  0.92938548  0.82064046  0.31786941  1
  Al0+  Al84  1  0.07098048  0.17859793  0.98383891  1
  Al0+  Al85  1  0.32225765  0.57255793  0.34998017  1
  Al0+  Al86  1  0.67545878  0.92630132  0.01623521  1
  Al0+  Al87  1  0.56878770  0.67838440  0.65485228  1
  Al0+  Al88  1  0.57049356  0.17880151  0.65297285  1
  Al0+  Al89  1  0.82150255  0.07006406  0.34884297  1
  Al0+  Al90  1  0.92773586  0.82168528  0.65250964  1
  Al0+  Al91  1  0.68204994  0.42999481  0.67791227  1
  Al0+  Al92  1  0.92672993  0.32396532  0.31537154  1
  Al0+  Al93  1  0.82188564  0.06882378  0.01578914  1
  Al0+  Al94  1  0.32211001  0.07092406  0.34614769  1
  Al0+  Al95  1  0.31858486  0.57199996  0.01571287  1
  Si0+  Si96  1  0.07419092  0.67879986  0.31659208  1
  Si0+  Si97  1  0.17928427  0.93012622  0.01563569  1
  Si0+  Si98  1  0.82523699  0.57216762  0.01494088  1
  Si0+  Si99  1  0.07454771  0.17812377  0.64919160  1
  Si0+  Si100  1  0.67770556  0.42651424  0.35075194  1
  Si0+  Si101  1  0.92828684  0.82013891  0.98518066  1
  Si0+  Si102  1  0.42696427  0.82289852  0.31785377  1
  Si0+  Si103  1  0.17755987  0.42610873  0.01430415  1
  Si0+  Si104  1  0.32394009  0.07430022  0.68543844  1
  Si0+  Si105  1  0.42763377  0.82314601  0.64947248  1
  Si0+  Si106  1  0.42924261  0.32230050  0.98547732  1
  Si0+  Si107  1  0.92642015  0.32249768  0.98299739  1
  Si0+  Si108  1  0.82138571  0.07230784  0.68190767  1
  Si0+  Si109  1  0.82412853  0.57323810  0.68176692  1
  Si0+  Si110  1  0.42803916  0.32305056  0.64987657  1
  Si0+  Si111  1  0.43067005  0.31851554  0.31879287  1
  Si0+  Si112  1  0.32009536  0.07282683  0.01161099  1
  Si0+  Si113  1  0.07120311  0.67913814  0.98764883  1
  Si0+  Si114  1  0.57137474  0.18056132  0.98716920  1
  Si0+  Si115  1  0.57117246  0.67621616  0.98235380  1
  Si0+  Si116  1  0.57098967  0.17531901  0.31664251  1
  Si0+  Si117  1  0.17559784  0.42639999  0.68612703  1
  Si0+  Si118  1  0.67854754  0.92755026  0.34953532  1
  Si0+  Si119  1  0.17650246  0.92806707  0.34953739  1
  O2-  O120  1  0.24866789  0.00352039  0.05616480  1
  O2-  O121  1  0.24625789  -0.00276734  0.39147923  1
  O2-  O122  1  0.25392208  0.00761838  0.73035421  1
  O2-  O123  1  0.24341361  0.49665723  0.05958414  1
  O2-  O124  1  0.24498037  0.50573487  0.39853181  1
  O2-  O125  1  0.24271765  0.49709984  0.73011549  1
  O2-  O126  1  0.75133161  -0.00546439  0.06536429  1
  O2-  O127  1  0.74717565  -0.00484856  0.39517347  1
  O2-  O128  1  0.75615247  0.00024006  0.72613865  1
  O2-  O129  1  0.75530877  0.50414918  0.05817320  1
  O2-  O130  1  0.74828074  0.49304703  0.39412320  1
  O2-  O131  1  0.75654698  0.50379356  0.72727193  1
  O2-  O132  1  0.00024467  0.25216902  0.26684246  1
  O2-  O133  1  0.00748717  0.24819535  0.60660637  1
  O2-  O134  1  -0.00503268  0.25313540  0.93925884  1
  O2-  O135  1  0.00539768  0.74671899  0.27049746  1
  O2-  O136  1  -0.00325037  0.74646522  0.60255360  1
  O2-  O137  1  -0.00359642  0.74572410  0.94460474  1
  O2-  O138  1  0.50065901  0.24716356  0.27431749  1
  O2-  O139  1  0.49290276  0.25062619  0.60569102  1
  O2-  O140  1  0.50264727  0.25354149  0.94348030  1
  O2-  O141  1  0.49145054  0.75061096  0.27333769  1
  O2-  O142  1  0.49697511  0.75522052  0.60590299  1
  O2-  O143  1  0.50574177  0.74829442  0.93868936  1
  O2-  O144  1  0.07621092  0.18034392  0.09619636  1
  O2-  O145  1  0.07087372  0.18141042  0.43313724  1
  O2-  O146  1  0.07318083  0.17832226  0.75527379  1
  O2-  O147  1  0.07150549  0.68046583  0.09265399  1
  O2-  O148  1  0.07560644  0.68230750  0.42165780  1
  O2-  O149  1  0.07313495  0.68317874  0.76647877  1
  O2-  O150  1  0.56759452  0.18116147  0.09242247  1
  O2-  O151  1  0.56978830  0.17505311  0.42170821  1
  O2-  O152  1  0.57068938  0.18075049  0.76687427  1
  O2-  O153  1  0.56866493  0.67545893  0.08795395  1
  O2-  O154  1  0.56963192  0.67754883  0.43110541  1
  O2-  O155  1  0.56602028  0.67677591  0.76800619  1
  O2-  O156  1  0.18373765  0.42826862  0.23348318  1
  O2-  O157  1  0.17819163  0.42318017  0.58111075  1
  O2-  O158  1  0.17915033  0.42658846  0.90876713  1
  O2-  O159  1  0.17821941  0.92700450  0.24328882  1
  O2-  O160  1  0.18122209  0.93415810  0.56787066  1
  O2-  O161  1  0.17951170  0.92911224  0.91067183  1
  O2-  O162  1  0.67640677  0.42861209  0.24472264  1
  O2-  O163  1  0.68156633  0.43017663  0.56537145  1
  O2-  O164  1  0.67962857  0.42770762  0.90105332  1
  O2-  O165  1  0.67695874  0.93131018  0.24384203  1
  O2-  O166  1  0.67935718  0.92879412  0.56622427  1
  O2-  O167  1  0.67599171  0.92887364  0.90237431  1
  O2-  O168  1  0.42678825  0.31911923  0.09066995  1
  O2-  O169  1  0.43299930  0.31863473  0.42370962  1
  O2-  O170  1  0.42980142  0.32232600  0.75615885  1
  O2-  O171  1  0.42721693  0.82077979  0.09880247  1
  O2-  O172  1  0.42857232  0.82705684  0.42297370  1
  O2-  O173  1  0.42808497  0.82208794  0.75557781  1
  O2-  O174  1  0.92787179  0.32545283  0.08785241  1
  O2-  O175  1  0.92595106  0.32114571  0.42904431  1
  O2-  O176  1  0.92753514  0.31510906  0.76682256  1
  O2-  O177  1  0.93102732  0.82137181  0.09029023  1
  O2-  O178  1  0.92975708  0.82106069  0.43045717  1
  O2-  O179  1  0.92885351  0.82037047  0.76707325  1
  O2-  O180  1  0.32311280  0.06986140  0.23225194  1
  O2-  O181  1  0.32400391  0.07280622  0.57987657  1
  O2-  O182  1  0.32030927  0.07222519  0.90682169  1
  O2-  O183  1  0.32155207  0.57020487  0.23601983  1
  O2-  O184  1  0.32072435  0.56653462  0.56923481  1
  O2-  O185  1  0.31885032  0.57184385  0.90248366  1
  O2-  O186  1  0.82050546  0.06837642  0.23573867  1
  O2-  O187  1  0.81924518  0.07241578  0.57637558  1
  O2-  O188  1  0.81921138  0.06973182  0.90176541  1
  O2-  O189  1  0.81498745  0.57166072  0.23325530  1
  O2-  O190  1  0.82095601  0.57339453  0.57639243  1
  O2-  O191  1  0.82796962  0.57269506  0.90944404  1
  O2-  O192  1  0.04463150  0.08216329  0.26624653  1
  O2-  O193  1  0.05020612  0.08445288  0.60426897  1
  O2-  O194  1  0.03986234  0.08156419  0.92969540  1
  O2-  O195  1  0.04848581  0.58524790  0.27108160  1
  O2-  O196  1  0.05642350  0.57849851  0.60172677  1
  O2-  O197  1  0.04925875  0.58563702  0.93980559  1
  O2-  O198  1  0.54096114  0.08389585  0.26969278  1
  O2-  O199  1  0.54037609  0.08287680  0.59696075  1
  O2-  O200  1  0.54145719  0.08980683  0.93893506  1
  O2-  O201  1  0.53977872  0.58001226  0.26327312  1
  O2-  O202  1  0.53610102  0.58218937  0.60099659  1
  O2-  O203  1  0.54068097  0.58254870  0.93857376  1
  O2-  O204  1  0.17246533  0.20852637  0.26913707  1
  O2-  O205  1  0.17044680  0.20117537  0.60655084  1
  O2-  O206  1  0.16636721  0.20853964  0.92530603  1
  O2-  O207  1  0.16831264  0.70572782  0.27034759  1
  O2-  O208  1  0.17019209  0.71530460  0.59933803  1
  O2-  O209  1  0.16136568  0.71234715  0.94045207  1
  O2-  O210  1  0.66201054  0.20313459  0.26826650  1
  O2-  O211  1  0.66425804  0.21201960  0.59623944  1
  O2-  O212  1  0.66419758  0.20795128  0.94202648  1
  O2-  O213  1  0.66245268  0.70972754  0.25933255  1
  O2-  O214  1  0.66581258  0.70706950  0.60098244  1
  O2-  O215  1  0.66729137  0.69496899  0.93814941  1
  O2-  O216  1  0.08238492  0.44810774  0.05857717  1
  O2-  O217  1  0.07748948  0.45111493  0.39748747  1
  O2-  O218  1  0.08094640  0.44913289  0.73168445  1
  O2-  O219  1  0.08701460  0.95637057  0.06206044  1
  O2-  O220  1  0.08393884  0.95484776  0.39525022  1
  O2-  O221  1  0.08392820  0.96259969  0.73787273  1
  O2-  O222  1  0.58428008  0.45893470  0.07124297  1
  O2-  O223  1  0.58445302  0.45337441  0.39599931  1
  O2-  O224  1  0.58562426  0.45888559  0.73419437  1
  O2-  O225  1  0.57777789  0.95863354  0.06871735  1
  O2-  O226  1  0.58544232  0.95290867  0.39649661  1
  O2-  O227  1  0.58285699  0.96022824  0.73278218  1
  O2-  O228  1  0.20742005  0.33284692  0.05859500  1
  O2-  O229  1  0.21281497  0.33449441  0.40430344  1
  O2-  O230  1  0.20318226  0.33306320  0.73365447  1
  O2-  O231  1  0.20908776  0.84035081  0.06538200  1
  O2-  O232  1  0.20247044  0.83575330  0.39746602  1
  O2-  O233  1  0.21164434  0.83749195  0.73822433  1
  O2-  O234  1  0.70773274  0.33397630  0.07180637  1
  O2-  O235  1  0.69882601  0.33074929  0.39340574  1
  O2-  O236  1  0.71401039  0.33281030  0.73167271  1
  O2-  O237  1  0.69856527  0.82524899  0.06576889  1
  O2-  O238  1  0.70419079  0.83244100  0.39039569  1
  O2-  O239  1  0.70789578  0.83085648  0.73562757  1
  O2-  O240  1  0.45928998  0.40891080  0.26838688  1
  O2-  O241  1  0.45837535  0.41431902  0.60368810  1
  O2-  O242  1  0.45674328  0.41554941  0.94119610  1
  O2-  O243  1  0.45652025  0.91503468  0.26907164  1
  O2-  O244  1  0.45045223  0.91792654  0.60523030  1
  O2-  O245  1  0.45586531  0.91889005  0.93027978  1
  O2-  O246  1  0.95192160  0.42400733  0.26360426  1
  O2-  O247  1  0.95595811  0.41720817  0.60011486  1
  O2-  O248  1  0.95126274  0.41579187  0.93427300  1
  O2-  O249  1  0.96209727  0.91579249  0.26186121  1
  O2-  O250  1  0.96007348  0.92009489  0.60185732  1
  O2-  O251  1  0.95906944  0.91013479  0.93684578  1
  O2-  O252  1  0.33931499  0.28992393  0.27137012  1
  O2-  O253  1  0.33285423  0.30127609  0.60535776  1
  O2-  O254  1  0.33984230  0.29390881  0.93370307  1
  O2-  O255  1  0.33140791  0.80238377  0.27258174  1
  O2-  O256  1  0.33397244  0.79791842  0.60502531  1
  O2-  O257  1  0.33205737  0.78896998  0.93230673  1
  O2-  O258  1  0.82777769  0.29338818  0.26351803  1
  O2-  O259  1  0.83545497  0.28699471  0.59578382  1
  O2-  O260  1  0.83198593  0.29402232  0.93946169  1
  O2-  O261  1  0.83461283  0.78781699  0.26126528  1
  O2-  O262  1  0.82942135  0.79660102  0.59863110  1
  O2-  O263  1  0.83443667  0.79500844  0.94008332  1
  O2-  O264  1  0.41140420  0.04548861  0.05998563  1
  O2-  O265  1  0.41740720  0.03833504  0.40255619  1
  O2-  O266  1  0.41740960  0.04814306  0.73133804  1
  O2-  O267  1  0.41384601  0.54019294  0.07075817  1
  O2-  O268  1  0.41911582  0.53618199  0.40049322  1
  O2-  O269  1  0.41411213  0.53563925  0.73851074  1
  O2-  O270  1  0.92096368  0.03971200  0.06746998  1
  O2-  O271  1  0.91829869  0.03960978  0.40158185  1
  O2-  O272  1  0.91686976  0.05255321  0.72629336  1
  O2-  O273  1  0.91856203  0.54628640  0.06246122  1
  O2-  O274  1  0.91699020  0.54881217  0.40031772  1
  O2-  O275  1  0.91945123  0.54909561  0.72546064  1
  O2-  O276  1  0.29315864  0.16596178  0.05736233  1
  O2-  O277  1  0.29554302  0.16610740  0.40391357  1
  O2-  O278  1  0.30200984  0.16974421  0.73027868  1
  O2-  O279  1  0.28692395  0.66789884  0.07031355  1
  O2-  O280  1  0.30064868  0.67305098  0.40144617  1
  O2-  O281  1  0.29046229  0.66727081  0.73531605  1
  O2-  O282  1  0.79273098  0.16575105  0.07078403  1
  O2-  O283  1  0.78865012  0.16675745  0.40098538  1
  O2-  O284  1  0.78996069  0.16386978  0.72836532  1
  O2-  O285  1  0.80010198  0.66552784  0.06179207  1
  O2-  O286  1  0.78341417  0.66766833  0.39904232  1
  O2-  O287  1  0.79813643  0.66632295  0.72836577  1
