# generated using pymatgen
data_Ca2Al2SiO7
_symmetry_space_group_name_H-M   'P 1'
_cell_length_a   15.45759084
_cell_length_b   15.45739125
_cell_length_c   15.28373329
_cell_angle_alpha   90.00182238
_cell_angle_beta   90.00667176
_cell_angle_gamma   89.99468531
_symmetry_Int_Tables_number   1
_chemical_formula_structural   Ca2Al2SiO7
_chemical_formula_sum   'Ca48 Al48 Si24 O168'
_cell_volume   3651.80393646
_cell_formula_units_Z   24
loop_
 _symmetry_equiv_pos_site_id
 _symmetry_equiv_pos_as_xyz
  1  'x, y, z'
loop_
 _atom_type_symbol
 _atom_type_oxidation_number
  Ca2+  2.0
  Al0+  0.0
  Si0+  0.0
  O2-  -2.0
loop_
 _atom_site_type_symbol
 _atom_site_label
 _atom_site_symmetry_multiplicity
 _atom_site_fract_x
 _atom_site_fract_y
 _atom_site_fract_z
 _atom_site_occupancy
  Ca2+  Ca0  1  0.16344706  0.07917676  0.16943605  1
  Ca2+  Ca1  1  0.16389615  0.06915227  0.50323249  1
  Ca2+  Ca2  1  0.16271447  0.07610502  0.83824582  1
  Ca2+  Ca3  1  0.16668213  0.57621324  0.17179685  1
  Ca2+  Ca4  1  0.16628890  0.57862768  0.50352642  1
  Ca2+  Ca5  1  0.15317910  0.57571547  0.84012426  1
  Ca2+  Ca6  1  0.66717921  0.07946262  0.16373090  1
  Ca2+  Ca7  1  0.67700430  0.07791913  0.50786199  1
  Ca2+  Ca8  1  0.67730577  0.07758405  0.84571721  1
  Ca2+  Ca9  1  0.66868082  0.58514346  0.17071699  1
  Ca2+  Ca10  1  0.66032149  0.58215088  0.50036674  1
  Ca2+  Ca11  1  0.67234892  0.59057423  0.84074163  1
  Ca2+  Ca12  1  0.07774783  0.33588336  0.15711648  1
  Ca2+  Ca13  1  0.08161653  0.33607189  0.49414800  1
  Ca2+  Ca14  1  0.08164409  0.33345267  0.83456816  1
  Ca2+  Ca15  1  0.08116045  0.82882876  0.16327836  1
  Ca2+  Ca16  1  0.07775468  0.83906927  0.49622274  1
  Ca2+  Ca17  1  0.08056646  0.82112256  0.82405117  1
  Ca2+  Ca18  1  0.58658689  0.33001594  0.16226235  1
  Ca2+  Ca19  1  0.58508811  0.33282625  0.49166489  1
  Ca2+  Ca20  1  0.58842550  0.32489026  0.83309028  1
  Ca2+  Ca21  1  0.57288257  0.82665390  0.15727858  1
  Ca2+  Ca22  1  0.57810372  0.81882989  0.48955550  1
  Ca2+  Ca23  1  0.58542207  0.82792662  0.83384512  1
  Ca2+  Ca24  1  0.32178978  0.42336775  0.17495857  1
  Ca2+  Ca25  1  0.32364089  0.42448645  0.50257487  1
  Ca2+  Ca26  1  0.31996638  0.41976461  0.83912728  1
  Ca2+  Ca27  1  0.33116191  0.91049158  0.17224394  1
  Ca2+  Ca28  1  0.32210507  0.90557733  0.49817732  1
  Ca2+  Ca29  1  0.32925899  0.90972496  0.83666966  1
  Ca2+  Ca30  1  0.83579804  0.42161961  0.16921517  1
  Ca2+  Ca31  1  0.82976238  0.41570182  0.49834106  1
  Ca2+  Ca32  1  0.83622629  0.42555108  0.84391646  1
  Ca2+  Ca33  1  0.83104856  0.91846455  0.16819100  1
  Ca2+  Ca34  1  0.84128427  0.91978883  0.50834811  1
  Ca2+  Ca35  1  0.83341242  0.92392314  0.84132489  1
  Ca2+  Ca36  1  0.42252334  0.16883011  0.15754255  1
  Ca2+  Ca37  1  0.41738868  0.16923384  0.49699632  1
  Ca2+  Ca38  1  0.42317155  0.16526692  0.83527789  1
  Ca2+  Ca39  1  0.42103478  0.67020569  0.16344528  1
  Ca2+  Ca40  1  0.42354672  0.66451167  0.49100298  1
  Ca2+  Ca41  1  0.42869765  0.66813939  0.83303552  1
  Ca2+  Ca42  1  0.92037609  0.17937064  0.15774891  1
  Ca2+  Ca43  1  0.91697525  0.17099784  0.49398992  1
  Ca2+  Ca44  1  0.91416429  0.16721960  0.83564285  1
  Ca2+  Ca45  1  0.91967863  0.66867955  0.16043982  1
  Ca2+  Ca46  1  0.92329341  0.67967451  0.49785286  1
  Ca2+  Ca47  1  0.92365146  0.66784016  0.83009934  1
  Al0+  Al48  1  0.00006180  0.00248138  0.00320229  1
  Al0+  Al49  1  0.00023393  0.00154285  0.33192000  1
  Al0+  Al50  1  0.00198923  0.00258565  0.67347350  1
  Al0+  Al51  1  -0.00254526  0.50005361  0.00247881  1
  Al0+  Al52  1  -0.00292834  0.50084028  0.33575629  1
  Al0+  Al53  1  -0.00197510  0.49975103  0.66470470  1
  Al0+  Al54  1  0.49872300  0.00091773  -0.00526185  1
  Al0+  Al55  1  0.50172497  -0.00083172  0.33309442  1
  Al0+  Al56  1  0.50052466  0.00055694  0.66406522  1
  Al0+  Al57  1  0.49809772  0.50107176  -0.00453156  1
  Al0+  Al58  1  0.50071944  0.49708722  0.33630335  1
  Al0+  Al59  1  0.49824025  0.49761786  0.66502850  1
  Al0+  Al60  1  0.24789981  0.24855733  0.00048041  1
  Al0+  Al61  1  0.25126832  0.24823327  0.33719802  1
  Al0+  Al62  1  0.25025855  0.25113218  0.67011278  1
  Al0+  Al63  1  0.25021476  0.74825318  -0.00796202  1
  Al0+  Al64  1  0.25036408  0.74972206  0.33854424  1
  Al0+  Al65  1  0.25247412  0.74708354  0.66901475  1
  Al0+  Al66  1  0.75015632  0.25057321  -0.00464560  1
  Al0+  Al67  1  0.75226624  0.25079478  0.33349167  1
  Al0+  Al68  1  0.75036570  0.24899678  0.66952483  1
  Al0+  Al69  1  0.74899975  0.75112265  0.00662784  1
  Al0+  Al70  1  0.75110965  0.75059674  0.32722778  1
  Al0+  Al71  1  0.74933151  0.74941806  0.65739236  1
  Al0+  Al72  1  0.17905165  0.93049488  0.34463255  1
  Al0+  Al73  1  0.82250267  0.07286690  0.01891264  1
  Al0+  Al74  1  0.68177023  0.42912997  0.34554563  1
  Al0+  Al75  1  0.07243823  0.67628321  0.65031601  1
  Al0+  Al76  1  0.82128224  0.07123821  0.68160951  1
  Al0+  Al77  1  0.42782652  0.82076472  0.31864495  1
  Al0+  Al78  1  0.57302297  0.67833469  0.98496430  1
  Al0+  Al79  1  0.17745640  0.43081747  0.68276805  1
  Al0+  Al80  1  0.93191873  0.82328556  0.65419528  1
  Al0+  Al81  1  0.57048492  0.67520487  0.31589940  1
  Al0+  Al82  1  0.42798992  0.82173788  0.98274085  1
  Al0+  Al83  1  0.17900510  0.42955608  0.01424841  1
  Al0+  Al84  1  0.17588102  0.42781546  0.34891498  1
  Al0+  Al85  1  0.92988103  0.32146417  0.32048585  1
  Al0+  Al86  1  0.32083186  0.57060661  0.34823722  1
  Al0+  Al87  1  0.07218035  0.17794186  0.98402515  1
  Al0+  Al88  1  0.18127313  0.92803311  0.68225149  1
  Al0+  Al89  1  0.57059901  0.18050983  0.98639493  1
  Al0+  Al90  1  0.67727424  0.92954970  0.01613495  1
  Al0+  Al91  1  0.57055325  0.67844786  0.65097591  1
  Al0+  Al92  1  0.92936091  0.32160041  0.98349289  1
  Al0+  Al93  1  0.93022900  0.82409543  0.31769460  1
  Al0+  Al94  1  0.06901782  0.67972675  0.98897537  1
  Al0+  Al95  1  0.81981798  0.57160581  0.01329127  1
  Si0+  Si96  1  0.32300579  0.57242718  0.01577829  1
  Si0+  Si97  1  0.57248360  0.17986825  0.65016125  1
  Si0+  Si98  1  0.67726999  0.42801449  0.68193113  1
  Si0+  Si99  1  0.07266733  0.18054318  0.65150531  1
  Si0+  Si100  1  0.42815822  0.31892081  0.31933977  1
  Si0+  Si101  1  0.07148393  0.67843841  0.31804680  1
  Si0+  Si102  1  0.67548759  0.42832758  0.01353043  1
  Si0+  Si103  1  0.42843331  0.31886793  0.65075441  1
  Si0+  Si104  1  0.82184695  0.57592206  0.35281145  1
  Si0+  Si105  1  0.32046470  0.07049408  0.01414429  1
  Si0+  Si106  1  0.81787051  0.57069749  0.67898705  1
  Si0+  Si107  1  0.81891304  0.06994606  0.34823611  1
  Si0+  Si108  1  0.67803559  0.92685980  0.68058855  1
  Si0+  Si109  1  0.32629422  0.07223863  0.35001383  1
  Si0+  Si110  1  0.67831621  0.92815624  0.34912560  1
  Si0+  Si111  1  0.32355183  0.07325107  0.68428519  1
  Si0+  Si112  1  0.92761997  0.32050372  0.65069073  1
  Si0+  Si113  1  0.57225438  0.17916662  0.31987996  1
  Si0+  Si114  1  0.17983406  0.92660209  0.01398957  1
  Si0+  Si115  1  0.42574230  0.32249953  0.98365004  1
  Si0+  Si116  1  0.07324063  0.17889049  0.31873729  1
  Si0+  Si117  1  0.32439646  0.57036656  0.68646653  1
  Si0+  Si118  1  0.92775179  0.82365687  0.98607990  1
  Si0+  Si119  1  0.42828763  0.82376640  0.64812347  1
  O2-  O120  1  0.25059432  -0.00153640  0.05603180  1
  O2-  O121  1  0.25690045  0.00305713  0.39182516  1
  O2-  O122  1  0.25888645  0.00105793  0.72831623  1
  O2-  O123  1  0.25471846  0.50332879  0.05971476  1
  O2-  O124  1  0.24629918  0.50103131  0.39927650  1
  O2-  O125  1  0.24834811  0.50916855  0.72990525  1
  O2-  O126  1  0.75084315  -0.00012154  0.06794146  1
  O2-  O127  1  0.75216726  -0.00406591  0.39275108  1
  O2-  O128  1  0.74819116  -0.00635803  0.72515743  1
  O2-  O129  1  0.74133931  0.49903255  0.05773903  1
  O2-  O130  1  0.75162979  0.50692375  0.39531284  1
  O2-  O131  1  0.74542961  0.50134492  0.72283187  1
  O2-  O132  1  0.01213825  0.25447546  0.27592610  1
  O2-  O133  1  0.00052491  0.25069926  0.60913159  1
  O2-  O134  1  -0.00019979  0.24849447  0.93240423  1
  O2-  O135  1  0.00354715  0.74750615  0.27306833  1
  O2-  O136  1  0.00668188  0.75498993  0.60167118  1
  O2-  O137  1  -0.00370189  0.75583116  0.94118339  1
  O2-  O138  1  0.49797544  0.24655420  0.27761550  1
  O2-  O139  1  0.50069003  0.24919301  0.60677417  1
  O2-  O140  1  0.49809234  0.25756822  0.93869693  1
  O2-  O141  1  0.49894220  0.74870861  0.26828061  1
  O2-  O142  1  0.49642241  0.75407113  0.60506665  1
  O2-  O143  1  0.50286942  0.75178205  0.93438842  1
  O2-  O144  1  0.07422675  0.17931941  0.09780865  1
  O2-  O145  1  0.06980838  0.17530568  0.42481849  1
  O2-  O146  1  0.07376427  0.18106937  0.75600386  1
  O2-  O147  1  0.07041463  0.68184773  0.10219597  1
  O2-  O148  1  0.06927253  0.67893541  0.42365194  1
  O2-  O149  1  0.06560888  0.67451833  0.76386111  1
  O2-  O150  1  0.56750851  0.18188207  0.10003196  1
  O2-  O151  1  0.57209478  0.18073196  0.42560176  1
  O2-  O152  1  0.57231376  0.18140209  0.75480295  1
  O2-  O153  1  0.56921256  0.67553787  0.09775032  1
  O2-  O154  1  0.56850127  0.67678519  0.43009585  1
  O2-  O155  1  0.57197006  0.67843714  0.76364867  1
  O2-  O156  1  0.17873905  0.42725889  0.23550375  1
  O2-  O157  1  0.18052306  0.42784772  0.56989423  1
  O2-  O158  1  0.18016869  0.43053263  0.90082048  1
  O2-  O159  1  0.17861028  0.93319709  0.23149383  1
  O2-  O160  1  0.18031871  0.93238201  0.56888011  1
  O2-  O161  1  0.18088052  0.92754204  0.90890674  1
  O2-  O162  1  0.68399282  0.42444740  0.23307304  1
  O2-  O163  1  0.67878044  0.42452004  0.57676834  1
  O2-  O164  1  0.67683187  0.42826022  0.90733222  1
  O2-  O165  1  0.67561627  0.93277738  0.24480970  1
  O2-  O166  1  0.67735718  0.93114156  0.57456607  1
  O2-  O167  1  0.67921061  0.93087088  0.90184659  1
  O2-  O168  1  0.42537959  0.31979185  0.08946136  1
  O2-  O169  1  0.42882370  0.31634435  0.42491807  1
  O2-  O170  1  0.42980956  0.31720634  0.75563144  1
  O2-  O171  1  0.42562061  0.82083499  0.09604367  1
  O2-  O172  1  0.43136507  0.82226201  0.43240241  1
  O2-  O173  1  0.43095711  0.82597140  0.75341014  1
  O2-  O174  1  0.93127264  0.32211992  0.09715974  1
  O2-  O175  1  0.92627294  0.31562781  0.43429312  1
  O2-  O176  1  0.92564067  0.32122453  0.75511748  1
  O2-  O177  1  0.93129237  0.82268629  0.09190421  1
  O2-  O178  1  0.93220479  0.82691118  0.43088117  1
  O2-  O179  1  0.92984883  0.82065223  0.76758351  1
  O2-  O180  1  0.32817539  0.07587650  0.24466879  1
  O2-  O181  1  0.32270054  0.07658207  0.57863252  1
  O2-  O182  1  0.32016558  0.07167841  0.90899204  1
  O2-  O183  1  0.32021883  0.56779166  0.23450705  1
  O2-  O184  1  0.32859813  0.56501792  0.58113600  1
  O2-  O185  1  0.32489250  0.56978657  0.91015400  1
  O2-  O186  1  0.81595865  0.07139200  0.24398757  1
  O2-  O187  1  0.81848631  0.07476131  0.56763956  1
  O2-  O188  1  0.82045220  0.07053970  0.90500895  1
  O2-  O189  1  0.82367455  0.57475059  0.24744036  1
  O2-  O190  1  0.81739928  0.56776760  0.57402615  1
  O2-  O191  1  0.82033907  0.57050772  0.89933909  1
  O2-  O192  1  0.04097791  0.08918015  0.26968333  1
  O2-  O193  1  0.04421626  0.08871191  0.60471863  1
  O2-  O194  1  0.04443963  0.07861674  0.93208346  1
  O2-  O195  1  0.04432653  0.58489560  0.27290215  1
  O2-  O196  1  0.03727080  0.58038513  0.59580504  1
  O2-  O197  1  0.03380149  0.58508451  0.93508378  1
  O2-  O198  1  0.54751531  0.08677262  0.27319318  1
  O2-  O199  1  0.54651044  0.08759154  0.60197298  1
  O2-  O200  1  0.53622107  0.08727235  0.92884816  1
  O2-  O201  1  0.54407673  0.57488768  0.26653009  1
  O2-  O202  1  0.53932174  0.57987376  0.59971979  1
  O2-  O203  1  0.54435076  0.58009074  0.92962957  1
  O2-  O204  1  0.17046965  0.19493970  0.27632073  1
  O2-  O205  1  0.16463522  0.20874166  0.60414544  1
  O2-  O206  1  0.17084904  0.20471583  0.93026415  1
  O2-  O207  1  0.16570283  0.70306254  0.27424895  1
  O2-  O208  1  0.17542064  0.69589513  0.60419172  1
  O2-  O209  1  0.16459161  0.70610968  0.93131976  1
  O2-  O210  1  0.66195103  0.21135269  0.27241706  1
  O2-  O211  1  0.66353003  0.21032368  0.60205076  1
  O2-  O212  1  0.66552919  0.21019884  0.92909601  1
  O2-  O213  1  0.66999801  0.70251568  0.26649598  1
  O2-  O214  1  0.66592081  0.70672350  0.59305307  1
  O2-  O215  1  0.67244516  0.70759670  0.93404900  1
  O2-  O216  1  0.08352107  0.46215164  0.06765410  1
  O2-  O217  1  0.07656013  0.45401431  0.40140254  1
  O2-  O218  1  0.07813603  0.45755830  0.73366490  1
  O2-  O219  1  0.08842546  0.95430006  0.06184074  1
  O2-  O220  1  0.08438484  0.96713407  0.40073243  1
  O2-  O221  1  0.08712693  0.96251279  0.73782153  1
  O2-  O222  1  0.57959213  0.44880570  0.05758530  1
  O2-  O223  1  0.58411824  0.45289896  0.40168298  1
  O2-  O224  1  0.58359692  0.45044828  0.72751894  1
  O2-  O225  1  0.57872934  0.96339887  0.06644972  1
  O2-  O226  1  0.58832534  0.95915112  0.39922491  1
  O2-  O227  1  0.58458942  0.95485377  0.72582509  1
  O2-  O228  1  0.20937807  0.33201883  0.06667834  1
  O2-  O229  1  0.20617963  0.32874943  0.40133899  1
  O2-  O230  1  0.21318919  0.33493945  0.73608344  1
  O2-  O231  1  0.20888629  0.83455098  0.05979553  1
  O2-  O232  1  0.20594989  0.83459126  0.40167556  1
  O2-  O233  1  0.20936795  0.82982129  0.73496587  1
  O2-  O234  1  0.70145143  0.33472206  0.05849735  1
  O2-  O235  1  0.71575675  0.33364655  0.40328674  1
  O2-  O236  1  0.70740226  0.33709153  0.72986356  1
  O2-  O237  1  0.70229176  0.83191030  0.07125042  1
  O2-  O238  1  0.70402799  0.83461465  0.39356305  1
  O2-  O239  1  0.70129638  0.83154772  0.72307360  1
  O2-  O240  1  0.45757086  0.40910019  0.27172198  1
  O2-  O241  1  0.45607240  0.40981370  0.60218659  1
  O2-  O242  1  0.44627337  0.41640608  0.93667153  1
  O2-  O243  1  0.45610615  0.92070951  0.26740357  1
  O2-  O244  1  0.45149874  0.91846470  0.60184198  1
  O2-  O245  1  0.45244855  0.92083162  0.92927946  1
  O2-  O246  1  0.95134445  0.42125814  0.26939894  1
  O2-  O247  1  0.95324783  0.41207217  0.60233713  1
  O2-  O248  1  0.96014573  0.41907778  0.93050161  1
  O2-  O249  1  0.96192740  0.92012433  0.26334560  1
  O2-  O250  1  0.95944265  0.92381653  0.60325475  1
  O2-  O251  1  0.95233103  0.91791960  0.94198051  1
  O2-  O252  1  0.33644122  0.29120870  0.27144829  1
  O2-  O253  1  0.33758522  0.28842457  0.60252594  1
  O2-  O254  1  0.33500807  0.29036537  0.93603441  1
  O2-  O255  1  0.32757397  0.79528386  0.26846267  1
  O2-  O256  1  0.33398654  0.79762900  0.60466461  1
  O2-  O257  1  0.33208126  0.79011675  0.92632367  1
  O2-  O258  1  0.83630191  0.28352839  0.26568400  1
  O2-  O259  1  0.83590395  0.28958842  0.60346977  1
  O2-  O260  1  0.83050991  0.29651012  0.92971129  1
  O2-  O261  1  0.83337911  0.79597263  0.26416398  1
  O2-  O262  1  0.83468424  0.79401264  0.59817478  1
  O2-  O263  1  0.83318628  0.79963401  0.94308715  1
  O2-  O264  1  0.41271871  0.04546764  0.06142747  1
  O2-  O265  1  0.41986888  0.04825147  0.39817261  1
  O2-  O266  1  0.41982937  0.05140780  0.72764645  1
  O2-  O267  1  0.41647016  0.54646989  0.06216422  1
  O2-  O268  1  0.41720001  0.53611060  0.40266152  1
  O2-  O269  1  0.41461821  0.53457287  0.73459093  1
  O2-  O270  1  0.92170343  0.04712001  0.07200158  1
  O2-  O271  1  0.91226497  0.04543753  0.39456182  1
  O2-  O272  1  0.91824148  0.04653000  0.73620467  1
  O2-  O273  1  0.91307609  0.53671853  0.07094379  1
  O2-  O274  1  0.91388693  0.54827924  0.40087733  1
  O2-  O275  1  0.90858908  0.54027929  0.72676407  1
  O2-  O276  1  0.29273516  0.16143075  0.06388986  1
  O2-  O277  1  0.30066748  0.16476948  0.39919325  1
  O2-  O278  1  0.29589161  0.16537307  0.73202924  1
  O2-  O279  1  0.29579901  0.66636258  0.05941219  1
  O2-  O280  1  0.29675542  0.66889291  0.40345678  1
  O2-  O281  1  0.30983285  0.66696641  0.72911898  1
  O2-  O282  1  0.79072031  0.17235552  0.06765550  1
  O2-  O283  1  0.78708405  0.15982647  0.39780623  1
  O2-  O284  1  0.78574419  0.16623398  0.73623485  1
  O2-  O285  1  0.79410192  0.66771100  0.07000010  1
  O2-  O286  1  0.79677330  0.67023374  0.39802899  1
  O2-  O287  1  0.79077837  0.66346519  0.72447805  1
