# generated using pymatgen
data_Ca2Al2SiO7
_symmetry_space_group_name_H-M   'P 1'
_cell_length_a   15.47254338
_cell_length_b   15.46998650
_cell_length_c   15.29270703
_cell_angle_alpha   89.98736334
_cell_angle_beta   90.00045574
_cell_angle_gamma   89.97344075
_symmetry_Int_Tables_number   1
_chemical_formula_structural   Ca2Al2SiO7
_chemical_formula_sum   'Ca48 Al48 Si24 O168'
_cell_volume   3660.46244159
_cell_formula_units_Z   24
loop_
 _symmetry_equiv_pos_site_id
 _symmetry_equiv_pos_as_xyz
  1  'x, y, z'
loop_
 _atom_type_symbol
 _atom_type_oxidation_number
  Ca2+  2.0
  Al0+  0.0
  Si0+  0.0
  O2-  -2.0
loop_
 _atom_site_type_symbol
 _atom_site_label
 _atom_site_symmetry_multiplicity
 _atom_site_fract_x
 _atom_site_fract_y
 _atom_site_fract_z
 _atom_site_occupancy
  Ca2+  Ca0  1  0.17947951  0.08567036  0.17406187  1
  Ca2+  Ca1  1  0.17812977  0.09250936  0.50326855  1
  Ca2+  Ca2  1  0.18135501  0.08969138  0.83384917  1
  Ca2+  Ca3  1  0.17572971  0.58180411  0.17599720  1
  Ca2+  Ca4  1  0.17503618  0.57654894  0.50458888  1
  Ca2+  Ca5  1  0.16760026  0.57514909  0.83457450  1
  Ca2+  Ca6  1  0.66946435  0.09110975  0.17103286  1
  Ca2+  Ca7  1  0.66323393  0.08802567  0.50377247  1
  Ca2+  Ca8  1  0.67025417  0.08876838  0.84274471  1
  Ca2+  Ca9  1  0.65625385  0.57363093  0.17299454  1
  Ca2+  Ca10  1  0.65736023  0.57309929  0.50167279  1
  Ca2+  Ca11  1  0.65258043  0.57295098  0.83522541  1
  Ca2+  Ca12  1  0.07962031  0.32945693  0.16890952  1
  Ca2+  Ca13  1  0.08469599  0.32594609  0.49480312  1
  Ca2+  Ca14  1  0.08182437  0.32803201  0.82154744  1
  Ca2+  Ca15  1  0.07309233  0.83834601  0.16570226  1
  Ca2+  Ca16  1  0.07664534  0.83429801  0.49318537  1
  Ca2+  Ca17  1  0.07646215  0.83881288  0.83454526  1
  Ca2+  Ca18  1  0.58274876  0.32901466  0.16650616  1
  Ca2+  Ca19  1  0.57914843  0.32764958  0.49538027  1
  Ca2+  Ca20  1  0.58214666  0.32580267  0.82691498  1
  Ca2+  Ca21  1  0.57990828  0.82092388  0.16619778  1
  Ca2+  Ca22  1  0.57239921  0.82317672  0.49705197  1
  Ca2+  Ca23  1  0.58207301  0.82128648  0.82575241  1
  Ca2+  Ca24  1  0.33853412  0.42180312  0.17701179  1
  Ca2+  Ca25  1  0.33931019  0.41673606  0.50361335  1
  Ca2+  Ca26  1  0.32889988  0.40594497  0.82977174  1
  Ca2+  Ca27  1  0.34108252  0.92692013  0.17481302  1
  Ca2+  Ca28  1  0.34839827  0.92796838  0.50210046  1
  Ca2+  Ca29  1  0.34255855  0.92864082  0.83356963  1
  Ca2+  Ca30  1  0.82011675  0.41248422  0.17455222  1
  Ca2+  Ca31  1  0.82042628  0.40726645  0.50127553  1
  Ca2+  Ca32  1  0.81615583  0.41578322  0.83902772  1
  Ca2+  Ca33  1  0.83598254  0.91876267  0.16975606  1
  Ca2+  Ca34  1  0.83111566  0.91566675  0.50252925  1
  Ca2+  Ca35  1  0.83063411  0.92371477  0.84279607  1
  Ca2+  Ca36  1  0.42433225  0.16511527  0.16517266  1
  Ca2+  Ca37  1  0.41951998  0.17581799  0.49355155  1
  Ca2+  Ca38  1  0.42564376  0.16564640  0.82382642  1
  Ca2+  Ca39  1  0.42515665  0.66217432  0.16624117  1
  Ca2+  Ca40  1  0.42300884  0.67039913  0.49021108  1
  Ca2+  Ca41  1  0.42612896  0.67393194  0.82473269  1
  Ca2+  Ca42  1  0.91835226  0.16877896  0.16697156  1
  Ca2+  Ca43  1  0.93214752  0.17129672  0.49154112  1
  Ca2+  Ca44  1  0.92261404  0.16401473  0.82901199  1
  Ca2+  Ca45  1  0.91086034  0.67976877  0.16414749  1
  Ca2+  Ca46  1  0.91756913  0.67175138  0.49309092  1
  Ca2+  Ca47  1  0.91318309  0.67334251  0.83309149  1
  Al0+  Al48  1  -0.00015986  0.00057935  -0.00036451  1
  Al0+  Al49  1  0.00124229  0.00025974  0.32709956  1
  Al0+  Al50  1  0.00108589  0.00102018  0.66348172  1
  Al0+  Al51  1  -0.00179722  0.50041571  0.00055420  1
  Al0+  Al52  1  -0.00104887  0.50055744  0.32968859  1
  Al0+  Al53  1  -0.00062572  0.50276292  0.67169110  1
  Al0+  Al54  1  0.50181852  -0.00047245  0.00177672  1
  Al0+  Al55  1  0.50287705  -0.00149038  0.33157039  1
  Al0+  Al56  1  0.50388142  -0.00271338  0.66680714  1
  Al0+  Al57  1  0.49670277  0.49868259  -0.00154763  1
  Al0+  Al58  1  0.49975941  0.49837486  0.33657860  1
  Al0+  Al59  1  0.50036541  0.49986639  0.66720794  1
  Al0+  Al60  1  0.24824389  0.24926279  0.00594990  1
  Al0+  Al61  1  0.25033951  0.24987129  0.32870624  1
  Al0+  Al62  1  0.25044441  0.24943917  0.66843087  1
  Al0+  Al63  1  0.24769422  0.74910436  -0.00073400  1
  Al0+  Al64  1  0.24924829  0.75186347  0.33495284  1
  Al0+  Al65  1  0.24646266  0.75320807  0.66580879  1
  Al0+  Al66  1  0.74999105  0.25073692  0.00499810  1
  Al0+  Al67  1  0.75240155  0.24938078  0.33374421  1
  Al0+  Al68  1  0.75156494  0.25130881  0.67020621  1
  Al0+  Al69  1  0.75009495  0.74949999  -0.00987062  1
  Al0+  Al70  1  0.74990022  0.74980544  0.32731269  1
  Al0+  Al71  1  0.75033072  0.75096676  0.66418352  1
  Al0+  Al72  1  0.07063404  0.17996581  0.65435400  1
  Al0+  Al73  1  0.92875175  0.32229247  0.31841834  1
  Al0+  Al74  1  0.57222473  0.17793413  0.31863213  1
  Al0+  Al75  1  0.57105194  0.18006108  0.98675078  1
  Al0+  Al76  1  0.56916436  0.67778915  0.31822549  1
  Al0+  Al77  1  0.42710289  0.82170006  0.31739586  1
  Al0+  Al78  1  0.57088914  0.67818723  0.65005351  1
  Al0+  Al79  1  0.68039804  0.42803252  0.34860613  1
  Al0+  Al80  1  0.92885859  0.82021562  0.32012255  1
  Al0+  Al81  1  0.67750472  0.43099159  0.01530216  1
  Al0+  Al82  1  0.42847667  0.31907114  0.65304754  1
  Al0+  Al83  1  0.56856836  0.67734920  0.98465025  1
  Al0+  Al84  1  0.42641194  0.82185053  0.65249939  1
  Al0+  Al85  1  0.32275975  0.07042432  0.34833404  1
  Al0+  Al86  1  0.42952945  0.32096288  0.31828601  1
  Al0+  Al87  1  0.07268570  0.17928363  0.31565250  1
  Al0+  Al88  1  0.82104759  0.07026515  0.01505700  1
  Al0+  Al89  1  0.93021428  0.82141443  0.98436862  1
  Al0+  Al90  1  0.32208307  0.06876890  0.67904911  1
  Al0+  Al91  1  0.32055795  0.57123071  0.34718421  1
  Al0+  Al92  1  0.32279825  0.06983454  0.01497859  1
  Al0+  Al93  1  0.17941674  0.42988443  0.67926077  1
  Al0+  Al94  1  0.57513708  0.17840324  0.65376515  1
  Al0+  Al95  1  0.67878749  0.42968309  0.68172461  1
  Si0+  Si96  1  0.82256489  0.07006901  0.68029735  1
  Si0+  Si97  1  0.42504869  0.32083316  0.98328443  1
  Si0+  Si98  1  0.82245198  0.57388024  0.34870829  1
  Si0+  Si99  1  0.07050429  0.67730906  0.65181927  1
  Si0+  Si100  1  0.07271746  0.67781782  0.31742551  1
  Si0+  Si101  1  0.31761915  0.57059085  0.01332809  1
  Si0+  Si102  1  0.17646620  0.92944497  0.35041797  1
  Si0+  Si103  1  0.68181483  0.92787162  0.68218254  1
  Si0+  Si104  1  0.82283351  0.06966053  0.34988861  1
  Si0+  Si105  1  0.93045350  0.82113766  0.65191554  1
  Si0+  Si106  1  0.92879829  0.32480397  0.65299742  1
  Si0+  Si107  1  0.17557955  0.42839399  0.01609662  1
  Si0+  Si108  1  0.42584993  0.82201557  0.98373817  1
  Si0+  Si109  1  0.07256679  0.67636411  0.98193770  1
  Si0+  Si110  1  0.32106934  0.57490819  0.68372927  1
  Si0+  Si111  1  0.07072706  0.18079176  0.98380752  1
  Si0+  Si112  1  0.92880665  0.32202544  0.98395352  1
  Si0+  Si113  1  0.17818484  0.92760007  0.01661446  1
  Si0+  Si114  1  0.17591702  0.42848996  0.34880610  1
  Si0+  Si115  1  0.82240932  0.57287326  0.01678345  1
  Si0+  Si116  1  0.68133665  0.92695129  0.34881539  1
  Si0+  Si117  1  0.67944321  0.92518344  0.01693426  1
  Si0+  Si118  1  0.17318918  0.92796198  0.68453648  1
  Si0+  Si119  1  0.82209820  0.57543539  0.68444824  1
  O2-  O120  1  0.25068858  -0.00862908  0.06063659  1
  O2-  O121  1  0.24767300  -0.00521130  0.39465614  1
  O2-  O122  1  0.24762543  -0.00798386  0.72579396  1
  O2-  O123  1  0.24686431  0.49941499  0.05613354  1
  O2-  O124  1  0.24557819  0.49596604  0.39277182  1
  O2-  O125  1  0.25475616  0.50338844  0.72854398  1
  O2-  O126  1  0.74514204  -0.00340100  0.06181463  1
  O2-  O127  1  0.75053686  0.00019254  0.39221814  1
  O2-  O128  1  0.74834715  0.00347294  0.72401370  1
  O2-  O129  1  0.75154822  0.50759840  0.06119536  1
  O2-  O130  1  0.75646180  0.50369367  0.39361697  1
  O2-  O131  1  0.75265882  0.50707393  0.72750627  1
  O2-  O132  1  0.00040785  0.25137623  0.26614685  1
  O2-  O133  1  -0.00116848  0.25785649  0.60909124  1
  O2-  O134  1  0.00052745  0.25230300  0.94057296  1
  O2-  O135  1  0.00303803  0.74530303  0.27312993  1
  O2-  O136  1  0.00058038  0.74962360  0.61008107  1
  O2-  O137  1  0.00412372  0.74558300  0.93771657  1
  O2-  O138  1  0.49936239  0.24792988  0.26742023  1
  O2-  O139  1  0.50156082  0.24801541  0.60391491  1
  O2-  O140  1  0.49305602  0.25110245  0.94030277  1
  O2-  O141  1  0.49494152  0.74661532  0.26677159  1
  O2-  O142  1  0.49218260  0.74415666  0.60291146  1
  O2-  O143  1  0.49569679  0.75470033  0.93946819  1
  O2-  O144  1  0.07080184  0.18235408  0.08831913  1
  O2-  O145  1  0.07142758  0.17948779  0.42947290  1
  O2-  O146  1  0.06795110  0.17971972  0.76812675  1
  O2-  O147  1  0.07396000  0.67533033  0.08705423  1
  O2-  O148  1  0.07073245  0.67812522  0.42328359  1
  O2-  O149  1  0.06926433  0.67604783  0.75692348  1
  O2-  O150  1  0.57177942  0.18183968  0.09911900  1
  O2-  O151  1  0.57236524  0.17889526  0.43206622  1
  O2-  O152  1  0.57629943  0.17994777  0.76782088  1
  O2-  O153  1  0.56700847  0.67657216  0.09724897  1
  O2-  O154  1  0.57038206  0.68004637  0.43133025  1
  O2-  O155  1  0.57103985  0.68130728  0.76413613  1
  O2-  O156  1  0.17445583  0.43237561  0.24266757  1
  O2-  O157  1  0.17538316  0.43335166  0.56694043  1
  O2-  O158  1  0.17433486  0.42786250  0.91085307  1
  O2-  O159  1  0.17360237  0.93088213  0.24466707  1
  O2-  O160  1  0.16295385  0.92883480  0.58008850  1
  O2-  O161  1  0.17639494  0.92905530  0.91094000  1
  O2-  O162  1  0.68123711  0.42979379  0.23532999  1
  O2-  O163  1  0.68312812  0.42712833  0.56919351  1
  O2-  O164  1  0.67916091  0.43106794  0.90198874  1
  O2-  O165  1  0.68472564  0.92492067  0.24377355  1
  O2-  O166  1  0.68660625  0.92436085  0.57727098  1
  O2-  O167  1  0.68247200  0.92566460  0.91089743  1
  O2-  O168  1  0.42441409  0.32303187  0.08843439  1
  O2-  O169  1  0.42982065  0.32065074  0.43153666  1
  O2-  O170  1  0.42754649  0.31560984  0.76723187  1
  O2-  O171  1  0.42458979  0.81932422  0.08890343  1
  O2-  O172  1  0.43075770  0.82092862  0.43062262  1
  O2-  O173  1  0.43041637  0.82156450  0.76674714  1
  O2-  O174  1  0.93125011  0.32252453  0.08854558  1
  O2-  O175  1  0.92974294  0.31920799  0.43235103  1
  O2-  O176  1  0.92958484  0.32227727  0.75915105  1
  O2-  O177  1  0.93239161  0.82056748  0.09710098  1
  O2-  O178  1  0.93005050  0.81934597  0.43378747  1
  O2-  O179  1  0.93160960  0.82186631  0.75691069  1
  O2-  O180  1  0.32084918  0.06835502  0.23499839  1
  O2-  O181  1  0.32011503  0.06907608  0.56651337  1
  O2-  O182  1  0.32067634  0.07144965  0.90154042  1
  O2-  O183  1  0.31789654  0.56983373  0.23323662  1
  O2-  O184  1  0.31687796  0.57610904  0.57848062  1
  O2-  O185  1  0.31490624  0.57208960  0.90836074  1
  O2-  O186  1  0.82336945  0.06814556  0.24475158  1
  O2-  O187  1  0.82553755  0.06660958  0.57542829  1
  O2-  O188  1  0.82262553  0.06901334  0.90119793  1
  O2-  O189  1  0.82204412  0.57564332  0.24321563  1
  O2-  O190  1  0.82581773  0.57825124  0.57926243  1
  O2-  O191  1  0.82667799  0.56936533  0.91119550  1
  O2-  O192  1  0.04245450  0.08220150  0.26191674  1
  O2-  O193  1  0.03686907  0.08550451  0.59865258  1
  O2-  O194  1  0.04187044  0.08917945  0.93737526  1
  O2-  O195  1  0.04975606  0.58464714  0.26986720  1
  O2-  O196  1  0.04088052  0.58684653  0.60322458  1
  O2-  O197  1  0.04486245  0.58303233  0.93527336  1
  O2-  O198  1  0.54875758  0.07862288  0.26613980  1
  O2-  O199  1  0.55411961  0.07716471  0.60543549  1
  O2-  O200  1  0.54649246  0.08005098  0.93538526  1
  O2-  O201  1  0.53965159  0.57973367  0.26688517  1
  O2-  O202  1  0.54803870  0.57800142  0.60105913  1
  O2-  O203  1  0.53266116  0.58239148  0.93031177  1
  O2-  O204  1  0.16890985  0.20881989  0.26037337  1
  O2-  O205  1  0.16637576  0.21045691  0.60136511  1
  O2-  O206  1  0.16283978  0.20995938  0.93753245  1
  O2-  O207  1  0.16489173  0.70497919  0.27016741  1
  O2-  O208  1  0.16163603  0.70415006  0.60366841  1
  O2-  O209  1  0.16516503  0.70225051  0.93345559  1
  O2-  O210  1  0.67135948  0.20635566  0.26814594  1
  O2-  O211  1  0.67424932  0.20674205  0.60206240  1
  O2-  O212  1  0.66870187  0.21243994  0.93470918  1
  O2-  O213  1  0.66644641  0.70814142  0.26429028  1
  O2-  O214  1  0.66835409  0.71211794  0.59882017  1
  O2-  O215  1  0.66550613  0.70508672  0.92973652  1
  O2-  O216  1  0.08417843  0.45756144  0.06367359  1
  O2-  O217  1  0.08237232  0.45523344  0.39497016  1
  O2-  O218  1  0.08364382  0.46268394  0.73667910  1
  O2-  O219  1  0.08600745  0.95760298  0.06288831  1
  O2-  O220  1  0.08280139  0.95714516  0.39657837  1
  O2-  O221  1  0.08230949  0.96018591  0.73445111  1
  O2-  O222  1  0.57914953  0.46018543  0.06630848  1
  O2-  O223  1  0.58481400  0.45938389  0.40272027  1
  O2-  O224  1  0.58172841  0.45849383  0.73688152  1
  O2-  O225  1  0.58452604  0.94541875  0.06134802  1
  O2-  O226  1  0.58981461  0.95305164  0.39651147  1
  O2-  O227  1  0.58946404  0.94891470  0.73065232  1
  O2-  O228  1  0.20141309  0.33707134  0.06446608  1
  O2-  O229  1  0.19952033  0.33366036  0.39152626  1
  O2-  O230  1  0.20895282  0.33399976  0.73624439  1
  O2-  O231  1  0.19622154  0.83108219  0.06048979  1
  O2-  O232  1  0.19521391  0.83396674  0.39562549  1
  O2-  O233  1  0.19174360  0.83227038  0.73046228  1
  O2-  O234  1  0.71255742  0.33640616  0.06947111  1
  O2-  O235  1  0.71481422  0.33218603  0.40275578  1
  O2-  O236  1  0.71400320  0.33453430  0.73840706  1
  O2-  O237  1  0.71007086  0.83198485  0.06087515  1
  O2-  O238  1  0.71416592  0.83664967  0.39680477  1
  O2-  O239  1  0.71579143  0.83852257  0.73189486  1
  O2-  O240  1  0.45939711  0.41868088  0.26551841  1
  O2-  O241  1  0.45276721  0.41958522  0.60431445  1
  O2-  O242  1  0.44915315  0.41419036  0.93627461  1
  O2-  O243  1  0.46258919  0.91678807  0.26350996  1
  O2-  O244  1  0.46442974  0.91608859  0.59874787  1
  O2-  O245  1  0.45171236  0.91611641  0.93954005  1
  O2-  O246  1  0.95368953  0.42123859  0.26401532  1
  O2-  O247  1  0.95108483  0.41986499  0.60974086  1
  O2-  O248  1  0.95533336  0.41459875  0.93688460  1
  O2-  O249  1  0.96038607  0.91502669  0.26424653  1
  O2-  O250  1  0.95854703  0.91196269  0.60343975  1
  O2-  O251  1  0.96355136  0.91738540  0.92960684  1
  O2-  O252  1  0.33005246  0.29872014  0.26527361  1
  O2-  O253  1  0.33009309  0.29243047  0.60055254  1
  O2-  O254  1  0.32956600  0.29572963  0.93994338  1
  O2-  O255  1  0.32553725  0.80100389  0.26789061  1
  O2-  O256  1  0.32344510  0.80608754  0.60434970  1
  O2-  O257  1  0.33191642  0.79586737  0.93789788  1
  O2-  O258  1  0.83287329  0.28962952  0.26423037  1
  O2-  O259  1  0.83680127  0.29586182  0.60752031  1
  O2-  O260  1  0.83755339  0.29196544  0.93766015  1
  O2-  O261  1  0.83468023  0.78965945  0.26252066  1
  O2-  O262  1  0.83940742  0.79379801  0.60380371  1
  O2-  O263  1  0.83543599  0.79158771  0.92649211  1
  O2-  O264  1  0.42016835  0.04142940  0.06856242  1
  O2-  O265  1  0.42033711  0.03882807  0.40007102  1
  O2-  O266  1  0.41926001  0.03707086  0.73343018  1
  O2-  O267  1  0.40850817  0.54145748  0.06075988  1
  O2-  O268  1  0.41551697  0.54009824  0.40262183  1
  O2-  O269  1  0.41550393  0.55216386  0.72842044  1
  O2-  O270  1  0.91744081  0.03743004  0.06834917  1
  O2-  O271  1  0.91461793  0.03857462  0.39593929  1
  O2-  O272  1  0.91269358  0.03739476  0.72922622  1
  O2-  O273  1  0.91595866  0.54767290  0.06400599  1
  O2-  O274  1  0.91799643  0.55191493  0.39358020  1
  O2-  O275  1  0.91520012  0.55128590  0.73318886  1
  O2-  O276  1  0.28746838  0.16495093  0.06924687  1
  O2-  O277  1  0.28915866  0.16808285  0.39877459  1
  O2-  O278  1  0.28792582  0.16342508  0.73527960  1
  O2-  O279  1  0.28966752  0.66207055  0.06182922  1
  O2-  O280  1  0.28880623  0.66791445  0.40099592  1
  O2-  O281  1  0.29085009  0.66761119  0.73039661  1
  O2-  O282  1  0.79292925  0.16684581  0.06940411  1
  O2-  O283  1  0.79798003  0.16160278  0.39753796  1
  O2-  O284  1  0.80058436  0.16293943  0.72841578  1
  O2-  O285  1  0.79944668  0.66932507  0.05724698  1
  O2-  O286  1  0.79648636  0.66773585  0.39487782  1
  O2-  O287  1  0.79684307  0.66954820  0.73077624  1
