# generated using pymatgen
data_Ca2Al2SiO7
_symmetry_space_group_name_H-M   'P 1'
_cell_length_a   15.46217319
_cell_length_b   15.46360777
_cell_length_c   15.28708795
_cell_angle_alpha   90.00799310
_cell_angle_beta   89.99590203
_cell_angle_gamma   89.99012515
_symmetry_Int_Tables_number   1
_chemical_formula_structural   Ca2Al2SiO7
_chemical_formula_sum   'Ca48 Al48 Si24 O168'
_cell_volume   3655.15763355
_cell_formula_units_Z   24
loop_
 _symmetry_equiv_pos_site_id
 _symmetry_equiv_pos_as_xyz
  1  'x, y, z'
loop_
 _atom_type_symbol
 _atom_type_oxidation_number
  Ca2+  2.0
  Al0+  0.0
  Si0+  0.0
  O2-  -2.0
loop_
 _atom_site_type_symbol
 _atom_site_label
 _atom_site_symmetry_multiplicity
 _atom_site_fract_x
 _atom_site_fract_y
 _atom_site_fract_z
 _atom_site_occupancy
  Ca2+  Ca0  1  0.16593955  0.07066268  0.16955642  1
  Ca2+  Ca1  1  0.16875207  0.07542553  0.51337850  1
  Ca2+  Ca2  1  0.16648579  0.07516230  0.83314130  1
  Ca2+  Ca3  1  0.16902271  0.57391549  0.16727257  1
  Ca2+  Ca4  1  0.15982187  0.57997242  0.49789643  1
  Ca2+  Ca5  1  0.17298159  0.57637512  0.84430668  1
  Ca2+  Ca6  1  0.67178449  0.09431628  0.16282704  1
  Ca2+  Ca7  1  0.67423537  0.08493944  0.51184853  1
  Ca2+  Ca8  1  0.67568230  0.09439530  0.83678537  1
  Ca2+  Ca9  1  0.67249663  0.58905229  0.16423721  1
  Ca2+  Ca10  1  0.66586769  0.57474658  0.51221611  1
  Ca2+  Ca11  1  0.66789417  0.58345890  0.83827404  1
  Ca2+  Ca12  1  0.07685431  0.34315953  0.16169863  1
  Ca2+  Ca13  1  0.07547689  0.32930829  0.49452669  1
  Ca2+  Ca14  1  0.07337718  0.33169346  0.82693255  1
  Ca2+  Ca15  1  0.09212700  0.82944081  0.16441357  1
  Ca2+  Ca16  1  0.08378457  0.83513612  0.49880985  1
  Ca2+  Ca17  1  0.08190267  0.83719807  0.82665458  1
  Ca2+  Ca18  1  0.57422340  0.32835496  0.15508193  1
  Ca2+  Ca19  1  0.58746653  0.32843611  0.50416438  1
  Ca2+  Ca20  1  0.58153410  0.32719010  0.83082971  1
  Ca2+  Ca21  1  0.57274153  0.82758804  0.15205676  1
  Ca2+  Ca22  1  0.57717276  0.83279982  0.50245238  1
  Ca2+  Ca23  1  0.57392708  0.82216088  0.82699047  1
  Ca2+  Ca24  1  0.32680835  0.41592713  0.16654725  1
  Ca2+  Ca25  1  0.32531675  0.41655245  0.50467604  1
  Ca2+  Ca26  1  0.32878589  0.42045622  0.84527963  1
  Ca2+  Ca27  1  0.32438080  0.90923502  0.16675852  1
  Ca2+  Ca28  1  0.32266894  0.91830402  0.51057219  1
  Ca2+  Ca29  1  0.32721508  0.91174039  0.83594307  1
  Ca2+  Ca30  1  0.84009146  0.41932075  0.16572402  1
  Ca2+  Ca31  1  0.83170069  0.41257686  0.50745631  1
  Ca2+  Ca32  1  0.82918892  0.41380096  0.83889078  1
  Ca2+  Ca33  1  0.83102919  0.92601760  0.16614524  1
  Ca2+  Ca34  1  0.83575734  0.92340544  0.51239897  1
  Ca2+  Ca35  1  0.83882697  0.93021838  0.83708910  1
  Ca2+  Ca36  1  0.42307647  0.17227514  0.15475495  1
  Ca2+  Ca37  1  0.42191551  0.15575366  0.50379728  1
  Ca2+  Ca38  1  0.42508678  0.16510083  0.82753766  1
  Ca2+  Ca39  1  0.41991344  0.66929109  0.15299974  1
  Ca2+  Ca40  1  0.41865007  0.66970857  0.50390506  1
  Ca2+  Ca41  1  0.41714307  0.67327256  0.83052421  1
  Ca2+  Ca42  1  0.91723121  0.17851199  0.15798143  1
  Ca2+  Ca43  1  0.91843347  0.17375775  0.50424325  1
  Ca2+  Ca44  1  0.91865426  0.17196158  0.82572893  1
  Ca2+  Ca45  1  0.92453151  0.66289382  0.16141911  1
  Ca2+  Ca46  1  0.92193121  0.67562866  0.49713364  1
  Ca2+  Ca47  1  0.91471607  0.67299530  0.82905346  1
  Al0+  Al48  1  -0.00102258  0.00081942  0.01212164  1
  Al0+  Al49  1  -0.00099999  0.00175162  0.33724155  1
  Al0+  Al50  1  -0.00020653  0.00047470  0.66649421  1
  Al0+  Al51  1  -0.00146491  0.50110748  0.00100168  1
  Al0+  Al52  1  0.00041802  0.50255602  0.33115197  1
  Al0+  Al53  1  -0.00182576  0.50124233  0.66358643  1
  Al0+  Al54  1  0.49989814  -0.00150699  -0.00811951  1
  Al0+  Al55  1  0.50205110  -0.00072712  0.33050728  1
  Al0+  Al56  1  0.49984688  -0.00071102  0.66065203  1
  Al0+  Al57  1  0.50117157  0.49895275  -0.00189830  1
  Al0+  Al58  1  0.50106121  0.49996329  0.33352462  1
  Al0+  Al59  1  0.49994525  0.49835170  0.66722718  1
  Al0+  Al60  1  0.24737883  0.24661248  0.00177327  1
  Al0+  Al61  1  0.25098048  0.24977311  0.33768348  1
  Al0+  Al62  1  0.24948360  0.24857715  0.66762910  1
  Al0+  Al63  1  0.24945217  0.74740502  0.00387223  1
  Al0+  Al64  1  0.25044790  0.74990293  0.33449556  1
  Al0+  Al65  1  0.25017848  0.74811415  0.66510065  1
  Al0+  Al66  1  0.75145146  0.25203365  -0.00005308  1
  Al0+  Al67  1  0.75078026  0.25183886  0.32955713  1
  Al0+  Al68  1  0.74818407  0.25147753  0.66753625  1
  Al0+  Al69  1  0.75100079  0.75120534  0.00249576  1
  Al0+  Al70  1  0.75019084  0.75159189  0.33430970  1
  Al0+  Al71  1  0.75070194  0.74907365  0.65740143  1
  Al0+  Al72  1  0.42477971  0.32093094  0.98561282  1
  Al0+  Al73  1  0.17753061  0.42580007  0.01314210  1
  Al0+  Al74  1  0.57008214  0.17987241  0.65248390  1
  Al0+  Al75  1  0.57447208  0.67841987  0.98546297  1
  Al0+  Al76  1  0.92824023  0.32207935  0.65198848  1
  Al0+  Al77  1  0.93021493  0.82173050  0.65548053  1
  Al0+  Al78  1  0.32274463  0.56894192  0.01429505  1
  Al0+  Al79  1  0.42520491  0.81932845  0.98411683  1
  Al0+  Al80  1  0.67938784  0.42968569  0.68161594  1
  Al0+  Al81  1  0.07217357  0.17923191  0.65268111  1
  Al0+  Al82  1  0.93060991  0.31981303  0.31776248  1
  Al0+  Al83  1  0.07005759  0.68224819  0.31797970  1
  Al0+  Al84  1  0.82005778  0.57333432  0.01328947  1
  Al0+  Al85  1  0.18001810  0.92906755  0.34917512  1
  Al0+  Al86  1  0.57104216  0.67675049  0.65030936  1
  Al0+  Al87  1  0.42737928  0.82059805  0.64920850  1
  Al0+  Al88  1  0.17850894  0.42965204  0.34889154  1
  Al0+  Al89  1  0.17951093  0.92770665  0.68253116  1
  Al0+  Al90  1  0.81942539  0.07321808  0.01535539  1
  Al0+  Al91  1  0.93253868  0.32218390  0.98552944  1
  Al0+  Al92  1  0.57104689  0.17936842  0.98401591  1
  Al0+  Al93  1  0.81917100  0.07007566  0.68013963  1
  Al0+  Al94  1  0.32331071  0.07188918  0.68296285  1
  Al0+  Al95  1  0.17961477  0.92906381  0.01467237  1
  Si0+  Si96  1  0.17626788  0.42870995  0.68020568  1
  Si0+  Si97  1  0.67936833  0.42821420  0.01827779  1
  Si0+  Si98  1  0.82121507  0.57235685  0.34935105  1
  Si0+  Si99  1  0.07042683  0.17287903  0.98532516  1
  Si0+  Si100  1  0.57220911  0.67738765  0.31794511  1
  Si0+  Si101  1  0.67756060  0.92525169  0.68208229  1
  Si0+  Si102  1  0.92591956  0.82529047  0.31456916  1
  Si0+  Si103  1  0.07421461  0.17727599  0.31627362  1
  Si0+  Si104  1  0.43140254  0.82006287  0.31784278  1
  Si0+  Si105  1  0.67862310  0.92879099  0.34853973  1
  Si0+  Si106  1  0.32416050  0.57106560  0.35171291  1
  Si0+  Si107  1  0.42647571  0.32218713  0.64920740  1
  Si0+  Si108  1  0.06942117  0.68003198  0.98564694  1
  Si0+  Si109  1  0.07298729  0.67698931  0.65078451  1
  Si0+  Si110  1  0.57070575  0.17975965  0.31851442  1
  Si0+  Si111  1  0.82256569  0.57363761  0.68172902  1
  Si0+  Si112  1  0.67907134  0.43014966  0.34772767  1
  Si0+  Si113  1  0.32496610  0.07087633  0.01638123  1
  Si0+  Si114  1  0.67780404  0.92839605  0.01490609  1
  Si0+  Si115  1  0.32014639  0.56862407  0.68067153  1
  Si0+  Si116  1  0.81804536  0.07313280  0.34950373  1
  Si0+  Si117  1  0.32470047  0.07174952  0.34898569  1
  Si0+  Si118  1  0.42818557  0.32244398  0.31987720  1
  Si0+  Si119  1  0.92997927  0.82329898  0.98833968  1
  O2-  O120  1  0.25703034  0.00153921  0.06150013  1
  O2-  O121  1  0.25297934  0.00648941  0.39299249  1
  O2-  O122  1  0.25313404  -0.00207255  0.73240909  1
  O2-  O123  1  0.25413570  0.49323436  0.06365401  1
  O2-  O124  1  0.25499398  0.50275960  0.39622726  1
  O2-  O125  1  0.24808887  0.49859097  0.72200118  1
  O2-  O126  1  0.74112587  0.00132624  0.06182479  1
  O2-  O127  1  0.75104516  -0.00206109  0.39120807  1
  O2-  O128  1  0.74465932  -0.00525621  0.72699395  1
  O2-  O129  1  0.74528233  0.49984951  0.06268899  1
  O2-  O130  1  0.74893698  0.50218184  0.39037730  1
  O2-  O131  1  0.75434360  0.50515828  0.72587541  1
  O2-  O132  1  0.00793808  0.24763128  0.27077222  1
  O2-  O133  1  0.00288394  0.25342517  0.60133835  1
  O2-  O134  1  0.00806116  0.24755166  0.94177702  1
  O2-  O135  1  -0.00350669  0.75869739  0.27033866  1
  O2-  O136  1  0.00537688  0.74774713  0.60835454  1
  O2-  O137  1  0.00082087  0.75335390  0.94436640  1
  O2-  O138  1  0.49674057  0.24836633  0.27861629  1
  O2-  O139  1  0.49256250  0.25105707  0.60368571  1
  O2-  O140  1  0.49533817  0.24793884  0.93530840  1
  O2-  O141  1  0.50189447  0.74851395  0.27564283  1
  O2-  O142  1  0.50130144  0.75009695  0.59863942  1
  O2-  O143  1  0.49848896  0.74682216  0.93719835  1
  O2-  O144  1  0.06632261  0.16922009  0.09131028  1
  O2-  O145  1  0.07211726  0.17747763  0.42148191  1
  O2-  O146  1  0.07046205  0.18040871  0.76630580  1
  O2-  O147  1  0.06830637  0.68019692  0.09090102  1
  O2-  O148  1  0.06606754  0.68195077  0.43113563  1
  O2-  O149  1  0.07259027  0.67377938  0.75630762  1
  O2-  O150  1  0.57013992  0.18241449  0.09912669  1
  O2-  O151  1  0.57285379  0.17945804  0.42327926  1
  O2-  O152  1  0.57239472  0.18358764  0.76449139  1
  O2-  O153  1  0.57511939  0.68366988  0.10027625  1
  O2-  O154  1  0.57168434  0.67628910  0.42252755  1
  O2-  O155  1  0.57013979  0.67734906  0.76315562  1
  O2-  O156  1  0.18022323  0.43131663  0.23636460  1
  O2-  O157  1  0.17676706  0.43122110  0.57471429  1
  O2-  O158  1  0.17507077  0.43163189  0.89930492  1
  O2-  O159  1  0.18317760  0.92848840  0.23588865  1
  O2-  O160  1  0.18002320  0.92844980  0.56861651  1
  O2-  O161  1  0.17565955  0.92975774  0.90249627  1
  O2-  O162  1  0.67681909  0.43037054  0.24308251  1
  O2-  O163  1  0.68065375  0.43009372  0.56719777  1
  O2-  O164  1  0.68226095  0.42589420  0.91314486  1
  O2-  O165  1  0.67733587  0.92857241  0.24369426  1
  O2-  O166  1  0.68079050  0.92775521  0.57536880  1
  O2-  O167  1  0.68328848  0.92466236  0.91019144  1
  O2-  O168  1  0.42804184  0.31865736  0.10055215  1
  O2-  O169  1  0.43009277  0.32559553  0.42463535  1
  O2-  O170  1  0.42766693  0.32433382  0.75409921  1
  O2-  O171  1  0.42702006  0.81822646  0.09899081  1
  O2-  O172  1  0.43381378  0.82122315  0.42241028  1
  O2-  O173  1  0.42549465  0.81616561  0.76205159  1
  O2-  O174  1  0.93302728  0.32145352  0.09924433  1
  O2-  O175  1  0.92685928  0.31686625  0.43033309  1
  O2-  O176  1  0.93009737  0.32316031  0.76524136  1
  O2-  O177  1  0.93041532  0.82220057  0.09369089  1
  O2-  O178  1  0.92332152  0.82363074  0.42002139  1
  O2-  O179  1  0.92997954  0.82010465  0.76889367  1
  O2-  O180  1  0.32778847  0.07043724  0.24346746  1
  O2-  O181  1  0.32119503  0.06944429  0.56839077  1
  O2-  O182  1  0.32458323  0.07137613  0.91159043  1
  O2-  O183  1  0.32757402  0.56957727  0.24674159  1
  O2-  O184  1  0.31996698  0.56734441  0.57502813  1
  O2-  O185  1  0.31725559  0.57112275  0.90049613  1
  O2-  O186  1  0.81519508  0.07414511  0.24441997  1
  O2-  O187  1  0.81729473  0.06934109  0.56614704  1
  O2-  O188  1  0.82222424  0.07121859  0.90286240  1
  O2-  O189  1  0.81976883  0.57347469  0.24427131  1
  O2-  O190  1  0.82267340  0.57305471  0.57557339  1
  O2-  O191  1  0.82055854  0.57480355  0.90067514  1
  O2-  O192  1  0.04538398  0.08366125  0.27112745  1
  O2-  O193  1  0.04008270  0.08265756  0.59848817  1
  O2-  O194  1  0.03666459  0.08178115  0.93956629  1
  O2-  O195  1  0.03676234  0.58701705  0.26310241  1
  O2-  O196  1  0.04413445  0.58573352  0.60104419  1
  O2-  O197  1  0.03867060  0.59025411  0.93708579  1
  O2-  O198  1  0.54642954  0.08706365  0.27041337  1
  O2-  O199  1  0.54489465  0.08282937  0.59514292  1
  O2-  O200  1  0.55078014  0.07940063  0.93234585  1
  O2-  O201  1  0.54549618  0.58527953  0.27042444  1
  O2-  O202  1  0.53837455  0.57912029  0.59659722  1
  O2-  O203  1  0.55408848  0.57755642  0.93682678  1
  O2-  O204  1  0.17026599  0.19861325  0.27315915  1
  O2-  O205  1  0.17109781  0.20479203  0.59860971  1
  O2-  O206  1  0.16675653  0.18949333  0.94312702  1
  O2-  O207  1  0.16853505  0.71044462  0.26578969  1
  O2-  O208  1  0.16581437  0.69996218  0.60250889  1
  O2-  O209  1  0.16155841  0.70558252  0.93937614  1
  O2-  O210  1  0.66047629  0.21173643  0.26969763  1
  O2-  O211  1  0.66425180  0.21564234  0.59608243  1
  O2-  O212  1  0.66872944  0.21232791  0.93403687  1
  O2-  O213  1  0.66526696  0.70526535  0.27270176  1
  O2-  O214  1  0.66921098  0.70202770  0.59444471  1
  O2-  O215  1  0.67188889  0.71091750  0.93316483  1
  O2-  O216  1  0.08264263  0.46398604  0.06762101  1
  O2-  O217  1  0.08250476  0.46491971  0.40178830  1
  O2-  O218  1  0.08460431  0.45853754  0.72653960  1
  O2-  O219  1  0.08537642  0.96058605  0.07412220  1
  O2-  O220  1  0.08054807  0.95562815  0.40007249  1
  O2-  O221  1  0.08116959  0.95743356  0.73386682  1
  O2-  O222  1  0.58463409  0.45007759  0.06377110  1
  O2-  O223  1  0.58733086  0.45691357  0.39659380  1
  O2-  O224  1  0.58196827  0.45843652  0.73436796  1
  O2-  O225  1  0.58177571  0.94938497  0.05879240  1
  O2-  O226  1  0.58727919  0.95851962  0.39610350  1
  O2-  O227  1  0.58232282  0.94751850  0.72357491  1
  O2-  O228  1  0.19712335  0.32522458  0.06663420  1
  O2-  O229  1  0.20800223  0.33230025  0.40289138  1
  O2-  O230  1  0.20159286  0.33661324  0.72635229  1
  O2-  O231  1  0.20984799  0.83233293  0.06947510  1
  O2-  O232  1  0.21220836  0.83254326  0.40226272  1
  O2-  O233  1  0.20499415  0.82687600  0.73242270  1
  O2-  O234  1  0.70897181  0.33700123  0.06751235  1
  O2-  O235  1  0.70881791  0.33803695  0.39413779  1
  O2-  O236  1  0.71083813  0.33475664  0.73644551  1
  O2-  O237  1  0.70877863  0.83845736  0.06657332  1
  O2-  O238  1  0.70335860  0.83612378  0.39648643  1
  O2-  O239  1  0.70407223  0.83063942  0.72418070  1
  O2-  O240  1  0.45955294  0.41282644  0.27124128  1
  O2-  O241  1  0.45540848  0.41393742  0.60070889  1
  O2-  O242  1  0.45347705  0.41896972  0.93353213  1
  O2-  O243  1  0.46062661  0.91136183  0.26918659  1
  O2-  O244  1  0.45515352  0.91804085  0.59390055  1
  O2-  O245  1  0.45104998  0.91736020  0.93133503  1
  O2-  O246  1  0.95884120  0.41831317  0.26669398  1
  O2-  O247  1  0.95337944  0.42158561  0.59837556  1
  O2-  O248  1  0.96028720  0.41944946  0.93186133  1
  O2-  O249  1  0.94850117  0.92101892  0.27160377  1
  O2-  O250  1  0.95977986  0.91671203  0.59833167  1
  O2-  O251  1  0.95842044  0.91584853  0.94379093  1
  O2-  O252  1  0.33541839  0.29701460  0.27353469  1
  O2-  O253  1  0.33199598  0.29947841  0.60358902  1
  O2-  O254  1  0.32411571  0.29704965  0.93583310  1
  O2-  O255  1  0.33912023  0.79236847  0.27236881  1
  O2-  O256  1  0.33062064  0.78679039  0.59468314  1
  O2-  O257  1  0.32737396  0.78784746  0.93252372  1
  O2-  O258  1  0.83413683  0.28787729  0.26281554  1
  O2-  O259  1  0.83109901  0.29028842  0.59897223  1
  O2-  O260  1  0.83552265  0.29105298  0.93478430  1
  O2-  O261  1  0.83195495  0.79817371  0.26896783  1
  O2-  O262  1  0.83599113  0.79165001  0.59532526  1
  O2-  O263  1  0.83881413  0.79557595  0.94137875  1
  O2-  O264  1  0.41983001  0.04665239  0.06187092  1
  O2-  O265  1  0.41839350  0.04246560  0.39443474  1
  O2-  O266  1  0.42453636  0.04670942  0.73057168  1
  O2-  O267  1  0.42301788  0.54580929  0.06682901  1
  O2-  O268  1  0.41762552  0.54390739  0.39881473  1
  O2-  O269  1  0.41109956  0.54043252  0.72791923  1
  O2-  O270  1  0.91164790  0.03823376  0.07560695  1
  O2-  O271  1  0.91134291  0.04962921  0.39536739  1
  O2-  O272  1  0.91500500  0.03870953  0.73374865  1
  O2-  O273  1  0.91525000  0.54041669  0.06932998  1
  O2-  O274  1  0.91233921  0.54422161  0.39637861  1
  O2-  O275  1  0.91706647  0.55089096  0.72741050  1
  O2-  O276  1  0.29870311  0.16355988  0.06499295  1
  O2-  O277  1  0.30548401  0.16666547  0.39493149  1
  O2-  O278  1  0.29583746  0.17090168  0.73517509  1
  O2-  O279  1  0.28952961  0.66447524  0.07062995  1
  O2-  O280  1  0.29737542  0.66446946  0.39720588  1
  O2-  O281  1  0.29260918  0.66030193  0.72720105  1
  O2-  O282  1  0.78803448  0.16927873  0.07123934  1
  O2-  O283  1  0.78473069  0.16362739  0.39609600  1
  O2-  O284  1  0.78709901  0.16612577  0.73278646  1
  O2-  O285  1  0.79148044  0.66938280  0.07169809  1
  O2-  O286  1  0.79501746  0.66552334  0.39596845  1
  O2-  O287  1  0.79683901  0.66806902  0.72571279  1
