# generated using pymatgen
data_Ca2Al2SiO7
_symmetry_space_group_name_H-M   'P 1'
_cell_length_a   15.45815209
_cell_length_b   15.45916859
_cell_length_c   15.28520525
_cell_angle_alpha   90.00029117
_cell_angle_beta   89.99305267
_cell_angle_gamma   90.00965555
_symmetry_Int_Tables_number   1
_chemical_formula_structural   Ca2Al2SiO7
_chemical_formula_sum   'Ca48 Al48 Si24 O168'
_cell_volume   3652.70815916
_cell_formula_units_Z   24
loop_
 _symmetry_equiv_pos_site_id
 _symmetry_equiv_pos_as_xyz
  1  'x, y, z'
loop_
 _atom_type_symbol
 _atom_type_oxidation_number
  Ca2+  2.0
  Al0+  0.0
  Si0+  0.0
  O2-  -2.0
loop_
 _atom_site_type_symbol
 _atom_site_label
 _atom_site_symmetry_multiplicity
 _atom_site_fract_x
 _atom_site_fract_y
 _atom_site_fract_z
 _atom_site_occupancy
  Ca2+  Ca0  1  0.17406942  0.07380838  0.17907080  1
  Ca2+  Ca1  1  0.17552094  0.07954098  0.50220709  1
  Ca2+  Ca2  1  0.16906234  0.08810472  0.83195882  1
  Ca2+  Ca3  1  0.16956047  0.58203001  0.17588655  1
  Ca2+  Ca4  1  0.17832094  0.58485048  0.50186213  1
  Ca2+  Ca5  1  0.16806779  0.59537488  0.83439261  1
  Ca2+  Ca6  1  0.66723155  0.07766813  0.17563016  1
  Ca2+  Ca7  1  0.66340423  0.07095385  0.50294799  1
  Ca2+  Ca8  1  0.67140424  0.07701942  0.83150116  1
  Ca2+  Ca9  1  0.67629571  0.58117954  0.17662698  1
  Ca2+  Ca10  1  0.66887541  0.58669498  0.49688972  1
  Ca2+  Ca11  1  0.67627222  0.57483559  0.84557019  1
  Ca2+  Ca12  1  0.07925907  0.33726341  0.16355319  1
  Ca2+  Ca13  1  0.09021906  0.32701620  0.49573154  1
  Ca2+  Ca14  1  0.07396694  0.33002805  0.82777100  1
  Ca2+  Ca15  1  0.07317095  0.83111194  0.16219145  1
  Ca2+  Ca16  1  0.07836337  0.83254153  0.49279207  1
  Ca2+  Ca17  1  0.07742391  0.82275561  0.83137703  1
  Ca2+  Ca18  1  0.58754079  0.33488170  0.16977004  1
  Ca2+  Ca19  1  0.57753347  0.32535417  0.48500211  1
  Ca2+  Ca20  1  0.58550740  0.33434577  0.83069857  1
  Ca2+  Ca21  1  0.57459828  0.83178502  0.17070811  1
  Ca2+  Ca22  1  0.58043839  0.83282601  0.48631434  1
  Ca2+  Ca23  1  0.58020272  0.83568521  0.83202745  1
  Ca2+  Ca24  1  0.32628953  0.42179903  0.18104095  1
  Ca2+  Ca25  1  0.33709581  0.42552281  0.49691320  1
  Ca2+  Ca26  1  0.33040075  0.42585111  0.83451110  1
  Ca2+  Ca27  1  0.33013168  0.91444637  0.17784353  1
  Ca2+  Ca28  1  0.33747067  0.92574611  0.50021604  1
  Ca2+  Ca29  1  0.33468035  0.92176227  0.83704804  1
  Ca2+  Ca30  1  0.82924405  0.42696284  0.17120706  1
  Ca2+  Ca31  1  0.82753845  0.42053264  0.49592511  1
  Ca2+  Ca32  1  0.83048328  0.41946716  0.84612954  1
  Ca2+  Ca33  1  0.83213030  0.91126211  0.17699328  1
  Ca2+  Ca34  1  0.82084672  0.91380054  0.50258307  1
  Ca2+  Ca35  1  0.83425030  0.91805827  0.83415905  1
  Ca2+  Ca36  1  0.42018194  0.16778435  0.17277543  1
  Ca2+  Ca37  1  0.41755112  0.16771946  0.48682838  1
  Ca2+  Ca38  1  0.41626440  0.16927251  0.82682161  1
  Ca2+  Ca39  1  0.41630160  0.67321365  0.16709970  1
  Ca2+  Ca40  1  0.42180068  0.66806680  0.48799971  1
  Ca2+  Ca41  1  0.41423147  0.67387104  0.82843058  1
  Ca2+  Ca42  1  0.91729172  0.17545992  0.16097689  1
  Ca2+  Ca43  1  0.92067521  0.15973907  0.49862704  1
  Ca2+  Ca44  1  0.91681234  0.17192559  0.82508495  1
  Ca2+  Ca45  1  0.91530323  0.67242902  0.16154068  1
  Ca2+  Ca46  1  0.92024839  0.67026814  0.49143325  1
  Ca2+  Ca47  1  0.92618489  0.66189289  0.83196304  1
  Al0+  Al48  1  0.00234702  -0.00093070  -0.00381776  1
  Al0+  Al49  1  0.00136778  -0.00038458  0.33142638  1
  Al0+  Al50  1  -0.00105026  0.00087412  0.66646585  1
  Al0+  Al51  1  0.00059911  0.49862033  -0.00554130  1
  Al0+  Al52  1  0.00018700  0.49833343  0.34279145  1
  Al0+  Al53  1  -0.00062201  0.49946054  0.65975670  1
  Al0+  Al54  1  0.50143306  0.00215064  -0.00466371  1
  Al0+  Al55  1  0.50132852  0.00047978  0.33145661  1
  Al0+  Al56  1  0.49911784  0.00091138  0.67631125  1
  Al0+  Al57  1  0.49859293  0.49848057  0.00249426  1
  Al0+  Al58  1  0.50093982  0.49835770  0.33100227  1
  Al0+  Al59  1  0.49804640  0.50145584  0.67233973  1
  Al0+  Al60  1  0.25395483  0.25087481  0.00011508  1
  Al0+  Al61  1  0.25069416  0.24892463  0.33410293  1
  Al0+  Al62  1  0.24775138  0.25183925  0.66810574  1
  Al0+  Al63  1  0.25086428  0.75319833  -0.00754256  1
  Al0+  Al64  1  0.24812450  0.74934298  0.33828258  1
  Al0+  Al65  1  0.24998541  0.75096932  0.66601540  1
  Al0+  Al66  1  0.74967204  0.24754779  -0.00146613  1
  Al0+  Al67  1  0.75245560  0.25112837  0.33252897  1
  Al0+  Al68  1  0.74804966  0.24892127  0.66786599  1
  Al0+  Al69  1  0.74816487  0.75121156  -0.00110835  1
  Al0+  Al70  1  0.75103329  0.75098652  0.33412578  1
  Al0+  Al71  1  0.74841125  0.74743867  0.67385559  1
  Al0+  Al72  1  0.67886871  0.42765485  0.34903848  1
  Al0+  Al73  1  0.82056762  0.57288756  0.34992825  1
  Al0+  Al74  1  0.68055588  0.93064826  0.34344422  1
  Al0+  Al75  1  0.31913917  0.07248427  0.68193900  1
  Al0+  Al76  1  0.17784957  0.42762422  0.34871366  1
  Al0+  Al77  1  0.57263872  0.67755864  0.31890610  1
  Al0+  Al78  1  0.43066667  0.82152131  0.98467223  1
  Al0+  Al79  1  0.42809402  0.32099887  0.31796773  1
  Al0+  Al80  1  0.82281505  0.57161635  0.01476851  1
  Al0+  Al81  1  0.67780003  0.42611790  0.01654002  1
  Al0+  Al82  1  0.57370002  0.17815671  0.31857805  1
  Al0+  Al83  1  0.67782425  0.92627709  0.68423103  1
  Al0+  Al84  1  0.32136912  0.06837866  0.34635915  1
  Al0+  Al85  1  0.07040096  0.67899125  0.98652671  1
  Al0+  Al86  1  0.93023172  0.82067180  0.32193965  1
  Al0+  Al87  1  0.82119273  0.07069039  0.68140345  1
  Al0+  Al88  1  0.92526882  0.82303945  0.98328659  1
  Al0+  Al89  1  0.32228712  0.57228250  0.34604857  1
  Al0+  Al90  1  0.17606278  0.92694646  0.34798699  1
  Al0+  Al91  1  0.42692248  0.82095950  0.32126420  1
  Al0+  Al92  1  0.07042108  0.17932570  0.65153090  1
  Al0+  Al93  1  0.92967653  0.31861313  0.98741447  1
  Al0+  Al94  1  0.07147060  0.67930536  0.64851131  1
  Al0+  Al95  1  0.31995389  0.57157844  0.68231559  1
  Si0+  Si96  1  0.07159838  0.17889444  0.31754956  1
  Si0+  Si97  1  0.07505424  0.17811760  0.98449146  1
  Si0+  Si98  1  0.67853162  0.42949291  0.68103301  1
  Si0+  Si99  1  0.43123534  0.82281017  0.65240486  1
  Si0+  Si100  1  0.18116392  0.92987171  0.01336768  1
  Si0+  Si101  1  0.82413130  0.07412227  0.34702204  1
  Si0+  Si102  1  0.82222700  0.56938028  0.68279052  1
  Si0+  Si103  1  0.93009226  0.32195557  0.31857235  1
  Si0+  Si104  1  0.67799715  0.93063655  0.01615699  1
  Si0+  Si105  1  0.82300834  0.06919239  0.01439897  1
  Si0+  Si106  1  0.57034360  0.67596893  0.98296554  1
  Si0+  Si107  1  0.92587643  0.82053017  0.64981744  1
  Si0+  Si108  1  0.17721530  0.92817821  0.68530746  1
  Si0+  Si109  1  0.31907936  0.57362146  0.01382792  1
  Si0+  Si110  1  0.32269670  0.07239628  0.01564184  1
  Si0+  Si111  1  0.07119457  0.67593785  0.31949544  1
  Si0+  Si112  1  0.42753140  0.32197020  0.98243506  1
  Si0+  Si113  1  0.57002777  0.67787199  0.65453863  1
  Si0+  Si114  1  0.42946172  0.32270347  0.65344066  1
  Si0+  Si115  1  0.57033178  0.17957782  0.98168861  1
  Si0+  Si116  1  0.18072018  0.42766161  0.01227925  1
  Si0+  Si117  1  0.56917513  0.17939382  0.65282051  1
  Si0+  Si118  1  0.92473109  0.32120899  0.64687203  1
  Si0+  Si119  1  0.17670820  0.42901606  0.68499548  1
  O2-  O120  1  0.25052991  0.00244465  0.05576470  1
  O2-  O121  1  0.25161207  -0.00474018  0.39771923  1
  O2-  O122  1  0.24453933  -0.00148324  0.73061099  1
  O2-  O123  1  0.24753193  0.50253466  0.05417533  1
  O2-  O124  1  0.25077234  0.49959966  0.39667349  1
  O2-  O125  1  0.24142180  0.50101147  0.73063125  1
  O2-  O126  1  0.75685643  -0.00596269  0.05684630  1
  O2-  O127  1  0.75365182  0.00703798  0.38984236  1
  O2-  O128  1  0.75270379  -0.00364176  0.73347652  1
  O2-  O129  1  0.74801343  0.50134897  0.06337204  1
  O2-  O130  1  0.74624754  0.50293067  0.40057287  1
  O2-  O131  1  0.75243178  0.49664459  0.72436112  1
  O2-  O132  1  0.00144525  0.25097438  0.27610361  1
  O2-  O133  1  -0.00602352  0.25224329  0.60384731  1
  O2-  O134  1  0.00426468  0.24408680  0.93978327  1
  O2-  O135  1  0.00408710  0.74543813  0.27466357  1
  O2-  O136  1  -0.00465441  0.75359505  0.60433062  1
  O2-  O137  1  -0.00599451  0.74663454  0.93543387  1
  O2-  O138  1  0.50341298  0.25189533  0.26760248  1
  O2-  O139  1  0.49722235  0.24906369  0.61131746  1
  O2-  O140  1  0.50184029  0.25406279  0.94028451  1
  O2-  O141  1  0.49614996  0.74630629  0.27047991  1
  O2-  O142  1  0.50345949  0.75268241  0.61197762  1
  O2-  O143  1  0.50301426  0.74507404  0.93646450  1
  O2-  O144  1  0.07558196  0.17887602  0.09001784  1
  O2-  O145  1  0.07029682  0.17804118  0.42257166  1
  O2-  O146  1  0.07069874  0.18457327  0.76519432  1
  O2-  O147  1  0.07466952  0.68137915  0.09964488  1
  O2-  O148  1  0.06873994  0.67741549  0.42516096  1
  O2-  O149  1  0.06926406  0.68030300  0.76184438  1
  O2-  O150  1  0.56948355  0.17545051  0.08595382  1
  O2-  O151  1  0.57197039  0.17743501  0.43267765  1
  O2-  O152  1  0.56932624  0.18248998  0.75854186  1
  O2-  O153  1  0.56838340  0.67628027  0.08779561  1
  O2-  O154  1  0.57272578  0.68181117  0.43350513  1
  O2-  O155  1  0.56711885  0.67576303  0.75979466  1
  O2-  O156  1  0.17569508  0.42964332  0.23409022  1
  O2-  O157  1  0.18057476  0.42671006  0.58017148  1
  O2-  O158  1  0.18487404  0.42276417  0.90732968  1
  O2-  O159  1  0.17376302  0.93112105  0.23366243  1
  O2-  O160  1  0.17901839  0.92884478  0.58020547  1
  O2-  O161  1  0.18232094  0.93122995  0.90815142  1
  O2-  O162  1  0.68591446  0.42568639  0.23596341  1
  O2-  O163  1  0.67701769  0.43008579  0.57676356  1
  O2-  O164  1  0.67936765  0.42691928  0.90154745  1
  O2-  O165  1  0.68180643  0.93155690  0.22997366  1
  O2-  O166  1  0.67524807  0.92690532  0.57101219  1
  O2-  O167  1  0.67512702  0.93537730  0.91106966  1
  O2-  O168  1  0.42073854  0.31972524  0.08616309  1
  O2-  O169  1  0.42806793  0.31779020  0.43230239  1
  O2-  O170  1  0.43281140  0.32282324  0.75933738  1
  O2-  O171  1  0.42911876  0.82200306  0.09695423  1
  O2-  O172  1  0.43100710  0.82313618  0.43515998  1
  O2-  O173  1  0.43216287  0.82186047  0.75810450  1
  O2-  O174  1  0.93237818  0.31724199  0.10045126  1
  O2-  O175  1  0.92872587  0.31969502  0.42359747  1
  O2-  O176  1  0.92496047  0.32122806  0.75294472  1
  O2-  O177  1  0.92976380  0.82706305  0.09650088  1
  O2-  O178  1  0.92972942  0.82129934  0.43510478  1
  O2-  O179  1  0.92695738  0.81815152  0.75551127  1
  O2-  O180  1  0.31824074  0.06870287  0.23213782  1
  O2-  O181  1  0.32199410  0.07143236  0.56987097  1
  O2-  O182  1  0.32105505  0.07392331  0.91016635  1
  O2-  O183  1  0.31735845  0.57305970  0.23174537  1
  O2-  O184  1  0.32505745  0.56839919  0.57049315  1
  O2-  O185  1  0.31902194  0.57211829  0.90827662  1
  O2-  O186  1  0.82515665  0.07370046  0.24083267  1
  O2-  O187  1  0.81792920  0.07135369  0.56817064  1
  O2-  O188  1  0.82047123  0.07119602  0.90946652  1
  O2-  O189  1  0.82386607  0.57118434  0.23654935  1
  O2-  O190  1  0.82012065  0.57141584  0.57826091  1
  O2-  O191  1  0.82203074  0.56663495  0.90018381  1
  O2-  O192  1  0.04247179  0.08858781  0.26769966  1
  O2-  O193  1  0.04248034  0.08153314  0.59837629  1
  O2-  O194  1  0.05295212  0.08424968  0.93787218  1
  O2-  O195  1  0.04540185  0.58116170  0.27599619  1
  O2-  O196  1  0.04292249  0.58152931  0.59621830  1
  O2-  O197  1  0.04853141  0.57964936  0.93078668  1
  O2-  O198  1  0.54269332  0.08216232  0.26230812  1
  O2-  O199  1  0.54134961  0.08591815  0.60995839  1
  O2-  O200  1  0.53818835  0.09082339  0.93027421  1
  O2-  O201  1  0.55101581  0.57795835  0.26677527  1
  O2-  O202  1  0.53826510  0.58724465  0.60721277  1
  O2-  O203  1  0.54424406  0.58173695  0.93683533  1
  O2-  O204  1  0.16273230  0.20589956  0.26911332  1
  O2-  O205  1  0.16689602  0.21285292  0.59824022  1
  O2-  O206  1  0.16826637  0.20700781  0.93824746  1
  O2-  O207  1  0.16552892  0.69861093  0.27473829  1
  O2-  O208  1  0.16934831  0.71026427  0.59754983  1
  O2-  O209  1  0.16576217  0.71416195  0.92933678  1
  O2-  O210  1  0.67324831  0.20480259  0.26569575  1
  O2-  O211  1  0.66074566  0.20674905  0.60575028  1
  O2-  O212  1  0.66257114  0.20481359  0.93343156  1
  O2-  O213  1  0.66885082  0.71133541  0.26551900  1
  O2-  O214  1  0.66462222  0.69996353  0.61039547  1
  O2-  O215  1  0.66400215  0.70133742  0.93636429  1
  O2-  O216  1  0.08692287  0.45029397  0.05669291  1
  O2-  O217  1  0.08108552  0.45162927  0.40605661  1
  O2-  O218  1  0.08005897  0.45087344  0.72679671  1
  O2-  O219  1  0.08842030  0.95588979  0.06008133  1
  O2-  O220  1  0.08024329  0.96169451  0.40267457  1
  O2-  O221  1  0.08300195  0.95277045  0.73039929  1
  O2-  O222  1  0.57636331  0.44865901  0.06538662  1
  O2-  O223  1  0.57819713  0.44823979  0.39903847  1
  O2-  O224  1  0.58847818  0.45968817  0.73140880  1
  O2-  O225  1  0.58875672  0.96804932  0.06232922  1
  O2-  O226  1  0.58517864  0.96121300  0.39898167  1
  O2-  O227  1  0.58271054  0.96074392  0.74114164  1
  O2-  O228  1  0.21211372  0.33765437  0.06197957  1
  O2-  O229  1  0.20687344  0.32934581  0.40059143  1
  O2-  O230  1  0.20525182  0.33749207  0.73421751  1
  O2-  O231  1  0.21199266  0.83897841  0.05980930  1
  O2-  O232  1  0.19664179  0.82801904  0.40105741  1
  O2-  O233  1  0.20611143  0.83571170  0.73194115  1
  O2-  O234  1  0.70700896  0.32666046  0.06591806  1
  O2-  O235  1  0.71286820  0.33057802  0.40324399  1
  O2-  O236  1  0.70286900  0.33645570  0.72836754  1
  O2-  O237  1  0.69527787  0.83534032  0.05934083  1
  O2-  O238  1  0.71257711  0.83660073  0.40035446  1
  O2-  O239  1  0.70287944  0.82744766  0.73913639  1
  O2-  O240  1  0.45167396  0.41957703  0.26405823  1
  O2-  O241  1  0.46082699  0.41379799  0.60741732  1
  O2-  O242  1  0.45230073  0.41501111  0.93475370  1
  O2-  O243  1  0.45857972  0.91730235  0.26598182  1
  O2-  O244  1  0.45879044  0.91621897  0.60878745  1
  O2-  O245  1  0.46388412  0.91778610  0.92974482  1
  O2-  O246  1  0.95970118  0.41381778  0.27256756  1
  O2-  O247  1  0.94944983  0.41451338  0.60073914  1
  O2-  O248  1  0.96048254  0.41298731  0.92914512  1
  O2-  O249  1  0.96018795  0.91715072  0.26544591  1
  O2-  O250  1  0.94843161  0.91578425  0.60681681  1
  O2-  O251  1  0.95953526  0.91995043  0.92849614  1
  O2-  O252  1  0.33057187  0.28886319  0.26341201  1
  O2-  O253  1  0.33568395  0.29924991  0.61019128  1
  O2-  O254  1  0.33819486  0.28974720  0.93094722  1
  O2-  O255  1  0.32663400  0.79522845  0.26970536  1
  O2-  O256  1  0.33865619  0.79660044  0.60767716  1
  O2-  O257  1  0.33534292  0.79260572  0.92686671  1
  O2-  O258  1  0.84007851  0.29363108  0.26849521  1
  O2-  O259  1  0.83062762  0.29459932  0.60239060  1
  O2-  O260  1  0.83372852  0.28614990  0.93195907  1
  O2-  O261  1  0.83478926  0.79054805  0.26663986  1
  O2-  O262  1  0.83103480  0.79212231  0.60745752  1
  O2-  O263  1  0.82422013  0.80218768  0.93224656  1
  O2-  O264  1  0.41542585  0.04404519  0.05936214  1
  O2-  O265  1  0.42014658  0.04323850  0.39906444  1
  O2-  O266  1  0.41411092  0.04188550  0.74009813  1
  O2-  O267  1  0.41076835  0.54545928  0.05968666  1
  O2-  O268  1  0.42090795  0.54458201  0.39827290  1
  O2-  O269  1  0.41415751  0.53661137  0.74064903  1
  O2-  O270  1  0.91806005  0.04860369  0.05898867  1
  O2-  O271  1  0.91675143  0.04664631  0.39299770  1
  O2-  O272  1  0.92101390  0.04750666  0.73494479  1
  O2-  O273  1  0.92195653  0.54093238  0.06455041  1
  O2-  O274  1  0.91613010  0.54005406  0.40582796  1
  O2-  O275  1  0.91508482  0.54095961  0.72767618  1
  O2-  O276  1  0.29633869  0.16468734  0.06254223  1
  O2-  O277  1  0.29055941  0.16545768  0.39933979  1
  O2-  O278  1  0.28815317  0.16961808  0.73678229  1
  O2-  O279  1  0.29187400  0.66658322  0.05807618  1
  O2-  O280  1  0.29441319  0.66864467  0.40304892  1
  O2-  O281  1  0.29116576  0.66969871  0.73543111  1
  O2-  O282  1  0.79064462  0.15921213  0.06238463  1
  O2-  O283  1  0.80321403  0.16787047  0.39348278  1
  O2-  O284  1  0.78868894  0.16857285  0.73599788  1
  O2-  O285  1  0.79616293  0.67226721  0.06382769  1
  O2-  O286  1  0.79241866  0.67038806  0.40433469  1
  O2-  O287  1  0.79414795  0.65953806  0.73302136  1
