# generated using pymatgen
data_Ca2Al2SiO7
_symmetry_space_group_name_H-M   'P 1'
_cell_length_a   15.46380763
_cell_length_b   15.46415570
_cell_length_c   15.28711145
_cell_angle_alpha   89.97434658
_cell_angle_beta   89.99218238
_cell_angle_gamma   89.97204364
_symmetry_Int_Tables_number   1
_chemical_formula_structural   Ca2Al2SiO7
_chemical_formula_sum   'Ca48 Al48 Si24 O168'
_cell_volume   3655.67841670
_cell_formula_units_Z   24
loop_
 _symmetry_equiv_pos_site_id
 _symmetry_equiv_pos_as_xyz
  1  'x, y, z'
loop_
 _atom_type_symbol
 _atom_type_oxidation_number
  Ca2+  2.0
  Al0+  0.0
  Si0+  0.0
  O2-  -2.0
loop_
 _atom_site_type_symbol
 _atom_site_label
 _atom_site_symmetry_multiplicity
 _atom_site_fract_x
 _atom_site_fract_y
 _atom_site_fract_z
 _atom_site_occupancy
  Ca2+  Ca0  1  0.16390222  0.08284179  0.16763747  1
  Ca2+  Ca1  1  0.16621129  0.08335687  0.50814253  1
  Ca2+  Ca2  1  0.17549249  0.08528408  0.84154946  1
  Ca2+  Ca3  1  0.17059436  0.58328928  0.17774944  1
  Ca2+  Ca4  1  0.17199812  0.59032393  0.50530883  1
  Ca2+  Ca5  1  0.17214274  0.58664634  0.83089370  1
  Ca2+  Ca6  1  0.66942322  0.08754533  0.17731603  1
  Ca2+  Ca7  1  0.67004444  0.08671613  0.49941318  1
  Ca2+  Ca8  1  0.66616892  0.08341200  0.83836583  1
  Ca2+  Ca9  1  0.66999779  0.58242935  0.17422419  1
  Ca2+  Ca10  1  0.67889749  0.57999910  0.51248160  1
  Ca2+  Ca11  1  0.66300157  0.58079658  0.83241901  1
  Ca2+  Ca12  1  0.07705645  0.32524309  0.16619242  1
  Ca2+  Ca13  1  0.07534467  0.32457764  0.49599123  1
  Ca2+  Ca14  1  0.08211763  0.32241310  0.82367994  1
  Ca2+  Ca15  1  0.08022995  0.83338511  0.16947669  1
  Ca2+  Ca16  1  0.07929391  0.82098255  0.49455602  1
  Ca2+  Ca17  1  0.08707500  0.83133609  0.82973726  1
  Ca2+  Ca18  1  0.58615666  0.32100762  0.16529592  1
  Ca2+  Ca19  1  0.58115280  0.33526066  0.50080500  1
  Ca2+  Ca20  1  0.57931896  0.32931673  0.82674446  1
  Ca2+  Ca21  1  0.57570537  0.82860136  0.16382041  1
  Ca2+  Ca22  1  0.57162553  0.82834922  0.49918317  1
  Ca2+  Ca23  1  0.57748125  0.82239827  0.82563771  1
  Ca2+  Ca24  1  0.33016568  0.42423219  0.17394477  1
  Ca2+  Ca25  1  0.33573749  0.42834133  0.50861712  1
  Ca2+  Ca26  1  0.34117041  0.42045457  0.83003593  1
  Ca2+  Ca27  1  0.32941697  0.91948646  0.16867856  1
  Ca2+  Ca28  1  0.33757713  0.92041314  0.50724944  1
  Ca2+  Ca29  1  0.33057944  0.92543218  0.83646285  1
  Ca2+  Ca30  1  0.83263116  0.41984672  0.17769784  1
  Ca2+  Ca31  1  0.83442607  0.41975987  0.50817089  1
  Ca2+  Ca32  1  0.83395641  0.41798303  0.82711483  1
  Ca2+  Ca33  1  0.83149760  0.92195344  0.17824389  1
  Ca2+  Ca34  1  0.84173343  0.92248497  0.49898377  1
  Ca2+  Ca35  1  0.83104120  0.91718890  0.83661228  1
  Ca2+  Ca36  1  0.42720545  0.16161655  0.16113831  1
  Ca2+  Ca37  1  0.41803868  0.17264663  0.49825733  1
  Ca2+  Ca38  1  0.41666053  0.16547087  0.82586008  1
  Ca2+  Ca39  1  0.41625648  0.67089763  0.16535003  1
  Ca2+  Ca40  1  0.41057960  0.67466952  0.49578489  1
  Ca2+  Ca41  1  0.42503625  0.67039095  0.82002835  1
  Ca2+  Ca42  1  0.92419095  0.16445604  0.16801230  1
  Ca2+  Ca43  1  0.92164835  0.17563761  0.49145598  1
  Ca2+  Ca44  1  0.93114275  0.17028327  0.82440301  1
  Ca2+  Ca45  1  0.91662800  0.66691552  0.16975970  1
  Ca2+  Ca46  1  0.92406933  0.66087977  0.49276136  1
  Ca2+  Ca47  1  0.92351642  0.66696104  0.82241658  1
  Al0+  Al48  1  -0.00052875  0.00052094  -0.00112192  1
  Al0+  Al49  1  -0.00052283  -0.00162349  0.33264751  1
  Al0+  Al50  1  0.00129286  -0.00171676  0.66632784  1
  Al0+  Al51  1  -0.00034584  0.50199000  0.00035285  1
  Al0+  Al52  1  0.00048201  0.49753315  0.32906592  1
  Al0+  Al53  1  0.00105666  0.49907572  0.66534894  1
  Al0+  Al54  1  0.50026879  -0.00122308  -0.00083091  1
  Al0+  Al55  1  0.49895285  -0.00132403  0.32616528  1
  Al0+  Al56  1  0.50093832  -0.00147292  0.66830703  1
  Al0+  Al57  1  0.50250249  0.49949268  0.00046279  1
  Al0+  Al58  1  0.49837516  0.50041731  0.33744844  1
  Al0+  Al59  1  0.50308869  0.49830007  0.66786363  1
  Al0+  Al60  1  0.25013887  0.25271958  0.00281263  1
  Al0+  Al61  1  0.25038114  0.25025661  0.32966682  1
  Al0+  Al62  1  0.25316040  0.24995925  0.66250520  1
  Al0+  Al63  1  0.24838194  0.75195022  0.00407281  1
  Al0+  Al64  1  0.24958692  0.75201658  0.32827651  1
  Al0+  Al65  1  0.24927051  0.75162749  0.66532355  1
  Al0+  Al66  1  0.74857938  0.25223695  -0.00422985  1
  Al0+  Al67  1  0.74919417  0.24892859  0.33154696  1
  Al0+  Al68  1  0.75135547  0.24991799  0.67003555  1
  Al0+  Al69  1  0.75042054  0.75037212  -0.00283539  1
  Al0+  Al70  1  0.74794337  0.74941299  0.33576534  1
  Al0+  Al71  1  0.75036706  0.75185284  0.66768379  1
  Al0+  Al72  1  0.32069840  0.57271683  0.68020415  1
  Al0+  Al73  1  0.07287242  0.17679982  0.31738468  1
  Al0+  Al74  1  0.57305239  0.67730932  0.65053498  1
  Al0+  Al75  1  0.31894763  0.57198856  0.34715579  1
  Al0+  Al76  1  0.42831381  0.82105174  0.31719165  1
  Al0+  Al77  1  0.32134735  0.07179232  0.67804056  1
  Al0+  Al78  1  0.07051155  0.67837338  0.31731853  1
  Al0+  Al79  1  0.92637188  0.81992172  0.31910370  1
  Al0+  Al80  1  0.56829231  0.18074550  0.32214240  1
  Al0+  Al81  1  0.82050194  0.06973225  0.34720236  1
  Al0+  Al82  1  0.82074031  0.57065144  0.34654673  1
  Al0+  Al83  1  0.43049213  0.32091039  0.65342128  1
  Al0+  Al84  1  0.32209473  0.07307438  0.01686204  1
  Al0+  Al85  1  0.92882977  0.31945244  0.65200339  1
  Al0+  Al86  1  0.07037978  0.67960196  0.65508286  1
  Al0+  Al87  1  0.82344136  0.57230395  0.68302948  1
  Al0+  Al88  1  0.17709205  0.92929722  0.01764863  1
  Al0+  Al89  1  0.92784200  0.32022865  0.31766539  1
  Al0+  Al90  1  0.07013641  0.17998625  0.98538439  1
  Al0+  Al91  1  0.42925181  0.82049852  0.65281217  1
  Al0+  Al92  1  0.57044841  0.17789486  0.98531816  1
  Al0+  Al93  1  0.57116319  0.67917206  0.98688156  1
  Al0+  Al94  1  0.07347075  0.17705247  0.65211531  1
  Al0+  Al95  1  0.67952592  0.42757170  0.68389422  1
  Si0+  Si96  1  0.68029290  0.92739918  0.01488134  1
  Si0+  Si97  1  0.81863229  0.07178742  0.01354214  1
  Si0+  Si98  1  0.42606618  0.82050328  0.98223129  1
  Si0+  Si99  1  0.67888048  0.93004585  0.68277619  1
  Si0+  Si100  1  0.92643667  0.82290247  0.65106088  1
  Si0+  Si101  1  0.07139527  0.67843244  0.98466742  1
  Si0+  Si102  1  0.32148360  0.57034880  0.01377705  1
  Si0+  Si103  1  0.42746559  0.32477563  0.31607309  1
  Si0+  Si104  1  0.17642945  0.43058736  0.01541634  1
  Si0+  Si105  1  0.17742097  0.92889977  0.68261594  1
  Si0+  Si106  1  0.57057604  0.67661673  0.31823998  1
  Si0+  Si107  1  0.17824936  0.42604078  0.35042827  1
  Si0+  Si108  1  0.67480559  0.92772787  0.35050211  1
  Si0+  Si109  1  0.57300859  0.17616386  0.65103348  1
  Si0+  Si110  1  0.82258388  0.07014340  0.68267660  1
  Si0+  Si111  1  0.17993012  0.42780628  0.68277434  1
  Si0+  Si112  1  0.32273013  0.07097127  0.34757560  1
  Si0+  Si113  1  0.67762067  0.42689482  0.34981676  1
  Si0+  Si114  1  0.17926735  0.93064729  0.34968106  1
  Si0+  Si115  1  0.92787277  0.32516058  0.98181963  1
  Si0+  Si116  1  0.82120596  0.57197182  0.01560747  1
  Si0+  Si117  1  0.42856088  0.32277485  0.98500805  1
  Si0+  Si118  1  0.67922258  0.42922170  0.01748873  1
  Si0+  Si119  1  0.92909558  0.82072597  0.98493733  1
  O2-  O120  1  0.24872918  0.00226578  0.06741409  1
  O2-  O121  1  0.24798992  0.00458848  0.39059979  1
  O2-  O122  1  0.24362140  0.00058792  0.72534255  1
  O2-  O123  1  0.24860861  0.50155337  0.05650207  1
  O2-  O124  1  0.24494363  0.49689478  0.39406709  1
  O2-  O125  1  0.24755099  0.49720845  0.72908274  1
  O2-  O126  1  0.74538385  0.00358229  0.05710423  1
  O2-  O127  1  0.74679592  -0.00650956  0.39450999  1
  O2-  O128  1  0.75106760  0.00001284  0.72584241  1
  O2-  O129  1  0.75116328  0.50004763  0.05829362  1
  O2-  O130  1  0.74615917  0.49595267  0.39245993  1
  O2-  O131  1  0.74955741  0.50239382  0.73430755  1
  O2-  O132  1  -0.00055585  0.24781982  0.26769222  1
  O2-  O133  1  -0.00064088  0.24632305  0.60270815  1
  O2-  O134  1  -0.00348892  0.25591776  0.93899780  1
  O2-  O135  1  -0.00461086  0.74680337  0.26619902  1
  O2-  O136  1  -0.00953275  0.74916193  0.60976113  1
  O2-  O137  1  0.00151047  0.75094853  0.94335436  1
  O2-  O138  1  0.49467388  0.25480968  0.27217809  1
  O2-  O139  1  0.50579950  0.24618313  0.60763717  1
  O2-  O140  1  0.49092478  0.24805376  0.94099856  1
  O2-  O141  1  0.50189373  0.74424667  0.27209923  1
  O2-  O142  1  0.49601275  0.74417912  0.60139107  1
  O2-  O143  1  0.49339475  0.74999100  0.93963579  1
  O2-  O144  1  0.06634149  0.18044623  0.09805279  1
  O2-  O145  1  0.07320181  0.17806137  0.43053852  1
  O2-  O146  1  0.07217003  0.17768382  0.76629474  1
  O2-  O147  1  0.06987901  0.67512709  0.08914372  1
  O2-  O148  1  0.07191167  0.68125865  0.43064378  1
  O2-  O149  1  0.07121609  0.68356475  0.76916700  1
  O2-  O150  1  0.57404993  0.18104647  0.09831418  1
  O2-  O151  1  0.56674214  0.18023078  0.43499991  1
  O2-  O152  1  0.57155130  0.17517960  0.75698825  1
  O2-  O153  1  0.57115631  0.68087834  0.10023409  1
  O2-  O154  1  0.56995618  0.67740910  0.42308328  1
  O2-  O155  1  0.57137623  0.68202800  0.76478542  1
  O2-  O156  1  0.18157636  0.42643211  0.24395080  1
  O2-  O157  1  0.18161876  0.42802720  0.57750624  1
  O2-  O158  1  0.17363805  0.43206098  0.91061724  1
  O2-  O159  1  0.18002791  0.93029359  0.24453746  1
  O2-  O160  1  0.17618725  0.92848879  0.57711272  1
  O2-  O161  1  0.17844442  0.92724757  0.90407751  1
  O2-  O162  1  0.67684943  0.42820265  0.24339713  1
  O2-  O163  1  0.68181619  0.42536277  0.57042850  1
  O2-  O164  1  0.67735949  0.42857285  0.91306957  1
  O2-  O165  1  0.67454473  0.92982951  0.24428479  1
  O2-  O166  1  0.67709023  0.93203771  0.57808991  1
  O2-  O167  1  0.68420364  0.92584423  0.90964388  1
  O2-  O168  1  0.43305130  0.32693847  0.09058747  1
  O2-  O169  1  0.42793128  0.32505182  0.42137909  1
  O2-  O170  1  0.43044325  0.31828021  0.76693870  1
  O2-  O171  1  0.42724053  0.81926150  0.08806857  1
  O2-  O172  1  0.42965682  0.82334438  0.42980404  1
  O2-  O173  1  0.43163539  0.82164502  0.76663500  1
  O2-  O174  1  0.92784071  0.32670085  0.08716791  1
  O2-  O175  1  0.92811023  0.31913514  0.43068062  1
  O2-  O176  1  0.93128832  0.31669113  0.76631539  1
  O2-  O177  1  0.92524604  0.81922837  0.08938875  1
  O2-  O178  1  0.93093664  0.82134639  0.43235209  1
  O2-  O179  1  0.92798353  0.82594613  0.75736222  1
  O2-  O180  1  0.32436344  0.06830081  0.24262553  1
  O2-  O181  1  0.32297436  0.06933529  0.56467023  1
  O2-  O182  1  0.32197520  0.07146426  0.90311754  1
  O2-  O183  1  0.31960582  0.56892091  0.23287451  1
  O2-  O184  1  0.31717697  0.57354471  0.56748586  1
  O2-  O185  1  0.32124314  0.56980738  0.90881337  1
  O2-  O186  1  0.81761802  0.06874812  0.23337813  1
  O2-  O187  1  0.82252752  0.06895205  0.57784973  1
  O2-  O188  1  0.81821630  0.06838883  0.90810901  1
  O2-  O189  1  0.81624552  0.57017605  0.23231279  1
  O2-  O190  1  0.82351924  0.57098266  0.56973486  1
  O2-  O191  1  0.82300590  0.57239590  0.91105625  1
  O2-  O192  1  0.04274086  0.07895714  0.26529388  1
  O2-  O193  1  0.04617636  0.07746470  0.60190906  1
  O2-  O194  1  0.03791990  0.08353326  0.93158317  1
  O2-  O195  1  0.04721884  0.57895343  0.26442272  1
  O2-  O196  1  0.04658013  0.58181548  0.60202694  1
  O2-  O197  1  0.04207277  0.58760850  0.93605949  1
  O2-  O198  1  0.53871967  0.08537225  0.26489366  1
  O2-  O199  1  0.54702132  0.08332352  0.60504050  1
  O2-  O200  1  0.54675367  0.07865975  0.93287127  1
  O2-  O201  1  0.54500740  0.58270690  0.27180491  1
  O2-  O202  1  0.55408414  0.57611295  0.60291934  1
  O2-  O203  1  0.54347058  0.58113301  0.93485213  1
  O2-  O204  1  0.17117169  0.20574860  0.26338778  1
  O2-  O205  1  0.17075494  0.20542781  0.59923614  1
  O2-  O206  1  0.16849484  0.21145561  0.93523663  1
  O2-  O207  1  0.16630043  0.71181214  0.26207551  1
  O2-  O208  1  0.16402782  0.71483610  0.59953241  1
  O2-  O209  1  0.16424527  0.70580231  0.93896252  1
  O2-  O210  1  0.66386123  0.21076664  0.26552326  1
  O2-  O211  1  0.66771130  0.20027885  0.60781343  1
  O2-  O212  1  0.66579631  0.21171561  0.93000568  1
  O2-  O213  1  0.66368082  0.70275472  0.27138292  1
  O2-  O214  1  0.67017085  0.71176148  0.59929170  1
  O2-  O215  1  0.66664339  0.71261911  0.93230649  1
  O2-  O216  1  0.08556863  0.46050475  0.06447854  1
  O2-  O217  1  0.08342766  0.44859610  0.39351850  1
  O2-  O218  1  0.08674537  0.45262764  0.73003138  1
  O2-  O219  1  0.07712764  0.95693757  0.06872858  1
  O2-  O220  1  0.08693645  0.95485387  0.39721467  1
  O2-  O221  1  0.08298423  0.95008144  0.73045979  1
  O2-  O222  1  0.58827420  0.45758912  0.06702570  1
  O2-  O223  1  0.58346238  0.45106561  0.39522862  1
  O2-  O224  1  0.58098127  0.45310653  0.73887844  1
  O2-  O225  1  0.58606576  0.94856327  0.05981042  1
  O2-  O226  1  0.58266065  0.95918091  0.39596167  1
  O2-  O227  1  0.58921266  0.95922515  0.73398399  1
  O2-  O228  1  0.20378793  0.33998476  0.06506222  1
  O2-  O229  1  0.20566338  0.33268366  0.39604966  1
  O2-  O230  1  0.20879581  0.33503727  0.72928049  1
  O2-  O231  1  0.20481814  0.83034860  0.07198927  1
  O2-  O232  1  0.21058456  0.83946185  0.39554249  1
  O2-  O233  1  0.20638931  0.83726199  0.73087723  1
  O2-  O234  1  0.70775960  0.33683123  0.06447357  1
  O2-  O235  1  0.70197518  0.33317498  0.39484593  1
  O2-  O236  1  0.70941557  0.32932916  0.73938568  1
  O2-  O237  1  0.71335540  0.83776651  0.06383195  1
  O2-  O238  1  0.69541195  0.83315384  0.39565650  1
  O2-  O239  1  0.70677579  0.83915575  0.73247650  1
  O2-  O240  1  0.45430609  0.41804683  0.26927440  1
  O2-  O241  1  0.46106590  0.41673115  0.59884496  1
  O2-  O242  1  0.46135058  0.41353686  0.93698909  1
  O2-  O243  1  0.46219374  0.91453597  0.25919507  1
  O2-  O244  1  0.46418174  0.91696706  0.59930272  1
  O2-  O245  1  0.45422384  0.91346810  0.93723690  1
  O2-  O246  1  0.95726938  0.41684651  0.26133865  1
  O2-  O247  1  0.95698742  0.41764354  0.60069345  1
  O2-  O248  1  0.95458273  0.41906789  0.93649516  1
  O2-  O249  1  0.95725168  0.91694467  0.26474567  1
  O2-  O250  1  0.95701462  0.91402499  0.60329313  1
  O2-  O251  1  0.95480728  0.91251634  0.93631454  1
  O2-  O252  1  0.33407695  0.30111394  0.26916589  1
  O2-  O253  1  0.33606487  0.29123240  0.59585352  1
  O2-  O254  1  0.33212784  0.30674875  0.94191241  1
  O2-  O255  1  0.33345322  0.79043194  0.26078009  1
  O2-  O256  1  0.33006254  0.79721410  0.60039684  1
  O2-  O257  1  0.33121747  0.79664801  0.93859382  1
  O2-  O258  1  0.82954470  0.29241086  0.26404720  1
  O2-  O259  1  0.82999383  0.29092506  0.60103488  1
  O2-  O260  1  0.83395161  0.30017053  0.93681647  1
  O2-  O261  1  0.82564299  0.79620326  0.26720359  1
  O2-  O262  1  0.83118910  0.80613885  0.60681429  1
  O2-  O263  1  0.83871568  0.79159546  0.93484191  1
  O2-  O264  1  0.42151075  0.04171745  0.06806999  1
  O2-  O265  1  0.41325444  0.03833444  0.39417713  1
  O2-  O266  1  0.41717327  0.03860577  0.73339143  1
  O2-  O267  1  0.41267867  0.54040521  0.06179173  1
  O2-  O268  1  0.41573351  0.54258611  0.40145190  1
  O2-  O269  1  0.41755081  0.54119065  0.73314736  1
  O2-  O270  1  0.90943444  0.04121255  0.06024927  1
  O2-  O271  1  0.91675475  0.03832363  0.40169522  1
  O2-  O272  1  0.91367707  0.03932580  0.73108719  1
  O2-  O273  1  0.91359497  0.54543049  0.06326784  1
  O2-  O274  1  0.91937965  0.54089553  0.39603785  1
  O2-  O275  1  0.92180268  0.54149000  0.73685944  1
  O2-  O276  1  0.29835215  0.17369432  0.06821718  1
  O2-  O277  1  0.30090311  0.16613379  0.39100963  1
  O2-  O278  1  0.29472317  0.16937684  0.73229541  1
  O2-  O279  1  0.29521178  0.66269251  0.06075851  1
  O2-  O280  1  0.28799730  0.66994328  0.39754973  1
  O2-  O281  1  0.28769401  0.66857816  0.73537001  1
  O2-  O282  1  0.79288727  0.16544320  0.05813635  1
  O2-  O283  1  0.78638705  0.16537543  0.40082754  1
  O2-  O284  1  0.79598688  0.16092258  0.73199195  1
  O2-  O285  1  0.79189227  0.66408091  0.06191595  1
  O2-  O286  1  0.79249684  0.66791017  0.40035304  1
  O2-  O287  1  0.79841755  0.67329760  0.73419404  1
