# generated using pymatgen
data_Ca2Al2SiO7
_symmetry_space_group_name_H-M   'P 1'
_cell_length_a   15.47250900
_cell_length_b   15.47437289
_cell_length_c   15.29754203
_cell_angle_alpha   90.01151172
_cell_angle_beta   89.99354174
_cell_angle_gamma   90.01917576
_symmetry_Int_Tables_number   1
_chemical_formula_structural   Ca2Al2SiO7
_chemical_formula_sum   'Ca48 Al48 Si24 O168'
_cell_volume   3662.65001181
_cell_formula_units_Z   24
loop_
 _symmetry_equiv_pos_site_id
 _symmetry_equiv_pos_as_xyz
  1  'x, y, z'
loop_
 _atom_type_symbol
 _atom_type_oxidation_number
  Ca2+  2.0
  Al0+  0.0
  Si0+  0.0
  O2-  -2.0
loop_
 _atom_site_type_symbol
 _atom_site_label
 _atom_site_symmetry_multiplicity
 _atom_site_fract_x
 _atom_site_fract_y
 _atom_site_fract_z
 _atom_site_occupancy
  Ca2+  Ca0  1  0.17235601  0.08685039  0.16839347  1
  Ca2+  Ca1  1  0.17331647  0.08791711  0.50519679  1
  Ca2+  Ca2  1  0.18575358  0.08314957  0.83770420  1
  Ca2+  Ca3  1  0.17437932  0.57453094  0.16530376  1
  Ca2+  Ca4  1  0.17491536  0.56919596  0.50304288  1
  Ca2+  Ca5  1  0.17455914  0.57353483  0.83696747  1
  Ca2+  Ca6  1  0.66798162  0.09002128  0.16322265  1
  Ca2+  Ca7  1  0.66295495  0.08567806  0.50709525  1
  Ca2+  Ca8  1  0.66700802  0.09361653  0.84294570  1
  Ca2+  Ca9  1  0.66687049  0.56881698  0.17268422  1
  Ca2+  Ca10  1  0.67611149  0.57000424  0.50267059  1
  Ca2+  Ca11  1  0.66352854  0.56960917  0.83406609  1
  Ca2+  Ca12  1  0.07759170  0.34605111  0.16750857  1
  Ca2+  Ca13  1  0.08249403  0.33631503  0.49010674  1
  Ca2+  Ca14  1  0.08406046  0.34269741  0.82968967  1
  Ca2+  Ca15  1  0.08166599  0.82186330  0.15630840  1
  Ca2+  Ca16  1  0.08157191  0.82851623  0.49439294  1
  Ca2+  Ca17  1  0.08543630  0.82422379  0.83187937  1
  Ca2+  Ca18  1  0.57473874  0.33865062  0.16026358  1
  Ca2+  Ca19  1  0.57343108  0.34502849  0.50100106  1
  Ca2+  Ca20  1  0.57547226  0.33058278  0.83075914  1
  Ca2+  Ca21  1  0.57768810  0.82426983  0.15862871  1
  Ca2+  Ca22  1  0.57743922  0.82841534  0.49995378  1
  Ca2+  Ca23  1  0.57216623  0.82952485  0.82928351  1
  Ca2+  Ca24  1  0.33107244  0.42078416  0.17605915  1
  Ca2+  Ca25  1  0.32770383  0.41544560  0.50757130  1
  Ca2+  Ca26  1  0.32824550  0.41686956  0.84264020  1
  Ca2+  Ca27  1  0.34296059  0.92544981  0.16386191  1
  Ca2+  Ca28  1  0.33476248  0.92430143  0.50877922  1
  Ca2+  Ca29  1  0.34872910  0.92696194  0.83646987  1
  Ca2+  Ca30  1  0.81984502  0.41455474  0.17462594  1
  Ca2+  Ca31  1  0.82543593  0.41572960  0.50429654  1
  Ca2+  Ca32  1  0.81893518  0.41540993  0.83454540  1
  Ca2+  Ca33  1  0.83526468  0.92491595  0.16697506  1
  Ca2+  Ca34  1  0.83009441  0.92038911  0.50412833  1
  Ca2+  Ca35  1  0.82753604  0.92585155  0.84037194  1
  Ca2+  Ca36  1  0.41920778  0.18296062  0.15903706  1
  Ca2+  Ca37  1  0.41754224  0.18056828  0.50237500  1
  Ca2+  Ca38  1  0.41986790  0.17604567  0.82824905  1
  Ca2+  Ca39  1  0.40439271  0.67127729  0.15853056  1
  Ca2+  Ca40  1  0.40313881  0.66914971  0.49915120  1
  Ca2+  Ca41  1  0.40051814  0.67558398  0.82987284  1
  Ca2+  Ca42  1  0.92310465  0.17049866  0.16449845  1
  Ca2+  Ca43  1  0.92741725  0.17781972  0.48912641  1
  Ca2+  Ca44  1  0.91883933  0.16611382  0.83178183  1
  Ca2+  Ca45  1  0.92318044  0.65623010  0.16060872  1
  Ca2+  Ca46  1  0.91260030  0.65861615  0.49396421  1
  Ca2+  Ca47  1  0.92380768  0.65565009  0.82903744  1
  Al0+  Al48  1  -0.00153498  0.00008988  0.00238424  1
  Al0+  Al49  1  -0.00048459  -0.00121336  0.32993730  1
  Al0+  Al50  1  -0.00096406  -0.00187260  0.66584462  1
  Al0+  Al51  1  0.00100817  0.49998696  -0.00452358  1
  Al0+  Al52  1  0.00225694  0.50122773  0.33233912  1
  Al0+  Al53  1  0.00108118  0.49974855  0.66998163  1
  Al0+  Al54  1  0.50261176  -0.00184476  0.00072160  1
  Al0+  Al55  1  0.49991061  -0.00079210  0.33363847  1
  Al0+  Al56  1  0.50050191  -0.00302707  0.66161242  1
  Al0+  Al57  1  0.49991047  0.50236248  0.00349237  1
  Al0+  Al58  1  0.50194413  0.50523237  0.33777148  1
  Al0+  Al59  1  0.50147415  0.50382529  0.66994774  1
  Al0+  Al60  1  0.24659223  0.24764389  0.00611221  1
  Al0+  Al61  1  0.25297724  0.24771554  0.33018397  1
  Al0+  Al62  1  0.25086612  0.24664503  0.67201814  1
  Al0+  Al63  1  0.24614014  0.74962857  -0.00769660  1
  Al0+  Al64  1  0.24716623  0.75365200  0.33396378  1
  Al0+  Al65  1  0.24501114  0.74890862  0.66110429  1
  Al0+  Al66  1  0.75244245  0.25098954  0.00691929  1
  Al0+  Al67  1  0.75063207  0.24775152  0.33578878  1
  Al0+  Al68  1  0.75248607  0.24923154  0.66655882  1
  Al0+  Al69  1  0.75029647  0.75184268  -0.00179070  1
  Al0+  Al70  1  0.74752937  0.75275711  0.33489443  1
  Al0+  Al71  1  0.75144944  0.75279467  0.66981379  1
  Al0+  Al72  1  0.32229207  0.06734696  0.67980188  1
  Al0+  Al73  1  0.18160706  0.42627911  0.68150676  1
  Al0+  Al74  1  0.42823564  0.32367787  0.65381739  1
  Al0+  Al75  1  0.57203906  0.18199846  0.98887848  1
  Al0+  Al76  1  0.17752416  0.42680676  0.01664446  1
  Al0+  Al77  1  0.42960896  0.81884331  0.98658921  1
  Al0+  Al78  1  0.57307506  0.17934578  0.65288749  1
  Al0+  Al79  1  0.32133896  0.57337493  0.68155352  1
  Al0+  Al80  1  0.32007361  0.57171210  0.01335179  1
  Al0+  Al81  1  0.42554216  0.32336008  0.98717032  1
  Al0+  Al82  1  0.82090268  0.57176776  0.34414159  1
  Al0+  Al83  1  0.67818805  0.42541069  0.34992264  1
  Al0+  Al84  1  0.43227170  0.32379189  0.32172618  1
  Al0+  Al85  1  0.67861921  0.42972635  0.01430413  1
  Al0+  Al86  1  0.07267544  0.17728084  0.31742838  1
  Al0+  Al87  1  0.82147940  0.07139412  0.01522036  1
  Al0+  Al88  1  0.82158385  0.57188215  0.68201403  1
  Al0+  Al89  1  0.32107263  0.57526279  0.34823217  1
  Al0+  Al90  1  0.42837547  0.81745973  0.65087429  1
  Al0+  Al91  1  0.92939117  0.32273419  0.31743691  1
  Al0+  Al92  1  0.32381800  0.06963435  0.01528371  1
  Al0+  Al93  1  0.67824964  0.42663101  0.68372273  1
  Al0+  Al94  1  0.06812593  0.67827292  0.98289634  1
  Al0+  Al95  1  0.18233065  0.42703149  0.34784608  1
  Si0+  Si96  1  0.82176225  0.06997225  0.68052424  1
  Si0+  Si97  1  0.67880179  0.92655041  0.01848542  1
  Si0+  Si98  1  0.32236811  0.06905854  0.34901671  1
  Si0+  Si99  1  0.67931963  0.92984852  0.68217950  1
  Si0+  Si100  1  0.82148392  0.57238399  0.01362427  1
  Si0+  Si101  1  0.92712786  0.82385636  0.98110976  1
  Si0+  Si102  1  0.17504937  0.92776944  0.68210449  1
  Si0+  Si103  1  0.07014542  0.17454991  0.98328170  1
  Si0+  Si104  1  0.57236907  0.68272087  0.31880600  1
  Si0+  Si105  1  0.82243125  0.06928476  0.35014940  1
  Si0+  Si106  1  0.57513239  0.67757555  0.98277801  1
  Si0+  Si107  1  0.93182121  0.32034205  0.65311192  1
  Si0+  Si108  1  0.06691664  0.67831643  0.64693486  1
  Si0+  Si109  1  0.57110771  0.17416794  0.31743935  1
  Si0+  Si110  1  0.42775524  0.82098993  0.31780659  1
  Si0+  Si111  1  0.93095477  0.31951149  0.98398835  1
  Si0+  Si112  1  0.92600747  0.82100790  0.31721504  1
  Si0+  Si113  1  0.07020532  0.68125147  0.31707415  1
  Si0+  Si114  1  0.07070910  0.17601361  0.65450793  1
  Si0+  Si115  1  0.17717295  0.93039298  0.34733201  1
  Si0+  Si116  1  0.92857590  0.82281528  0.64981740  1
  Si0+  Si117  1  0.57715224  0.67933124  0.64874299  1
  Si0+  Si118  1  0.17746528  0.92882069  0.01536638  1
  Si0+  Si119  1  0.67831453  0.93049783  0.34957794  1
  O2-  O120  1  0.24787430  -0.00552968  0.06133149  1
  O2-  O121  1  0.24570064  0.00283513  0.38991417  1
  O2-  O122  1  0.24798491  -0.00891402  0.72597827  1
  O2-  O123  1  0.25710385  0.49205046  0.06414024  1
  O2-  O124  1  0.25747015  0.49571352  0.39768590  1
  O2-  O125  1  0.25879567  0.49289781  0.73051884  1
  O2-  O126  1  0.74645639  -0.00323564  0.06201781  1
  O2-  O127  1  0.74692636  0.00333410  0.39274002  1
  O2-  O128  1  0.74523781  0.00583423  0.72360521  1
  O2-  O129  1  0.75070352  0.50832461  0.05909409  1
  O2-  O130  1  0.75672093  0.49391555  0.39540460  1
  O2-  O131  1  0.74838226  0.50212576  0.73213081  1
  O2-  O132  1  0.00369210  0.25230850  0.26699197  1
  O2-  O133  1  0.00514249  0.25127910  0.61186006  1
  O2-  O134  1  0.00438504  0.25060412  0.94132263  1
  O2-  O135  1  -0.00717924  0.74674923  0.27530075  1
  O2-  O136  1  -0.00601116  0.74845817  0.60514532  1
  O2-  O137  1  -0.00875221  0.75215724  0.93610024  1
  O2-  O138  1  0.51029834  0.25060887  0.27644118  1
  O2-  O139  1  0.50429318  0.25449106  0.60351307  1
  O2-  O140  1  0.49736265  0.24988181  0.93829977  1
  O2-  O141  1  0.49395371  0.74602517  0.27624574  1
  O2-  O142  1  0.50035659  0.73995347  0.60399927  1
  O2-  O143  1  0.50132078  0.74154726  0.93967986  1
  O2-  O144  1  0.06566460  0.16804079  0.08765400  1
  O2-  O145  1  0.06858238  0.17250015  0.43158649  1
  O2-  O146  1  0.06561175  0.17031119  0.75917956  1
  O2-  O147  1  0.06546648  0.68155120  0.09643186  1
  O2-  O148  1  0.07089302  0.68637481  0.42206940  1
  O2-  O149  1  0.06586062  0.68126736  0.75169847  1
  O2-  O150  1  0.57189265  0.18387850  0.10272479  1
  O2-  O151  1  0.56539330  0.16412505  0.42216081  1
  O2-  O152  1  0.57307418  0.17798247  0.76596576  1
  O2-  O153  1  0.58110571  0.68298833  0.08834137  1
  O2-  O154  1  0.57842028  0.68972559  0.42316268  1
  O2-  O155  1  0.58486243  0.68670032  0.75363722  1
  O2-  O156  1  0.18055231  0.43148103  0.23488166  1
  O2-  O157  1  0.17655896  0.42742429  0.56807736  1
  O2-  O158  1  0.17397645  0.43099039  0.90332742  1
  O2-  O159  1  0.17761521  0.92703161  0.24271830  1
  O2-  O160  1  0.17140544  0.93125131  0.57607012  1
  O2-  O161  1  0.17403661  0.93224912  0.90996961  1
  O2-  O162  1  0.67782486  0.42845642  0.23629474  1
  O2-  O163  1  0.68326086  0.42562840  0.57041574  1
  O2-  O164  1  0.68191757  0.42763006  0.90167667  1
  O2-  O165  1  0.67876401  0.92917129  0.24494512  1
  O2-  O166  1  0.68282752  0.92856722  0.57660802  1
  O2-  O167  1  0.68067007  0.92433607  0.91302897  1
  O2-  O168  1  0.42814757  0.32299939  0.10114906  1
  O2-  O169  1  0.42990013  0.32053546  0.43463679  1
  O2-  O170  1  0.42508677  0.31893880  0.76679693  1
  O2-  O171  1  0.43174198  0.81922921  0.10042054  1
  O2-  O172  1  0.42899919  0.82354201  0.42268828  1
  O2-  O173  1  0.43156877  0.81989891  0.76360917  1
  O2-  O174  1  0.93058021  0.31933768  0.08876758  1
  O2-  O175  1  0.92982559  0.31895376  0.43164727  1
  O2-  O176  1  0.93044281  0.31722948  0.75839298  1
  O2-  O177  1  0.92861971  0.82593859  0.08691350  1
  O2-  O178  1  0.92773619  0.82450268  0.42244669  1
  O2-  O179  1  0.93163336  0.82892476  0.75409893  1
  O2-  O180  1  0.32541792  0.06450918  0.24420599  1
  O2-  O181  1  0.31802863  0.06694423  0.56625727  1
  O2-  O182  1  0.32328821  0.06725027  0.90221081  1
  O2-  O183  1  0.31504221  0.58081498  0.23528716  1
  O2-  O184  1  0.31272184  0.57641427  0.56830358  1
  O2-  O185  1  0.31501636  0.57479605  0.90046678  1
  O2-  O186  1  0.82438729  0.06558699  0.24541393  1
  O2-  O187  1  0.82543014  0.06513965  0.57555337  1
  O2-  O188  1  0.82269197  0.06889064  0.90168534  1
  O2-  O189  1  0.81582657  0.57566244  0.23072675  1
  O2-  O190  1  0.82158071  0.57024627  0.56849368  1
  O2-  O191  1  0.82064515  0.57046113  0.90826117  1
  O2-  O192  1  0.03892622  0.07979570  0.26361099  1
  O2-  O193  1  0.03796259  0.08637631  0.60427253  1
  O2-  O194  1  0.03541421  0.08563816  0.93381705  1
  O2-  O195  1  0.04859491  0.58889811  0.26914094  1
  O2-  O196  1  0.03888239  0.58618902  0.60068321  1
  O2-  O197  1  0.03620557  0.58335568  0.92623964  1
  O2-  O198  1  0.53993333  0.08299697  0.26774275  1
  O2-  O199  1  0.54413017  0.08066749  0.59940996  1
  O2-  O200  1  0.55207147  0.07959137  0.94058188  1
  O2-  O201  1  0.55283518  0.58896569  0.27340255  1
  O2-  O202  1  0.56154679  0.58272544  0.60700476  1
  O2-  O203  1  0.55492299  0.58261320  0.93962122  1
  O2-  O204  1  0.17368839  0.19593064  0.26771668  1
  O2-  O205  1  0.16431969  0.19783637  0.60941708  1
  O2-  O206  1  0.16439137  0.19596927  0.93925052  1
  O2-  O207  1  0.15814356  0.71931169  0.26875812  1
  O2-  O208  1  0.15588668  0.70971445  0.59657150  1
  O2-  O209  1  0.16080039  0.71378918  0.92504116  1
  O2-  O210  1  0.66932183  0.18989492  0.27819448  1
  O2-  O211  1  0.67480742  0.20001191  0.60125549  1
  O2-  O212  1  0.67205283  0.21012800  0.93828824  1
  O2-  O213  1  0.65957856  0.72015270  0.26770741  1
  O2-  O214  1  0.66678879  0.71687481  0.60026181  1
  O2-  O215  1  0.66644751  0.70878616  0.93401255  1
  O2-  O216  1  0.08074448  0.46583537  0.06765820  1
  O2-  O217  1  0.08380350  0.45908939  0.39916728  1
  O2-  O218  1  0.08479252  0.46105227  0.73421224  1
  O2-  O219  1  0.08472898  0.95531515  0.06330698  1
  O2-  O220  1  0.08386909  0.95396462  0.39482710  1
  O2-  O221  1  0.08311132  0.95637832  0.73012699  1
  O2-  O222  1  0.58295978  0.46004621  0.06973041  1
  O2-  O223  1  0.58411442  0.46361469  0.40460083  1
  O2-  O224  1  0.57992317  0.45426148  0.73628902  1
  O2-  O225  1  0.58636323  0.95039967  0.06678390  1
  O2-  O226  1  0.58590215  0.95614293  0.39748404  1
  O2-  O227  1  0.58574486  0.95119843  0.72687646  1
  O2-  O228  1  0.18978115  0.32449164  0.06622703  1
  O2-  O229  1  0.20551777  0.32573544  0.39775790  1
  O2-  O230  1  0.19954463  0.32573173  0.73413150  1
  O2-  O231  1  0.20047077  0.83397870  0.05877450  1
  O2-  O232  1  0.20696381  0.84110325  0.39850712  1
  O2-  O233  1  0.19499970  0.83198339  0.72354555  1
  O2-  O234  1  0.71539429  0.33695116  0.07079040  1
  O2-  O235  1  0.70107815  0.32491021  0.40131042  1
  O2-  O236  1  0.71406937  0.32954668  0.73573072  1
  O2-  O237  1  0.70759893  0.83412304  0.06658916  1
  O2-  O238  1  0.70953601  0.84140081  0.40004328  1
  O2-  O239  1  0.71318564  0.84212186  0.73268024  1
  O2-  O240  1  0.45914905  0.42321486  0.27106319  1
  O2-  O241  1  0.45310537  0.42462171  0.60307253  1
  O2-  O242  1  0.45361773  0.42292287  0.93712852  1
  O2-  O243  1  0.46196752  0.91077272  0.26989012  1
  O2-  O244  1  0.46359042  0.91164218  0.59397578  1
  O2-  O245  1  0.46626900  0.91365194  0.93287844  1
  O2-  O246  1  0.95570899  0.42204540  0.26431581  1
  O2-  O247  1  0.95820315  0.41250979  0.60659995  1
  O2-  O248  1  0.95675428  0.41091483  0.93509151  1
  O2-  O249  1  0.95795553  0.91048962  0.26779991  1
  O2-  O250  1  0.96058560  0.91239849  0.59829643  1
  O2-  O251  1  0.95679138  0.91625260  0.93451094  1
  O2-  O252  1  0.33780966  0.28848295  0.26664849  1
  O2-  O253  1  0.33066367  0.28682275  0.60148186  1
  O2-  O254  1  0.32534287  0.29331741  0.93888238  1
  O2-  O255  1  0.33385808  0.79924369  0.27180413  1
  O2-  O256  1  0.32899037  0.79318363  0.59733352  1
  O2-  O257  1  0.33177128  0.79494657  0.93222180  1
  O2-  O258  1  0.83057136  0.28973991  0.26689414  1
  O2-  O259  1  0.84201517  0.28921106  0.60427165  1
  O2-  O260  1  0.84062633  0.28672951  0.93727045  1
  O2-  O261  1  0.83238772  0.79935498  0.27100306  1
  O2-  O262  1  0.83474900  0.80103885  0.60346916  1
  O2-  O263  1  0.83174971  0.80398070  0.93641053  1
  O2-  O264  1  0.41879559  0.03447452  0.06988230  1
  O2-  O265  1  0.41093079  0.03294885  0.39742685  1
  O2-  O266  1  0.41841795  0.03304090  0.73136609  1
  O2-  O267  1  0.42237358  0.55889429  0.06368573  1
  O2-  O268  1  0.42351012  0.56136354  0.39671099  1
  O2-  O269  1  0.42545982  0.56514393  0.72723813  1
  O2-  O270  1  0.91584933  0.03598926  0.07110538  1
  O2-  O271  1  0.91206023  0.03428962  0.39789730  1
  O2-  O272  1  0.91082051  0.03495012  0.72952213  1
  O2-  O273  1  0.91431700  0.54332486  0.05798457  1
  O2-  O274  1  0.92272857  0.55370458  0.39312231  1
  O2-  O275  1  0.91846218  0.54031590  0.73503319  1
  O2-  O276  1  0.29020440  0.16379376  0.07140342  1
  O2-  O277  1  0.29849611  0.16128043  0.39589932  1
  O2-  O278  1  0.28941575  0.16089180  0.73693604  1
  O2-  O279  1  0.28199404  0.66931684  0.06418138  1
  O2-  O280  1  0.28447946  0.67238625  0.40084073  1
  O2-  O281  1  0.28116805  0.66982956  0.73214946  1
  O2-  O282  1  0.79277941  0.16595859  0.07263720  1
  O2-  O283  1  0.80037873  0.16161514  0.39809390  1
  O2-  O284  1  0.80191411  0.16295883  0.72778854  1
  O2-  O285  1  0.80344682  0.66944722  0.05619409  1
  O2-  O286  1  0.78867740  0.66988599  0.39813198  1
  O2-  O287  1  0.80085243  0.67371051  0.73191082  1
