# generated using pymatgen
data_Ca2Al2SiO7
_symmetry_space_group_name_H-M   'P 1'
_cell_length_a   15.47040082
_cell_length_b   15.46901023
_cell_length_c   15.29046797
_cell_angle_alpha   89.98989210
_cell_angle_beta   90.02421518
_cell_angle_gamma   89.99381383
_symmetry_Int_Tables_number   1
_chemical_formula_structural   Ca2Al2SiO7
_chemical_formula_sum   'Ca48 Al48 Si24 O168'
_cell_volume   3659.18883359
_cell_formula_units_Z   24
loop_
 _symmetry_equiv_pos_site_id
 _symmetry_equiv_pos_as_xyz
  1  'x, y, z'
loop_
 _atom_type_symbol
 _atom_type_oxidation_number
  Ca2+  2.0
  Al0+  0.0
  Si0+  0.0
  O2-  -2.0
loop_
 _atom_site_type_symbol
 _atom_site_label
 _atom_site_symmetry_multiplicity
 _atom_site_fract_x
 _atom_site_fract_y
 _atom_site_fract_z
 _atom_site_occupancy
  Ca2+  Ca0  1  0.17454492  0.07521744  0.17587276  1
  Ca2+  Ca1  1  0.16218585  0.08222540  0.50002515  1
  Ca2+  Ca2  1  0.17038159  0.07804066  0.84013028  1
  Ca2+  Ca3  1  0.17376362  0.57922076  0.18316920  1
  Ca2+  Ca4  1  0.16965794  0.57990837  0.50985552  1
  Ca2+  Ca5  1  0.16881521  0.58399615  0.82931452  1
  Ca2+  Ca6  1  0.66291471  0.07746722  0.17418950  1
  Ca2+  Ca7  1  0.66490375  0.08469885  0.50210425  1
  Ca2+  Ca8  1  0.66878186  0.07333955  0.84031654  1
  Ca2+  Ca9  1  0.65908807  0.57527759  0.17261214  1
  Ca2+  Ca10  1  0.66868176  0.58578088  0.50486549  1
  Ca2+  Ca11  1  0.67006586  0.58679009  0.83600049  1
  Ca2+  Ca12  1  0.09515671  0.32690676  0.16879937  1
  Ca2+  Ca13  1  0.09044088  0.33002484  0.49571750  1
  Ca2+  Ca14  1  0.08107700  0.32637318  0.81721988  1
  Ca2+  Ca15  1  0.09384184  0.83180909  0.16764201  1
  Ca2+  Ca16  1  0.08367045  0.82296301  0.49563951  1
  Ca2+  Ca17  1  0.07766969  0.83178748  0.82338301  1
  Ca2+  Ca18  1  0.58708326  0.33131169  0.16469020  1
  Ca2+  Ca19  1  0.57601163  0.33445084  0.49231727  1
  Ca2+  Ca20  1  0.57827157  0.33425009  0.82851949  1
  Ca2+  Ca21  1  0.58269786  0.82181682  0.16046205  1
  Ca2+  Ca22  1  0.57420240  0.82039561  0.49991141  1
  Ca2+  Ca23  1  0.58067420  0.82579830  0.82545520  1
  Ca2+  Ca24  1  0.32849950  0.42480512  0.17637751  1
  Ca2+  Ca25  1  0.32618255  0.42627402  0.50401926  1
  Ca2+  Ca26  1  0.33345967  0.41980835  0.82602676  1
  Ca2+  Ca27  1  0.32635061  0.92598416  0.17275455  1
  Ca2+  Ca28  1  0.33392726  0.92044267  0.50100800  1
  Ca2+  Ca29  1  0.33070397  0.92028380  0.83933699  1
  Ca2+  Ca30  1  0.82018078  0.41615067  0.17144344  1
  Ca2+  Ca31  1  0.82591796  0.41736123  0.50809044  1
  Ca2+  Ca32  1  0.83189800  0.42225335  0.83337787  1
  Ca2+  Ca33  1  0.82609509  0.91451059  0.16813543  1
  Ca2+  Ca34  1  0.83366436  0.91362797  0.50638819  1
  Ca2+  Ca35  1  0.82950830  0.91255737  0.83712553  1
  Ca2+  Ca36  1  0.41343682  0.16294030  0.16734176  1
  Ca2+  Ca37  1  0.41583345  0.17433717  0.49351981  1
  Ca2+  Ca38  1  0.41350292  0.17245890  0.82627058  1
  Ca2+  Ca39  1  0.42537709  0.65898992  0.16477085  1
  Ca2+  Ca40  1  0.42054568  0.65855308  0.49590835  1
  Ca2+  Ca41  1  0.42771037  0.66951579  0.82197441  1
  Ca2+  Ca42  1  0.92280345  0.16797291  0.16780726  1
  Ca2+  Ca43  1  0.92966538  0.17407426  0.49957640  1
  Ca2+  Ca44  1  0.92450139  0.17374914  0.82224136  1
  Ca2+  Ca45  1  0.92575999  0.66425099  0.16844025  1
  Ca2+  Ca46  1  0.92608981  0.66275426  0.50321158  1
  Ca2+  Ca47  1  0.92113962  0.67133474  0.82033672  1
  Al0+  Al48  1  0.00045920  -0.00016977  0.00304180  1
  Al0+  Al49  1  -0.00236011  0.00261363  0.33128482  1
  Al0+  Al50  1  -0.00162144  0.00207745  0.66202222  1
  Al0+  Al51  1  -0.00068398  0.49923703  0.00029613  1
  Al0+  Al52  1  -0.00371998  0.50101756  0.32947203  1
  Al0+  Al53  1  -0.00388242  0.49943010  0.66974705  1
  Al0+  Al54  1  0.50157104  -0.00021086  0.00743191  1
  Al0+  Al55  1  0.50024692  -0.00011952  0.33409654  1
  Al0+  Al56  1  0.50064482  -0.00241459  0.66563845  1
  Al0+  Al57  1  0.50116936  0.49841199  -0.00239105  1
  Al0+  Al58  1  0.49968465  0.49809182  0.33549686  1
  Al0+  Al59  1  0.49929297  0.49725224  0.66295859  1
  Al0+  Al60  1  0.25171829  0.25092195  0.00042643  1
  Al0+  Al61  1  0.25054211  0.25046394  0.33343533  1
  Al0+  Al62  1  0.25262762  0.24873566  0.66251918  1
  Al0+  Al63  1  0.25255710  0.74921483  0.00215530  1
  Al0+  Al64  1  0.25046258  0.75320652  0.33505178  1
  Al0+  Al65  1  0.25070030  0.75266647  0.66677273  1
  Al0+  Al66  1  0.75060936  0.25119412  0.00122134  1
  Al0+  Al67  1  0.74839265  0.24921962  0.33337936  1
  Al0+  Al68  1  0.75223732  0.24702724  0.66659078  1
  Al0+  Al69  1  0.75380407  0.74911992  0.00213405  1
  Al0+  Al70  1  0.74794279  0.75014044  0.32867098  1
  Al0+  Al71  1  0.74844563  0.74906356  0.66403356  1
  Al0+  Al72  1  0.07132991  0.67985890  0.32022522  1
  Al0+  Al73  1  0.56956567  0.67780118  0.65164341  1
  Al0+  Al74  1  0.17889480  0.42817960  0.68145363  1
  Al0+  Al75  1  0.92740741  0.32255419  0.65245816  1
  Al0+  Al76  1  0.32142616  0.07349138  0.01429606  1
  Al0+  Al77  1  0.67922736  0.43059768  0.01275892  1
  Al0+  Al78  1  0.32229614  0.57363674  0.68303630  1
  Al0+  Al79  1  0.07164551  0.67879748  0.65434559  1
  Al0+  Al80  1  0.17805146  0.92751549  0.01418833  1
  Al0+  Al81  1  0.42741685  0.82327347  0.65265541  1
  Al0+  Al82  1  0.43004926  0.32013517  0.65176999  1
  Al0+  Al83  1  0.68077955  0.92736883  0.01423010  1
  Al0+  Al84  1  0.81857191  0.57099734  0.67996120  1
  Al0+  Al85  1  0.56881736  0.67842187  0.31800698  1
  Al0+  Al86  1  0.17590026  0.43024819  0.34693306  1
  Al0+  Al87  1  0.07284131  0.18012394  0.65211239  1
  Al0+  Al88  1  0.57168503  0.67829645  0.98560851  1
  Al0+  Al89  1  0.57092884  0.17898651  0.31935575  1
  Al0+  Al90  1  0.17625570  0.93023152  0.35165855  1
  Al0+  Al91  1  0.32113714  0.57256211  0.34705484  1
  Al0+  Al92  1  0.68022828  0.42844495  0.34789803  1
  Al0+  Al93  1  0.32193933  0.07033932  0.35145882  1
  Al0+  Al94  1  0.92748996  0.82188920  0.65302370  1
  Al0+  Al95  1  0.07103861  0.18101372  0.31661715  1
  Si0+  Si96  1  0.92729971  0.32077293  0.98448360  1
  Si0+  Si97  1  0.17619512  0.93078970  0.68084145  1
  Si0+  Si98  1  0.67967652  0.92968572  0.68099081  1
  Si0+  Si99  1  0.17758070  0.42991856  0.01326649  1
  Si0+  Si100  1  0.32273012  0.06932459  0.68108160  1
  Si0+  Si101  1  0.82197385  0.07058257  0.68262157  1
  Si0+  Si102  1  0.42943933  0.82287202  0.98472642  1
  Si0+  Si103  1  0.81924463  0.07116317  0.34960276  1
  Si0+  Si104  1  0.32144177  0.56930098  0.01287163  1
  Si0+  Si105  1  0.82030877  0.57424144  0.34974060  1
  Si0+  Si106  1  0.82427671  0.57194406  0.01897304  1
  Si0+  Si107  1  0.57239910  0.17652173  0.65308842  1
  Si0+  Si108  1  0.07312666  0.67747582  0.98638362  1
  Si0+  Si109  1  0.93133581  0.82110219  0.98638100  1
  Si0+  Si110  1  0.67794787  0.42417064  0.68313315  1
  Si0+  Si111  1  0.42909549  0.32070788  0.31378411  1
  Si0+  Si112  1  0.42811521  0.82371545  0.31452452  1
  Si0+  Si113  1  0.57317878  0.17748151  0.98551501  1
  Si0+  Si114  1  0.42960900  0.31980067  0.98409989  1
  Si0+  Si115  1  0.82169216  0.07278411  0.01738943  1
  Si0+  Si116  1  0.07095897  0.18083726  0.98582030  1
  Si0+  Si117  1  0.92555252  0.32240227  0.31481998  1
  Si0+  Si118  1  0.67937782  0.92745211  0.35007122  1
  Si0+  Si119  1  0.92716407  0.82324508  0.31481022  1
  O2-  O120  1  0.24982525  0.00045590  0.06243372  1
  O2-  O121  1  0.24836294  0.00129104  0.40289882  1
  O2-  O122  1  0.25003844  -0.00033885  0.72270150  1
  O2-  O123  1  0.24477573  0.50435545  0.05487093  1
  O2-  O124  1  0.24135488  0.50841402  0.39533870  1
  O2-  O125  1  0.24814017  0.50269331  0.73343562  1
  O2-  O126  1  0.75236049  0.00509305  0.06216923  1
  O2-  O127  1  0.75037095  -0.00167139  0.39236170  1
  O2-  O128  1  0.75138767  -0.00057601  0.72483120  1
  O2-  O129  1  0.75204890  0.50621295  0.06137210  1
  O2-  O130  1  0.75365286  0.50378887  0.39357656  1
  O2-  O131  1  0.74391702  0.49565990  0.72701849  1
  O2-  O132  1  -0.00027289  0.25971238  0.26932703  1
  O2-  O133  1  0.00665619  0.25854668  0.60346272  1
  O2-  O134  1  0.00049886  0.25170636  0.94296605  1
  O2-  O135  1  -0.00139481  0.75679439  0.27110586  1
  O2-  O136  1  0.00077540  0.75182471  0.60404469  1
  O2-  O137  1  0.00496934  0.75219599  0.94577725  1
  O2-  O138  1  0.49661135  0.25123331  0.26846249  1
  O2-  O139  1  0.50794299  0.24753566  0.60797991  1
  O2-  O140  1  0.49964870  0.24582555  0.94351545  1
  O2-  O141  1  0.49238262  0.75064608  0.26996921  1
  O2-  O142  1  0.49032587  0.74295544  0.60326704  1
  O2-  O143  1  0.49940499  0.75577920  0.94005495  1
  O2-  O144  1  0.07020222  0.18264808  0.09070833  1
  O2-  O145  1  0.06768530  0.18010583  0.42893725  1
  O2-  O146  1  0.06954141  0.17710308  0.76689580  1
  O2-  O147  1  0.07094865  0.67538429  0.09138828  1
  O2-  O148  1  0.06808872  0.67819373  0.43239598  1
  O2-  O149  1  0.06973453  0.68273455  0.76910820  1
  O2-  O150  1  0.57595415  0.17977854  0.09014643  1
  O2-  O151  1  0.57197568  0.18117843  0.43237739  1
  O2-  O152  1  0.57089871  0.17448834  0.75933895  1
  O2-  O153  1  0.56788654  0.67683027  0.09871288  1
  O2-  O154  1  0.57175049  0.68108176  0.43037812  1
  O2-  O155  1  0.57283191  0.68267828  0.76579252  1
  O2-  O156  1  0.18087983  0.43057670  0.23183013  1
  O2-  O157  1  0.18125757  0.42782340  0.56863859  1
  O2-  O158  1  0.17656115  0.42801006  0.90869716  1
  O2-  O159  1  0.17836465  0.93222854  0.23765135  1
  O2-  O160  1  0.17286693  0.93336197  0.57657697  1
  O2-  O161  1  0.17595389  0.92992840  0.90016758  1
  O2-  O162  1  0.68167399  0.42857188  0.23417151  1
  O2-  O163  1  0.68084913  0.42059426  0.57783668  1
  O2-  O164  1  0.68087632  0.42874998  0.90002600  1
  O2-  O165  1  0.68191209  0.92792973  0.24459344  1
  O2-  O166  1  0.67972867  0.93301756  0.57607571  1
  O2-  O167  1  0.68324496  0.92930589  0.90086423  1
  O2-  O168  1  0.42874346  0.32160474  0.08874634  1
  O2-  O169  1  0.43141370  0.32024415  0.41903418  1
  O2-  O170  1  0.43093299  0.31689359  0.76599045  1
  O2-  O171  1  0.42930341  0.82070048  0.09005080  1
  O2-  O172  1  0.43312041  0.82685625  0.41973089  1
  O2-  O173  1  0.43410195  0.82895052  0.76666889  1
  O2-  O174  1  0.92551512  0.31952200  0.08936939  1
  O2-  O175  1  0.92174020  0.31849822  0.41971457  1
  O2-  O176  1  0.92521017  0.31608964  0.76689230  1
  O2-  O177  1  0.92871502  0.82114792  0.09120927  1
  O2-  O178  1  0.92434977  0.82245516  0.41985911  1
  O2-  O179  1  0.92872700  0.82277438  0.76750018  1
  O2-  O180  1  0.32129250  0.06802360  0.23759860  1
  O2-  O181  1  0.32660904  0.06811285  0.57686831  1
  O2-  O182  1  0.31897430  0.07553928  0.90010698  1
  O2-  O183  1  0.32212257  0.56756580  0.23207592  1
  O2-  O184  1  0.32236808  0.57063950  0.57028322  1
  O2-  O185  1  0.32189833  0.56846188  0.90823512  1
  O2-  O186  1  0.81781059  0.07078439  0.24396283  1
  O2-  O187  1  0.82011475  0.07191774  0.57783887  1
  O2-  O188  1  0.82155192  0.07223631  0.91170800  1
  O2-  O189  1  0.81942636  0.57400223  0.24354269  1
  O2-  O190  1  0.81532273  0.57248039  0.56717833  1
  O2-  O191  1  0.82705585  0.57107138  0.91366449  1
  O2-  O192  1  0.03378951  0.08632687  0.26164085  1
  O2-  O193  1  0.03529658  0.08623464  0.59738946  1
  O2-  O194  1  0.04260331  0.08804836  0.94048156  1
  O2-  O195  1  0.03808745  0.58440717  0.26229950  1
  O2-  O196  1  0.04052652  0.58091795  0.60404028  1
  O2-  O197  1  0.04215874  0.58638920  0.93901241  1
  O2-  O198  1  0.54287177  0.08096384  0.26600951  1
  O2-  O199  1  0.54532167  0.08436175  0.60610182  1
  O2-  O200  1  0.54907078  0.08358499  0.94026992  1
  O2-  O201  1  0.53827027  0.58049622  0.26547461  1
  O2-  O202  1  0.55043059  0.57707967  0.60170286  1
  O2-  O203  1  0.53942903  0.58227743  0.93160333  1
  O2-  O204  1  0.16840202  0.21048750  0.26248274  1
  O2-  O205  1  0.17218323  0.20009230  0.60012509  1
  O2-  O206  1  0.16300137  0.20866166  0.93897726  1
  O2-  O207  1  0.16891978  0.70908833  0.26579280  1
  O2-  O208  1  0.17024267  0.70503457  0.60321592  1
  O2-  O209  1  0.16697396  0.70049125  0.94111615  1
  O2-  O210  1  0.66729434  0.20932730  0.26372755  1
  O2-  O211  1  0.66756429  0.19680517  0.60902416  1
  O2-  O212  1  0.66447209  0.20687516  0.93699284  1
  O2-  O213  1  0.66458429  0.71159929  0.26234379  1
  O2-  O214  1  0.66395722  0.71432018  0.59720285  1
  O2-  O215  1  0.67151256  0.70680991  0.93683204  1
  O2-  O216  1  0.08449880  0.45238888  0.06084784  1
  O2-  O217  1  0.07293544  0.44883066  0.39278884  1
  O2-  O218  1  0.07849382  0.45129007  0.73371225  1
  O2-  O219  1  0.07955752  0.95454881  0.06789147  1
  O2-  O220  1  0.07605769  0.95947963  0.39983515  1
  O2-  O221  1  0.08503633  0.96230004  0.72896718  1
  O2-  O222  1  0.58208027  0.45900446  0.06704424  1
  O2-  O223  1  0.58340859  0.45667622  0.40025652  1
  O2-  O224  1  0.58289294  0.44622232  0.72661794  1
  O2-  O225  1  0.58495850  0.95514565  0.07016795  1
  O2-  O226  1  0.58859589  0.95654206  0.39681853  1
  O2-  O227  1  0.58949068  0.96002098  0.73083897  1
  O2-  O228  1  0.20985136  0.33953571  0.06081447  1
  O2-  O229  1  0.20847450  0.33322882  0.39768381  1
  O2-  O230  1  0.21240070  0.32923955  0.73369884  1
  O2-  O231  1  0.20680933  0.82872197  0.06688928  1
  O2-  O232  1  0.20281816  0.83116040  0.40237743  1
  O2-  O233  1  0.20030709  0.83887664  0.72959698  1
  O2-  O234  1  0.71150998  0.33395089  0.06713767  1
  O2-  O235  1  0.71074079  0.33172562  0.40115298  1
  O2-  O236  1  0.70616433  0.33095495  0.73060578  1
  O2-  O237  1  0.71604241  0.83276918  0.06976810  1
  O2-  O238  1  0.70873453  0.83591437  0.39622273  1
  O2-  O239  1  0.70753130  0.83847174  0.72864752  1
  O2-  O240  1  0.45750515  0.41323257  0.26706190  1
  O2-  O241  1  0.45796936  0.41535045  0.59570428  1
  O2-  O242  1  0.46113064  0.40925936  0.93462814  1
  O2-  O243  1  0.46054483  0.91472176  0.26695349  1
  O2-  O244  1  0.46629948  0.91679681  0.59613085  1
  O2-  O245  1  0.45354876  0.91832882  0.94134987  1
  O2-  O246  1  0.94150124  0.41804472  0.26897278  1
  O2-  O247  1  0.94247165  0.42384051  0.60360982  1
  O2-  O248  1  0.95331598  0.41395325  0.93882955  1
  O2-  O249  1  0.94770680  0.91810277  0.26896277  1
  O2-  O250  1  0.95126395  0.92086179  0.60037618  1
  O2-  O251  1  0.95496821  0.91459918  0.93897112  1
  O2-  O252  1  0.33555604  0.29600771  0.26717588  1
  O2-  O253  1  0.33676866  0.28594999  0.59596488  1
  O2-  O254  1  0.33777629  0.29286315  0.93536678  1
  O2-  O255  1  0.33247461  0.80511302  0.27056724  1
  O2-  O256  1  0.32577522  0.80897361  0.60385770  1
  O2-  O257  1  0.33567641  0.79672506  0.93841104  1
  O2-  O258  1  0.83546897  0.28699993  0.26631915  1
  O2-  O259  1  0.83238673  0.28497874  0.59797419  1
  O2-  O260  1  0.83659855  0.29139285  0.93571209  1
  O2-  O261  1  0.83490408  0.79384717  0.26651430  1
  O2-  O262  1  0.83007947  0.79381689  0.59963347  1
  O2-  O263  1  0.84064239  0.79168445  0.93760123  1
  O2-  O264  1  0.42045289  0.04902212  0.06730121  1
  O2-  O265  1  0.42104289  0.04140343  0.40311782  1
  O2-  O266  1  0.41397307  0.03993546  0.73039085  1
  O2-  O267  1  0.41076664  0.53450873  0.06052221  1
  O2-  O268  1  0.41597802  0.53611632  0.40051836  1
  O2-  O269  1  0.42063642  0.53925057  0.73510661  1
  O2-  O270  1  0.91443271  0.04563393  0.06434677  1
  O2-  O271  1  0.91104229  0.04533506  0.39643341  1
  O2-  O272  1  0.91310551  0.04277958  0.73180554  1
  O2-  O273  1  0.91620659  0.54114076  0.06707085  1
  O2-  O274  1  0.91476125  0.55093777  0.39346889  1
  O2-  O275  1  0.91384907  0.54283810  0.73875376  1
  O2-  O276  1  0.29256438  0.17166419  0.06802404  1
  O2-  O277  1  0.29642036  0.17075451  0.39954163  1
  O2-  O278  1  0.29623598  0.16136650  0.72836902  1
  O2-  O279  1  0.30127111  0.66267968  0.06023424  1
  O2-  O280  1  0.30506736  0.67456586  0.39445949  1
  O2-  O281  1  0.29752235  0.67389860  0.73606842  1
  O2-  O282  1  0.79721621  0.16639568  0.06326824  1
  O2-  O283  1  0.78792840  0.16095602  0.39749614  1
  O2-  O284  1  0.79354257  0.16098143  0.73351238  1
  O2-  O285  1  0.80400606  0.66635547  0.06461168  1
  O2-  O286  1  0.79202388  0.66750565  0.39409759  1
  O2-  O287  1  0.78657194  0.66774920  0.73555670  1
