# generated using pymatgen
data_Ca2Al2SiO7
_symmetry_space_group_name_H-M   'P 1'
_cell_length_a   15.45981963
_cell_length_b   15.45941096
_cell_length_c   15.28447997
_cell_angle_alpha   90.00202233
_cell_angle_beta   90.00109373
_cell_angle_gamma   89.98831259
_symmetry_Int_Tables_number   1
_chemical_formula_structural   Ca2Al2SiO7
_chemical_formula_sum   'Ca48 Al48 Si24 O168'
_cell_volume   3652.98612670
_cell_formula_units_Z   24
loop_
 _symmetry_equiv_pos_site_id
 _symmetry_equiv_pos_as_xyz
  1  'x, y, z'
loop_
 _atom_type_symbol
 _atom_type_oxidation_number
  Ca2+  2.0
  Al0+  0.0
  Si0+  0.0
  O2-  -2.0
loop_
 _atom_site_type_symbol
 _atom_site_label
 _atom_site_symmetry_multiplicity
 _atom_site_fract_x
 _atom_site_fract_y
 _atom_site_fract_z
 _atom_site_occupancy
  Ca2+  Ca0  1  0.16591801  0.07542017  0.16666659  1
  Ca2+  Ca1  1  0.17045827  0.07476809  0.50854866  1
  Ca2+  Ca2  1  0.16263410  0.06956954  0.83716267  1
  Ca2+  Ca3  1  0.17329417  0.58531480  0.16956463  1
  Ca2+  Ca4  1  0.16355254  0.58134548  0.50782885  1
  Ca2+  Ca5  1  0.17028475  0.58133335  0.83718344  1
  Ca2+  Ca6  1  0.67121939  0.08593736  0.17497658  1
  Ca2+  Ca7  1  0.66952529  0.07626202  0.50324520  1
  Ca2+  Ca8  1  0.67303446  0.07865958  0.83766322  1
  Ca2+  Ca9  1  0.66775585  0.58974478  0.16693171  1
  Ca2+  Ca10  1  0.67040405  0.58639336  0.50494680  1
  Ca2+  Ca11  1  0.67763835  0.58724048  0.84071685  1
  Ca2+  Ca12  1  0.07504138  0.32785855  0.16050886  1
  Ca2+  Ca13  1  0.08321963  0.33391581  0.49913286  1
  Ca2+  Ca14  1  0.07935844  0.33695685  0.82974232  1
  Ca2+  Ca15  1  0.07813610  0.83027132  0.15953676  1
  Ca2+  Ca16  1  0.08082960  0.82549455  0.49939421  1
  Ca2+  Ca17  1  0.07406761  0.83360744  0.82569066  1
  Ca2+  Ca18  1  0.58054493  0.32156450  0.15908512  1
  Ca2+  Ca19  1  0.57247248  0.32860107  0.49206156  1
  Ca2+  Ca20  1  0.57454397  0.32919922  0.83241433  1
  Ca2+  Ca21  1  0.58741777  0.82709502  0.16572736  1
  Ca2+  Ca22  1  0.58445204  0.83383785  0.49144083  1
  Ca2+  Ca23  1  0.58985204  0.82817477  0.83055978  1
  Ca2+  Ca24  1  0.34552731  0.41954373  0.16633161  1
  Ca2+  Ca25  1  0.33059795  0.41421766  0.50744784  1
  Ca2+  Ca26  1  0.33248210  0.41622098  0.83835620  1
  Ca2+  Ca27  1  0.32847297  0.90926567  0.17006674  1
  Ca2+  Ca28  1  0.33095296  0.91369652  0.50566913  1
  Ca2+  Ca29  1  0.31699491  0.90874265  0.83794800  1
  Ca2+  Ca30  1  0.83549869  0.42104314  0.16634853  1
  Ca2+  Ca31  1  0.82914586  0.42536210  0.50764691  1
  Ca2+  Ca32  1  0.83893841  0.43050811  0.84083302  1
  Ca2+  Ca33  1  0.82866931  0.92642965  0.17170480  1
  Ca2+  Ca34  1  0.82249456  0.92208907  0.50806036  1
  Ca2+  Ca35  1  0.83690564  0.92238688  0.83802555  1
  Ca2+  Ca36  1  0.42906454  0.17347309  0.15970911  1
  Ca2+  Ca37  1  0.42138142  0.17575787  0.49097441  1
  Ca2+  Ca38  1  0.41917295  0.17379026  0.82963008  1
  Ca2+  Ca39  1  0.42731917  0.66854141  0.16305929  1
  Ca2+  Ca40  1  0.42480732  0.67577072  0.48962983  1
  Ca2+  Ca41  1  0.42188418  0.65962347  0.83576924  1
  Ca2+  Ca42  1  0.90831590  0.16923890  0.15788034  1
  Ca2+  Ca43  1  0.91165939  0.16076214  0.49954683  1
  Ca2+  Ca44  1  0.90900198  0.16849706  0.83335149  1
  Ca2+  Ca45  1  0.92024238  0.67336836  0.15805428  1
  Ca2+  Ca46  1  0.92401409  0.66898330  0.50114495  1
  Ca2+  Ca47  1  0.91450832  0.67747299  0.82497089  1
  Al0+  Al48  1  -0.00125830  -0.00107051  0.00656778  1
  Al0+  Al49  1  0.00132515  0.00023168  0.33811768  1
  Al0+  Al50  1  -0.00033906  0.00086767  0.66803343  1
  Al0+  Al51  1  0.00167563  0.49938032  0.00271695  1
  Al0+  Al52  1  0.00194292  0.49957672  0.32974563  1
  Al0+  Al53  1  0.00101368  0.49947678  0.67064325  1
  Al0+  Al54  1  0.49786800  -0.00168763  -0.00556070  1
  Al0+  Al55  1  0.49819541  0.00128550  0.32943417  1
  Al0+  Al56  1  0.50166030  0.00053338  0.67142050  1
  Al0+  Al57  1  0.50044291  0.50009163  -0.00371791  1
  Al0+  Al58  1  0.50008884  0.50279823  0.33050308  1
  Al0+  Al59  1  0.49961025  0.49917458  0.66115969  1
  Al0+  Al60  1  0.24870879  0.24736497  -0.00219434  1
  Al0+  Al61  1  0.24687942  0.25042688  0.32876337  1
  Al0+  Al62  1  0.24883993  0.25151978  0.66705028  1
  Al0+  Al63  1  0.25033754  0.74667937  0.00991557  1
  Al0+  Al64  1  0.24964932  0.74734748  0.32817772  1
  Al0+  Al65  1  0.25126824  0.74837901  0.66772542  1
  Al0+  Al66  1  0.74980559  0.25113130  -0.00702017  1
  Al0+  Al67  1  0.75048418  0.25376929  0.33636812  1
  Al0+  Al68  1  0.74827370  0.24994437  0.66785784  1
  Al0+  Al69  1  0.75125785  0.75067029  -0.00253440  1
  Al0+  Al70  1  0.75277270  0.75185163  0.33440678  1
  Al0+  Al71  1  0.75078437  0.75079603  0.66751342  1
  Al0+  Al72  1  0.67751835  0.92915658  0.34707084  1
  Al0+  Al73  1  0.81720637  0.07130195  0.01408609  1
  Al0+  Al74  1  0.18079330  0.92734828  0.67864762  1
  Al0+  Al75  1  0.57267154  0.17551200  0.98170347  1
  Al0+  Al76  1  0.42790968  0.82284298  0.31885592  1
  Al0+  Al77  1  0.17992686  0.42878502  0.68024844  1
  Al0+  Al78  1  0.17903023  0.92889936  0.01571629  1
  Al0+  Al79  1  0.07192554  0.67807978  0.65381724  1
  Al0+  Al80  1  0.92796726  0.82382089  0.64935426  1
  Al0+  Al81  1  0.82130036  0.07210676  0.68418717  1
  Al0+  Al82  1  0.57242667  0.18037953  0.31972415  1
  Al0+  Al83  1  0.06963741  0.67756585  0.31788768  1
  Al0+  Al84  1  0.93006957  0.32186478  0.98584738  1
  Al0+  Al85  1  0.57485627  0.68057722  0.31892888  1
  Al0+  Al86  1  0.82158681  0.07424305  0.34931126  1
  Al0+  Al87  1  0.57074596  0.68126681  0.98478850  1
  Al0+  Al88  1  0.42818261  0.32011818  0.65094929  1
  Al0+  Al89  1  0.67773512  0.92818747  0.68389632  1
  Al0+  Al90  1  0.42590669  0.32168564  0.31741266  1
  Al0+  Al91  1  0.32201208  0.56745958  0.01554708  1
  Al0+  Al92  1  0.42854305  0.32048795  0.98321804  1
  Al0+  Al93  1  0.93086379  0.82076655  0.98746440  1
  Al0+  Al94  1  0.82014226  0.56932022  0.67938444  1
  Al0+  Al95  1  0.82231443  0.57288909  0.01511246  1
  Si0+  Si96  1  0.67850362  0.43126313  0.34799555  1
  Si0+  Si97  1  0.07383420  0.67786758  0.98400621  1
  Si0+  Si98  1  0.32409634  0.57156549  0.68191478  1
  Si0+  Si99  1  0.57173659  0.17730914  0.64805198  1
  Si0+  Si100  1  0.42454061  0.82020134  0.98217526  1
  Si0+  Si101  1  0.67552597  0.92728363  0.01653859  1
  Si0+  Si102  1  0.82395598  0.57077262  0.34765806  1
  Si0+  Si103  1  0.07053924  0.17637950  0.98326244  1
  Si0+  Si104  1  0.07057915  0.17951875  0.65193754  1
  Si0+  Si105  1  0.92983371  0.32108224  0.32056916  1
  Si0+  Si106  1  0.07043924  0.17723405  0.31936977  1
  Si0+  Si107  1  0.32164168  0.07271893  0.68234082  1
  Si0+  Si108  1  0.67942294  0.43022101  0.01573677  1
  Si0+  Si109  1  0.17793879  0.42495797  0.01913599  1
  Si0+  Si110  1  0.17823948  0.42890910  0.34822424  1
  Si0+  Si111  1  0.67561572  0.42848845  0.68294476  1
  Si0+  Si112  1  0.92852330  0.32186906  0.65182242  1
  Si0+  Si113  1  0.93045067  0.82347448  0.31668264  1
  Si0+  Si114  1  0.32105397  0.57024181  0.34954103  1
  Si0+  Si115  1  0.32240371  0.07223356  0.01689349  1
  Si0+  Si116  1  0.57141969  0.67968589  0.65226829  1
  Si0+  Si117  1  0.18021397  0.92676259  0.34992055  1
  Si0+  Si118  1  0.42878321  0.82158857  0.65478591  1
  Si0+  Si119  1  0.31854788  0.07266880  0.34633195  1
  O2-  O120  1  0.25618950  0.00155515  0.06247096  1
  O2-  O121  1  0.25250038  -0.00254984  0.39094711  1
  O2-  O122  1  0.25629054  0.00090806  0.72649931  1
  O2-  O123  1  0.24942959  0.49037333  0.06351020  1
  O2-  O124  1  0.25166144  0.49704756  0.39100312  1
  O2-  O125  1  0.25473816  0.50338570  0.72546222  1
  O2-  O126  1  0.73849223  0.00117391  0.06073675  1
  O2-  O127  1  0.74882731  0.00220061  0.39731881  1
  O2-  O128  1  0.75142473  -0.00172943  0.73362330  1
  O2-  O129  1  0.74843143  0.49763978  0.06264804  1
  O2-  O130  1  0.74798428  0.50470291  0.38971092  1
  O2-  O131  1  0.74521962  0.49552182  0.72742714  1
  O2-  O132  1  -0.00608306  0.24325112  0.27929040  1
  O2-  O133  1  -0.00299876  0.24834390  0.60908553  1
  O2-  O134  1  0.00498481  0.24759402  0.93857320  1
  O2-  O135  1  -0.00289937  0.75348269  0.27119024  1
  O2-  O136  1  0.00126783  0.75068340  0.60205389  1
  O2-  O137  1  0.00409220  0.74457769  0.94011639  1
  O2-  O138  1  0.49980070  0.25149636  0.26913046  1
  O2-  O139  1  0.50220564  0.24545977  0.60399310  1
  O2-  O140  1  0.49751103  0.24582312  0.93328386  1
  O2-  O141  1  0.50438126  0.75479900  0.27017085  1
  O2-  O142  1  0.50166869  0.75290161  0.61185658  1
  O2-  O143  1  0.49687763  0.75641246  0.93659216  1
  O2-  O144  1  0.07022483  0.17758877  0.08949771  1
  O2-  O145  1  0.07525852  0.17937440  0.42441938  1
  O2-  O146  1  0.07309281  0.18090972  0.75667019  1
  O2-  O147  1  0.07246560  0.67959576  0.09010347  1
  O2-  O148  1  0.06871905  0.67558510  0.43085669  1
  O2-  O149  1  0.07284678  0.67862518  0.76704220  1
  O2-  O150  1  0.57342743  0.17814824  0.09549074  1
  O2-  O151  1  0.56991454  0.18322183  0.43357616  1
  O2-  O152  1  0.57053658  0.17853509  0.75329761  1
  O2-  O153  1  0.57078123  0.68267781  0.09762462  1
  O2-  O154  1  0.57133576  0.67775368  0.43310570  1
  O2-  O155  1  0.56971178  0.67713458  0.75718152  1
  O2-  O156  1  0.17432755  0.42939637  0.24365841  1
  O2-  O157  1  0.18017338  0.42810556  0.56647918  1
  O2-  O158  1  0.17630826  0.42700508  0.91359783  1
  O2-  O159  1  0.17846531  0.92900906  0.24489133  1
  O2-  O160  1  0.18431428  0.92889779  0.56505130  1
  O2-  O161  1  0.17919121  0.92946294  0.90246392  1
  O2-  O162  1  0.68142832  0.42825237  0.24325633  1
  O2-  O163  1  0.67656722  0.43065085  0.57666587  1
  O2-  O164  1  0.68043987  0.43330441  0.91003131  1
  O2-  O165  1  0.68149306  0.92761894  0.23362291  1
  O2-  O166  1  0.67381533  0.92992826  0.57036166  1
  O2-  O167  1  0.67881569  0.92616812  0.91113857  1
  O2-  O168  1  0.43222838  0.31937525  0.09666362  1
  O2-  O169  1  0.42458108  0.31919161  0.43143071  1
  O2-  O170  1  0.42887253  0.31956108  0.76348548  1
  O2-  O171  1  0.42405462  0.81822356  0.08750888  1
  O2-  O172  1  0.42437422  0.81884107  0.43319806  1
  O2-  O173  1  0.42595219  0.81858971  0.75955662  1
  O2-  O174  1  0.93158110  0.32110039  0.09980059  1
  O2-  O175  1  0.93327041  0.32592301  0.42569679  1
  O2-  O176  1  0.93110007  0.32344509  0.75650825  1
  O2-  O177  1  0.93283570  0.82020625  0.10097953  1
  O2-  O178  1  0.93270509  0.82275936  0.42201123  1
  O2-  O179  1  0.93025570  0.82315233  0.76306947  1
  O2-  O180  1  0.31256428  0.07465570  0.24169998  1
  O2-  O181  1  0.31923095  0.07254870  0.57611533  1
  O2-  O182  1  0.31875467  0.07291264  0.91123679  1
  O2-  O183  1  0.32033917  0.56954505  0.24471478  1
  O2-  O184  1  0.32521884  0.57164055  0.57615409  1
  O2-  O185  1  0.31931996  0.56809181  0.90212616  1
  O2-  O186  1  0.82255958  0.07437546  0.23577192  1
  O2-  O187  1  0.81806326  0.07322365  0.57054981  1
  O2-  O188  1  0.81968912  0.06897017  0.90162611  1
  O2-  O189  1  0.82617764  0.56746537  0.24272871  1
  O2-  O190  1  0.81896855  0.56676704  0.56531878  1
  O2-  O191  1  0.82149601  0.57202136  0.90210622  1
  O2-  O192  1  0.04881450  0.08351649  0.27297361  1
  O2-  O193  1  0.04565378  0.08787784  0.60277435  1
  O2-  O194  1  0.04127702  0.08374530  0.93874015  1
  O2-  O195  1  0.03910780  0.58160269  0.26239702  1
  O2-  O196  1  0.04155947  0.57935886  0.60070839  1
  O2-  O197  1  0.05208286  0.58227468  0.94174750  1
  O2-  O198  1  0.54545020  0.08261393  0.26636211  1
  O2-  O199  1  0.54552794  0.08293425  0.60372866  1
  O2-  O200  1  0.54531031  0.07652560  0.92878072  1
  O2-  O201  1  0.54447304  0.58329374  0.26537019  1
  O2-  O202  1  0.54291367  0.58875367  0.60275235  1
  O2-  O203  1  0.53924159  0.58540583  0.93029244  1
  O2-  O204  1  0.15775829  0.21051557  0.26679586  1
  O2-  O205  1  0.16077292  0.21015719  0.60213122  1
  O2-  O206  1  0.16498955  0.19703427  0.93710084  1
  O2-  O207  1  0.16600315  0.70665953  0.26395827  1
  O2-  O208  1  0.17155848  0.70475614  0.60031234  1
  O2-  O209  1  0.16830052  0.70390185  0.94110043  1
  O2-  O210  1  0.67073132  0.21285040  0.26820984  1
  O2-  O211  1  0.66504429  0.20485151  0.60235834  1
  O2-  O212  1  0.66818941  0.20868826  0.92667095  1
  O2-  O213  1  0.67482840  0.70485032  0.26710503  1
  O2-  O214  1  0.66316747  0.70525966  0.60451423  1
  O2-  O215  1  0.66705394  0.71145033  0.93029261  1
  O2-  O216  1  0.08605480  0.45344431  0.06765393  1
  O2-  O217  1  0.08729761  0.45925204  0.39713018  1
  O2-  O218  1  0.08430170  0.45795808  0.73616448  1
  O2-  O219  1  0.08564238  0.96394597  0.07333449  1
  O2-  O220  1  0.08982527  0.95667555  0.39863215  1
  O2-  O221  1  0.08571539  0.96135333  0.73208912  1
  O2-  O222  1  0.58637169  0.45650674  0.06155537  1
  O2-  O223  1  0.58633805  0.45846371  0.39580643  1
  O2-  O224  1  0.58214249  0.45575985  0.72777092  1
  O2-  O225  1  0.57777260  0.94456430  0.05741512  1
  O2-  O226  1  0.57636436  0.95414948  0.39758081  1
  O2-  O227  1  0.57934920  0.95553697  0.73892947  1
  O2-  O228  1  0.19796143  0.32857329  0.06243945  1
  O2-  O229  1  0.20270871  0.33531174  0.39478424  1
  O2-  O230  1  0.20893015  0.33247962  0.73567600  1
  O2-  O231  1  0.20876507  0.83290382  0.07144372  1
  O2-  O232  1  0.20787596  0.83384600  0.39485964  1
  O2-  O233  1  0.21196640  0.83168985  0.73430356  1
  O2-  O234  1  0.70639859  0.33629281  0.06001635  1
  O2-  O235  1  0.70909231  0.34245006  0.39999492  1
  O2-  O236  1  0.69845315  0.33420434  0.72724757  1
  O2-  O237  1  0.70737188  0.83581317  0.06274652  1
  O2-  O238  1  0.70745695  0.83062134  0.40149695  1
  O2-  O239  1  0.70353529  0.82853557  0.73438190  1
  O2-  O240  1  0.45323342  0.42148139  0.26913557  1
  O2-  O241  1  0.45864871  0.41674253  0.59536542  1
  O2-  O242  1  0.45882467  0.41775528  0.92973385  1
  O2-  O243  1  0.44520473  0.92321382  0.26635169  1
  O2-  O244  1  0.45240801  0.91561647  0.60936420  1
  O2-  O245  1  0.44098764  0.91578419  0.93705377  1
  O2-  O246  1  0.96462703  0.40873023  0.26937946  1
  O2-  O247  1  0.96008893  0.41169668  0.60265181  1
  O2-  O248  1  0.96362711  0.41827278  0.93247411  1
  O2-  O249  1  0.95922076  0.91701756  0.27178025  1
  O2-  O250  1  0.95769887  0.92231225  0.59738537  1
  O2-  O251  1  0.96465773  0.91708047  0.93534233  1
  O2-  O252  1  0.32737110  0.29394385  0.26442930  1
  O2-  O253  1  0.33051942  0.28992245  0.59800471  1
  O2-  O254  1  0.32759376  0.29458842  0.93321025  1
  O2-  O255  1  0.33218767  0.78845425  0.26400561  1
  O2-  O256  1  0.33865222  0.79217023  0.60461786  1
  O2-  O257  1  0.33198978  0.78714289  0.93779831  1
  O2-  O258  1  0.83641548  0.30105221  0.27393703  1
  O2-  O259  1  0.83495594  0.29769057  0.60519553  1
  O2-  O260  1  0.83449513  0.29493525  0.92962395  1
  O2-  O261  1  0.83670548  0.79919266  0.27161066  1
  O2-  O262  1  0.82991423  0.79226002  0.59702819  1
  O2-  O263  1  0.83503000  0.79147273  0.93267347  1
  O2-  O264  1  0.41744411  0.04867021  0.06065419  1
  O2-  O265  1  0.41181980  0.05115351  0.39303438  1
  O2-  O266  1  0.41590426  0.05192195  0.72767875  1
  O2-  O267  1  0.41956403  0.53782089  0.06868973  1
  O2-  O268  1  0.41395131  0.54626760  0.39729416  1
  O2-  O269  1  0.41726975  0.54347442  0.72776208  1
  O2-  O270  1  0.91317056  0.03985268  0.06964359  1
  O2-  O271  1  0.92160066  0.04699506  0.40137878  1
  O2-  O272  1  0.92185713  0.04920770  0.73447274  1
  O2-  O273  1  0.91896267  0.54083257  0.06910649  1
  O2-  O274  1  0.91346251  0.53518851  0.39536427  1
  O2-  O275  1  0.91515235  0.53706633  0.73426709  1
  O2-  O276  1  0.29391006  0.16473466  0.06429196  1
  O2-  O277  1  0.28447657  0.16270803  0.39513445  1
  O2-  O278  1  0.29112755  0.16428414  0.72876367  1
  O2-  O279  1  0.29018787  0.66166279  0.07377431  1
  O2-  O280  1  0.28997526  0.66156025  0.39650893  1
  O2-  O281  1  0.30024021  0.66448647  0.72963933  1
  O2-  O282  1  0.79121148  0.17150086  0.06396315  1
  O2-  O283  1  0.79722620  0.17455143  0.40174917  1
  O2-  O284  1  0.79283542  0.17202942  0.73492091  1
  O2-  O285  1  0.78993498  0.66897181  0.06887392  1
  O2-  O286  1  0.80196125  0.66408983  0.39397781  1
  O2-  O287  1  0.79024293  0.66578533  0.73218520  1
