# generated using pymatgen
data_Ca2Al2SiO7
_symmetry_space_group_name_H-M   'P 1'
_cell_length_a   15.47138735
_cell_length_b   15.46910029
_cell_length_c   15.29269851
_cell_angle_alpha   90.00025160
_cell_angle_beta   89.99696282
_cell_angle_gamma   89.99864387
_symmetry_Int_Tables_number   1
_chemical_formula_structural   Ca2Al2SiO7
_chemical_formula_sum   'Ca48 Al48 Si24 O168'
_cell_volume   3659.97770920
_cell_formula_units_Z   24
loop_
 _symmetry_equiv_pos_site_id
 _symmetry_equiv_pos_as_xyz
  1  'x, y, z'
loop_
 _atom_type_symbol
 _atom_type_oxidation_number
  Ca2+  2.0
  Al0+  0.0
  Si0+  0.0
  O2-  -2.0
loop_
 _atom_site_type_symbol
 _atom_site_label
 _atom_site_symmetry_multiplicity
 _atom_site_fract_x
 _atom_site_fract_y
 _atom_site_fract_z
 _atom_site_occupancy
  Ca2+  Ca0  1  0.15769755  0.07753722  0.17136261  1
  Ca2+  Ca1  1  0.16520989  0.08342901  0.50416358  1
  Ca2+  Ca2  1  0.16464031  0.08655782  0.83561633  1
  Ca2+  Ca3  1  0.15971183  0.57371384  0.16958176  1
  Ca2+  Ca4  1  0.16643584  0.57113423  0.50672722  1
  Ca2+  Ca5  1  0.17170899  0.57539777  0.84516120  1
  Ca2+  Ca6  1  0.67340936  0.08132056  0.16172388  1
  Ca2+  Ca7  1  0.66955482  0.08070669  0.50478554  1
  Ca2+  Ca8  1  0.67655923  0.07498119  0.84753142  1
  Ca2+  Ca9  1  0.66939549  0.58410652  0.15779722  1
  Ca2+  Ca10  1  0.67348082  0.58189448  0.50695349  1
  Ca2+  Ca11  1  0.67663700  0.58388002  0.84453063  1
  Ca2+  Ca12  1  0.08749624  0.32432377  0.15747703  1
  Ca2+  Ca13  1  0.09615810  0.32578532  0.49700278  1
  Ca2+  Ca14  1  0.09189383  0.32716009  0.83423317  1
  Ca2+  Ca15  1  0.08623011  0.82130413  0.15853157  1
  Ca2+  Ca16  1  0.08073558  0.82746491  0.49396794  1
  Ca2+  Ca17  1  0.07359373  0.82304431  0.83559762  1
  Ca2+  Ca18  1  0.57209862  0.34116087  0.15706241  1
  Ca2+  Ca19  1  0.57203704  0.33291025  0.49139278  1
  Ca2+  Ca20  1  0.57614344  0.34772973  0.83689150  1
  Ca2+  Ca21  1  0.57676477  0.82928289  0.15287657  1
  Ca2+  Ca22  1  0.57833450  0.83064808  0.49689680  1
  Ca2+  Ca23  1  0.58339016  0.83121639  0.83938929  1
  Ca2+  Ca24  1  0.32560103  0.41639847  0.16507913  1
  Ca2+  Ca25  1  0.32347419  0.41709001  0.50525581  1
  Ca2+  Ca26  1  0.32445085  0.42419678  0.83997286  1
  Ca2+  Ca27  1  0.32731151  0.91552616  0.16945753  1
  Ca2+  Ca28  1  0.32178225  0.92314907  0.50484072  1
  Ca2+  Ca29  1  0.33794117  0.92502985  0.83973958  1
  Ca2+  Ca30  1  0.83851921  0.41872036  0.16087054  1
  Ca2+  Ca31  1  0.83256350  0.42509846  0.50725379  1
  Ca2+  Ca32  1  0.83037688  0.42477810  0.84728477  1
  Ca2+  Ca33  1  0.83848480  0.91743918  0.15994319  1
  Ca2+  Ca34  1  0.83535911  0.91567078  0.50663607  1
  Ca2+  Ca35  1  0.83645896  0.91825092  0.84673533  1
  Ca2+  Ca36  1  0.41388966  0.18182192  0.15984987  1
  Ca2+  Ca37  1  0.41161781  0.17158631  0.49600872  1
  Ca2+  Ca38  1  0.41362262  0.17306550  0.83143996  1
  Ca2+  Ca39  1  0.41968987  0.67066026  0.14947682  1
  Ca2+  Ca40  1  0.41425394  0.66215578  0.49836887  1
  Ca2+  Ca41  1  0.41785918  0.66074296  0.83633319  1
  Ca2+  Ca42  1  0.92692827  0.17076502  0.15488707  1
  Ca2+  Ca43  1  0.93046387  0.17076626  0.49587225  1
  Ca2+  Ca44  1  0.92458183  0.17000931  0.83467304  1
  Ca2+  Ca45  1  0.92793576  0.66882404  0.15586698  1
  Ca2+  Ca46  1  0.92070537  0.66888881  0.49850847  1
  Ca2+  Ca47  1  0.90864025  0.67183332  0.83155016  1
  Al0+  Al48  1  0.00230289  -0.00083035  -0.00266440  1
  Al0+  Al49  1  -0.00160644  0.00046618  0.33639387  1
  Al0+  Al50  1  -0.00081716  0.00029653  0.65827870  1
  Al0+  Al51  1  0.00120592  0.49667293  0.00272718  1
  Al0+  Al52  1  -0.00028960  0.50042647  0.33770614  1
  Al0+  Al53  1  -0.00226059  0.49949744  0.67458822  1
  Al0+  Al54  1  0.50066494  0.00143770  0.00246847  1
  Al0+  Al55  1  0.50242756  -0.00001647  0.33468677  1
  Al0+  Al56  1  0.49904591  -0.00059325  0.66700143  1
  Al0+  Al57  1  0.49994504  0.50210206  -0.00237690  1
  Al0+  Al58  1  0.50187022  0.50045608  0.33007859  1
  Al0+  Al59  1  0.49886439  0.49990619  0.66462055  1
  Al0+  Al60  1  0.25322663  0.25068172  -0.00548134  1
  Al0+  Al61  1  0.25147107  0.25061038  0.32792063  1
  Al0+  Al62  1  0.25116779  0.24839653  0.66883402  1
  Al0+  Al63  1  0.25082890  0.75319071  -0.00772493  1
  Al0+  Al64  1  0.24977215  0.75129883  0.33580414  1
  Al0+  Al65  1  0.24981980  0.75082034  0.66796495  1
  Al0+  Al66  1  0.75081011  0.24871550  0.00604337  1
  Al0+  Al67  1  0.74953441  0.24971617  0.33628541  1
  Al0+  Al68  1  0.74946166  0.24781092  0.66507799  1
  Al0+  Al69  1  0.74805361  0.75050133  0.00339570  1
  Al0+  Al70  1  0.74874120  0.75148610  0.33516008  1
  Al0+  Al71  1  0.74737362  0.74969473  0.66311839  1
  Al0+  Al72  1  0.17986590  0.42863032  0.34724968  1
  Al0+  Al73  1  0.17856817  0.42798196  0.68262307  1
  Al0+  Al74  1  0.67865566  0.42857869  0.01509323  1
  Al0+  Al75  1  0.07248987  0.17851224  0.98396886  1
  Al0+  Al76  1  0.82502712  0.07062557  0.01531295  1
  Al0+  Al77  1  0.82330714  0.57214224  0.01670406  1
  Al0+  Al78  1  0.57026080  0.67960126  0.98394542  1
  Al0+  Al79  1  0.67857181  0.92894181  0.01609145  1
  Al0+  Al80  1  0.07088025  0.67906178  0.32221530  1
  Al0+  Al81  1  0.17759987  0.92806603  0.34703422  1
  Al0+  Al82  1  0.31924560  0.57337567  0.01488545  1
  Al0+  Al83  1  0.07270279  0.67529260  0.98549295  1
  Al0+  Al84  1  0.92824024  0.81875343  0.65226901  1
  Al0+  Al85  1  0.42759249  0.82439492  0.98421321  1
  Al0+  Al86  1  0.43089617  0.32207685  0.98338354  1
  Al0+  Al87  1  0.32217619  0.57276775  0.68156367  1
  Al0+  Al88  1  0.07076147  0.18218994  0.65088413  1
  Al0+  Al89  1  0.43047607  0.32038032  0.31873461  1
  Al0+  Al90  1  0.17971450  0.42747130  0.01668600  1
  Al0+  Al91  1  0.81847397  0.57123969  0.67961168  1
  Al0+  Al92  1  0.32020590  0.06871899  0.68002637  1
  Al0+  Al93  1  0.92999014  0.81810896  0.98785018  1
  Al0+  Al94  1  0.92715239  0.32066496  0.98600078  1
  Al0+  Al95  1  0.07012727  0.17986292  0.31970962  1
  Si0+  Si96  1  0.07272815  0.67592551  0.65065278  1
  Si0+  Si97  1  0.43174288  0.31957914  0.65032937  1
  Si0+  Si98  1  0.67902362  0.92938939  0.35159468  1
  Si0+  Si99  1  0.57212462  0.17822383  0.98404160  1
  Si0+  Si100  1  0.32258896  0.07209666  0.01561274  1
  Si0+  Si101  1  0.67807303  0.42592078  0.68007934  1
  Si0+  Si102  1  0.92444883  0.32293965  0.65001823  1
  Si0+  Si103  1  0.67706349  0.42923669  0.34927654  1
  Si0+  Si104  1  0.92554857  0.32280526  0.31885455  1
  Si0+  Si105  1  0.42958781  0.82146097  0.32071960  1
  Si0+  Si106  1  0.82068674  0.07195644  0.35167745  1
  Si0+  Si107  1  0.57169686  0.68029951  0.31873430  1
  Si0+  Si108  1  0.57456820  0.17662582  0.31601706  1
  Si0+  Si109  1  0.57182414  0.17538501  0.65129167  1
  Si0+  Si110  1  0.32427175  0.57256304  0.34806675  1
  Si0+  Si111  1  0.42778424  0.82468823  0.64903594  1
  Si0+  Si112  1  0.92615111  0.82180163  0.31716249  1
  Si0+  Si113  1  0.82131043  0.06978250  0.68037384  1
  Si0+  Si114  1  0.18016268  0.93094485  0.01292962  1
  Si0+  Si115  1  0.81950521  0.57173721  0.34951269  1
  Si0+  Si116  1  0.32250450  0.07088808  0.34780521  1
  Si0+  Si117  1  0.56805912  0.68001972  0.64952145  1
  Si0+  Si118  1  0.17486777  0.92830860  0.68407692  1
  Si0+  Si119  1  0.67842515  0.92931544  0.68058304  1
  O2-  O120  1  0.25096419  0.00183455  0.05668913  1
  O2-  O121  1  0.25197267  0.00441203  0.39270455  1
  O2-  O122  1  0.24630538  -0.00569811  0.72791972  1
  O2-  O123  1  0.24623756  0.50462871  0.06732972  1
  O2-  O124  1  0.25463591  0.50498140  0.39243379  1
  O2-  O125  1  0.24484155  0.50656846  0.72978741  1
  O2-  O126  1  0.75315821  -0.00171125  0.06615356  1
  O2-  O127  1  0.74999024  -0.00007214  0.39463658  1
  O2-  O128  1  0.75084294  -0.00163161  0.72182580  1
  O2-  O129  1  0.75296331  0.49745569  0.06661106  1
  O2-  O130  1  0.74949959  0.49862542  0.39161798  1
  O2-  O131  1  0.74964484  0.49054121  0.72338088  1
  O2-  O132  1  -0.00416279  0.25564024  0.27603126  1
  O2-  O133  1  -0.00220517  0.25964910  0.60454793  1
  O2-  O134  1  0.00143813  0.25189894  0.93483217  1
  O2-  O135  1  -0.00236733  0.75560557  0.27590706  1
  O2-  O136  1  0.00399105  0.74502346  0.60543679  1
  O2-  O137  1  -0.00640358  0.74010778  0.93578495  1
  O2-  O138  1  0.50624513  0.24541151  0.27331361  1
  O2-  O139  1  0.50353244  0.24855474  0.60795999  1
  O2-  O140  1  0.50918776  0.25026104  0.93690369  1
  O2-  O141  1  0.49611115  0.74683383  0.27886710  1
  O2-  O142  1  0.49378947  0.74815332  0.60667892  1
  O2-  O143  1  0.49731544  0.75068567  0.93350800  1
  O2-  O144  1  0.07200185  0.17656703  0.09784982  1
  O2-  O145  1  0.06960218  0.18057598  0.43316816  1
  O2-  O146  1  0.06871712  0.17935016  0.76279900  1
  O2-  O147  1  0.07406431  0.68064359  0.09959278  1
  O2-  O148  1  0.06741068  0.67916283  0.43580615  1
  O2-  O149  1  0.07266789  0.67826131  0.75533578  1
  O2-  O150  1  0.56670208  0.17642059  0.08982556  1
  O2-  O151  1  0.57521452  0.17669844  0.42239659  1
  O2-  O152  1  0.57264259  0.17180108  0.75527529  1
  O2-  O153  1  0.56816169  0.68159556  0.09839034  1
  O2-  O154  1  0.57309698  0.68192161  0.42464339  1
  O2-  O155  1  0.57079150  0.68069539  0.75326324  1
  O2-  O156  1  0.17974909  0.42733237  0.23541256  1
  O2-  O157  1  0.18326004  0.42697202  0.56800602  1
  O2-  O158  1  0.18479121  0.42472812  0.90346007  1
  O2-  O159  1  0.18066423  0.92728350  0.23418138  1
  O2-  O160  1  0.17704769  0.92952186  0.57779130  1
  O2-  O161  1  0.17980301  0.93306665  0.90789941  1
  O2-  O162  1  0.67410232  0.42957214  0.24550387  1
  O2-  O163  1  0.67725122  0.42785209  0.57350891  1
  O2-  O164  1  0.67927486  0.43131898  0.90101380  1
  O2-  O165  1  0.67602220  0.92838326  0.24792580  1
  O2-  O166  1  0.67777800  0.93115951  0.57454482  1
  O2-  O167  1  0.67747619  0.93268490  0.90195296  1
  O2-  O168  1  0.43035670  0.31909232  0.09669072  1
  O2-  O169  1  0.43235661  0.31832639  0.43277968  1
  O2-  O170  1  0.43480229  0.32007487  0.75465626  1
  O2-  O171  1  0.42877219  0.82542510  0.09875031  1
  O2-  O172  1  0.43284034  0.82272643  0.42627773  1
  O2-  O173  1  0.43289143  0.83207440  0.75254084  1
  O2-  O174  1  0.92822344  0.31663963  0.10023373  1
  O2-  O175  1  0.92163751  0.32067417  0.42488936  1
  O2-  O176  1  0.91578897  0.31727891  0.75398640  1
  O2-  O177  1  0.93604568  0.82062719  0.10167173  1
  O2-  O178  1  0.92303536  0.81902906  0.42328096  1
  O2-  O179  1  0.92561099  0.81957076  0.76426943  1
  O2-  O180  1  0.32608765  0.06768771  0.24273135  1
  O2-  O181  1  0.32115762  0.06767363  0.56632607  1
  O2-  O182  1  0.32431223  0.07041812  0.91036283  1
  O2-  O183  1  0.32713342  0.57342051  0.24349972  1
  O2-  O184  1  0.32512749  0.56823641  0.56700922  1
  O2-  O185  1  0.31855071  0.57018737  0.90137151  1
  O2-  O186  1  0.81996127  0.07252476  0.24761194  1
  O2-  O187  1  0.81783408  0.06987435  0.57464052  1
  O2-  O188  1  0.82344278  0.06846507  0.90107651  1
  O2-  O189  1  0.81865114  0.57412975  0.24560607  1
  O2-  O190  1  0.81458638  0.57145797  0.56528470  1
  O2-  O191  1  0.81784488  0.57353057  0.90311231  1
  O2-  O192  1  0.03752801  0.08221521  0.26890590  1
  O2-  O193  1  0.03737466  0.08666524  0.59476264  1
  O2-  O194  1  0.04332111  0.08099774  0.93031060  1
  O2-  O195  1  0.03785289  0.58266907  0.27002939  1
  O2-  O196  1  0.04529192  0.58151354  0.60622371  1
  O2-  O197  1  0.05427377  0.57370106  0.93833986  1
  O2-  O198  1  0.55008769  0.08209828  0.27198392  1
  O2-  O199  1  0.54150590  0.08518163  0.60039533  1
  O2-  O200  1  0.54169855  0.08692221  0.93645219  1
  O2-  O201  1  0.55090661  0.58692266  0.27315552  1
  O2-  O202  1  0.54266749  0.58739542  0.60023905  1
  O2-  O203  1  0.54364146  0.58240928  0.92887627  1
  O2-  O204  1  0.16762743  0.20529412  0.26650629  1
  O2-  O205  1  0.16950741  0.21019875  0.59779342  1
  O2-  O206  1  0.17105473  0.20553534  0.93099975  1
  O2-  O207  1  0.16843087  0.70894545  0.27020791  1
  O2-  O208  1  0.16692546  0.70137879  0.60398168  1
  O2-  O209  1  0.16572418  0.71350336  0.92890828  1
  O2-  O210  1  0.66864829  0.20158515  0.27179563  1
  O2-  O211  1  0.66416604  0.20057522  0.60179625  1
  O2-  O212  1  0.66848292  0.19613043  0.94230100  1
  O2-  O213  1  0.66156799  0.71366562  0.27219663  1
  O2-  O214  1  0.65697382  0.71225223  0.59771900  1
  O2-  O215  1  0.66776449  0.71083000  0.93165425  1
  O2-  O216  1  0.07957707  0.44659447  0.06915707  1
  O2-  O217  1  0.08265127  0.45721196  0.40305612  1
  O2-  O218  1  0.07703414  0.44515630  0.73186407  1
  O2-  O219  1  0.09014236  0.95886910  0.06281174  1
  O2-  O220  1  0.08048575  0.95678125  0.40189015  1
  O2-  O221  1  0.08178658  0.95850737  0.72691846  1
  O2-  O222  1  0.58163384  0.46238911  0.06777464  1
  O2-  O223  1  0.58682894  0.46005650  0.39978022  1
  O2-  O224  1  0.58542850  0.45550677  0.72403086  1
  O2-  O225  1  0.58200900  0.96283992  0.07126022  1
  O2-  O226  1  0.58771011  0.95816434  0.40184168  1
  O2-  O227  1  0.58762136  0.95870344  0.72698412  1
  O2-  O228  1  0.21671755  0.32978991  0.06734034  1
  O2-  O229  1  0.21537243  0.33198319  0.39994596  1
  O2-  O230  1  0.21432607  0.33204567  0.73396146  1
  O2-  O231  1  0.20938012  0.83973467  0.06017241  1
  O2-  O232  1  0.21122997  0.83369716  0.40524732  1
  O2-  O233  1  0.19694627  0.83342299  0.72726403  1
  O2-  O234  1  0.69990412  0.32897954  0.06874168  1
  O2-  O235  1  0.70144622  0.33594613  0.39717503  1
  O2-  O236  1  0.69668057  0.32998885  0.72341133  1
  O2-  O237  1  0.70223709  0.83110038  0.07077869  1
  O2-  O238  1  0.70673698  0.83765700  0.40104156  1
  O2-  O239  1  0.70297823  0.83625232  0.72451048  1
  O2-  O240  1  0.46315932  0.41670759  0.26625155  1
  O2-  O241  1  0.46015109  0.41057804  0.60031911  1
  O2-  O242  1  0.46122867  0.41780198  0.92894310  1
  O2-  O243  1  0.46143553  0.91229658  0.27409900  1
  O2-  O244  1  0.46250651  0.91303787  0.59728907  1
  O2-  O245  1  0.46097793  0.92221361  0.93206881  1
  O2-  O246  1  0.94810973  0.41798930  0.27683172  1
  O2-  O247  1  0.94451437  0.41966109  0.60767706  1
  O2-  O248  1  0.94906512  0.42085977  0.93587184  1
  O2-  O249  1  0.94742391  0.91755758  0.27585997  1
  O2-  O250  1  0.95747142  0.91493156  0.59523230  1
  O2-  O251  1  0.96415922  0.91377935  0.93306687  1
  O2-  O252  1  0.33652447  0.28815742  0.26243977  1
  O2-  O253  1  0.34096592  0.28821321  0.60359859  1
  O2-  O254  1  0.33850482  0.28543539  0.92664761  1
  O2-  O255  1  0.33615879  0.79974486  0.27535961  1
  O2-  O256  1  0.33364809  0.80211314  0.60292592  1
  O2-  O257  1  0.33037697  0.80240453  0.92767547  1
  O2-  O258  1  0.83169657  0.29622067  0.27383835  1
  O2-  O259  1  0.83254574  0.29269887  0.59932196  1
  O2-  O260  1  0.82810452  0.29104216  0.93435446  1
  O2-  O261  1  0.83243724  0.79489608  0.27234635  1
  O2-  O262  1  0.83108997  0.78835914  0.59600140  1
  O2-  O263  1  0.82828097  0.79931655  0.93901496  1
  O2-  O264  1  0.41296567  0.04451660  0.06525628  1
  O2-  O265  1  0.41623751  0.04437181  0.39566827  1
  O2-  O266  1  0.41720424  0.03822217  0.73352305  1
  O2-  O267  1  0.41824839  0.54420705  0.06524712  1
  O2-  O268  1  0.41868172  0.54629697  0.39463397  1
  O2-  O269  1  0.41994342  0.53951392  0.73247867  1
  O2-  O270  1  0.92242082  0.03880939  0.06878633  1
  O2-  O271  1  0.91130042  0.04384193  0.40141736  1
  O2-  O272  1  0.91354336  0.04188894  0.72440437  1
  O2-  O273  1  0.92135701  0.54464066  0.07051137  1
  O2-  O274  1  0.91010336  0.54469207  0.39981145  1
  O2-  O275  1  0.91600890  0.55019454  0.73340970  1
  O2-  O276  1  0.29547002  0.16407657  0.06141112  1
  O2-  O277  1  0.29790964  0.16499261  0.39258994  1
  O2-  O278  1  0.29248299  0.16490795  0.73416924  1
  O2-  O279  1  0.29743002  0.67620489  0.06179810  1
  O2-  O280  1  0.30148476  0.66684351  0.39487933  1
  O2-  O281  1  0.30592309  0.67582281  0.72872238  1
  O2-  O282  1  0.79471490  0.16631430  0.07199452  1
  O2-  O283  1  0.79103067  0.16296872  0.40131202  1
  O2-  O284  1  0.79249981  0.16138484  0.72675899  1
  O2-  O285  1  0.79111547  0.66873916  0.07117559  1
  O2-  O286  1  0.78735814  0.66274618  0.39794866  1
  O2-  O287  1  0.78009494  0.66611116  0.73091129  1
