# generated using pymatgen
data_Ca2Al2SiO7
_symmetry_space_group_name_H-M   'P 1'
_cell_length_a   15.45771445
_cell_length_b   15.45642879
_cell_length_c   15.28175893
_cell_angle_alpha   89.99483923
_cell_angle_beta   90.01824887
_cell_angle_gamma   89.99076904
_symmetry_Int_Tables_number   1
_chemical_formula_structural   Ca2Al2SiO7
_chemical_formula_sum   'Ca48 Al48 Si24 O168'
_cell_volume   3651.13383283
_cell_formula_units_Z   24
loop_
 _symmetry_equiv_pos_site_id
 _symmetry_equiv_pos_as_xyz
  1  'x, y, z'
loop_
 _atom_type_symbol
 _atom_type_oxidation_number
  Ca2+  2.0
  Al0+  0.0
  Si0+  0.0
  O2-  -2.0
loop_
 _atom_site_type_symbol
 _atom_site_label
 _atom_site_symmetry_multiplicity
 _atom_site_fract_x
 _atom_site_fract_y
 _atom_site_fract_z
 _atom_site_occupancy
  Ca2+  Ca0  1  0.15903773  0.07238034  0.17181437  1
  Ca2+  Ca1  1  0.15955285  0.07911423  0.50301095  1
  Ca2+  Ca2  1  0.16711656  0.08059588  0.84212268  1
  Ca2+  Ca3  1  0.16100601  0.57779572  0.16508503  1
  Ca2+  Ca4  1  0.17193686  0.58197468  0.51122088  1
  Ca2+  Ca5  1  0.17008615  0.58784375  0.83853703  1
  Ca2+  Ca6  1  0.66718155  0.08234583  0.17014046  1
  Ca2+  Ca7  1  0.66852047  0.08624952  0.50643807  1
  Ca2+  Ca8  1  0.65822062  0.07589440  0.83836248  1
  Ca2+  Ca9  1  0.66762144  0.58093950  0.16925944  1
  Ca2+  Ca10  1  0.67793192  0.57887140  0.51285054  1
  Ca2+  Ca11  1  0.66492624  0.57377750  0.83931238  1
  Ca2+  Ca12  1  0.08211670  0.32330003  0.15772142  1
  Ca2+  Ca13  1  0.08463862  0.31987218  0.49690023  1
  Ca2+  Ca14  1  0.09129896  0.32368219  0.82985366  1
  Ca2+  Ca15  1  0.08445915  0.83165571  0.15790804  1
  Ca2+  Ca16  1  0.07810830  0.82910714  0.50089171  1
  Ca2+  Ca17  1  0.07880616  0.82623337  0.82668886  1
  Ca2+  Ca18  1  0.58965621  0.32343105  0.16001200  1
  Ca2+  Ca19  1  0.58525172  0.33146119  0.50091394  1
  Ca2+  Ca20  1  0.58849702  0.32654082  0.82616524  1
  Ca2+  Ca21  1  0.57868988  0.82872272  0.15219484  1
  Ca2+  Ca22  1  0.57846377  0.84059786  0.50250033  1
  Ca2+  Ca23  1  0.57565106  0.83749742  0.82826315  1
  Ca2+  Ca24  1  0.32662560  0.41443193  0.16465550  1
  Ca2+  Ca25  1  0.33578293  0.42146460  0.51098499  1
  Ca2+  Ca26  1  0.33275947  0.42057396  0.83556299  1
  Ca2+  Ca27  1  0.32355080  0.91258344  0.16541369  1
  Ca2+  Ca28  1  0.32773738  0.91601442  0.50512443  1
  Ca2+  Ca29  1  0.33136052  0.91379659  0.83986435  1
  Ca2+  Ca30  1  0.82899492  0.42280273  0.16910954  1
  Ca2+  Ca31  1  0.83048692  0.42699357  0.50848187  1
  Ca2+  Ca32  1  0.82502264  0.41914870  0.83440220  1
  Ca2+  Ca33  1  0.82645678  0.92219121  0.16978289  1
  Ca2+  Ca34  1  0.82826975  0.92191719  0.50794489  1
  Ca2+  Ca35  1  0.82254503  0.91105228  0.83289392  1
  Ca2+  Ca36  1  0.42931715  0.16419604  0.16168474  1
  Ca2+  Ca37  1  0.43013968  0.17121663  0.50111705  1
  Ca2+  Ca38  1  0.42699232  0.17397056  0.82633199  1
  Ca2+  Ca39  1  0.42349684  0.67487967  0.15602244  1
  Ca2+  Ca40  1  0.41295161  0.67044056  0.50316502  1
  Ca2+  Ca41  1  0.41720268  0.67657954  0.82935809  1
  Ca2+  Ca42  1  0.92413179  0.15931341  0.16514897  1
  Ca2+  Ca43  1  0.92360470  0.16141230  0.49527586  1
  Ca2+  Ca44  1  0.92915937  0.16502490  0.83016016  1
  Ca2+  Ca45  1  0.91980896  0.66686322  0.16081112  1
  Ca2+  Ca46  1  0.91044689  0.66831419  0.50085956  1
  Ca2+  Ca47  1  0.92686777  0.66691671  0.82447383  1
  Al0+  Al48  1  0.00015684  0.00034034  -0.00096025  1
  Al0+  Al49  1  -0.00252195  -0.00292005  0.33773294  1
  Al0+  Al50  1  -0.00074863  -0.00303946  0.66097042  1
  Al0+  Al51  1  0.00056178  0.49989789  0.00036157  1
  Al0+  Al52  1  0.00028038  0.49934308  0.33829021  1
  Al0+  Al53  1  0.00203113  0.49681311  0.66710223  1
  Al0+  Al54  1  0.49947787  0.00101310  -0.00141636  1
  Al0+  Al55  1  0.49587863  0.00025931  0.32786468  1
  Al0+  Al56  1  0.49833814  0.00101292  0.66094896  1
  Al0+  Al57  1  0.50027917  0.50031924  0.00466580  1
  Al0+  Al58  1  0.49778988  0.50063859  0.33203739  1
  Al0+  Al59  1  0.49861356  0.50100410  0.67220744  1
  Al0+  Al60  1  0.25185063  0.25046239  0.00250833  1
  Al0+  Al61  1  0.25075882  0.24816092  0.32890455  1
  Al0+  Al62  1  0.25289735  0.24842130  0.65733644  1
  Al0+  Al63  1  0.25010482  0.75105143  -0.00119668  1
  Al0+  Al64  1  0.24828338  0.74963428  0.33657756  1
  Al0+  Al65  1  0.24960588  0.74933916  0.66281704  1
  Al0+  Al66  1  0.75237041  0.25140511  0.00055461  1
  Al0+  Al67  1  0.75059218  0.25034744  0.33323581  1
  Al0+  Al68  1  0.75484564  0.24932458  0.66751228  1
  Al0+  Al69  1  0.74960981  0.75038886  0.00170039  1
  Al0+  Al70  1  0.74924093  0.75002756  0.33587568  1
  Al0+  Al71  1  0.75109741  0.75223390  0.67107306  1
  Al0+  Al72  1  0.17887626  0.92976946  0.01128442  1
  Al0+  Al73  1  0.42978115  0.82099062  0.98469658  1
  Al0+  Al74  1  0.17892522  0.42818098  0.01320202  1
  Al0+  Al75  1  0.42876464  0.82121958  0.65094907  1
  Al0+  Al76  1  0.57158633  0.18049818  0.31816089  1
  Al0+  Al77  1  0.07195911  0.17806089  0.65252402  1
  Al0+  Al78  1  0.43072290  0.32366979  0.65272025  1
  Al0+  Al79  1  0.57353287  0.67697272  0.98489432  1
  Al0+  Al80  1  0.17903221  0.92875529  0.34921533  1
  Al0+  Al81  1  0.31957770  0.57239972  0.68187534  1
  Al0+  Al82  1  0.57291181  0.18100219  0.98644986  1
  Al0+  Al83  1  0.67849066  0.42849862  0.01566451  1
  Al0+  Al84  1  0.81869079  0.07043126  0.34696870  1
  Al0+  Al85  1  0.67731169  0.93296342  0.67968429  1
  Al0+  Al86  1  0.07177365  0.17864942  0.98766005  1
  Al0+  Al87  1  0.82401790  0.57256733  0.68450192  1
  Al0+  Al88  1  0.06941368  0.67883091  0.98817305  1
  Al0+  Al89  1  0.82071805  0.57152011  0.34743503  1
  Al0+  Al90  1  0.67950951  0.42845869  0.68209575  1
  Al0+  Al91  1  0.92649415  0.81905212  0.65045770  1
  Al0+  Al92  1  0.57373482  0.17934176  0.65234318  1
  Al0+  Al93  1  0.07095876  0.67680739  0.65069963  1
  Al0+  Al94  1  0.06937068  0.17712769  0.31773915  1
  Al0+  Al95  1  0.67756623  0.92956414  0.01350408  1
  Si0+  Si96  1  0.17962386  0.42685861  0.34865271  1
  Si0+  Si97  1  0.67684462  0.42881278  0.34953932  1
  Si0+  Si98  1  0.32000734  0.07092922  0.68004732  1
  Si0+  Si99  1  0.32281710  0.07246012  0.35128660  1
  Si0+  Si100  1  0.92988639  0.32421701  0.31626368  1
  Si0+  Si101  1  0.82226105  0.07216919  0.01562434  1
  Si0+  Si102  1  0.82233678  0.57209052  0.01671976  1
  Si0+  Si103  1  0.42621039  0.81956833  0.31748878  1
  Si0+  Si104  1  0.32075866  0.57312904  0.01847568  1
  Si0+  Si105  1  0.92717404  0.82366281  0.98473819  1
  Si0+  Si106  1  0.31995537  0.57015222  0.34789623  1
  Si0+  Si107  1  0.17881401  0.92982360  0.68124671  1
  Si0+  Si108  1  0.92887692  0.32116566  0.64897440  1
  Si0+  Si109  1  0.07133883  0.67841160  0.31832471  1
  Si0+  Si110  1  0.32197071  0.07323276  0.01707352  1
  Si0+  Si111  1  0.67470631  0.92845545  0.34865831  1
  Si0+  Si112  1  0.57092953  0.67968925  0.32051574  1
  Si0+  Si113  1  0.42786307  0.32259089  0.98489717  1
  Si0+  Si114  1  0.57177993  0.67852494  0.65148428  1
  Si0+  Si115  1  0.42798999  0.32522402  0.31381174  1
  Si0+  Si116  1  0.92954297  0.32302151  0.98312188  1
  Si0+  Si117  1  0.92763805  0.81911153  0.31738506  1
  Si0+  Si118  1  0.82536301  0.07155061  0.68473140  1
  Si0+  Si119  1  0.18022862  0.42446649  0.68151253  1
  O2-  O120  1  0.25074695  0.00619117  0.06046400  1
  O2-  O121  1  0.25128538  0.00642319  0.39562317  1
  O2-  O122  1  0.24821748  0.00171480  0.72371946  1
  O2-  O123  1  0.25206839  0.50374427  0.06257070  1
  O2-  O124  1  0.25205349  0.49639555  0.39027587  1
  O2-  O125  1  0.24418265  0.49714420  0.72624391  1
  O2-  O126  1  0.75150485  0.00522009  0.05995788  1
  O2-  O127  1  0.73915330  0.00062950  0.39290837  1
  O2-  O128  1  0.75140863  0.00815979  0.72771268  1
  O2-  O129  1  0.75029642  0.50685124  0.06170903  1
  O2-  O130  1  0.74469204  0.49810253  0.39331292  1
  O2-  O131  1  0.74907387  0.50284340  0.73286681  1
  O2-  O132  1  -0.00411054  0.25321302  0.27090663  1
  O2-  O133  1  -0.00283806  0.25188928  0.60489439  1
  O2-  O134  1  0.00026080  0.25545982  0.94003617  1
  O2-  O135  1  -0.00144792  0.74740631  0.27556745  1
  O2-  O136  1  -0.00501127  0.74373488  0.59912603  1
  O2-  O137  1  -0.00554008  0.75285265  0.94243159  1
  O2-  O138  1  0.49791830  0.25698848  0.27122623  1
  O2-  O139  1  0.50721563  0.25665708  0.60251785  1
  O2-  O140  1  0.50067807  0.25856610  0.94127057  1
  O2-  O141  1  0.50162422  0.75227350  0.27742139  1
  O2-  O142  1  0.50456831  0.74743800  0.60379553  1
  O2-  O143  1  0.50383512  0.75105672  0.93506288  1
  O2-  O144  1  0.06785443  0.17719478  0.10083879  1
  O2-  O145  1  0.06808271  0.17916095  0.43076824  1
  O2-  O146  1  0.07304746  0.17882998  0.76583833  1
  O2-  O147  1  0.06712357  0.67904835  0.10237036  1
  O2-  O148  1  0.07343497  0.67905841  0.42277309  1
  O2-  O149  1  0.07294312  0.68146711  0.76427993  1
  O2-  O150  1  0.57148572  0.18093846  0.10011017  1
  O2-  O151  1  0.57056327  0.18118050  0.43077187  1
  O2-  O152  1  0.56901076  0.17783327  0.76578719  1
  O2-  O153  1  0.57087277  0.67877300  0.09994984  1
  O2-  O154  1  0.56971266  0.67854777  0.42528320  1
  O2-  O155  1  0.56886366  0.67960215  0.75661212  1
  O2-  O156  1  0.17857982  0.42882524  0.24343588  1
  O2-  O157  1  0.18314466  0.42406732  0.57526293  1
  O2-  O158  1  0.18215986  0.42618919  0.90067035  1
  O2-  O159  1  0.18085803  0.92605171  0.23589740  1
  O2-  O160  1  0.18002469  0.93107803  0.57575201  1
  O2-  O161  1  0.17904511  0.93120199  0.89829986  1
  O2-  O162  1  0.67751443  0.43055541  0.24377058  1
  O2-  O163  1  0.68149171  0.43038661  0.56770860  1
  O2-  O164  1  0.68141400  0.42645015  0.90333199  1
  O2-  O165  1  0.67710336  0.92616659  0.24297766  1
  O2-  O166  1  0.67725121  0.93547924  0.56592662  1
  O2-  O167  1  0.67746531  0.93090851  0.90078041  1
  O2-  O168  1  0.42637920  0.31938492  0.09097319  1
  O2-  O169  1  0.42822810  0.32903539  0.41889666  1
  O2-  O170  1  0.42552591  0.31902791  0.76593926  1
  O2-  O171  1  0.42878054  0.81795187  0.09930931  1
  O2-  O172  1  0.42507306  0.81852737  0.42252808  1
  O2-  O173  1  0.42753695  0.82210691  0.76329136  1
  O2-  O174  1  0.93018281  0.32347787  0.08913812  1
  O2-  O175  1  0.93364476  0.32617937  0.42152151  1
  O2-  O176  1  0.92912770  0.32019780  0.75455576  1
  O2-  O177  1  0.92843703  0.82409030  0.09114516  1
  O2-  O178  1  0.92679880  0.81790620  0.42187060  1
  O2-  O179  1  0.93128120  0.82287941  0.76400301  1
  O2-  O180  1  0.32497852  0.06991649  0.24571234  1
  O2-  O181  1  0.31920715  0.06908733  0.57473476  1
  O2-  O182  1  0.32072783  0.07462559  0.91136663  1
  O2-  O183  1  0.31917130  0.57145795  0.24293662  1
  O2-  O184  1  0.31789031  0.57152542  0.56766192  1
  O2-  O185  1  0.31977532  0.57375939  0.91329736  1
  O2-  O186  1  0.82002022  0.06613162  0.23370308  1
  O2-  O187  1  0.82644879  0.06956147  0.57880219  1
  O2-  O188  1  0.82494431  0.07167536  0.91043515  1
  O2-  O189  1  0.82023736  0.57123837  0.23417544  1
  O2-  O190  1  0.82090431  0.56949836  0.57022013  1
  O2-  O191  1  0.82496261  0.56930257  0.91195821  1
  O2-  O192  1  0.03514390  0.07948900  0.26736141  1
  O2-  O193  1  0.04017873  0.08224904  0.59818733  1
  O2-  O194  1  0.03946904  0.08340291  0.93210845  1
  O2-  O195  1  0.04472335  0.58483609  0.27317184  1
  O2-  O196  1  0.05124383  0.57477957  0.60114341  1
  O2-  O197  1  0.04172782  0.58185615  0.93411716  1
  O2-  O198  1  0.53817008  0.08376707  0.26402618  1
  O2-  O199  1  0.53699125  0.08549956  0.59546070  1
  O2-  O200  1  0.53845242  0.08582357  0.93364714  1
  O2-  O201  1  0.54168146  0.58829252  0.27201541  1
  O2-  O202  1  0.54483968  0.58536375  0.60546332  1
  O2-  O203  1  0.54390478  0.57780517  0.93542289  1
  O2-  O204  1  0.16781462  0.20458168  0.26551561  1
  O2-  O205  1  0.16672279  0.20842311  0.59472281  1
  O2-  O206  1  0.16986918  0.20787907  0.93639603  1
  O2-  O207  1  0.16275056  0.70791464  0.27067552  1
  O2-  O208  1  0.16657171  0.71084865  0.59523917  1
  O2-  O209  1  0.16588723  0.70906297  0.93572356  1
  O2-  O210  1  0.66931202  0.20919953  0.26445535  1
  O2-  O211  1  0.67525705  0.20126245  0.60312160  1
  O2-  O212  1  0.67088058  0.20839209  0.93458312  1
  O2-  O213  1  0.66303087  0.70601381  0.27255083  1
  O2-  O214  1  0.66617827  0.70363383  0.60738461  1
  O2-  O215  1  0.67391030  0.70009189  0.93542739  1
  O2-  O216  1  0.08263362  0.45893128  0.06914276  1
  O2-  O217  1  0.08919561  0.45556215  0.39764185  1
  O2-  O218  1  0.08478696  0.44187791  0.72572214  1
  O2-  O219  1  0.08193919  0.95925835  0.06688020  1
  O2-  O220  1  0.08209816  0.95698009  0.40295552  1
  O2-  O221  1  0.08607930  0.95627012  0.72661911  1
  O2-  O222  1  0.58112925  0.45496834  0.07162235  1
  O2-  O223  1  0.58186832  0.45393888  0.39325905  1
  O2-  O224  1  0.58029358  0.45299663  0.73443127  1
  O2-  O225  1  0.58085396  0.95983484  0.06822061  1
  O2-  O226  1  0.57813064  0.94977027  0.39022484  1
  O2-  O227  1  0.57952266  0.96360114  0.73166325  1
  O2-  O228  1  0.21166265  0.33306434  0.07088898  1
  O2-  O229  1  0.20607569  0.33354793  0.39369672  1
  O2-  O230  1  0.21132372  0.33158354  0.72626361  1
  O2-  O231  1  0.21122064  0.83408172  0.06762701  1
  O2-  O232  1  0.21273776  0.83302729  0.40390845  1
  O2-  O233  1  0.20864921  0.83816694  0.72622463  1
  O2-  O234  1  0.71501009  0.33367214  0.07109789  1
  O2-  O235  1  0.70246855  0.33536726  0.39460731  1
  O2-  O236  1  0.71195356  0.33012498  0.73397735  1
  O2-  O237  1  0.70831796  0.83298026  0.06940794  1
  O2-  O238  1  0.70321484  0.83622759  0.39577384  1
  O2-  O239  1  0.70701837  0.83652313  0.73405132  1
  O2-  O240  1  0.45069404  0.41949792  0.26617223  1
  O2-  O241  1  0.45401493  0.42402278  0.60052433  1
  O2-  O242  1  0.44725440  0.41882432  0.94357001  1
  O2-  O243  1  0.44743825  0.91262279  0.27002113  1
  O2-  O244  1  0.45884094  0.91658161  0.59379239  1
  O2-  O245  1  0.45424841  0.92038020  0.93331483  1
  O2-  O246  1  0.95910219  0.41685795  0.26881861  1
  O2-  O247  1  0.95503356  0.41398857  0.60156069  1
  O2-  O248  1  0.95382150  0.41624409  0.93705778  1
  O2-  O249  1  0.95681343  0.91022070  0.27013249  1
  O2-  O250  1  0.95948259  0.91496233  0.59421479  1
  O2-  O251  1  0.95445522  0.91549944  0.93723734  1
  O2-  O252  1  0.33446730  0.29803558  0.26780152  1
  O2-  O253  1  0.33637857  0.29003517  0.59348282  1
  O2-  O254  1  0.33607799  0.29389961  0.93748551  1
  O2-  O255  1  0.33603146  0.78552131  0.27018474  1
  O2-  O256  1  0.33389038  0.78773303  0.59505708  1
  O2-  O257  1  0.33214974  0.79080570  0.93195163  1
  O2-  O258  1  0.83458385  0.30220787  0.27233301  1
  O2-  O259  1  0.83641947  0.29636321  0.60036224  1
  O2-  O260  1  0.83768351  0.29455318  0.93613748  1
  O2-  O261  1  0.83520244  0.79184512  0.26956104  1
  O2-  O262  1  0.82656088  0.79618719  0.59694295  1
  O2-  O263  1  0.83303548  0.79997140  0.94034552  1
  O2-  O264  1  0.41377846  0.04362025  0.06478272  1
  O2-  O265  1  0.41501964  0.04243677  0.39837368  1
  O2-  O266  1  0.41107390  0.04199005  0.72724573  1
  O2-  O267  1  0.41368630  0.54751628  0.06677689  1
  O2-  O268  1  0.41288341  0.54550556  0.39532848  1
  O2-  O269  1  0.41536566  0.54444392  0.73750205  1
  O2-  O270  1  0.91430112  0.04236035  0.06374612  1
  O2-  O271  1  0.91236128  0.03486929  0.40321295  1
  O2-  O272  1  0.91722274  0.03906407  0.73099672  1
  O2-  O273  1  0.91422947  0.54222965  0.06538260  1
  O2-  O274  1  0.91724599  0.54094312  0.40201924  1
  O2-  O275  1  0.92277399  0.54061016  0.73499420  1
  O2-  O276  1  0.30012909  0.16664580  0.06523650  1
  O2-  O277  1  0.30091586  0.16823463  0.39445730  1
  O2-  O278  1  0.29269778  0.16333822  0.72611630  1
  O2-  O279  1  0.29320166  0.66566175  0.06596626  1
  O2-  O280  1  0.28953855  0.66039869  0.39674119  1
  O2-  O281  1  0.28667970  0.66885266  0.73493344  1
  O2-  O282  1  0.80009512  0.16611991  0.06263853  1
  O2-  O283  1  0.79488364  0.16960461  0.39978011  1
  O2-  O284  1  0.80884320  0.16736768  0.72870499  1
  O2-  O285  1  0.80116088  0.66679777  0.06320622  1
  O2-  O286  1  0.78989331  0.66813655  0.40166478  1
  O2-  O287  1  0.80177469  0.67295818  0.73443612  1
