# generated using pymatgen
data_Ca2Al2SiO7
_symmetry_space_group_name_H-M   'P 1'
_cell_length_a   15.45974469
_cell_length_b   15.46082573
_cell_length_c   15.28489256
_cell_angle_alpha   90.01239078
_cell_angle_beta   89.99714839
_cell_angle_gamma   90.01009407
_symmetry_Int_Tables_number   1
_chemical_formula_structural   Ca2Al2SiO7
_chemical_formula_sum   'Ca48 Al48 Si24 O168'
_cell_volume   3653.40126904
_cell_formula_units_Z   24
loop_
 _symmetry_equiv_pos_site_id
 _symmetry_equiv_pos_as_xyz
  1  'x, y, z'
loop_
 _atom_type_symbol
 _atom_type_oxidation_number
  Ca2+  2.0
  Al0+  0.0
  Si0+  0.0
  O2-  -2.0
loop_
 _atom_site_type_symbol
 _atom_site_label
 _atom_site_symmetry_multiplicity
 _atom_site_fract_x
 _atom_site_fract_y
 _atom_site_fract_z
 _atom_site_occupancy
  Ca2+  Ca0  1  0.17168320  0.08977919  0.17309108  1
  Ca2+  Ca1  1  0.17785419  0.08396545  0.50529332  1
  Ca2+  Ca2  1  0.16915041  0.07806409  0.83405186  1
  Ca2+  Ca3  1  0.17050564  0.57833397  0.17568520  1
  Ca2+  Ca4  1  0.17058291  0.57878674  0.49764122  1
  Ca2+  Ca5  1  0.16689347  0.58396630  0.83748477  1
  Ca2+  Ca6  1  0.66790960  0.07460605  0.16814211  1
  Ca2+  Ca7  1  0.66202042  0.07486009  0.50637760  1
  Ca2+  Ca8  1  0.66461289  0.07519502  0.83616128  1
  Ca2+  Ca9  1  0.67304643  0.57610702  0.17841527  1
  Ca2+  Ca10  1  0.67492895  0.57267092  0.50448691  1
  Ca2+  Ca11  1  0.66874850  0.58143847  0.83041995  1
  Ca2+  Ca12  1  0.08419199  0.32590439  0.16782704  1
  Ca2+  Ca13  1  0.07924679  0.32999399  0.48781708  1
  Ca2+  Ca14  1  0.08200976  0.32391881  0.83112566  1
  Ca2+  Ca15  1  0.08269192  0.82349986  0.15927597  1
  Ca2+  Ca16  1  0.07746064  0.83870660  0.50007358  1
  Ca2+  Ca17  1  0.07804459  0.83055667  0.82448687  1
  Ca2+  Ca18  1  0.57743402  0.33704330  0.16098541  1
  Ca2+  Ca19  1  0.58702490  0.33136603  0.49949305  1
  Ca2+  Ca20  1  0.57574040  0.32849020  0.82105774  1
  Ca2+  Ca21  1  0.57525189  0.84153144  0.16602628  1
  Ca2+  Ca22  1  0.57517820  0.84179398  0.49507310  1
  Ca2+  Ca23  1  0.57743422  0.84273280  0.82705648  1
  Ca2+  Ca24  1  0.32899419  0.42275457  0.17685369  1
  Ca2+  Ca25  1  0.33004262  0.41620339  0.50290284  1
  Ca2+  Ca26  1  0.33881619  0.41299501  0.83693440  1
  Ca2+  Ca27  1  0.33516215  0.92035004  0.17522247  1
  Ca2+  Ca28  1  0.33428035  0.92585524  0.50766914  1
  Ca2+  Ca29  1  0.33903639  0.92079867  0.83274159  1
  Ca2+  Ca30  1  0.83090140  0.42151048  0.18032150  1
  Ca2+  Ca31  1  0.82943559  0.42173849  0.50363771  1
  Ca2+  Ca32  1  0.82738530  0.41781979  0.83214005  1
  Ca2+  Ca33  1  0.82245194  0.91976168  0.16997418  1
  Ca2+  Ca34  1  0.82127458  0.91244235  0.50839187  1
  Ca2+  Ca35  1  0.82215905  0.91712445  0.83891480  1
  Ca2+  Ca36  1  0.41509872  0.17255707  0.16393531  1
  Ca2+  Ca37  1  0.41889104  0.16322429  0.50118951  1
  Ca2+  Ca38  1  0.42144630  0.17472169  0.82305619  1
  Ca2+  Ca39  1  0.41222470  0.67791779  0.16320324  1
  Ca2+  Ca40  1  0.41333806  0.67914525  0.49339018  1
  Ca2+  Ca41  1  0.41975051  0.68075963  0.82730086  1
  Ca2+  Ca42  1  0.92500267  0.16812884  0.16286839  1
  Ca2+  Ca43  1  0.92572225  0.17227504  0.48782444  1
  Ca2+  Ca44  1  0.92085785  0.15521114  0.83217260  1
  Ca2+  Ca45  1  0.92129051  0.66267563  0.16373523  1
  Ca2+  Ca46  1  0.90723204  0.66820348  0.49895754  1
  Ca2+  Ca47  1  0.92019033  0.66949235  0.82544031  1
  Al0+  Al48  1  0.00022590  -0.00105367  0.00068714  1
  Al0+  Al49  1  -0.00031800  -0.00106859  0.32577042  1
  Al0+  Al50  1  0.00172386  -0.00296417  0.66318520  1
  Al0+  Al51  1  0.00097639  0.49777662  -0.00457359  1
  Al0+  Al52  1  0.00018213  0.50069706  0.33694260  1
  Al0+  Al53  1  0.00224237  0.49957217  0.67096621  1
  Al0+  Al54  1  0.49847447  0.00220564  0.00106085  1
  Al0+  Al55  1  0.49852669  0.00137105  0.33458927  1
  Al0+  Al56  1  0.49945409  0.00275647  0.66793977  1
  Al0+  Al57  1  0.49881182  0.50340607  -0.00289726  1
  Al0+  Al58  1  0.50149168  0.50248887  0.34062176  1
  Al0+  Al59  1  0.49917070  0.50047172  0.66657651  1
  Al0+  Al60  1  0.24743640  0.25012124  -0.00775934  1
  Al0+  Al61  1  0.25173248  0.24976899  0.33747325  1
  Al0+  Al62  1  0.25077952  0.25038470  0.66766039  1
  Al0+  Al63  1  0.25052197  0.75008931  -0.00881312  1
  Al0+  Al64  1  0.24834880  0.75172123  0.33237890  1
  Al0+  Al65  1  0.24889187  0.74817350  0.66498193  1
  Al0+  Al66  1  0.75062856  0.24980984  0.00460609  1
  Al0+  Al67  1  0.75039996  0.24824043  0.33018427  1
  Al0+  Al68  1  0.75086110  0.25022806  0.66707531  1
  Al0+  Al69  1  0.74841999  0.74797352  0.00637663  1
  Al0+  Al70  1  0.74721977  0.74995754  0.33848127  1
  Al0+  Al71  1  0.75118428  0.74943756  0.67208060  1
  Al0+  Al72  1  0.67778134  0.42474438  0.34775111  1
  Al0+  Al73  1  0.06959553  0.17763242  0.98394867  1
  Al0+  Al74  1  0.82372504  0.07144745  0.01669569  1
  Al0+  Al75  1  0.82214653  0.57040454  0.68468192  1
  Al0+  Al76  1  0.42895340  0.82145496  0.31964115  1
  Al0+  Al77  1  0.17833971  0.92750747  0.68168104  1
  Al0+  Al78  1  0.67621018  0.92849656  0.01711141  1
  Al0+  Al79  1  0.42990067  0.82069149  0.65174548  1
  Al0+  Al80  1  0.42961017  0.32228363  0.98887382  1
  Al0+  Al81  1  0.67832729  0.42733502  0.68358128  1
  Al0+  Al82  1  0.07009188  0.67757757  0.98635709  1
  Al0+  Al83  1  0.57247116  0.17988269  0.65111964  1
  Al0+  Al84  1  0.92838355  0.32205093  0.31859958  1
  Al0+  Al85  1  0.32046584  0.07144928  0.68491855  1
  Al0+  Al86  1  0.18090165  0.42904302  0.34739013  1
  Al0+  Al87  1  0.82210822  0.57113791  0.34806452  1
  Al0+  Al88  1  0.92911703  0.81933694  0.65335450  1
  Al0+  Al89  1  0.32175089  0.57493192  0.34778520  1
  Al0+  Al90  1  0.67979323  0.93191857  0.34834982  1
  Al0+  Al91  1  0.07378772  0.17854040  0.31845822  1
  Al0+  Al92  1  0.67886988  0.93048059  0.68005279  1
  Al0+  Al93  1  0.42788909  0.32276830  0.64845518  1
  Al0+  Al94  1  0.31974507  0.07061368  0.34574004  1
  Al0+  Al95  1  0.43090621  0.82253203  0.98551760  1
  Si0+  Si96  1  0.57317199  0.67799996  0.64935982  1
  Si0+  Si97  1  0.93080734  0.32193362  0.65288563  1
  Si0+  Si98  1  0.31791609  0.07234046  0.01484046  1
  Si0+  Si99  1  0.31994427  0.57227132  0.01319126  1
  Si0+  Si100  1  0.07047271  0.17811087  0.65124208  1
  Si0+  Si101  1  0.57073354  0.17802516  0.31685434  1
  Si0+  Si102  1  0.43067878  0.32325308  0.31985880  1
  Si0+  Si103  1  0.92661244  0.32140610  0.98191423  1
  Si0+  Si104  1  0.17990573  0.42892645  0.68436250  1
  Si0+  Si105  1  0.07009156  0.68028468  0.31914723  1
  Si0+  Si106  1  0.32082049  0.57165626  0.68346338  1
  Si0+  Si107  1  0.17513963  0.92671927  0.34712688  1
  Si0+  Si108  1  0.82439040  0.07069033  0.34932344  1
  Si0+  Si109  1  0.17925646  0.42823237  0.01401179  1
  Si0+  Si110  1  0.57285523  0.17990952  0.98498806  1
  Si0+  Si111  1  0.82454592  0.07217473  0.67954915  1
  Si0+  Si112  1  0.57316851  0.67746149  0.98343913  1
  Si0+  Si113  1  0.07210476  0.67541528  0.64707078  1
  Si0+  Si114  1  0.17995905  0.92673178  0.01447366  1
  Si0+  Si115  1  0.92493211  0.82034813  0.31716217  1
  Si0+  Si116  1  0.92656430  0.81979876  0.98527544  1
  Si0+  Si117  1  0.57186207  0.67826929  0.31742513  1
  Si0+  Si118  1  0.67716281  0.43050733  0.01376075  1
  Si0+  Si119  1  0.82292603  0.56834416  0.01523060  1
  O2-  O120  1  0.24914608  -0.00088589  0.05782573  1
  O2-  O121  1  0.24174483  -0.00216304  0.38932574  1
  O2-  O122  1  0.25077876  -0.00311483  0.73509869  1
  O2-  O123  1  0.25043480  0.49965280  0.05551212  1
  O2-  O124  1  0.25405200  0.49929246  0.39860049  1
  O2-  O125  1  0.25253417  0.49813418  0.72694049  1
  O2-  O126  1  0.75039101  -0.00026475  0.06543991  1
  O2-  O127  1  0.75681380  0.00325121  0.39602680  1
  O2-  O128  1  0.75430892  0.00562362  0.72459068  1
  O2-  O129  1  0.75086918  0.49827542  0.05701414  1
  O2-  O130  1  0.75285913  0.49511376  0.39490977  1
  O2-  O131  1  0.74954897  0.49939238  0.73536708  1
  O2-  O132  1  0.00033259  0.24962494  0.26858555  1
  O2-  O133  1  -0.00165593  0.24808283  0.61036524  1
  O2-  O134  1  -0.00962562  0.24802139  0.93719964  1
  O2-  O135  1  -0.00258527  0.74975580  0.27623708  1
  O2-  O136  1  0.00279062  0.74403780  0.60425424  1
  O2-  O137  1  -0.00577846  0.75067995  0.94017285  1
  O2-  O138  1  0.50451209  0.25527453  0.27634199  1
  O2-  O139  1  0.50187767  0.25272905  0.59929589  1
  O2-  O140  1  0.50679363  0.25120694  0.94169180  1
  O2-  O141  1  0.50118722  0.74453667  0.27183148  1
  O2-  O142  1  0.50624921  0.74801495  0.60443643  1
  O2-  O143  1  0.51022682  0.75190132  0.94022635  1
  O2-  O144  1  0.07442646  0.18265038  0.09635155  1
  O2-  O145  1  0.07191128  0.17889891  0.43232275  1
  O2-  O146  1  0.06919198  0.17865662  0.75673040  1
  O2-  O147  1  0.07001206  0.67774741  0.09989671  1
  O2-  O148  1  0.07237821  0.68218689  0.42376103  1
  O2-  O149  1  0.07134620  0.67481248  0.75308761  1
  O2-  O150  1  0.57040162  0.18049702  0.09107560  1
  O2-  O151  1  0.56937612  0.17499885  0.42131732  1
  O2-  O152  1  0.57154627  0.18070685  0.76531944  1
  O2-  O153  1  0.56989985  0.67101627  0.08862258  1
  O2-  O154  1  0.57316056  0.68059236  0.42256488  1
  O2-  O155  1  0.56976846  0.67802336  0.75562462  1
  O2-  O156  1  0.18271949  0.43040852  0.23299633  1
  O2-  O157  1  0.17764223  0.43010589  0.57965592  1
  O2-  O158  1  0.17917304  0.42890775  0.90874856  1
  O2-  O159  1  0.17684353  0.92317566  0.24096920  1
  O2-  O160  1  0.17667008  0.93196845  0.56801782  1
  O2-  O161  1  0.18032309  0.92685226  0.90985618  1
  O2-  O162  1  0.67599741  0.42911612  0.23297737  1
  O2-  O163  1  0.68231508  0.42744470  0.57062033  1
  O2-  O164  1  0.67726866  0.43219450  0.90917280  1
  O2-  O165  1  0.67979456  0.93336072  0.23523393  1
  O2-  O166  1  0.67994862  0.93090740  0.56695577  1
  O2-  O167  1  0.67667079  0.92989631  0.90365653  1
  O2-  O168  1  0.42959834  0.32247124  0.10255697  1
  O2-  O169  1  0.42925849  0.32165114  0.42415547  1
  O2-  O170  1  0.42844339  0.32088039  0.76273567  1
  O2-  O171  1  0.42742312  0.82037979  0.09869402  1
  O2-  O172  1  0.42992320  0.82220373  0.43227840  1
  O2-  O173  1  0.43129652  0.81860880  0.76525548  1
  O2-  O174  1  0.92975184  0.32591643  0.08689872  1
  O2-  O175  1  0.93056301  0.31971366  0.43267946  1
  O2-  O176  1  0.93383609  0.32236470  0.75830759  1
  O2-  O177  1  0.92860195  0.81698342  0.09135888  1
  O2-  O178  1  0.92556899  0.82165495  0.42205562  1
  O2-  O179  1  0.93067683  0.81856226  0.76671602  1
  O2-  O180  1  0.32028637  0.07078290  0.23162671  1
  O2-  O181  1  0.31813513  0.07153443  0.57133086  1
  O2-  O182  1  0.31721770  0.07245037  0.91031373  1
  O2-  O183  1  0.31805566  0.57456917  0.23320292  1
  O2-  O184  1  0.31752432  0.57317386  0.57876184  1
  O2-  O185  1  0.31918679  0.57152114  0.90812402  1
  O2-  O186  1  0.82380415  0.06787946  0.24379621  1
  O2-  O187  1  0.82600042  0.07069139  0.57400148  1
  O2-  O188  1  0.82377094  0.06850370  0.90281898  1
  O2-  O189  1  0.82098393  0.57136724  0.23339858  1
  O2-  O190  1  0.82272566  0.56733928  0.57164262  1
  O2-  O191  1  0.82350107  0.56796311  0.91063662  1
  O2-  O192  1  0.04774763  0.07967350  0.26356021  1
  O2-  O193  1  0.04539065  0.08648320  0.60323906  1
  O2-  O194  1  0.04284259  0.07897170  0.93126454  1
  O2-  O195  1  0.04403941  0.58810001  0.27149657  1
  O2-  O196  1  0.04695267  0.58083248  0.60294571  1
  O2-  O197  1  0.04183269  0.58089237  0.93064951  1
  O2-  O198  1  0.53488677  0.09012583  0.26666728  1
  O2-  O199  1  0.54049650  0.08288763  0.59769246  1
  O2-  O200  1  0.54341192  0.08771889  0.93908445  1
  O2-  O201  1  0.54942565  0.58312648  0.27191005  1
  O2-  O202  1  0.54631385  0.58481174  0.60411652  1
  O2-  O203  1  0.54149703  0.58778127  0.93231965  1
  O2-  O204  1  0.17208685  0.21034503  0.26578000  1
  O2-  O205  1  0.16174278  0.20924507  0.60619613  1
  O2-  O206  1  0.16252635  0.21366737  0.92592573  1
  O2-  O207  1  0.16007628  0.71000161  0.26826460  1
  O2-  O208  1  0.16536127  0.70019483  0.60085946  1
  O2-  O209  1  0.16491111  0.70861388  0.92952474  1
  O2-  O210  1  0.66417511  0.19856475  0.26920338  1
  O2-  O211  1  0.67262465  0.20482447  0.59878749  1
  O2-  O212  1  0.66817686  0.20122505  0.94110253  1
  O2-  O213  1  0.66466213  0.70637760  0.26973187  1
  O2-  O214  1  0.66846350  0.70068684  0.60739664  1
  O2-  O215  1  0.66956176  0.69670920  0.94041269  1
  O2-  O216  1  0.08715026  0.45631440  0.06058597  1
  O2-  O217  1  0.08401223  0.45924035  0.40135784  1
  O2-  O218  1  0.08988614  0.45820460  0.73483282  1
  O2-  O219  1  0.08697122  0.95012071  0.06140336  1
  O2-  O220  1  0.07971968  0.94927721  0.39066558  1
  O2-  O221  1  0.08019256  0.95793143  0.73524954  1
  O2-  O222  1  0.58590425  0.46186370  0.06107455  1
  O2-  O223  1  0.58156704  0.45445480  0.40309156  1
  O2-  O224  1  0.57887195  0.45668666  0.73490177  1
  O2-  O225  1  0.57849491  0.96163190  0.07025284  1
  O2-  O226  1  0.58420487  0.96630023  0.40044005  1
  O2-  O227  1  0.58388129  0.96347179  0.73492383  1
  O2-  O228  1  0.20802641  0.33636334  0.06009197  1
  O2-  O229  1  0.20823990  0.33197403  0.40217028  1
  O2-  O230  1  0.20587922  0.33681377  0.73207092  1
  O2-  O231  1  0.21008999  0.83461546  0.06079547  1
  O2-  O232  1  0.20072455  0.83484477  0.39520834  1
  O2-  O233  1  0.20109403  0.82620086  0.73126393  1
  O2-  O234  1  0.69929696  0.33721233  0.06048233  1
  O2-  O235  1  0.70305186  0.32475539  0.39793249  1
  O2-  O236  1  0.70914225  0.32948583  0.73760576  1
  O2-  O237  1  0.70171465  0.82863493  0.07001451  1
  O2-  O238  1  0.70710545  0.83482565  0.40148388  1
  O2-  O239  1  0.70845400  0.83433611  0.73507185  1
  O2-  O240  1  0.45509499  0.41724764  0.27389273  1
  O2-  O241  1  0.45131769  0.42359044  0.59894894  1
  O2-  O242  1  0.45654399  0.41992445  0.93460377  1
  O2-  O243  1  0.46258089  0.91746513  0.26517328  1
  O2-  O244  1  0.45854288  0.91872091  0.60129175  1
  O2-  O245  1  0.45766656  0.92101985  0.93332241  1
  O2-  O246  1  0.95747859  0.42144892  0.26694878  1
  O2-  O247  1  0.96358627  0.41246173  0.60642207  1
  O2-  O248  1  0.95823354  0.41187577  0.93236400  1
  O2-  O249  1  0.95173829  0.91114234  0.26703108  1
  O2-  O250  1  0.96078202  0.91458349  0.59598702  1
  O2-  O251  1  0.95267129  0.91303916  0.94025442  1
  O2-  O252  1  0.33989181  0.29212491  0.27192913  1
  O2-  O253  1  0.32844279  0.29336788  0.59799526  1
  O2-  O254  1  0.33445276  0.29106334  0.93310344  1
  O2-  O255  1  0.33104173  0.79258866  0.26550046  1
  O2-  O256  1  0.33286126  0.78770166  0.59984571  1
  O2-  O257  1  0.33705104  0.78765064  0.92897809  1
  O2-  O258  1  0.82996558  0.29475188  0.26389357  1
  O2-  O259  1  0.83775390  0.29907041  0.60724481  1
  O2-  O260  1  0.83048227  0.30086233  0.93870306  1
  O2-  O261  1  0.83367132  0.79041004  0.26994956  1
  O2-  O262  1  0.83205557  0.78821232  0.60026195  1
  O2-  O263  1  0.83168804  0.79434113  0.94201194  1
  O2-  O264  1  0.41070442  0.04830683  0.06192313  1
  O2-  O265  1  0.41391544  0.03709372  0.40106496  1
  O2-  O266  1  0.41882845  0.04451708  0.73775136  1
  O2-  O267  1  0.41234951  0.54702493  0.06081061  1
  O2-  O268  1  0.42092887  0.55392828  0.40006943  1
  O2-  O269  1  0.41341345  0.54771736  0.73086875  1
  O2-  O270  1  0.92233887  0.04252292  0.07007331  1
  O2-  O271  1  0.91928268  0.04581170  0.39298923  1
  O2-  O272  1  0.91717518  0.04344756  0.72580499  1
  O2-  O273  1  0.91520657  0.53875286  0.06147263  1
  O2-  O274  1  0.92096907  0.54896859  0.40136693  1
  O2-  O275  1  0.92106574  0.54066105  0.73741062  1
  O2-  O276  1  0.28627871  0.16406659  0.06090651  1
  O2-  O277  1  0.29254877  0.16618249  0.40208573  1
  O2-  O278  1  0.28926300  0.16978413  0.73715354  1
  O2-  O279  1  0.28928032  0.66383047  0.05941927  1
  O2-  O280  1  0.28676858  0.67095528  0.40132350  1
  O2-  O281  1  0.28913020  0.66161520  0.73265573  1
  O2-  O282  1  0.79762767  0.17098608  0.06991290  1
  O2-  O283  1  0.80063853  0.16527429  0.39267452  1
  O2-  O284  1  0.80397205  0.16650159  0.72618832  1
  O2-  O285  1  0.79798097  0.66034305  0.06380445  1
  O2-  O286  1  0.79011591  0.66760359  0.40208910  1
  O2-  O287  1  0.79410344  0.66793752  0.73949517  1
