# generated using pymatgen
data_Ca2Al2SiO7
_symmetry_space_group_name_H-M   'P 1'
_cell_length_a   15.45453229
_cell_length_b   15.45438823
_cell_length_c   15.28152056
_cell_angle_alpha   90.00094674
_cell_angle_beta   90.00049574
_cell_angle_gamma   90.00583974
_symmetry_Int_Tables_number   1
_chemical_formula_structural   Ca2Al2SiO7
_chemical_formula_sum   'Ca48 Al48 Si24 O168'
_cell_volume   3649.84357454
_cell_formula_units_Z   24
loop_
 _symmetry_equiv_pos_site_id
 _symmetry_equiv_pos_as_xyz
  1  'x, y, z'
loop_
 _atom_type_symbol
 _atom_type_oxidation_number
  Ca2+  2.0
  Al0+  0.0
  Si0+  0.0
  O2-  -2.0
loop_
 _atom_site_type_symbol
 _atom_site_label
 _atom_site_symmetry_multiplicity
 _atom_site_fract_x
 _atom_site_fract_y
 _atom_site_fract_z
 _atom_site_occupancy
  Ca2+  Ca0  1  0.15789332  0.07376147  0.17348986  1
  Ca2+  Ca1  1  0.16692002  0.08279047  0.49964956  1
  Ca2+  Ca2  1  0.17373048  0.07962121  0.83709895  1
  Ca2+  Ca3  1  0.17392001  0.58204788  0.16726549  1
  Ca2+  Ca4  1  0.17908377  0.57466489  0.50623574  1
  Ca2+  Ca5  1  0.17420773  0.57525758  0.84223738  1
  Ca2+  Ca6  1  0.67445260  0.08796527  0.17557228  1
  Ca2+  Ca7  1  0.66455321  0.07780605  0.49788923  1
  Ca2+  Ca8  1  0.66739457  0.08123853  0.84048393  1
  Ca2+  Ca9  1  0.66482171  0.57502023  0.17835040  1
  Ca2+  Ca10  1  0.66874167  0.57866056  0.49867425  1
  Ca2+  Ca11  1  0.67481331  0.58170525  0.83318279  1
  Ca2+  Ca12  1  0.07314293  0.33284725  0.16308335  1
  Ca2+  Ca13  1  0.08023473  0.32884683  0.49181246  1
  Ca2+  Ca14  1  0.08256374  0.34342466  0.83138834  1
  Ca2+  Ca15  1  0.08376883  0.83365183  0.16229879  1
  Ca2+  Ca16  1  0.07656344  0.83349034  0.48818398  1
  Ca2+  Ca17  1  0.08945175  0.82801116  0.83542614  1
  Ca2+  Ca18  1  0.58367548  0.32569060  0.16849375  1
  Ca2+  Ca19  1  0.57213931  0.33271895  0.48810499  1
  Ca2+  Ca20  1  0.57552648  0.32486191  0.82931928  1
  Ca2+  Ca21  1  0.58802013  0.82773389  0.16821299  1
  Ca2+  Ca22  1  0.58822556  0.82963082  0.49214199  1
  Ca2+  Ca23  1  0.58310697  0.83376020  0.82699028  1
  Ca2+  Ca24  1  0.33644896  0.42582590  0.17262709  1
  Ca2+  Ca25  1  0.33601749  0.42101890  0.50720995  1
  Ca2+  Ca26  1  0.32528038  0.42076572  0.83677660  1
  Ca2+  Ca27  1  0.31991132  0.91566067  0.17109555  1
  Ca2+  Ca28  1  0.32864958  0.92473191  0.50135657  1
  Ca2+  Ca29  1  0.33113663  0.92392963  0.83803962  1
  Ca2+  Ca30  1  0.83009571  0.41017171  0.17367152  1
  Ca2+  Ca31  1  0.82641231  0.41332590  0.49949850  1
  Ca2+  Ca32  1  0.83814848  0.42042778  0.83840645  1
  Ca2+  Ca33  1  0.83319469  0.92965771  0.17837633  1
  Ca2+  Ca34  1  0.82532488  0.91845345  0.49679947  1
  Ca2+  Ca35  1  0.82635659  0.92477119  0.83848586  1
  Ca2+  Ca36  1  0.42902999  0.16816067  0.16518303  1
  Ca2+  Ca37  1  0.41580076  0.17791633  0.49223955  1
  Ca2+  Ca38  1  0.41786236  0.16880115  0.82429547  1
  Ca2+  Ca39  1  0.41686764  0.66103059  0.16740009  1
  Ca2+  Ca40  1  0.42059709  0.66136443  0.49147141  1
  Ca2+  Ca41  1  0.41182828  0.66392556  0.83083908  1
  Ca2+  Ca42  1  0.91331396  0.17179077  0.16568084  1
  Ca2+  Ca43  1  0.92346179  0.16907530  0.48611360  1
  Ca2+  Ca44  1  0.91593673  0.17062710  0.83656534  1
  Ca2+  Ca45  1  0.92255904  0.67697107  0.16164384  1
  Ca2+  Ca46  1  0.91396968  0.67175870  0.49342774  1
  Ca2+  Ca47  1  0.92626705  0.66112751  0.82854407  1
  Al0+  Al48  1  -0.00192897  0.00199293  0.00396246  1
  Al0+  Al49  1  -0.00137026  -0.00099968  0.33554558  1
  Al0+  Al50  1  -0.00216203  -0.00073872  0.66700697  1
  Al0+  Al51  1  0.00095307  0.50222120  -0.00337774  1
  Al0+  Al52  1  0.00247891  0.50153195  0.32982053  1
  Al0+  Al53  1  -0.00040211  0.50055424  0.66868006  1
  Al0+  Al54  1  0.50075653  -0.00183170  -0.00343500  1
  Al0+  Al55  1  0.49802678  -0.00097807  0.33220642  1
  Al0+  Al56  1  0.49996243  -0.00252320  0.67300808  1
  Al0+  Al57  1  0.50122851  0.49971032  -0.00017399  1
  Al0+  Al58  1  0.50163800  0.50142152  0.33348708  1
  Al0+  Al59  1  0.50164829  0.49965680  0.66799284  1
  Al0+  Al60  1  0.24954782  0.25029657  0.00492037  1
  Al0+  Al61  1  0.24851845  0.25045258  0.32185713  1
  Al0+  Al62  1  0.24953438  0.24882799  0.67037733  1
  Al0+  Al63  1  0.25101712  0.75074109  0.00192530  1
  Al0+  Al64  1  0.25083906  0.74977582  0.34362598  1
  Al0+  Al65  1  0.24997738  0.74933689  0.66616072  1
  Al0+  Al66  1  0.74991716  0.25037958  -0.00797301  1
  Al0+  Al67  1  0.74941124  0.25103378  0.33897059  1
  Al0+  Al68  1  0.75023958  0.24812257  0.66562092  1
  Al0+  Al69  1  0.74968869  0.75069253  -0.00274687  1
  Al0+  Al70  1  0.75044894  0.75058572  0.32543726  1
  Al0+  Al71  1  0.75022199  0.75016657  0.67571331  1
  Al0+  Al72  1  0.32391666  0.57175925  0.68252824  1
  Al0+  Al73  1  0.92855973  0.32303476  0.32037362  1
  Al0+  Al74  1  0.42791503  0.32374529  0.31709232  1
  Al0+  Al75  1  0.68036762  0.42907506  0.34617187  1
  Al0+  Al76  1  0.82003505  0.07252638  0.35009969  1
  Al0+  Al77  1  0.07123085  0.68225506  0.98613550  1
  Al0+  Al78  1  0.68040217  0.92991441  0.68118865  1
  Al0+  Al79  1  0.57047827  0.68081295  0.32084792  1
  Al0+  Al80  1  0.07082872  0.17759743  0.31771894  1
  Al0+  Al81  1  0.93083522  0.32023861  0.98486253  1
  Al0+  Al82  1  0.17614870  0.42794265  0.01851497  1
  Al0+  Al83  1  0.56993944  0.17928778  0.98502945  1
  Al0+  Al84  1  0.92888603  0.81990109  0.32006285  1
  Al0+  Al85  1  0.17934918  0.42830257  0.68040555  1
  Al0+  Al86  1  0.42918407  0.31956783  0.65426636  1
  Al0+  Al87  1  0.81922665  0.56970412  0.67911456  1
  Al0+  Al88  1  0.17837420  0.92955062  0.34788498  1
  Al0+  Al89  1  0.31931026  0.06971184  0.67823950  1
  Al0+  Al90  1  0.18072700  0.93143743  0.01223763  1
  Al0+  Al91  1  0.81753779  0.07197772  0.01369647  1
  Al0+  Al92  1  0.32213118  0.57022467  0.01690568  1
  Al0+  Al93  1  0.32094872  0.56846990  0.34879465  1
  Al0+  Al94  1  0.57009539  0.17702988  0.32070995  1
  Al0+  Al95  1  0.67719500  0.92728402  0.34610149  1
  Si0+  Si96  1  0.82402784  0.57305229  0.34554878  1
  Si0+  Si97  1  0.57264290  0.67688821  0.98258311  1
  Si0+  Si98  1  0.42539544  0.82195923  0.31763436  1
  Si0+  Si99  1  0.42819782  0.82169190  0.65149061  1
  Si0+  Si100  1  0.07142008  0.67838039  0.65011350  1
  Si0+  Si101  1  0.42741612  0.32282311  0.98247793  1
  Si0+  Si102  1  0.32157685  0.07369403  0.34713922  1
  Si0+  Si103  1  0.82355549  0.07306568  0.68507476  1
  Si0+  Si104  1  0.67658035  0.92667524  0.01815682  1
  Si0+  Si105  1  0.32500877  0.07267335  0.01744577  1
  Si0+  Si106  1  0.57204986  0.68071694  0.65305509  1
  Si0+  Si107  1  0.92885382  0.32249997  0.65108727  1
  Si0+  Si108  1  0.43002912  0.81897365  0.98442040  1
  Si0+  Si109  1  0.57196825  0.17508416  0.64926919  1
  Si0+  Si110  1  0.06974381  0.17760214  0.65343755  1
  Si0+  Si111  1  0.67810130  0.42554196  0.68432383  1
  Si0+  Si112  1  0.82207642  0.57306278  0.01504813  1
  Si0+  Si113  1  0.17683674  0.42671061  0.34879446  1
  Si0+  Si114  1  0.68162239  0.43074680  0.01278271  1
  Si0+  Si115  1  0.92862094  0.81964292  0.65277257  1
  Si0+  Si116  1  0.92735130  0.82451299  0.98102082  1
  Si0+  Si117  1  0.07513500  0.67949409  0.31794940  1
  Si0+  Si118  1  0.07290955  0.17590438  0.98222082  1
  Si0+  Si119  1  0.17510935  0.92754389  0.68288631  1
  O2-  O120  1  0.25101776  0.00945594  0.06055472  1
  O2-  O121  1  0.25129191  0.00681713  0.39256277  1
  O2-  O122  1  0.24540143  -0.00551671  0.72636641  1
  O2-  O123  1  0.25257869  0.49618993  0.06695953  1
  O2-  O124  1  0.24878471  0.49101708  0.39438556  1
  O2-  O125  1  0.25113232  0.50049076  0.73093901  1
  O2-  O126  1  0.74500711  -0.00472340  0.06033587  1
  O2-  O127  1  0.74564203  0.00135456  0.39806065  1
  O2-  O128  1  0.75095332  0.00808256  0.72834624  1
  O2-  O129  1  0.75049510  0.50323546  0.05663172  1
  O2-  O130  1  0.75926097  0.50123814  0.39068426  1
  O2-  O131  1  0.74961558  0.49134538  0.72874232  1
  O2-  O132  1  -0.00075480  0.25078171  0.26929428  1
  O2-  O133  1  -0.00169182  0.24888839  0.61155622  1
  O2-  O134  1  0.00942801  0.24930673  0.93678432  1
  O2-  O135  1  0.00514848  0.74674424  0.27370964  1
  O2-  O136  1  0.00217055  0.75184371  0.60905081  1
  O2-  O137  1  -0.00461087  0.75545080  0.93620597  1
  O2-  O138  1  0.49845811  0.24882533  0.26949165  1
  O2-  O139  1  0.50546420  0.24621558  0.60682255  1
  O2-  O140  1  0.49036809  0.24870798  0.93772942  1
  O2-  O141  1  0.49668643  0.75604007  0.27304473  1
  O2-  O142  1  0.49589689  0.74658592  0.61114358  1
  O2-  O143  1  0.50186925  0.74851850  0.94117858  1
  O2-  O144  1  0.06822373  0.17234241  0.08694587  1
  O2-  O145  1  0.07142012  0.17937129  0.43250016  1
  O2-  O146  1  0.06772759  0.17408350  0.75842382  1
  O2-  O147  1  0.06938281  0.68516633  0.09909740  1
  O2-  O148  1  0.07311055  0.67995092  0.42404979  1
  O2-  O149  1  0.07117687  0.67958274  0.75530689  1
  O2-  O150  1  0.57116782  0.18123605  0.09753632  1
  O2-  O151  1  0.56635368  0.17737301  0.43459788  1
  O2-  O152  1  0.57146245  0.17612025  0.75536113  1
  O2-  O153  1  0.57506587  0.67658913  0.08719409  1
  O2-  O154  1  0.57103330  0.68106110  0.43446979  1
  O2-  O155  1  0.57344636  0.68309105  0.75861492  1
  O2-  O156  1  0.17389395  0.43160607  0.24379456  1
  O2-  O157  1  0.17816554  0.42928727  0.56676224  1
  O2-  O158  1  0.17723135  0.43161782  0.90462592  1
  O2-  O159  1  0.18094596  0.92753237  0.23475146  1
  O2-  O160  1  0.17315458  0.92868986  0.57762870  1
  O2-  O161  1  0.18477270  0.93157449  0.89848335  1
  O2-  O162  1  0.68018626  0.43107033  0.23254890  1
  O2-  O163  1  0.67790504  0.42742329  0.57902929  1
  O2-  O164  1  0.68258474  0.43334029  0.90725032  1
  O2-  O165  1  0.68076656  0.92587585  0.23281179  1
  O2-  O166  1  0.68197971  0.92643166  0.56885256  1
  O2-  O167  1  0.67732296  0.92588860  0.91199138  1
  O2-  O168  1  0.43242711  0.32557173  0.08749293  1
  O2-  O169  1  0.42851719  0.32288730  0.43130089  1
  O2-  O170  1  0.43113882  0.31665247  0.76766466  1
  O2-  O171  1  0.43068740  0.81985867  0.08917496  1
  O2-  O172  1  0.42479262  0.82078880  0.42352266  1
  O2-  O173  1  0.42933966  0.82307204  0.75694785  1
  O2-  O174  1  0.92691090  0.31861823  0.09711015  1
  O2-  O175  1  0.93175886  0.32369733  0.43472492  1
  O2-  O176  1  0.92863022  0.32276413  0.75628773  1
  O2-  O177  1  0.92613182  0.82260070  0.08626823  1
  O2-  O178  1  0.92840781  0.81655403  0.43411267  1
  O2-  O179  1  0.93008257  0.81962310  0.75790276  1
  O2-  O180  1  0.32338774  0.06911977  0.24167402  1
  O2-  O181  1  0.31760310  0.06855711  0.56538009  1
  O2-  O182  1  0.32576398  0.06922670  0.91128544  1
  O2-  O183  1  0.31923856  0.57077283  0.23600646  1
  O2-  O184  1  0.32321188  0.57173471  0.56920487  1
  O2-  O185  1  0.32206629  0.57048089  0.90330368  1
  O2-  O186  1  0.81922778  0.07205459  0.23641450  1
  O2-  O187  1  0.82735513  0.07226308  0.58036669  1
  O2-  O188  1  0.81580013  0.06941936  0.89975093  1
  O2-  O189  1  0.82150323  0.57361904  0.23980495  1
  O2-  O190  1  0.81710432  0.57217243  0.56624997  1
  O2-  O191  1  0.82008316  0.57261567  0.90946670  1
  O2-  O192  1  0.04058618  0.07923801  0.26708916  1
  O2-  O193  1  0.04161372  0.08557510  0.60508208  1
  O2-  O194  1  0.04172257  0.08426856  0.93351103  1
  O2-  O195  1  0.05230509  0.58617978  0.27070044  1
  O2-  O196  1  0.04016975  0.58771728  0.60275533  1
  O2-  O197  1  0.03892464  0.58725883  0.92961771  1
  O2-  O198  1  0.54322794  0.07866432  0.26570455  1
  O2-  O199  1  0.54470123  0.08056032  0.60701880  1
  O2-  O200  1  0.54347770  0.08027123  0.93148746  1
  O2-  O201  1  0.53866518  0.58600774  0.26487821  1
  O2-  O202  1  0.55045634  0.58665046  0.60754092  1
  O2-  O203  1  0.54575076  0.58528903  0.93385391  1
  O2-  O204  1  0.16829870  0.20001992  0.26081472  1
  O2-  O205  1  0.16153671  0.20456007  0.60665443  1
  O2-  O206  1  0.17029311  0.19494314  0.94021855  1
  O2-  O207  1  0.16809344  0.70929901  0.27401942  1
  O2-  O208  1  0.16414017  0.70404387  0.60302630  1
  O2-  O209  1  0.16725889  0.71583064  0.93140071  1
  O2-  O210  1  0.66841762  0.20862278  0.27068987  1
  O2-  O211  1  0.66780108  0.19700930  0.60582686  1
  O2-  O212  1  0.66264747  0.21513916  0.92629555  1
  O2-  O213  1  0.66525980  0.70904586  0.26166795  1
  O2-  O214  1  0.66274018  0.71447709  0.60743101  1
  O2-  O215  1  0.66445312  0.70544340  0.93352782  1
  O2-  O216  1  0.07842328  0.46227997  0.06884888  1
  O2-  O217  1  0.08448319  0.45613654  0.39693479  1
  O2-  O218  1  0.08124644  0.45862414  0.73316458  1
  O2-  O219  1  0.08240983  0.95690242  0.06466449  1
  O2-  O220  1  0.08240545  0.95822950  0.40330468  1
  O2-  O221  1  0.08216422  0.95403771  0.73027191  1
  O2-  O222  1  0.58982709  0.45747825  0.05982336  1
  O2-  O223  1  0.58709481  0.46626458  0.40215133  1
  O2-  O224  1  0.58695427  0.45497975  0.73278519  1
  O2-  O225  1  0.58162354  0.94948481  0.06141142  1
  O2-  O226  1  0.57651230  0.95005913  0.39813282  1
  O2-  O227  1  0.58356893  0.95593776  0.73772261  1
  O2-  O228  1  0.19596771  0.32622148  0.06779303  1
  O2-  O229  1  0.19792009  0.32999097  0.38986325  1
  O2-  O230  1  0.20495607  0.33031238  0.73528197  1
  O2-  O231  1  0.21550106  0.83724262  0.06717501  1
  O2-  O232  1  0.21104747  0.83582222  0.40665171  1
  O2-  O233  1  0.20071310  0.83330169  0.72718048  1
  O2-  O234  1  0.71176070  0.33922862  0.05740318  1
  O2-  O235  1  0.70743162  0.33493220  0.40587063  1
  O2-  O236  1  0.70114181  0.33024879  0.72875496  1
  O2-  O237  1  0.70128830  0.83123766  0.06097713  1
  O2-  O238  1  0.71103159  0.82921229  0.39807063  1
  O2-  O239  1  0.71418867  0.83645585  0.74028809  1
  O2-  O240  1  0.46285047  0.41974382  0.26451652  1
  O2-  O241  1  0.46028876  0.41733714  0.60199277  1
  O2-  O242  1  0.45994553  0.41425803  0.93468737  1
  O2-  O243  1  0.44584801  0.91578934  0.27047448  1
  O2-  O244  1  0.45978889  0.91224552  0.60404621  1
  O2-  O245  1  0.45761035  0.91019514  0.93418860  1
  O2-  O246  1  0.95506442  0.42196853  0.26605032  1
  O2-  O247  1  0.95629046  0.41422283  0.60382942  1
  O2-  O248  1  0.95797321  0.41859410  0.93103717  1
  O2-  O249  1  0.95955177  0.91592289  0.26702586  1
  O2-  O250  1  0.95329159  0.91267574  0.60565734  1
  O2-  O251  1  0.95365311  0.91819472  0.93550124  1
  O2-  O252  1  0.33000886  0.30027151  0.26209926  1
  O2-  O253  1  0.33225572  0.28753672  0.60157619  1
  O2-  O254  1  0.33074023  0.30205394  0.94054224  1
  O2-  O255  1  0.33289437  0.79079333  0.27237636  1
  O2-  O256  1  0.33446052  0.79933530  0.60468152  1
  O2-  O257  1  0.33931049  0.79102089  0.93507820  1
  O2-  O258  1  0.82882601  0.29641917  0.27070236  1
  O2-  O259  1  0.83521818  0.29667355  0.60555193  1
  O2-  O260  1  0.83655081  0.28725163  0.92622095  1
  O2-  O261  1  0.83585054  0.78856013  0.26044618  1
  O2-  O262  1  0.83731746  0.78683344  0.60786734  1
  O2-  O263  1  0.83294657  0.79856839  0.93495770  1
  O2-  O264  1  0.41664322  0.03941721  0.06276220  1
  O2-  O265  1  0.41327568  0.04597806  0.39590759  1
  O2-  O266  1  0.41420089  0.03771700  0.73550607  1
  O2-  O267  1  0.42302857  0.54408008  0.06716019  1
  O2-  O268  1  0.41845331  0.54029617  0.40162887  1
  O2-  O269  1  0.42333872  0.54599754  0.73479479  1
  O2-  O270  1  0.91444711  0.04394504  0.06702365  1
  O2-  O271  1  0.91655564  0.03927869  0.40402438  1
  O2-  O272  1  0.91508090  0.04232682  0.73360952  1
  O2-  O273  1  0.91402360  0.54747663  0.06066751  1
  O2-  O274  1  0.91946080  0.55354923  0.39092457  1
  O2-  O275  1  0.91597502  0.54141028  0.73421828  1
  O2-  O276  1  0.30795132  0.16842518  0.06078066  1
  O2-  O277  1  0.29607017  0.16876808  0.39016295  1
  O2-  O278  1  0.28788876  0.16343429  0.73664116  1
  O2-  O279  1  0.29303585  0.66886708  0.06811609  1
  O2-  O280  1  0.29002985  0.66367495  0.40580917  1
  O2-  O281  1  0.29559257  0.67188162  0.73318271  1
  O2-  O282  1  0.78435502  0.16907679  0.06385319  1
  O2-  O283  1  0.79458461  0.17007495  0.40551865  1
  O2-  O284  1  0.80095854  0.16825530  0.73010039  1
  O2-  O285  1  0.79473971  0.66631364  0.06000820  1
  O2-  O286  1  0.79305445  0.66478273  0.39183535  1
  O2-  O287  1  0.78578573  0.66262562  0.73902646  1
