# generated using pymatgen
data_Ca2Al2SiO7
_symmetry_space_group_name_H-M   'P 1'
_cell_length_a   15.45588934
_cell_length_b   15.45582856
_cell_length_c   15.28161357
_cell_angle_alpha   90.01052702
_cell_angle_beta   89.99185051
_cell_angle_gamma   90.01440737
_symmetry_Int_Tables_number   1
_chemical_formula_structural   Ca2Al2SiO7
_chemical_formula_sum   'Ca48 Al48 Si24 O168'
_cell_volume   3650.52628082
_cell_formula_units_Z   24
loop_
 _symmetry_equiv_pos_site_id
 _symmetry_equiv_pos_as_xyz
  1  'x, y, z'
loop_
 _atom_type_symbol
 _atom_type_oxidation_number
  Ca2+  2.0
  Al0+  0.0
  Si0+  0.0
  O2-  -2.0
loop_
 _atom_site_type_symbol
 _atom_site_label
 _atom_site_symmetry_multiplicity
 _atom_site_fract_x
 _atom_site_fract_y
 _atom_site_fract_z
 _atom_site_occupancy
  Ca2+  Ca0  1  0.17991765  0.07796687  0.17169873  1
  Ca2+  Ca1  1  0.16956301  0.07418273  0.50075890  1
  Ca2+  Ca2  1  0.17081944  0.07773323  0.83801979  1
  Ca2+  Ca3  1  0.17309765  0.57995738  0.16874277  1
  Ca2+  Ca4  1  0.16962054  0.57365282  0.50675441  1
  Ca2+  Ca5  1  0.17728739  0.58030524  0.83524364  1
  Ca2+  Ca6  1  0.66356944  0.07432939  0.16420985  1
  Ca2+  Ca7  1  0.67238000  0.07551861  0.50113379  1
  Ca2+  Ca8  1  0.67583931  0.07997630  0.84449921  1
  Ca2+  Ca9  1  0.65777188  0.57173128  0.16477034  1
  Ca2+  Ca10  1  0.67162170  0.57706826  0.50308043  1
  Ca2+  Ca11  1  0.66847027  0.58184528  0.84125180  1
  Ca2+  Ca12  1  0.07277311  0.33820610  0.16270745  1
  Ca2+  Ca13  1  0.07973240  0.33932844  0.49113470  1
  Ca2+  Ca14  1  0.08038255  0.33341779  0.83090946  1
  Ca2+  Ca15  1  0.07959006  0.83662990  0.16197297  1
  Ca2+  Ca16  1  0.08245926  0.83910899  0.49870412  1
  Ca2+  Ca17  1  0.07304358  0.83951030  0.82754305  1
  Ca2+  Ca18  1  0.58264866  0.32736322  0.15284474  1
  Ca2+  Ca19  1  0.58451336  0.33118049  0.49386778  1
  Ca2+  Ca20  1  0.58199385  0.33221958  0.83912724  1
  Ca2+  Ca21  1  0.57825707  0.83339002  0.15687760  1
  Ca2+  Ca22  1  0.57770330  0.83166134  0.48951786  1
  Ca2+  Ca23  1  0.58004118  0.83434286  0.83665509  1
  Ca2+  Ca24  1  0.33653618  0.42217231  0.16905262  1
  Ca2+  Ca25  1  0.31979513  0.42004126  0.50899498  1
  Ca2+  Ca26  1  0.33487863  0.42441710  0.84095947  1
  Ca2+  Ca27  1  0.34301318  0.92546449  0.17254697  1
  Ca2+  Ca28  1  0.32525213  0.91538399  0.49857937  1
  Ca2+  Ca29  1  0.32735750  0.91583073  0.84245567  1
  Ca2+  Ca30  1  0.82289947  0.40648555  0.16874393  1
  Ca2+  Ca31  1  0.83132766  0.41980387  0.50224783  1
  Ca2+  Ca32  1  0.83073191  0.42312646  0.84168751  1
  Ca2+  Ca33  1  0.82290502  0.91542744  0.16485732  1
  Ca2+  Ca34  1  0.82938063  0.91912154  0.50888138  1
  Ca2+  Ca35  1  0.83511509  0.92489111  0.84287567  1
  Ca2+  Ca36  1  0.41985836  0.16773979  0.15448420  1
  Ca2+  Ca37  1  0.41649236  0.16550175  0.49364516  1
  Ca2+  Ca38  1  0.42069979  0.16458859  0.83762329  1
  Ca2+  Ca39  1  0.41970658  0.67808339  0.15555374  1
  Ca2+  Ca40  1  0.41193414  0.67143101  0.49643146  1
  Ca2+  Ca41  1  0.41912106  0.66193812  0.83548188  1
  Ca2+  Ca42  1  0.91414441  0.17508730  0.15902596  1
  Ca2+  Ca43  1  0.91833076  0.17069948  0.49504313  1
  Ca2+  Ca44  1  0.90747108  0.16996677  0.83117535  1
  Ca2+  Ca45  1  0.92139004  0.67277156  0.15845358  1
  Ca2+  Ca46  1  0.91464241  0.66961058  0.50050869  1
  Ca2+  Ca47  1  0.91001701  0.68018085  0.82768210  1
  Al0+  Al48  1  0.00061708  0.00158556  0.00211122  1
  Al0+  Al49  1  0.00159967  0.00163916  0.33323713  1
  Al0+  Al50  1  -0.00055679  0.00213085  0.66800166  1
  Al0+  Al51  1  0.00066396  0.50012115  -0.00550756  1
  Al0+  Al52  1  0.00017024  0.50192118  0.33093101  1
  Al0+  Al53  1  -0.00130590  0.50169516  0.67428444  1
  Al0+  Al54  1  0.50006381  -0.00033838  -0.00361786  1
  Al0+  Al55  1  0.50238993  0.00053227  0.33932197  1
  Al0+  Al56  1  0.50002423  -0.00009637  0.66236385  1
  Al0+  Al57  1  0.49949004  0.50078363  0.00119608  1
  Al0+  Al58  1  0.50216875  0.49993799  0.34021138  1
  Al0+  Al59  1  0.49921350  0.49896767  0.66498606  1
  Al0+  Al60  1  0.24769919  0.24932776  -0.00032155  1
  Al0+  Al61  1  0.25012654  0.25035247  0.34013244  1
  Al0+  Al62  1  0.24903603  0.24854070  0.66842778  1
  Al0+  Al63  1  0.24913593  0.74719847  0.00115235  1
  Al0+  Al64  1  0.24966454  0.75167533  0.33125164  1
  Al0+  Al65  1  0.24871548  0.74948521  0.67336364  1
  Al0+  Al66  1  0.75107561  0.25075245  -0.00253535  1
  Al0+  Al67  1  0.74971643  0.25047544  0.33482220  1
  Al0+  Al68  1  0.74869836  0.24838836  0.66593118  1
  Al0+  Al69  1  0.75158493  0.75010876  -0.00368229  1
  Al0+  Al70  1  0.74983061  0.74919812  0.33616217  1
  Al0+  Al71  1  0.74742518  0.74905109  0.66328497  1
  Al0+  Al72  1  0.82286438  0.07258106  0.01678631  1
  Al0+  Al73  1  0.32112565  0.56992967  0.01649871  1
  Al0+  Al74  1  0.67967413  0.92747207  0.01299522  1
  Al0+  Al75  1  0.57097319  0.67853370  0.98523906  1
  Al0+  Al76  1  0.81942675  0.06987748  0.67909647  1
  Al0+  Al77  1  0.57152057  0.17789425  0.98475349  1
  Al0+  Al78  1  0.32051286  0.06996342  0.01161627  1
  Al0+  Al79  1  0.17979717  0.93047593  0.68128844  1
  Al0+  Al80  1  0.42775058  0.82205757  0.98406212  1
  Al0+  Al81  1  0.81886694  0.57178422  0.68055707  1
  Al0+  Al82  1  0.93121876  0.82115627  0.98742352  1
  Al0+  Al83  1  0.92894369  0.82236209  0.65153792  1
  Al0+  Al84  1  0.93002156  0.32107745  0.32031675  1
  Al0+  Al85  1  0.68090201  0.43114351  0.01189662  1
  Al0+  Al86  1  0.68072003  0.92777622  0.34761620  1
  Al0+  Al87  1  0.17850401  0.43104617  0.34477322  1
  Al0+  Al88  1  0.92870498  0.32051081  0.98414725  1
  Al0+  Al89  1  0.43026710  0.82007918  0.32063244  1
  Al0+  Al90  1  0.32338155  0.07159081  0.34894824  1
  Al0+  Al91  1  0.32173151  0.57031082  0.68227754  1
  Al0+  Al92  1  0.17708692  0.42646138  0.68385344  1
  Al0+  Al93  1  0.67949734  0.42774307  0.34748737  1
  Al0+  Al94  1  0.42664352  0.32158843  0.98657088  1
  Al0+  Al95  1  0.17757169  0.92793282  0.34777787  1
  Si0+  Si96  1  0.67607529  0.92710318  0.68246323  1
  Si0+  Si97  1  0.92898670  0.32229950  0.65147850  1
  Si0+  Si98  1  0.07180956  0.17962586  0.65011303  1
  Si0+  Si99  1  0.92739721  0.82264362  0.31954679  1
  Si0+  Si100  1  0.07173121  0.67887332  0.64995351  1
  Si0+  Si101  1  0.67816180  0.42693148  0.68351866  1
  Si0+  Si102  1  0.57033538  0.18053990  0.31923840  1
  Si0+  Si103  1  0.82200712  0.07217822  0.34930194  1
  Si0+  Si104  1  0.17785878  0.92682349  0.01661224  1
  Si0+  Si105  1  0.82334689  0.57252275  0.34893474  1
  Si0+  Si106  1  0.32422895  0.07165749  0.68426821  1
  Si0+  Si107  1  0.32227514  0.57259450  0.34925979  1
  Si0+  Si108  1  0.42867245  0.32041620  0.65027829  1
  Si0+  Si109  1  0.17657374  0.42755923  0.01748801  1
  Si0+  Si110  1  0.57373283  0.67632821  0.31724670  1
  Si0+  Si111  1  0.07056191  0.67974015  0.31874811  1
  Si0+  Si112  1  0.82414098  0.57297679  0.01654970  1
  Si0+  Si113  1  0.07185475  0.17824351  0.98258141  1
  Si0+  Si114  1  0.07291812  0.67653777  0.98082739  1
  Si0+  Si115  1  0.07401395  0.17771374  0.31625244  1
  Si0+  Si116  1  0.42787083  0.32197257  0.32168243  1
  Si0+  Si117  1  0.42732596  0.82106287  0.65061759  1
  Si0+  Si118  1  0.57007772  0.67718180  0.64866382  1
  Si0+  Si119  1  0.57130905  0.17860305  0.64845897  1
  O2-  O120  1  0.25142779  -0.00937863  0.05961335  1
  O2-  O121  1  0.25041064  -0.00056007  0.39744874  1
  O2-  O122  1  0.25744697  0.00155150  0.72801172  1
  O2-  O123  1  0.24745107  0.49350682  0.06239244  1
  O2-  O124  1  0.25586710  0.50178799  0.39329534  1
  O2-  O125  1  0.25213630  0.49577492  0.73197137  1
  O2-  O126  1  0.75038112  0.00022435  0.06480662  1
  O2-  O127  1  0.75937738  -0.00160437  0.39448912  1
  O2-  O128  1  0.74704491  -0.00662376  0.72526546  1
  O2-  O129  1  0.75632935  0.50419263  0.06148012  1
  O2-  O130  1  0.75431985  0.50313901  0.39215547  1
  O2-  O131  1  0.74596580  0.49596009  0.72725664  1
  O2-  O132  1  0.00533630  0.24706367  0.27308259  1
  O2-  O133  1  0.00303401  0.25432441  0.60873830  1
  O2-  O134  1  0.00190680  0.24494345  0.93671798  1
  O2-  O135  1  0.00061980  0.75320024  0.27825934  1
  O2-  O136  1  0.00332465  0.74720687  0.60343509  1
  O2-  O137  1  0.00540054  0.74712349  0.93839032  1
  O2-  O138  1  0.49799296  0.25097196  0.27865260  1
  O2-  O139  1  0.49891226  0.24887128  0.60659156  1
  O2-  O140  1  0.49759457  0.24897197  0.93509810  1
  O2-  O141  1  0.50446784  0.74469721  0.27462358  1
  O2-  O142  1  0.49856096  0.74927951  0.60848322  1
  O2-  O143  1  0.49969829  0.75034962  0.93304855  1
  O2-  O144  1  0.07278814  0.18013010  0.08813446  1
  O2-  O145  1  0.07150594  0.17699911  0.42228130  1
  O2-  O146  1  0.07204582  0.17905284  0.75493774  1
  O2-  O147  1  0.07133414  0.67495696  0.08716971  1
  O2-  O148  1  0.06951160  0.67669023  0.42369835  1
  O2-  O149  1  0.07104329  0.68073606  0.75509148  1
  O2-  O150  1  0.57050318  0.17911047  0.09895983  1
  O2-  O151  1  0.57103631  0.18251424  0.42511058  1
  O2-  O152  1  0.57254037  0.17769833  0.75273841  1
  O2-  O153  1  0.56849904  0.67780797  0.09917951  1
  O2-  O154  1  0.57374323  0.67652601  0.42341836  1
  O2-  O155  1  0.57162177  0.67534144  0.75305116  1
  O2-  O156  1  0.17770303  0.43436519  0.23218169  1
  O2-  O157  1  0.17726160  0.42848128  0.56954219  1
  O2-  O158  1  0.17582409  0.42970887  0.91204602  1
  O2-  O159  1  0.17464224  0.92972368  0.23476497  1
  O2-  O160  1  0.18109182  0.93179899  0.56820270  1
  O2-  O161  1  0.17608592  0.92982943  0.91073889  1
  O2-  O162  1  0.67757600  0.42636599  0.23505796  1
  O2-  O163  1  0.67982344  0.42686346  0.57726563  1
  O2-  O164  1  0.68285942  0.43270596  0.89861577  1
  O2-  O165  1  0.67999938  0.92769364  0.23530449  1
  O2-  O166  1  0.67586027  0.92931526  0.57622279  1
  O2-  O167  1  0.68212674  0.92816883  0.89916936  1
  O2-  O168  1  0.42825775  0.32074376  0.10097027  1
  O2-  O169  1  0.42994417  0.32089407  0.42730391  1
  O2-  O170  1  0.43019671  0.32121990  0.75474205  1
  O2-  O171  1  0.42916033  0.82201686  0.09790897  1
  O2-  O172  1  0.43023562  0.81628885  0.43464706  1
  O2-  O173  1  0.42895321  0.82407758  0.75502533  1
  O2-  O174  1  0.93043932  0.32144147  0.09756583  1
  O2-  O175  1  0.93082001  0.32045982  0.43422547  1
  O2-  O176  1  0.92736117  0.31980148  0.75618421  1
  O2-  O177  1  0.93285984  0.81867778  0.10141226  1
  O2-  O178  1  0.92663789  0.82103810  0.42474762  1
  O2-  O179  1  0.93010689  0.82252404  0.76418920  1
  O2-  O180  1  0.32407946  0.07213941  0.23557148  1
  O2-  O181  1  0.32405898  0.07202711  0.57864364  1
  O2-  O182  1  0.31618130  0.06975458  0.89826876  1
  O2-  O183  1  0.32200859  0.57177740  0.24397230  1
  O2-  O184  1  0.32004533  0.56921438  0.56786120  1
  O2-  O185  1  0.31944114  0.56874420  0.90366024  1
  O2-  O186  1  0.81978476  0.07378074  0.24440365  1
  O2-  O187  1  0.81723442  0.07118519  0.56543559  1
  O2-  O188  1  0.82220117  0.07063638  0.90286639  1
  O2-  O189  1  0.82519015  0.57515985  0.24389906  1
  O2-  O190  1  0.81774881  0.56939259  0.56682209  1
  O2-  O191  1  0.82295483  0.57177096  0.91078116  1
  O2-  O192  1  0.04908936  0.08443664  0.26894128  1
  O2-  O193  1  0.03926876  0.09016478  0.60078652  1
  O2-  O194  1  0.04858640  0.08389789  0.93708348  1
  O2-  O195  1  0.04007688  0.59069172  0.26714584  1
  O2-  O196  1  0.04386759  0.58434778  0.60526503  1
  O2-  O197  1  0.04738735  0.58421259  0.93281318  1
  O2-  O198  1  0.54395901  0.08783689  0.27426140  1
  O2-  O199  1  0.54430474  0.08658791  0.59919938  1
  O2-  O200  1  0.54387270  0.08111430  0.92881399  1
  O2-  O201  1  0.54824876  0.58121847  0.27394408  1
  O2-  O202  1  0.54252556  0.58515437  0.59962169  1
  O2-  O203  1  0.54064284  0.58133414  0.93108318  1
  O2-  O204  1  0.16867594  0.20352983  0.27275935  1
  O2-  O205  1  0.16516598  0.20282378  0.60224889  1
  O2-  O206  1  0.16359805  0.20538751  0.93326159  1
  O2-  O207  1  0.16197206  0.70607903  0.26965641  1
  O2-  O208  1  0.16595270  0.70426708  0.60416559  1
  O2-  O209  1  0.16680423  0.70022930  0.93573486  1
  O2-  O210  1  0.66161119  0.20952036  0.27262959  1
  O2-  O211  1  0.66190707  0.20896470  0.59862173  1
  O2-  O212  1  0.66812616  0.20987779  0.93053779  1
  O2-  O213  1  0.66812440  0.70021875  0.27262153  1
  O2-  O214  1  0.66076045  0.70505564  0.59834499  1
  O2-  O215  1  0.67004914  0.70413990  0.93209286  1
  O2-  O216  1  0.08354344  0.45832526  0.06279532  1
  O2-  O217  1  0.08310437  0.46548454  0.39975363  1
  O2-  O218  1  0.07994748  0.45567572  0.73725426  1
  O2-  O219  1  0.08701028  0.95779271  0.06475743  1
  O2-  O220  1  0.07930478  0.95769389  0.40220571  1
  O2-  O221  1  0.08468010  0.96563982  0.73446929  1
  O2-  O222  1  0.58490925  0.46106650  0.06721522  1
  O2-  O223  1  0.58437975  0.45812307  0.40648659  1
  O2-  O224  1  0.58365194  0.45183353  0.72600526  1
  O2-  O225  1  0.58080253  0.95590698  0.06441351  1
  O2-  O226  1  0.58782982  0.96310231  0.40580099  1
  O2-  O227  1  0.58258616  0.95545016  0.72650158  1
  O2-  O228  1  0.19662114  0.33258087  0.06187220  1
  O2-  O229  1  0.20446877  0.33445273  0.40105299  1
  O2-  O230  1  0.20249750  0.32646466  0.73416080  1
  O2-  O231  1  0.19546958  0.83064632  0.05959156  1
  O2-  O232  1  0.20537321  0.82919530  0.40119289  1
  O2-  O233  1  0.20556089  0.83357069  0.73581342  1
  O2-  O234  1  0.71181121  0.33465076  0.06525260  1
  O2-  O235  1  0.71151911  0.33258673  0.40446012  1
  O2-  O236  1  0.70338564  0.33310308  0.72764169  1
  O2-  O237  1  0.71034443  0.82960730  0.06651855  1
  O2-  O238  1  0.70757073  0.83026423  0.40288187  1
  O2-  O239  1  0.69677350  0.83163292  0.72437250  1
  O2-  O240  1  0.45559629  0.41542140  0.27754724  1
  O2-  O241  1  0.45647868  0.41166762  0.60064073  1
  O2-  O242  1  0.45850427  0.41834242  0.93324543  1
  O2-  O243  1  0.46345697  0.91800628  0.27139968  1
  O2-  O244  1  0.45513514  0.91274889  0.60136737  1
  O2-  O245  1  0.45466711  0.91927401  0.92863195  1
  O2-  O246  1  0.95947247  0.41803996  0.26633571  1
  O2-  O247  1  0.95412349  0.41623540  0.60659763  1
  O2-  O248  1  0.95992258  0.41705423  0.92954685  1
  O2-  O249  1  0.95314023  0.91530160  0.27314488  1
  O2-  O250  1  0.96054416  0.91936952  0.59797111  1
  O2-  O251  1  0.96230005  0.91840452  0.93465233  1
  O2-  O252  1  0.33473303  0.29749500  0.27600208  1
  O2-  O253  1  0.33576669  0.29235792  0.60386138  1
  O2-  O254  1  0.32753702  0.29543508  0.93385557  1
  O2-  O255  1  0.33285588  0.79294594  0.26650241  1
  O2-  O256  1  0.33483739  0.79138903  0.60513121  1
  O2-  O257  1  0.32808862  0.79244304  0.93414805  1
  O2-  O258  1  0.83304333  0.28854788  0.26797877  1
  O2-  O259  1  0.83729017  0.29170121  0.60393262  1
  O2-  O260  1  0.83328869  0.29161330  0.92802386  1
  O2-  O261  1  0.83637833  0.79188242  0.27230552  1
  O2-  O262  1  0.83146281  0.79054264  0.59779823  1
  O2-  O263  1  0.83607074  0.79091922  0.93112018  1
  O2-  O264  1  0.41853142  0.04397626  0.06408368  1
  O2-  O265  1  0.42027649  0.04337402  0.40508840  1
  O2-  O266  1  0.41948435  0.04772493  0.72706828  1
  O2-  O267  1  0.41686723  0.54008071  0.07153183  1
  O2-  O268  1  0.41631629  0.55075823  0.39640484  1
  O2-  O269  1  0.42119117  0.54195025  0.73267827  1
  O2-  O270  1  0.92147992  0.04528689  0.07002055  1
  O2-  O271  1  0.91791016  0.05264659  0.39315917  1
  O2-  O272  1  0.91644940  0.04415235  0.73287394  1
  O2-  O273  1  0.91906179  0.54786647  0.06023868  1
  O2-  O274  1  0.91594653  0.54604590  0.39660383  1
  O2-  O275  1  0.91488483  0.54542148  0.73618298  1
  O2-  O276  1  0.28708405  0.16583698  0.06628405  1
  O2-  O277  1  0.29473620  0.16907876  0.40482892  1
  O2-  O278  1  0.29734505  0.16471069  0.72954880  1
  O2-  O279  1  0.28757482  0.66577921  0.07140848  1
  O2-  O280  1  0.29258348  0.66499227  0.39478577  1
  O2-  O281  1  0.29326101  0.66739786  0.73634150  1
  O2-  O282  1  0.79440817  0.17144098  0.06723329  1
  O2-  O283  1  0.79053316  0.16301976  0.39824097  1
  O2-  O284  1  0.78635361  0.16612736  0.73232287  1
  O2-  O285  1  0.80030899  0.66670169  0.06197176  1
  O2-  O286  1  0.79677867  0.66464406  0.39824926  1
  O2-  O287  1  0.78596247  0.66827852  0.73294438  1
