# generated using pymatgen
data_Ca2Al2SiO7
_symmetry_space_group_name_H-M   'P 1'
_cell_length_a   15.45087109
_cell_length_b   15.45098801
_cell_length_c   15.27806567
_cell_angle_alpha   90.00258421
_cell_angle_beta   90.00358665
_cell_angle_gamma   90.00878682
_symmetry_Int_Tables_number   1
_chemical_formula_structural   Ca2Al2SiO7
_chemical_formula_sum   'Ca48 Al48 Si24 O168'
_cell_volume   3647.35126240
_cell_formula_units_Z   24
loop_
 _symmetry_equiv_pos_site_id
 _symmetry_equiv_pos_as_xyz
  1  'x, y, z'
loop_
 _atom_type_symbol
 _atom_type_oxidation_number
  Ca2+  2.0
  Al0+  0.0
  Si0+  0.0
  O2-  -2.0
loop_
 _atom_site_type_symbol
 _atom_site_label
 _atom_site_symmetry_multiplicity
 _atom_site_fract_x
 _atom_site_fract_y
 _atom_site_fract_z
 _atom_site_occupancy
  Ca2+  Ca0  1  0.17418766  0.07935044  0.16980187  1
  Ca2+  Ca1  1  0.16100043  0.06987194  0.50634561  1
  Ca2+  Ca2  1  0.16995084  0.07969629  0.83589855  1
  Ca2+  Ca3  1  0.16703037  0.58097736  0.16651595  1
  Ca2+  Ca4  1  0.17914175  0.59203106  0.50663891  1
  Ca2+  Ca5  1  0.17039267  0.58689203  0.83734409  1
  Ca2+  Ca6  1  0.67620642  0.07314851  0.16887366  1
  Ca2+  Ca7  1  0.66976125  0.07437234  0.50638629  1
  Ca2+  Ca8  1  0.66306852  0.07439819  0.83993697  1
  Ca2+  Ca9  1  0.67078053  0.57725688  0.17012290  1
  Ca2+  Ca10  1  0.67174876  0.58346736  0.50912056  1
  Ca2+  Ca11  1  0.65903791  0.57361228  0.83418392  1
  Ca2+  Ca12  1  0.07590495  0.33498550  0.15373637  1
  Ca2+  Ca13  1  0.08636106  0.32354491  0.49952913  1
  Ca2+  Ca14  1  0.07911796  0.33022242  0.83081177  1
  Ca2+  Ca15  1  0.07952374  0.83082573  0.16491316  1
  Ca2+  Ca16  1  0.08162688  0.83374575  0.49496679  1
  Ca2+  Ca17  1  0.08774403  0.82339211  0.82598867  1
  Ca2+  Ca18  1  0.57804235  0.33262061  0.15630511  1
  Ca2+  Ca19  1  0.58998162  0.32940015  0.50288255  1
  Ca2+  Ca20  1  0.58350170  0.33094123  0.82741275  1
  Ca2+  Ca21  1  0.58284483  0.83609586  0.16038853  1
  Ca2+  Ca22  1  0.58305470  0.83522174  0.49951268  1
  Ca2+  Ca23  1  0.57506435  0.83650547  0.82519917  1
  Ca2+  Ca24  1  0.32789767  0.41948874  0.16848606  1
  Ca2+  Ca25  1  0.33682601  0.43184735  0.50563411  1
  Ca2+  Ca26  1  0.32987846  0.42245456  0.84026818  1
  Ca2+  Ca27  1  0.33162129  0.91878954  0.16596944  1
  Ca2+  Ca28  1  0.32117209  0.90920827  0.50737675  1
  Ca2+  Ca29  1  0.33527192  0.91705013  0.83582028  1
  Ca2+  Ca30  1  0.83172517  0.41964467  0.16666130  1
  Ca2+  Ca31  1  0.82951991  0.42468760  0.50403466  1
  Ca2+  Ca32  1  0.82230502  0.41106397  0.83901027  1
  Ca2+  Ca33  1  0.82752315  0.92215462  0.17538194  1
  Ca2+  Ca34  1  0.82590248  0.91420850  0.50147853  1
  Ca2+  Ca35  1  0.82008016  0.92213861  0.84035780  1
  Ca2+  Ca36  1  0.41720650  0.17064036  0.15541220  1
  Ca2+  Ca37  1  0.42596998  0.16390375  0.50064442  1
  Ca2+  Ca38  1  0.41775573  0.17133908  0.83009707  1
  Ca2+  Ca39  1  0.41540383  0.67335560  0.16090413  1
  Ca2+  Ca40  1  0.41787747  0.66677136  0.50289835  1
  Ca2+  Ca41  1  0.41917546  0.67874506  0.82344424  1
  Ca2+  Ca42  1  0.91278357  0.16689701  0.16065610  1
  Ca2+  Ca43  1  0.91914098  0.16148514  0.49778697  1
  Ca2+  Ca44  1  0.91502528  0.16943098  0.83157195  1
  Ca2+  Ca45  1  0.91687717  0.67207566  0.16233873  1
  Ca2+  Ca46  1  0.91975005  0.67236754  0.49274989  1
  Ca2+  Ca47  1  0.93136360  0.66321692  0.82948810  1
  Al0+  Al48  1  -0.00010919  -0.00100199  0.00243783  1
  Al0+  Al49  1  0.00066853  -0.00043757  0.33366706  1
  Al0+  Al50  1  0.00037330  0.00045505  0.66948299  1
  Al0+  Al51  1  0.00060308  0.49867147  -0.00576588  1
  Al0+  Al52  1  0.00058656  0.49744366  0.33842244  1
  Al0+  Al53  1  0.00114726  0.50024066  0.65919208  1
  Al0+  Al54  1  0.49863283  0.00012191  0.00546246  1
  Al0+  Al55  1  0.50023647  0.00049162  0.33353219  1
  Al0+  Al56  1  0.49873799  0.00211308  0.65994651  1
  Al0+  Al57  1  0.49922399  0.50005547  0.00163701  1
  Al0+  Al58  1  0.49873354  0.49939462  0.33531988  1
  Al0+  Al59  1  0.49970319  0.50239399  0.67195285  1
  Al0+  Al60  1  0.24990328  0.25063368  0.00398933  1
  Al0+  Al61  1  0.25089135  0.24950606  0.33279754  1
  Al0+  Al62  1  0.24874103  0.25099954  0.65890065  1
  Al0+  Al63  1  0.25117447  0.75043924  -0.00702885  1
  Al0+  Al64  1  0.25113730  0.74885739  0.33814511  1
  Al0+  Al65  1  0.24964360  0.75037947  0.66806192  1
  Al0+  Al66  1  0.74982129  0.24980326  0.00437742  1
  Al0+  Al67  1  0.75051720  0.24820618  0.33465371  1
  Al0+  Al68  1  0.75003129  0.25206232  0.66426133  1
  Al0+  Al69  1  0.75018500  0.74844761  0.00136672  1
  Al0+  Al70  1  0.75033421  0.74815176  0.33473076  1
  Al0+  Al71  1  0.75069215  0.75068415  0.67096416  1
  Al0+  Al72  1  0.68135458  0.43037048  0.68027927  1
  Al0+  Al73  1  0.17846221  0.92988836  0.68185654  1
  Al0+  Al74  1  0.92789199  0.31955110  0.98665862  1
  Al0+  Al75  1  0.67779096  0.92678268  0.01519457  1
  Al0+  Al76  1  0.57135141  0.18016403  0.65366278  1
  Al0+  Al77  1  0.07089668  0.67900274  0.65063728  1
  Al0+  Al78  1  0.42968771  0.82207449  0.64919776  1
  Al0+  Al79  1  0.67757979  0.92951863  0.68121825  1
  Al0+  Al80  1  0.67748313  0.42941292  0.01390759  1
  Al0+  Al81  1  0.82154564  0.07175523  0.35039986  1
  Al0+  Al82  1  0.06918787  0.68035873  0.98729128  1
  Al0+  Al83  1  0.42684705  0.32221634  0.98703737  1
  Al0+  Al84  1  0.31946719  0.57056747  0.68332312  1
  Al0+  Al85  1  0.67773038  0.92808791  0.34984633  1
  Al0+  Al86  1  0.32015456  0.56938640  0.34643162  1
  Al0+  Al87  1  0.31946045  0.07114072  0.01161711  1
  Al0+  Al88  1  0.17852551  0.42995762  0.01128109  1
  Al0+  Al89  1  0.82230261  0.07061024  0.01454613  1
  Al0+  Al90  1  0.92887844  0.81995252  0.31944311  1
  Al0+  Al91  1  0.57205734  0.67843476  0.65219371  1
  Al0+  Al92  1  0.82178782  0.57000585  0.34586723  1
  Al0+  Al93  1  0.43151767  0.82185824  0.98728619  1
  Al0+  Al94  1  0.18152315  0.93085609  0.34489251  1
  Al0+  Al95  1  0.07075548  0.17864927  0.65321792  1
  Si0+  Si96  1  0.92826011  0.82229365  0.65173591  1
  Si0+  Si97  1  0.82170795  0.07255183  0.68365614  1
  Si0+  Si98  1  0.17851258  0.92517931  0.01615256  1
  Si0+  Si99  1  0.57036832  0.17999789  0.98542259  1
  Si0+  Si100  1  0.07154871  0.17855351  0.31639762  1
  Si0+  Si101  1  0.42796185  0.81998979  0.31784866  1
  Si0+  Si102  1  0.32089255  0.57339803  0.01625394  1
  Si0+  Si103  1  0.07297899  0.17643745  0.98486272  1
  Si0+  Si104  1  0.43007874  0.32177544  0.31764742  1
  Si0+  Si105  1  0.67724359  0.42814253  0.34970351  1
  Si0+  Si106  1  0.82526352  0.57309794  0.68429919  1
  Si0+  Si107  1  0.42750438  0.32343146  0.64928297  1
  Si0+  Si108  1  0.57419044  0.67685377  0.98458545  1
  Si0+  Si109  1  0.57087446  0.67707159  0.31812907  1
  Si0+  Si110  1  0.07372127  0.67708284  0.31705506  1
  Si0+  Si111  1  0.32142624  0.07416537  0.68078568  1
  Si0+  Si112  1  0.32280377  0.07483070  0.35132521  1
  Si0+  Si113  1  0.57147812  0.17883614  0.31600700  1
  Si0+  Si114  1  0.17749011  0.42592650  0.68223701  1
  Si0+  Si115  1  0.17715738  0.42555884  0.35143510  1
  Si0+  Si116  1  0.92719253  0.32162914  0.64694477  1
  Si0+  Si117  1  0.92605201  0.82399153  0.98260030  1
  Si0+  Si118  1  0.82392690  0.57001595  0.01473687  1
  Si0+  Si119  1  0.92971309  0.32125298  0.31795809  1
  O2-  O120  1  0.24478432  -0.00331070  0.05943283  1
  O2-  O121  1  0.25575134  0.00465822  0.39442801  1
  O2-  O122  1  0.25372844  0.00530426  0.72587290  1
  O2-  O123  1  0.25321269  0.50358865  0.06024845  1
  O2-  O124  1  0.24437487  0.49598490  0.39431524  1
  O2-  O125  1  0.24394123  0.49554523  0.72765334  1
  O2-  O126  1  0.75439740  -0.00547417  0.06398219  1
  O2-  O127  1  0.75028202  -0.00056684  0.40011319  1
  O2-  O128  1  0.75092734  0.00602257  0.72716051  1
  O2-  O129  1  0.75170518  0.50495525  0.05957108  1
  O2-  O130  1  0.74605812  0.49667412  0.39311094  1
  O2-  O131  1  0.75513474  0.50557811  0.72792118  1
  O2-  O132  1  0.00124708  0.25075338  0.27492398  1
  O2-  O133  1  -0.00369646  0.25265279  0.60380283  1
  O2-  O134  1  0.00079008  0.24203148  0.94150026  1
  O2-  O135  1  0.00289214  0.74335345  0.27270601  1
  O2-  O136  1  -0.00491108  0.75267105  0.60540908  1
  O2-  O137  1  -0.00405345  0.75619463  0.93904725  1
  O2-  O138  1  0.49971178  0.24984082  0.27439227  1
  O2-  O139  1  0.49664812  0.25497429  0.60507991  1
  O2-  O140  1  0.50298228  0.24950166  0.94026888  1
  O2-  O141  1  0.50199664  0.75112065  0.27642542  1
  O2-  O142  1  0.50381886  0.75207163  0.59879551  1
  O2-  O143  1  0.50901450  0.74957975  0.94224187  1
  O2-  O144  1  0.07430810  0.17870375  0.09086710  1
  O2-  O145  1  0.07241535  0.18023254  0.42156912  1
  O2-  O146  1  0.07087853  0.18080506  0.76622028  1
  O2-  O147  1  0.06872506  0.68056428  0.10092343  1
  O2-  O148  1  0.07405127  0.67955572  0.42249900  1
  O2-  O149  1  0.06984835  0.67846100  0.76399110  1
  O2-  O150  1  0.56802325  0.18200880  0.09154786  1
  O2-  O151  1  0.57093249  0.18048330  0.42117582  1
  O2-  O152  1  0.56981931  0.18131200  0.76675779  1
  O2-  O153  1  0.57249923  0.67489757  0.09086840  1
  O2-  O154  1  0.56976538  0.67358471  0.42270648  1
  O2-  O155  1  0.56849546  0.67776844  0.76571507  1
  O2-  O156  1  0.17674218  0.42428746  0.24569558  1
  O2-  O157  1  0.18064800  0.42460013  0.57628342  1
  O2-  O158  1  0.17908145  0.42981700  0.89849769  1
  O2-  O159  1  0.18423198  0.93161832  0.23148741  1
  O2-  O160  1  0.17771288  0.93139119  0.56837256  1
  O2-  O161  1  0.17904098  0.92549289  0.91075349  1
  O2-  O162  1  0.67605425  0.42897893  0.24394562  1
  O2-  O163  1  0.68497057  0.42982391  0.56674666  1
  O2-  O164  1  0.67808735  0.42911843  0.90094040  1
  O2-  O165  1  0.67686179  0.93047471  0.23635345  1
  O2-  O166  1  0.68023192  0.93053021  0.56828697  1
  O2-  O167  1  0.67631002  0.93028936  0.90145251  1
  O2-  O168  1  0.42815247  0.32092696  0.10091682  1
  O2-  O169  1  0.43103769  0.32257636  0.42263526  1
  O2-  O170  1  0.42516383  0.32148435  0.75476506  1
  O2-  O171  1  0.42879667  0.81812392  0.10127688  1
  O2-  O172  1  0.42568743  0.81865727  0.42234439  1
  O2-  O173  1  0.43077125  0.82231781  0.76300231  1
  O2-  O174  1  0.93083130  0.32167640  0.10030264  1
  O2-  O175  1  0.93099579  0.32163957  0.42296048  1
  O2-  O176  1  0.92599684  0.32147818  0.75250606  1
  O2-  O177  1  0.92714301  0.82229693  0.08848009  1
  O2-  O178  1  0.93050171  0.81875422  0.43259313  1
  O2-  O179  1  0.93003007  0.82127532  0.75745183  1
  O2-  O180  1  0.32136052  0.07721592  0.24552757  1
  O2-  O181  1  0.31938239  0.07479734  0.57491545  1
  O2-  O182  1  0.31870501  0.07246279  0.89868418  1
  O2-  O183  1  0.31979731  0.56838826  0.23314060  1
  O2-  O184  1  0.31938117  0.56823243  0.56973910  1
  O2-  O185  1  0.31956335  0.57320451  0.91102920  1
  O2-  O186  1  0.81925147  0.07362103  0.23710625  1
  O2-  O187  1  0.82218550  0.07139896  0.57798664  1
  O2-  O188  1  0.82054813  0.07123816  0.90081201  1
  O2-  O189  1  0.82093850  0.56745881  0.23250743  1
  O2-  O190  1  0.82518891  0.57098611  0.57828228  1
  O2-  O191  1  0.82504436  0.56855105  0.90938464  1
  O2-  O192  1  0.04452593  0.08734837  0.26839920  1
  O2-  O193  1  0.03872600  0.08215614  0.59901078  1
  O2-  O194  1  0.05174584  0.08091483  0.94043487  1
  O2-  O195  1  0.05045424  0.58045679  0.27564500  1
  O2-  O196  1  0.04487590  0.58184617  0.59437859  1
  O2-  O197  1  0.03798044  0.58538344  0.93044381  1
  O2-  O198  1  0.54298594  0.08707383  0.26853647  1
  O2-  O199  1  0.53894409  0.08699620  0.59396727  1
  O2-  O200  1  0.54202297  0.08659902  0.94147553  1
  O2-  O201  1  0.53964701  0.58586734  0.26970625  1
  O2-  O202  1  0.54122685  0.58003626  0.59928416  1
  O2-  O203  1  0.54453224  0.58449800  0.93861106  1
  O2-  O204  1  0.16493276  0.20530006  0.27004846  1
  O2-  O205  1  0.16538509  0.20973382  0.59367135  1
  O2-  O206  1  0.16481880  0.20625589  0.93862089  1
  O2-  O207  1  0.16675716  0.70554129  0.27089136  1
  O2-  O208  1  0.16654383  0.71275623  0.59816502  1
  O2-  O209  1  0.16522705  0.71017540  0.93155194  1
  O2-  O210  1  0.66344894  0.20737807  0.26920939  1
  O2-  O211  1  0.66667871  0.21309990  0.59725333  1
  O2-  O212  1  0.66417815  0.20456778  0.94070196  1
  O2-  O213  1  0.66316681  0.70174819  0.27036151  1
  O2-  O214  1  0.67351484  0.70275574  0.60278322  1
  O2-  O215  1  0.66972083  0.69509149  0.93956396  1
  O2-  O216  1  0.08263924  0.46274610  0.06636796  1
  O2-  O217  1  0.08357165  0.44641835  0.39889151  1
  O2-  O218  1  0.08152582  0.44934621  0.72366141  1
  O2-  O219  1  0.08407330  0.94765395  0.06186106  1
  O2-  O220  1  0.08596587  0.96226467  0.39956684  1
  O2-  O221  1  0.08270423  0.96085802  0.73737154  1
  O2-  O222  1  0.58135056  0.46009540  0.07016692  1
  O2-  O223  1  0.58398461  0.45278573  0.39609885  1
  O2-  O224  1  0.58443074  0.45846521  0.73454783  1
  O2-  O225  1  0.58175679  0.95889842  0.07061265  1
  O2-  O226  1  0.57861911  0.95773843  0.40118776  1
  O2-  O227  1  0.57954178  0.96290662  0.73063790  1
  O2-  O228  1  0.20814674  0.33494477  0.06914456  1
  O2-  O229  1  0.20563982  0.33213581  0.39700452  1
  O2-  O230  1  0.20402921  0.33220549  0.72738955  1
  O2-  O231  1  0.20875850  0.83303792  0.06259383  1
  O2-  O232  1  0.21090041  0.83454474  0.39991107  1
  O2-  O233  1  0.21048299  0.83432727  0.73550422  1
  O2-  O234  1  0.70876529  0.33436167  0.06996454  1
  O2-  O235  1  0.70407191  0.33454682  0.39455456  1
  O2-  O236  1  0.71334041  0.33384929  0.73428207  1
  O2-  O237  1  0.70154069  0.82604304  0.06654349  1
  O2-  O238  1  0.70439890  0.82855506  0.40004429  1
  O2-  O239  1  0.70785414  0.83334436  0.73639624  1
  O2-  O240  1  0.45840800  0.41312855  0.26908028  1
  O2-  O241  1  0.45636064  0.41672818  0.60504564  1
  O2-  O242  1  0.45562866  0.41972370  0.93440296  1
  O2-  O243  1  0.45236318  0.91412045  0.27214779  1
  O2-  O244  1  0.45187864  0.92128629  0.59528183  1
  O2-  O245  1  0.45851963  0.92011162  0.93481872  1
  O2-  O246  1  0.95774699  0.41343349  0.27046916  1
  O2-  O247  1  0.95319419  0.41458203  0.59914850  1
  O2-  O248  1  0.96082188  0.41337428  0.92938009  1
  O2-  O249  1  0.96241523  0.91609728  0.26524461  1
  O2-  O250  1  0.95490205  0.91566287  0.60607166  1
  O2-  O251  1  0.95000724  0.91830657  0.93739827  1
  O2-  O252  1  0.33683803  0.29503799  0.27130989  1
  O2-  O253  1  0.33521437  0.29880164  0.59939912  1
  O2-  O254  1  0.33095442  0.28979149  0.93330909  1
  O2-  O255  1  0.33750961  0.78788429  0.26950068  1
  O2-  O256  1  0.33204575  0.78808764  0.59840708  1
  O2-  O257  1  0.33645763  0.79066997  0.93080271  1
  O2-  O258  1  0.83665599  0.29437652  0.27186158  1
  O2-  O259  1  0.83486911  0.29578537  0.59855328  1
  O2-  O260  1  0.83068016  0.28932823  0.93323379  1
  O2-  O261  1  0.83237865  0.78794769  0.26496060  1
  O2-  O262  1  0.83434452  0.79728373  0.60617085  1
  O2-  O263  1  0.83221418  0.79754673  0.93728245  1
  O2-  O264  1  0.41369600  0.04050486  0.07066319  1
  O2-  O265  1  0.41733343  0.05073882  0.39486741  1
  O2-  O266  1  0.41542638  0.05009384  0.72564599  1
  O2-  O267  1  0.41438628  0.54906686  0.06298429  1
  O2-  O268  1  0.41557394  0.53620052  0.40207924  1
  O2-  O269  1  0.41523222  0.54077857  0.73828669  1
  O2-  O270  1  0.92253050  0.04733798  0.06779469  1
  O2-  O271  1  0.92122493  0.04530428  0.40053496  1
  O2-  O272  1  0.91422370  0.04623825  0.73091521  1
  O2-  O273  1  0.91534731  0.53983401  0.06213971  1
  O2-  O274  1  0.91726888  0.53857475  0.40253273  1
  O2-  O275  1  0.91942979  0.54406993  0.72756462  1
  O2-  O276  1  0.28903544  0.16595890  0.07020628  1
  O2-  O277  1  0.29753993  0.16828552  0.39787420  1
  O2-  O278  1  0.29452078  0.16860576  0.72478247  1
  O2-  O279  1  0.29222906  0.66655538  0.06199629  1
  O2-  O280  1  0.29082028  0.66478378  0.40283956  1
  O2-  O281  1  0.28693135  0.66629231  0.73652000  1
  O2-  O282  1  0.79143385  0.16724700  0.06975788  1
  O2-  O283  1  0.79317221  0.17047971  0.40378965  1
  O2-  O284  1  0.79814717  0.16799085  0.72615267  1
  O2-  O285  1  0.80152881  0.66453137  0.06095501  1
  O2-  O286  1  0.79207226  0.66529179  0.40142624  1
  O2-  O287  1  0.80410027  0.66689626  0.73083438  1
