# generated using pymatgen
data_Ca2Al2SiO7
_symmetry_space_group_name_H-M   'P 1'
_cell_length_a   15.45707722
_cell_length_b   15.45724108
_cell_length_c   15.28286269
_cell_angle_alpha   89.98861228
_cell_angle_beta   89.99163335
_cell_angle_gamma   89.99055820
_symmetry_Int_Tables_number   1
_chemical_formula_structural   Ca2Al2SiO7
_chemical_formula_sum   'Ca48 Al48 Si24 O168'
_cell_volume   3651.43899195
_cell_formula_units_Z   24
loop_
 _symmetry_equiv_pos_site_id
 _symmetry_equiv_pos_as_xyz
  1  'x, y, z'
loop_
 _atom_type_symbol
 _atom_type_oxidation_number
  Ca2+  2.0
  Al0+  0.0
  Si0+  0.0
  O2-  -2.0
loop_
 _atom_site_type_symbol
 _atom_site_label
 _atom_site_symmetry_multiplicity
 _atom_site_fract_x
 _atom_site_fract_y
 _atom_site_fract_z
 _atom_site_occupancy
  Ca2+  Ca0  1  0.17076028  0.08934169  0.16487936  1
  Ca2+  Ca1  1  0.16445762  0.07283931  0.50894184  1
  Ca2+  Ca2  1  0.16644454  0.07682429  0.84276590  1
  Ca2+  Ca3  1  0.17479413  0.59450402  0.16871676  1
  Ca2+  Ca4  1  0.17416489  0.59422217  0.50354881  1
  Ca2+  Ca5  1  0.17247558  0.59253643  0.83881251  1
  Ca2+  Ca6  1  0.66595870  0.07973657  0.17524167  1
  Ca2+  Ca7  1  0.67477857  0.08191879  0.49763313  1
  Ca2+  Ca8  1  0.67055299  0.08407231  0.83781057  1
  Ca2+  Ca9  1  0.66992872  0.57892632  0.16753543  1
  Ca2+  Ca10  1  0.67204665  0.58453907  0.50593951  1
  Ca2+  Ca11  1  0.68057601  0.57978915  0.84353342  1
  Ca2+  Ca12  1  0.07112494  0.32924490  0.15863705  1
  Ca2+  Ca13  1  0.07412627  0.33195421  0.49367897  1
  Ca2+  Ca14  1  0.08305186  0.32890125  0.83744983  1
  Ca2+  Ca15  1  0.07689131  0.82490292  0.15972494  1
  Ca2+  Ca16  1  0.08132834  0.82681035  0.50236971  1
  Ca2+  Ca17  1  0.07535831  0.82523919  0.82939118  1
  Ca2+  Ca18  1  0.58332793  0.32233598  0.15597666  1
  Ca2+  Ca19  1  0.58353694  0.32718188  0.49248242  1
  Ca2+  Ca20  1  0.58397832  0.33596101  0.84018455  1
  Ca2+  Ca21  1  0.58272505  0.82924024  0.16299181  1
  Ca2+  Ca22  1  0.58409737  0.82725259  0.49192093  1
  Ca2+  Ca23  1  0.57424652  0.83469962  0.83451802  1
  Ca2+  Ca24  1  0.33581501  0.42455511  0.16734250  1
  Ca2+  Ca25  1  0.33192154  0.42984425  0.50410479  1
  Ca2+  Ca26  1  0.33375890  0.42667321  0.84408788  1
  Ca2+  Ca27  1  0.33833478  0.91988822  0.16416657  1
  Ca2+  Ca28  1  0.32478462  0.91603621  0.50546767  1
  Ca2+  Ca29  1  0.32486987  0.91642326  0.84248623  1
  Ca2+  Ca30  1  0.83539109  0.41438500  0.16470918  1
  Ca2+  Ca31  1  0.83422914  0.42158495  0.50419634  1
  Ca2+  Ca32  1  0.83349152  0.42716712  0.84337875  1
  Ca2+  Ca33  1  0.82956013  0.92183298  0.17364510  1
  Ca2+  Ca34  1  0.83353423  0.92462565  0.50557820  1
  Ca2+  Ca35  1  0.84152757  0.91785396  0.83681794  1
  Ca2+  Ca36  1  0.42653278  0.16927141  0.15274873  1
  Ca2+  Ca37  1  0.42439273  0.16938558  0.49158671  1
  Ca2+  Ca38  1  0.41787279  0.16896446  0.83715662  1
  Ca2+  Ca39  1  0.41927831  0.66666860  0.16174482  1
  Ca2+  Ca40  1  0.41912508  0.66411276  0.49267204  1
  Ca2+  Ca41  1  0.40977685  0.66727991  0.83259554  1
  Ca2+  Ca42  1  0.91428635  0.17542786  0.16021224  1
  Ca2+  Ca43  1  0.90783278  0.17022539  0.49343431  1
  Ca2+  Ca44  1  0.91534164  0.17047371  0.83303963  1
  Ca2+  Ca45  1  0.92700609  0.66900732  0.15432642  1
  Ca2+  Ca46  1  0.92683027  0.66538803  0.49552694  1
  Ca2+  Ca47  1  0.91987970  0.67125113  0.82581643  1
  Al0+  Al48  1  0.00019203  -0.00174199  -0.00239230  1
  Al0+  Al49  1  0.00164479  0.00077074  0.33765784  1
  Al0+  Al50  1  -0.00031614  -0.00068343  0.67179847  1
  Al0+  Al51  1  0.00266167  0.49915900  -0.00373701  1
  Al0+  Al52  1  0.00151750  0.49883140  0.32496760  1
  Al0+  Al53  1  0.00157455  0.49856314  0.66583441  1
  Al0+  Al54  1  0.49947080  -0.00101938  -0.00528618  1
  Al0+  Al55  1  0.49992704  -0.00060816  0.33639127  1
  Al0+  Al56  1  0.50111643  0.00110588  0.66302221  1
  Al0+  Al57  1  0.50190161  0.49843417  0.00491512  1
  Al0+  Al58  1  0.50011022  0.50151413  0.33487933  1
  Al0+  Al59  1  0.49815219  0.49885285  0.66949977  1
  Al0+  Al60  1  0.25168044  0.25020483  -0.00217159  1
  Al0+  Al61  1  0.24873974  0.25249761  0.33679075  1
  Al0+  Al62  1  0.25092843  0.25151392  0.66254699  1
  Al0+  Al63  1  0.24965361  0.75157380  -0.00056170  1
  Al0+  Al64  1  0.25048526  0.75142057  0.33426498  1
  Al0+  Al65  1  0.24944059  0.75207406  0.67087276  1
  Al0+  Al66  1  0.75010924  0.24961802  -0.00548245  1
  Al0+  Al67  1  0.74857595  0.25068539  0.32946902  1
  Al0+  Al68  1  0.74852570  0.24782032  0.66952084  1
  Al0+  Al69  1  0.75016510  0.75066798  0.00113157  1
  Al0+  Al70  1  0.74913359  0.74958373  0.33292261  1
  Al0+  Al71  1  0.74803999  0.75157077  0.66727962  1
  Al0+  Al72  1  0.57158693  0.17693818  0.98258190  1
  Al0+  Al73  1  0.92604914  0.82025446  0.98623779  1
  Al0+  Al74  1  0.18009940  0.93051468  0.68247613  1
  Al0+  Al75  1  0.92891999  0.31952020  0.32017144  1
  Al0+  Al76  1  0.32087802  0.07067420  0.01253101  1
  Al0+  Al77  1  0.82416910  0.57249056  0.01627676  1
  Al0+  Al78  1  0.81922743  0.07000206  0.68263873  1
  Al0+  Al79  1  0.56831109  0.17942299  0.32006527  1
  Al0+  Al80  1  0.07191303  0.17829981  0.98586731  1
  Al0+  Al81  1  0.92830343  0.32071516  0.98187683  1
  Al0+  Al82  1  0.31988572  0.57054549  0.34751668  1
  Al0+  Al83  1  0.31980678  0.57239382  0.01544386  1
  Al0+  Al84  1  0.07189678  0.67877569  0.98444276  1
  Al0+  Al85  1  0.57270710  0.67798591  0.32003412  1
  Al0+  Al86  1  0.68118260  0.42824193  0.01679168  1
  Al0+  Al87  1  0.67763707  0.92646288  0.34878288  1
  Al0+  Al88  1  0.92655968  0.82247199  0.64923295  1
  Al0+  Al89  1  0.82151686  0.57121645  0.67766475  1
  Al0+  Al90  1  0.31955582  0.56982896  0.68137018  1
  Al0+  Al91  1  0.07121035  0.67832648  0.65010502  1
  Al0+  Al92  1  0.42960608  0.32281687  0.98532821  1
  Al0+  Al93  1  0.43046861  0.81943296  0.98727272  1
  Al0+  Al94  1  0.82061785  0.07187096  0.34642744  1
  Al0+  Al95  1  0.07142046  0.68086135  0.31867219  1
  Si0+  Si96  1  0.57121614  0.17935114  0.64830694  1
  Si0+  Si97  1  0.92801493  0.31909561  0.65148836  1
  Si0+  Si98  1  0.92811303  0.82378997  0.31840647  1
  Si0+  Si99  1  0.67958321  0.43001973  0.34835985  1
  Si0+  Si100  1  0.32358418  0.07384218  0.68179358  1
  Si0+  Si101  1  0.07418644  0.17566160  0.31907318  1
  Si0+  Si102  1  0.42779440  0.82142195  0.31800294  1
  Si0+  Si103  1  0.42863157  0.32241065  0.64904487  1
  Si0+  Si104  1  0.17781845  0.42487603  0.68366528  1
  Si0+  Si105  1  0.07179854  0.17883205  0.65179459  1
  Si0+  Si106  1  0.32145641  0.07326164  0.34820832  1
  Si0+  Si107  1  0.42661489  0.32272894  0.31798562  1
  Si0+  Si108  1  0.17889165  0.42612891  0.01779654  1
  Si0+  Si109  1  0.56912299  0.67777197  0.65377888  1
  Si0+  Si110  1  0.57206590  0.67664430  0.98361892  1
  Si0+  Si111  1  0.67716599  0.92959378  0.01384372  1
  Si0+  Si112  1  0.82353237  0.57040148  0.34664839  1
  Si0+  Si113  1  0.67769377  0.42717266  0.68237907  1
  Si0+  Si114  1  0.42908595  0.82160951  0.65125132  1
  Si0+  Si115  1  0.82164319  0.06977726  0.01421689  1
  Si0+  Si116  1  0.18001804  0.92980069  0.34881492  1
  Si0+  Si117  1  0.17586165  0.42781043  0.35082036  1
  Si0+  Si118  1  0.17733509  0.92924057  0.01971817  1
  Si0+  Si119  1  0.67544862  0.92747758  0.68505951  1
  O2-  O120  1  0.24505590  -0.00050166  0.06359960  1
  O2-  O121  1  0.24828273  0.00474582  0.39072100  1
  O2-  O122  1  0.25449527  0.00701235  0.72658491  1
  O2-  O123  1  0.24462783  0.49799655  0.06216775  1
  O2-  O124  1  0.24421420  0.49698252  0.39515606  1
  O2-  O125  1  0.24357314  0.49643614  0.72699804  1
  O2-  O126  1  0.75012002  -0.00105178  0.05540180  1
  O2-  O127  1  0.75185313  -0.00297768  0.39789401  1
  O2-  O128  1  0.74731380  -0.00753038  0.72925858  1
  O2-  O129  1  0.75370073  0.49928586  0.06785380  1
  O2-  O130  1  0.75041233  0.50146961  0.39050546  1
  O2-  O131  1  0.74652774  0.49645169  0.72382795  1
  O2-  O132  1  0.00320043  0.24238928  0.27704622  1
  O2-  O133  1  -0.00058481  0.24819616  0.60853510  1
  O2-  O134  1  -0.00005213  0.24792089  0.93230549  1
  O2-  O135  1  -0.00646108  0.75268633  0.27379301  1
  O2-  O136  1  -0.00440481  0.74699125  0.59938237  1
  O2-  O137  1  -0.00647860  0.74440744  0.93617899  1
  O2-  O138  1  0.49026172  0.25010171  0.27392994  1
  O2-  O139  1  0.49914355  0.25037267  0.60710686  1
  O2-  O140  1  0.50062939  0.25070829  0.93319777  1
  O2-  O141  1  0.49908951  0.75477983  0.27553843  1
  O2-  O142  1  0.49893269  0.74929175  0.60966059  1
  O2-  O143  1  0.50111469  0.74224109  0.93789341  1
  O2-  O144  1  0.06996266  0.17974466  0.10001663  1
  O2-  O145  1  0.07659385  0.17659842  0.42514969  1
  O2-  O146  1  0.07456305  0.18141320  0.75605659  1
  O2-  O147  1  0.07337604  0.68477065  0.09854523  1
  O2-  O148  1  0.07202191  0.68245266  0.43179474  1
  O2-  O149  1  0.07221200  0.68010333  0.76268523  1
  O2-  O150  1  0.56986701  0.17502302  0.09635469  1
  O2-  O151  1  0.56780367  0.18286384  0.43400910  1
  O2-  O152  1  0.57110918  0.17750545  0.75259070  1
  O2-  O153  1  0.57205034  0.67957359  0.08936659  1
  O2-  O154  1  0.57017388  0.67666572  0.43404434  1
  O2-  O155  1  0.56754569  0.67777109  0.75849239  1
  O2-  O156  1  0.17713526  0.42337881  0.24609763  1
  O2-  O157  1  0.18053989  0.42037796  0.57784388  1
  O2-  O158  1  0.18202081  0.42406234  0.91199668  1
  O2-  O159  1  0.18029160  0.92925351  0.24425869  1
  O2-  O160  1  0.18325705  0.93149800  0.56824520  1
  O2-  O161  1  0.17888031  0.92966475  0.91418581  1
  O2-  O162  1  0.67879159  0.42920206  0.24418797  1
  O2-  O163  1  0.67727174  0.42623223  0.57596456  1
  O2-  O164  1  0.68161849  0.43233014  0.90258742  1
  O2-  O165  1  0.67668810  0.92839918  0.23504190  1
  O2-  O166  1  0.67155822  0.92970670  0.57969971  1
  O2-  O167  1  0.67529482  0.93072980  0.90862415  1
  O2-  O168  1  0.43045189  0.32030320  0.09923367  1
  O2-  O169  1  0.42897429  0.32142138  0.42449555  1
  O2-  O170  1  0.42754263  0.32341389  0.75324305  1
  O2-  O171  1  0.43422799  0.82096666  0.10046691  1
  O2-  O172  1  0.42539758  0.82012123  0.42423591  1
  O2-  O173  1  0.43073221  0.82368398  0.75601886  1
  O2-  O174  1  0.92828012  0.31703726  0.09566153  1
  O2-  O175  1  0.92950223  0.32015473  0.43427760  1
  O2-  O176  1  0.92778100  0.31812317  0.75565631  1
  O2-  O177  1  0.92806720  0.82366397  0.10041028  1
  O2-  O178  1  0.93030123  0.82441476  0.42390750  1
  O2-  O179  1  0.92879223  0.82139507  0.76221123  1
  O2-  O180  1  0.32215624  0.07322930  0.24358732  1
  O2-  O181  1  0.32276083  0.07247492  0.57530553  1
  O2-  O182  1  0.32002166  0.06680282  0.89931653  1
  O2-  O183  1  0.31997327  0.57048163  0.23504143  1
  O2-  O184  1  0.32241263  0.56843945  0.56788628  1
  O2-  O185  1  0.31843223  0.57162796  0.90214248  1
  O2-  O186  1  0.81985481  0.07117368  0.23290318  1
  O2-  O187  1  0.81553539  0.07440363  0.56956048  1
  O2-  O188  1  0.82099480  0.06849220  0.90894191  1
  O2-  O189  1  0.82325065  0.56912334  0.24230432  1
  O2-  O190  1  0.81953364  0.56765000  0.56357371  1
  O2-  O191  1  0.82055184  0.57298315  0.90230673  1
  O2-  O192  1  0.05338468  0.08099222  0.27380717  1
  O2-  O193  1  0.04507337  0.08630630  0.60607278  1
  O2-  O194  1  0.04504677  0.07970838  0.93369462  1
  O2-  O195  1  0.04600846  0.58340885  0.26515198  1
  O2-  O196  1  0.04836112  0.57702467  0.59814055  1
  O2-  O197  1  0.05550022  0.57748602  0.93455316  1
  O2-  O198  1  0.54023235  0.08094963  0.26936255  1
  O2-  O199  1  0.54339025  0.08776237  0.59934655  1
  O2-  O200  1  0.53981594  0.08098849  0.92704631  1
  O2-  O201  1  0.53981218  0.58228050  0.26619888  1
  O2-  O202  1  0.54142501  0.58541800  0.60609250  1
  O2-  O203  1  0.54996630  0.58214797  0.93983427  1
  O2-  O204  1  0.16770573  0.20358463  0.27344321  1
  O2-  O205  1  0.16347668  0.20630809  0.60161301  1
  O2-  O206  1  0.16984427  0.20606929  0.93193065  1
  O2-  O207  1  0.16728234  0.71619053  0.26650431  1
  O2-  O208  1  0.16956794  0.71414191  0.59890531  1
  O2-  O209  1  0.16770015  0.71426097  0.93144694  1
  O2-  O210  1  0.66302292  0.21207044  0.26571329  1
  O2-  O211  1  0.66239269  0.21011916  0.60076960  1
  O2-  O212  1  0.66880917  0.20529954  0.92837059  1
  O2-  O213  1  0.66935414  0.70577899  0.26472833  1
  O2-  O214  1  0.66053739  0.70491606  0.60515516  1
  O2-  O215  1  0.66410367  0.70647428  0.93719591  1
  O2-  O216  1  0.08373733  0.44749726  0.06173301  1
  O2-  O217  1  0.08177682  0.45363131  0.39625507  1
  O2-  O218  1  0.08277325  0.44521822  0.72772094  1
  O2-  O219  1  0.08369754  0.95467891  0.06610393  1
  O2-  O220  1  0.08877688  0.95525741  0.39917899  1
  O2-  O221  1  0.08458746  0.96065785  0.73685834  1
  O2-  O222  1  0.58325814  0.45511355  0.07145355  1
  O2-  O223  1  0.58812153  0.45718798  0.39799301  1
  O2-  O224  1  0.58407549  0.45213195  0.72788744  1
  O2-  O225  1  0.58654327  0.95945780  0.06179687  1
  O2-  O226  1  0.57934645  0.95536258  0.40382978  1
  O2-  O227  1  0.58264826  0.95888101  0.73100923  1
  O2-  O228  1  0.20723532  0.33396941  0.06554585  1
  O2-  O229  1  0.20073326  0.33459105  0.40094250  1
  O2-  O230  1  0.20726127  0.33213697  0.73011183  1
  O2-  O231  1  0.20760478  0.83754257  0.06623709  1
  O2-  O232  1  0.21334277  0.84093841  0.39883352  1
  O2-  O233  1  0.21409105  0.83664421  0.73801726  1
  O2-  O234  1  0.70882350  0.32768387  0.06644347  1
  O2-  O235  1  0.70855454  0.33880600  0.39697117  1
  O2-  O236  1  0.70255309  0.33396141  0.72829363  1
  O2-  O237  1  0.70184703  0.83734301  0.06179359  1
  O2-  O238  1  0.70279298  0.82674565  0.40186941  1
  O2-  O239  1  0.69388817  0.83232388  0.73019082  1
  O2-  O240  1  0.45539360  0.41531267  0.27380144  1
  O2-  O241  1  0.45871514  0.41360058  0.60042406  1
  O2-  O242  1  0.46056044  0.42078279  0.93203668  1
  O2-  O243  1  0.45079165  0.91633057  0.27406603  1
  O2-  O244  1  0.45680893  0.91341678  0.60203688  1
  O2-  O245  1  0.46340138  0.91280474  0.92877249  1
  O2-  O246  1  0.96100144  0.41346979  0.26296446  1
  O2-  O247  1  0.95605554  0.41032183  0.60260602  1
  O2-  O248  1  0.95783578  0.41851071  0.92943447  1
  O2-  O249  1  0.95733958  0.91708047  0.27308235  1
  O2-  O250  1  0.95971761  0.92136940  0.59853841  1
  O2-  O251  1  0.95822249  0.91690243  0.93250168  1
  O2-  O252  1  0.33038399  0.30263648  0.27573668  1
  O2-  O253  1  0.33728660  0.29546794  0.59882265  1
  O2-  O254  1  0.33230135  0.29482529  0.93081418  1
  O2-  O255  1  0.33589718  0.79452107  0.27034590  1
  O2-  O256  1  0.33726709  0.79440418  0.60421396  1
  O2-  O257  1  0.33352428  0.79213616  0.93335930  1
  O2-  O258  1  0.83316372  0.29025323  0.26530036  1
  O2-  O259  1  0.83534883  0.29029610  0.60487686  1
  O2-  O260  1  0.83140998  0.29186095  0.92734089  1
  O2-  O261  1  0.83297199  0.80230465  0.27481553  1
  O2-  O262  1  0.82456823  0.80050584  0.59972542  1
  O2-  O263  1  0.82580971  0.79927018  0.93341850  1
  O2-  O264  1  0.41681159  0.03523111  0.06585533  1
  O2-  O265  1  0.41129135  0.04340398  0.39879078  1
  O2-  O266  1  0.41798648  0.04815211  0.72508659  1
  O2-  O267  1  0.41723263  0.54241130  0.06796275  1
  O2-  O268  1  0.41630167  0.53855777  0.40308434  1
  O2-  O269  1  0.41574673  0.53761670  0.73549567  1
  O2-  O270  1  0.91340207  0.04234710  0.06188388  1
  O2-  O271  1  0.92092878  0.04882727  0.40006821  1
  O2-  O272  1  0.91692858  0.04456387  0.73568055  1
  O2-  O273  1  0.92436630  0.54488779  0.06565052  1
  O2-  O274  1  0.91500376  0.53885998  0.39319317  1
  O2-  O275  1  0.91817646  0.53983925  0.73014724  1
  O2-  O276  1  0.29341516  0.16797792  0.06694249  1
  O2-  O277  1  0.29723897  0.16622533  0.39674717  1
  O2-  O278  1  0.30007858  0.16919004  0.72421969  1
  O2-  O279  1  0.28963882  0.66981214  0.06898422  1
  O2-  O280  1  0.29014494  0.66823160  0.40135060  1
  O2-  O281  1  0.29286558  0.66775411  0.73331287  1
  O2-  O282  1  0.79390378  0.16225666  0.05894774  1
  O2-  O283  1  0.78684577  0.16945895  0.39994956  1
  O2-  O284  1  0.78455805  0.16529673  0.73734671  1
  O2-  O285  1  0.79358832  0.67097235  0.06906739  1
  O2-  O286  1  0.79779407  0.66287784  0.39362382  1
  O2-  O287  1  0.78962551  0.66761116  0.73081489  1
