# generated using pymatgen
data_Ca2Al2SiO7
_symmetry_space_group_name_H-M   'P 1'
_cell_length_a   15.45687523
_cell_length_b   15.45744466
_cell_length_c   15.28310567
_cell_angle_alpha   89.98707083
_cell_angle_beta   90.00308386
_cell_angle_gamma   90.01331036
_symmetry_Int_Tables_number   1
_chemical_formula_structural   Ca2Al2SiO7
_chemical_formula_sum   'Ca48 Al48 Si24 O168'
_cell_volume   3651.49738783
_cell_formula_units_Z   24
loop_
 _symmetry_equiv_pos_site_id
 _symmetry_equiv_pos_as_xyz
  1  'x, y, z'
loop_
 _atom_type_symbol
 _atom_type_oxidation_number
  Ca2+  2.0
  Al0+  0.0
  Si0+  0.0
  O2-  -2.0
loop_
 _atom_site_type_symbol
 _atom_site_label
 _atom_site_symmetry_multiplicity
 _atom_site_fract_x
 _atom_site_fract_y
 _atom_site_fract_z
 _atom_site_occupancy
  Ca2+  Ca0  1  0.17690465  0.08159578  0.16667142  1
  Ca2+  Ca1  1  0.17742810  0.07682058  0.50964829  1
  Ca2+  Ca2  1  0.17625033  0.07999708  0.84385268  1
  Ca2+  Ca3  1  0.17092950  0.57876422  0.17145595  1
  Ca2+  Ca4  1  0.16882979  0.58528220  0.50651673  1
  Ca2+  Ca5  1  0.16020902  0.57100316  0.83615031  1
  Ca2+  Ca6  1  0.67769187  0.09183894  0.16814217  1
  Ca2+  Ca7  1  0.67395092  0.08069483  0.51108600  1
  Ca2+  Ca8  1  0.67343249  0.09196183  0.83642671  1
  Ca2+  Ca9  1  0.66234085  0.58415030  0.16611516  1
  Ca2+  Ca10  1  0.66620261  0.58408981  0.50329046  1
  Ca2+  Ca11  1  0.67165144  0.57566690  0.84671815  1
  Ca2+  Ca12  1  0.08346322  0.32588620  0.15756055  1
  Ca2+  Ca13  1  0.07901782  0.33617591  0.50275859  1
  Ca2+  Ca14  1  0.08187976  0.33067294  0.82742309  1
  Ca2+  Ca15  1  0.08848393  0.82978742  0.16085855  1
  Ca2+  Ca16  1  0.09345690  0.82486603  0.50005053  1
  Ca2+  Ca17  1  0.08953947  0.83120818  0.82809389  1
  Ca2+  Ca18  1  0.57970093  0.32936520  0.15627793  1
  Ca2+  Ca19  1  0.57662472  0.32591484  0.50316877  1
  Ca2+  Ca20  1  0.58113439  0.32397917  0.82768714  1
  Ca2+  Ca21  1  0.57628404  0.82356615  0.15602554  1
  Ca2+  Ca22  1  0.58592393  0.83089379  0.49600998  1
  Ca2+  Ca23  1  0.58152476  0.83411301  0.83209523  1
  Ca2+  Ca24  1  0.32722742  0.41956556  0.16930754  1
  Ca2+  Ca25  1  0.32935670  0.42287430  0.50742368  1
  Ca2+  Ca26  1  0.32335678  0.40811757  0.83521642  1
  Ca2+  Ca27  1  0.33702762  0.92230648  0.16319558  1
  Ca2+  Ca28  1  0.33223224  0.92694622  0.50761525  1
  Ca2+  Ca29  1  0.32648726  0.92294925  0.83798446  1
  Ca2+  Ca30  1  0.82520635  0.42104421  0.16168962  1
  Ca2+  Ca31  1  0.83405592  0.41652950  0.50661437  1
  Ca2+  Ca32  1  0.83098038  0.41947014  0.84122891  1
  Ca2+  Ca33  1  0.83427361  0.92879155  0.16818141  1
  Ca2+  Ca34  1  0.82732051  0.92647248  0.50742349  1
  Ca2+  Ca35  1  0.82728683  0.92679605  0.83549034  1
  Ca2+  Ca36  1  0.42061529  0.16089448  0.15677738  1
  Ca2+  Ca37  1  0.41322984  0.16513274  0.50137554  1
  Ca2+  Ca38  1  0.42398224  0.16286029  0.82654645  1
  Ca2+  Ca39  1  0.42228978  0.66869684  0.15910370  1
  Ca2+  Ca40  1  0.42032010  0.66868592  0.48965502  1
  Ca2+  Ca41  1  0.41753906  0.67328267  0.83419487  1
  Ca2+  Ca42  1  0.92204684  0.16164162  0.15686540  1
  Ca2+  Ca43  1  0.90942577  0.16928276  0.49982454  1
  Ca2+  Ca44  1  0.91929425  0.16718877  0.82861629  1
  Ca2+  Ca45  1  0.92039174  0.66708279  0.16159971  1
  Ca2+  Ca46  1  0.93134837  0.66963124  0.49586940  1
  Ca2+  Ca47  1  0.91980118  0.66660190  0.82708075  1
  Al0+  Al48  1  0.00096862  -0.00153071  0.00241905  1
  Al0+  Al49  1  -0.00048236  0.00101896  0.33941703  1
  Al0+  Al50  1  -0.00138681  -0.00133414  0.67122524  1
  Al0+  Al51  1  -0.00099108  0.49944349  0.00989521  1
  Al0+  Al52  1  -0.00284118  0.49934033  0.32714376  1
  Al0+  Al53  1  0.00162614  0.50062481  0.66052062  1
  Al0+  Al54  1  0.50045387  -0.00107619  -0.00571857  1
  Al0+  Al55  1  0.50078358  0.00020755  0.33587429  1
  Al0+  Al56  1  0.50153878  -0.00257425  0.66743907  1
  Al0+  Al57  1  0.49893793  0.49937441  -0.00174150  1
  Al0+  Al58  1  0.49830967  0.49842128  0.33377163  1
  Al0+  Al59  1  0.50044985  0.49940307  0.66344297  1
  Al0+  Al60  1  0.24869678  0.24858519  0.00521212  1
  Al0+  Al61  1  0.24783060  0.25037595  0.33770283  1
  Al0+  Al62  1  0.24967119  0.25237640  0.66813364  1
  Al0+  Al63  1  0.24982990  0.74928543  -0.00208352  1
  Al0+  Al64  1  0.25077601  0.74867664  0.33052234  1
  Al0+  Al65  1  0.25344786  0.74981846  0.66517627  1
  Al0+  Al66  1  0.74985319  0.25288788  0.00530274  1
  Al0+  Al67  1  0.74856228  0.25225764  0.33682599  1
  Al0+  Al68  1  0.74972505  0.25168737  0.66102723  1
  Al0+  Al69  1  0.75255831  0.75034267  0.00029103  1
  Al0+  Al70  1  0.75145848  0.74906456  0.32880472  1
  Al0+  Al71  1  0.75217684  0.75156730  0.66808279  1
  Al0+  Al72  1  0.57251945  0.67742734  0.98309422  1
  Al0+  Al73  1  0.42623048  0.32172498  0.65084845  1
  Al0+  Al74  1  0.17868085  0.43226753  0.67882572  1
  Al0+  Al75  1  0.32324239  0.07010418  0.01471128  1
  Al0+  Al76  1  0.67908216  0.92677009  0.68253531  1
  Al0+  Al77  1  0.32074304  0.07276273  0.68287574  1
  Al0+  Al78  1  0.81963433  0.07457705  0.68338952  1
  Al0+  Al79  1  0.57237543  0.18045897  0.98797874  1
  Al0+  Al80  1  0.07201273  0.67941529  0.31686376  1
  Al0+  Al81  1  0.07105847  0.17767341  0.98754743  1
  Al0+  Al82  1  0.17872206  0.92690369  0.01609961  1
  Al0+  Al83  1  0.82118511  0.07251988  0.34852067  1
  Al0+  Al84  1  0.42800440  0.82070943  0.98227486  1
  Al0+  Al85  1  0.31999370  0.56974908  0.34591897  1
  Al0+  Al86  1  0.67671851  0.42967926  0.01413602  1
  Al0+  Al87  1  0.93017626  0.32036985  0.65414427  1
  Al0+  Al88  1  0.57106540  0.67776731  0.31942530  1
  Al0+  Al89  1  0.82112790  0.57355497  0.01562562  1
  Al0+  Al90  1  0.81973588  0.07127460  0.01325003  1
  Al0+  Al91  1  0.17833718  0.42763005  0.01460360  1
  Al0+  Al92  1  0.07103825  0.68080591  0.65447258  1
  Al0+  Al93  1  0.17961284  0.92665348  0.68092173  1
  Al0+  Al94  1  0.32203031  0.07139094  0.34800315  1
  Al0+  Al95  1  0.57008313  0.17721179  0.65013186  1
  Si0+  Si96  1  0.06996762  0.17958665  0.32011124  1
  Si0+  Si97  1  0.17814458  0.92767079  0.34991286  1
  Si0+  Si98  1  0.32531649  0.57218989  0.68363124  1
  Si0+  Si99  1  0.07206046  0.17579231  0.65078047  1
  Si0+  Si100  1  0.57014221  0.17980811  0.31881781  1
  Si0+  Si101  1  0.17516766  0.42881337  0.35123737  1
  Si0+  Si102  1  0.92652070  0.82305223  0.64932874  1
  Si0+  Si103  1  0.92921132  0.82308392  0.31612456  1
  Si0+  Si104  1  0.82158898  0.57002308  0.67766810  1
  Si0+  Si105  1  0.42569391  0.32191119  0.98526986  1
  Si0+  Si106  1  0.67806584  0.43013700  0.35124925  1
  Si0+  Si107  1  0.67790850  0.92745038  0.01718264  1
  Si0+  Si108  1  0.42902423  0.82356956  0.31654822  1
  Si0+  Si109  1  0.32069901  0.57172041  0.01492050  1
  Si0+  Si110  1  0.06969984  0.67727457  0.98549975  1
  Si0+  Si111  1  0.67981606  0.92699462  0.34719118  1
  Si0+  Si112  1  0.67835089  0.43083549  0.67964925  1
  Si0+  Si113  1  0.42706584  0.31977699  0.31832213  1
  Si0+  Si114  1  0.92978252  0.32181406  0.98563550  1
  Si0+  Si115  1  0.92983970  0.82207003  0.98427938  1
  Si0+  Si116  1  0.43028665  0.81923366  0.64928380  1
  Si0+  Si117  1  0.82113740  0.57135771  0.34982622  1
  Si0+  Si118  1  0.92586884  0.32090145  0.31521197  1
  Si0+  Si119  1  0.57348172  0.67868683  0.65187721  1
  O2-  O120  1  0.25139848  -0.00188952  0.06573910  1
  O2-  O121  1  0.24810488  -0.00478868  0.39321155  1
  O2-  O122  1  0.24481911  0.00403155  0.73125260  1
  O2-  O123  1  0.25384516  0.50178026  0.06010175  1
  O2-  O124  1  0.24154533  0.49996092  0.39446411  1
  O2-  O125  1  0.25654426  0.50322541  0.72669569  1
  O2-  O126  1  0.74289864  -0.00058859  0.06219697  1
  O2-  O127  1  0.74638687  -0.00302201  0.39235868  1
  O2-  O128  1  0.74601161  0.00362045  0.73213835  1
  O2-  O129  1  0.74350634  0.50668726  0.06508574  1
  O2-  O130  1  0.74857808  0.50253554  0.39326389  1
  O2-  O131  1  0.74860192  0.50253532  0.72094503  1
  O2-  O132  1  -0.00313983  0.24852994  0.27614925  1
  O2-  O133  1  0.00121271  0.24255859  0.60543248  1
  O2-  O134  1  -0.00289928  0.25311918  0.94062533  1
  O2-  O135  1  -0.00051759  0.75656123  0.27053549  1
  O2-  O136  1  0.00063675  0.75926950  0.60605820  1
  O2-  O137  1  -0.00030119  0.74885280  0.94318522  1
  O2-  O138  1  0.49471024  0.24568707  0.27600874  1
  O2-  O139  1  0.49389105  0.24550984  0.59976872  1
  O2-  O140  1  0.49550355  0.25383327  0.94278287  1
  O2-  O141  1  0.49716870  0.75336483  0.27384334  1
  O2-  O142  1  0.50296552  0.74885103  0.60774683  1
  O2-  O143  1  0.50225992  0.75003680  0.93206257  1
  O2-  O144  1  0.06943707  0.17940213  0.10165250  1
  O2-  O145  1  0.07034981  0.18193060  0.42508708  1
  O2-  O146  1  0.07158283  0.17855741  0.75620834  1
  O2-  O147  1  0.06889574  0.67805097  0.09084065  1
  O2-  O148  1  0.07054148  0.67934437  0.43013989  1
  O2-  O149  1  0.06592746  0.67712319  0.76744271  1
  O2-  O150  1  0.57269465  0.18287138  0.10219524  1
  O2-  O151  1  0.57156071  0.18201407  0.42346303  1
  O2-  O152  1  0.57326744  0.18287003  0.76341216  1
  O2-  O153  1  0.56893876  0.67893674  0.09708659  1
  O2-  O154  1  0.57087167  0.67954579  0.43326010  1
  O2-  O155  1  0.57371793  0.67741768  0.75622437  1
  O2-  O156  1  0.17740581  0.42699448  0.24564805  1
  O2-  O157  1  0.17653598  0.43711908  0.56550502  1
  O2-  O158  1  0.17574925  0.42990793  0.90162312  1
  O2-  O159  1  0.17598138  0.92940257  0.24471977  1
  O2-  O160  1  0.18528772  0.92493239  0.56666965  1
  O2-  O161  1  0.17876840  0.92711589  0.90302186  1
  O2-  O162  1  0.67895127  0.42833470  0.24657605  1
  O2-  O163  1  0.67847688  0.43358377  0.57388714  1
  O2-  O164  1  0.68127640  0.42816880  0.90035165  1
  O2-  O165  1  0.68046378  0.92764853  0.24185712  1
  O2-  O166  1  0.68348734  0.92235012  0.56821194  1
  O2-  O167  1  0.68223297  0.92572084  0.91200114  1
  O2-  O168  1  0.42674167  0.32232533  0.09170160  1
  O2-  O169  1  0.42899494  0.32125219  0.42301779  1
  O2-  O170  1  0.43094371  0.32651437  0.76393339  1
  O2-  O171  1  0.42904933  0.81819548  0.09664923  1
  O2-  O172  1  0.43045067  0.82331263  0.42241838  1
  O2-  O173  1  0.42758561  0.81617965  0.75369120  1
  O2-  O174  1  0.93074904  0.32049651  0.09178626  1
  O2-  O175  1  0.92578318  0.32344659  0.42042744  1
  O2-  O176  1  0.93151370  0.32423492  0.76680125  1
  O2-  O177  1  0.93037750  0.82233294  0.08973886  1
  O2-  O178  1  0.92740861  0.82005537  0.42157681  1
  O2-  O179  1  0.92170287  0.81822392  0.75456122  1
  O2-  O180  1  0.32272403  0.07225225  0.23549593  1
  O2-  O181  1  0.31906641  0.06909929  0.56836327  1
  O2-  O182  1  0.32185157  0.07162551  0.90190568  1
  O2-  O183  1  0.32026186  0.56548221  0.23298664  1
  O2-  O184  1  0.32544976  0.57257157  0.57754151  1
  O2-  O185  1  0.31860704  0.57227790  0.90942761  1
  O2-  O186  1  0.82105429  0.07298341  0.23533903  1
  O2-  O187  1  0.81754106  0.07270234  0.56919568  1
  O2-  O188  1  0.81995560  0.07157181  0.90098190  1
  O2-  O189  1  0.82164119  0.57002777  0.24528794  1
  O2-  O190  1  0.81969307  0.56905922  0.57201806  1
  O2-  O191  1  0.82517521  0.56933929  0.90150170  1
  O2-  O192  1  0.04382571  0.08625817  0.27494842  1
  O2-  O193  1  0.04925062  0.08063313  0.60590208  1
  O2-  O194  1  0.04020503  0.08122783  0.93454791  1
  O2-  O195  1  0.03790633  0.58322045  0.26335384  1
  O2-  O196  1  0.03552697  0.58818109  0.59542200  1
  O2-  O197  1  0.03884516  0.58478518  0.94112152  1
  O2-  O198  1  0.54821715  0.08562832  0.27345043  1
  O2-  O199  1  0.54806031  0.07624705  0.59883237  1
  O2-  O200  1  0.54758757  0.08311527  0.93411284  1
  O2-  O201  1  0.53924138  0.58058315  0.26733256  1
  O2-  O202  1  0.54664292  0.58709819  0.60289812  1
  O2-  O203  1  0.54434204  0.57839878  0.93081086  1
  O2-  O204  1  0.16114959  0.21017049  0.27225379  1
  O2-  O205  1  0.16426452  0.20501067  0.60384737  1
  O2-  O206  1  0.16762684  0.20956046  0.93519898  1
  O2-  O207  1  0.16945489  0.70656036  0.26252642  1
  O2-  O208  1  0.16931238  0.70811370  0.60030719  1
  O2-  O209  1  0.16168145  0.70174643  0.93799809  1
  O2-  O210  1  0.66088378  0.21378130  0.27222877  1
  O2-  O211  1  0.66562537  0.21315516  0.59443037  1
  O2-  O212  1  0.66829493  0.21584842  0.93520740  1
  O2-  O213  1  0.66890265  0.70506012  0.26588945  1
  O2-  O214  1  0.66595689  0.70640768  0.60424995  1
  O2-  O215  1  0.67356276  0.70312272  0.93423836  1
  O2-  O216  1  0.08417708  0.45899895  0.07280163  1
  O2-  O217  1  0.07897722  0.45250335  0.39273424  1
  O2-  O218  1  0.08319189  0.46744879  0.73271243  1
  O2-  O219  1  0.08090213  0.95442227  0.07039748  1
  O2-  O220  1  0.08539921  0.95313447  0.39823028  1
  O2-  O221  1  0.07703663  0.94262476  0.72871627  1
  O2-  O222  1  0.57656682  0.45288198  0.06691423  1
  O2-  O223  1  0.58630575  0.45714604  0.39857314  1
  O2-  O224  1  0.58706166  0.45832814  0.72722275  1
  O2-  O225  1  0.58253188  0.94819767  0.06011773  1
  O2-  O226  1  0.58597288  0.95009025  0.39401563  1
  O2-  O227  1  0.57855755  0.94614769  0.73229822  1
  O2-  O228  1  0.20893478  0.33290742  0.07204476  1
  O2-  O229  1  0.20211786  0.33645933  0.39872052  1
  O2-  O230  1  0.20406430  0.33478190  0.73255819  1
  O2-  O231  1  0.20702979  0.82743166  0.06788394  1
  O2-  O232  1  0.20330763  0.83277939  0.39320368  1
  O2-  O233  1  0.21302464  0.82943863  0.73360941  1
  O2-  O234  1  0.71121271  0.33598437  0.07349952  1
  O2-  O235  1  0.70877942  0.34004241  0.40048503  1
  O2-  O236  1  0.70749111  0.33954507  0.72477480  1
  O2-  O237  1  0.70773676  0.83545013  0.06450458  1
  O2-  O238  1  0.70731503  0.83331897  0.39334118  1
  O2-  O239  1  0.71251285  0.83013480  0.73741979  1
  O2-  O240  1  0.45891317  0.40969285  0.26972846  1
  O2-  O241  1  0.46059765  0.41883485  0.59508038  1
  O2-  O242  1  0.44722697  0.41599306  0.93881157  1
  O2-  O243  1  0.45696338  0.91659688  0.26996389  1
  O2-  O244  1  0.45735274  0.91067129  0.60089477  1
  O2-  O245  1  0.45511843  0.91830849  0.92833901  1
  O2-  O246  1  0.95300968  0.41201464  0.26612652  1
  O2-  O247  1  0.96412538  0.41448942  0.59488610  1
  O2-  O248  1  0.95633146  0.41638144  0.94208988  1
  O2-  O249  1  0.95319303  0.91869609  0.27291123  1
  O2-  O250  1  0.94620161  0.91864729  0.60482759  1
  O2-  O251  1  0.95900007  0.91218542  0.93547721  1
  O2-  O252  1  0.33266896  0.29650058  0.27348669  1
  O2-  O253  1  0.32600991  0.29999010  0.59746357  1
  O2-  O254  1  0.33203938  0.29570472  0.94078362  1
  O2-  O255  1  0.33530082  0.79917148  0.27108113  1
  O2-  O256  1  0.34059453  0.78921716  0.59837738  1
  O2-  O257  1  0.33067647  0.78790134  0.92865685  1
  O2-  O258  1  0.83290063  0.29399527  0.26971622  1
  O2-  O259  1  0.83388585  0.29439617  0.59584398  1
  O2-  O260  1  0.83529142  0.29851735  0.94160503  1
  O2-  O261  1  0.83713365  0.79530196  0.26776460  1
  O2-  O262  1  0.83622607  0.79060196  0.59899463  1
  O2-  O263  1  0.83825285  0.79529877  0.93615501  1
  O2-  O264  1  0.42241506  0.04049665  0.06674117  1
  O2-  O265  1  0.41939950  0.04212558  0.40205941  1
  O2-  O266  1  0.41944412  0.04163204  0.73122362  1
  O2-  O267  1  0.41483389  0.54777150  0.06053253  1
  O2-  O268  1  0.41533927  0.53643951  0.40175414  1
  O2-  O269  1  0.41936437  0.54734496  0.72871099  1
  O2-  O270  1  0.91457362  0.03601171  0.06817439  1
  O2-  O271  1  0.91741879  0.04368998  0.40432359  1
  O2-  O272  1  0.91845356  0.04661668  0.73455877  1
  O2-  O273  1  0.91519184  0.53952520  0.07437501  1
  O2-  O274  1  0.91257015  0.53977259  0.39640330  1
  O2-  O275  1  0.91212568  0.53935805  0.72417344  1
  O2-  O276  1  0.29397501  0.16731189  0.07015893  1
  O2-  O277  1  0.28922853  0.16763395  0.40195198  1
  O2-  O278  1  0.29840155  0.17333904  0.73237224  1
  O2-  O279  1  0.29303359  0.66369776  0.06248873  1
  O2-  O280  1  0.29410226  0.66851849  0.39888588  1
  O2-  O281  1  0.29951631  0.66545205  0.72852599  1
  O2-  O282  1  0.79176274  0.16784686  0.06924901  1
  O2-  O283  1  0.78891040  0.16936421  0.40126525  1
  O2-  O284  1  0.79234374  0.17481329  0.73277779  1
  O2-  O285  1  0.79949144  0.67330339  0.06909204  1
  O2-  O286  1  0.79593140  0.66452583  0.39602056  1
  O2-  O287  1  0.79797184  0.66247960  0.72473260  1
