# generated using pymatgen
data_Ca2Al2SiO7
_symmetry_space_group_name_H-M   'P 1'
_cell_length_a   15.45699584
_cell_length_b   15.45841540
_cell_length_c   15.28255252
_cell_angle_alpha   89.97738095
_cell_angle_beta   90.01653608
_cell_angle_gamma   90.01275142
_symmetry_Int_Tables_number   1
_chemical_formula_structural   Ca2Al2SiO7
_chemical_formula_sum   'Ca48 Al48 Si24 O168'
_cell_volume   3651.62269597
_cell_formula_units_Z   24
loop_
 _symmetry_equiv_pos_site_id
 _symmetry_equiv_pos_as_xyz
  1  'x, y, z'
loop_
 _atom_type_symbol
 _atom_type_oxidation_number
  Ca2+  2.0
  Al0+  0.0
  Si0+  0.0
  O2-  -2.0
loop_
 _atom_site_type_symbol
 _atom_site_label
 _atom_site_symmetry_multiplicity
 _atom_site_fract_x
 _atom_site_fract_y
 _atom_site_fract_z
 _atom_site_occupancy
  Ca2+  Ca0  1  0.17119271  0.08329892  0.17729373  1
  Ca2+  Ca1  1  0.16805559  0.08482704  0.50778879  1
  Ca2+  Ca2  1  0.15943126  0.07612721  0.83280715  1
  Ca2+  Ca3  1  0.16567275  0.58219883  0.16672701  1
  Ca2+  Ca4  1  0.16928937  0.57899080  0.51395128  1
  Ca2+  Ca5  1  0.17144670  0.58089604  0.84043491  1
  Ca2+  Ca6  1  0.67264064  0.08402425  0.16796264  1
  Ca2+  Ca7  1  0.67880972  0.08907250  0.50749077  1
  Ca2+  Ca8  1  0.67370579  0.08605282  0.84196453  1
  Ca2+  Ca9  1  0.67126173  0.58136008  0.17750924  1
  Ca2+  Ca10  1  0.67235074  0.57399354  0.51007752  1
  Ca2+  Ca11  1  0.66484081  0.58421144  0.83488820  1
  Ca2+  Ca12  1  0.08325872  0.32881252  0.16324561  1
  Ca2+  Ca13  1  0.08757602  0.32448118  0.49631853  1
  Ca2+  Ca14  1  0.08567734  0.33171818  0.82650988  1
  Ca2+  Ca15  1  0.08084365  0.82080652  0.16307435  1
  Ca2+  Ca16  1  0.08697333  0.82290778  0.49880014  1
  Ca2+  Ca17  1  0.08610223  0.82343728  0.82509407  1
  Ca2+  Ca18  1  0.57819233  0.33373194  0.16361852  1
  Ca2+  Ca19  1  0.58256162  0.33644077  0.49764310  1
  Ca2+  Ca20  1  0.58884127  0.32466709  0.82548276  1
  Ca2+  Ca21  1  0.58482530  0.83022174  0.15679315  1
  Ca2+  Ca22  1  0.58598178  0.82589819  0.50158974  1
  Ca2+  Ca23  1  0.58726304  0.82455051  0.82996535  1
  Ca2+  Ca24  1  0.33160852  0.41877619  0.16743164  1
  Ca2+  Ca25  1  0.32910358  0.41873382  0.50761837  1
  Ca2+  Ca26  1  0.32207686  0.42544505  0.83495716  1
  Ca2+  Ca27  1  0.33408256  0.92527885  0.17165039  1
  Ca2+  Ca28  1  0.32636985  0.92365477  0.50376957  1
  Ca2+  Ca29  1  0.32742353  0.91376881  0.83195171  1
  Ca2+  Ca30  1  0.82321203  0.42161994  0.17547855  1
  Ca2+  Ca31  1  0.82468913  0.42413172  0.50394745  1
  Ca2+  Ca32  1  0.82991547  0.42087483  0.82844086  1
  Ca2+  Ca33  1  0.82891118  0.92463750  0.16705370  1
  Ca2+  Ca34  1  0.83991716  0.92786782  0.50327661  1
  Ca2+  Ca35  1  0.82908807  0.92918129  0.83838758  1
  Ca2+  Ca36  1  0.41856293  0.17313365  0.16327241  1
  Ca2+  Ca37  1  0.42051385  0.17442480  0.49140275  1
  Ca2+  Ca38  1  0.43197365  0.16589236  0.82666425  1
  Ca2+  Ca39  1  0.42300377  0.66702656  0.15708146  1
  Ca2+  Ca40  1  0.41946439  0.66044422  0.50244162  1
  Ca2+  Ca41  1  0.42272285  0.65714421  0.82922803  1
  Ca2+  Ca42  1  0.91499757  0.16238005  0.16610814  1
  Ca2+  Ca43  1  0.92434988  0.16144388  0.49743484  1
  Ca2+  Ca44  1  0.91579992  0.16706465  0.82413999  1
  Ca2+  Ca45  1  0.92606898  0.65747588  0.16336617  1
  Ca2+  Ca46  1  0.92547899  0.65524060  0.49666893  1
  Ca2+  Ca47  1  0.92623927  0.66394971  0.82484143  1
  Al0+  Al48  1  -0.00014035  -0.00041901  0.00544257  1
  Al0+  Al49  1  -0.00014874  -0.00431368  0.33079811  1
  Al0+  Al50  1  0.00071678  -0.00024874  0.67157855  1
  Al0+  Al51  1  0.00005519  0.49710524  -0.00092500  1
  Al0+  Al52  1  0.00050087  0.49677415  0.33079889  1
  Al0+  Al53  1  -0.00236265  0.49788011  0.66833474  1
  Al0+  Al54  1  0.49960037  0.00006848  -0.00125415  1
  Al0+  Al55  1  0.49908900  -0.00035050  0.33830231  1
  Al0+  Al56  1  0.50111437  -0.00059266  0.65971321  1
  Al0+  Al57  1  0.49723124  0.50026173  -0.00103614  1
  Al0+  Al58  1  0.49789572  0.49907423  0.33136480  1
  Al0+  Al59  1  0.49971059  0.49870906  0.66988898  1
  Al0+  Al60  1  0.24842550  0.25081127  0.00109349  1
  Al0+  Al61  1  0.25219685  0.25014046  0.32798382  1
  Al0+  Al62  1  0.25225601  0.24977444  0.66871397  1
  Al0+  Al63  1  0.25056824  0.74996097  0.00131449  1
  Al0+  Al64  1  0.25087144  0.75025446  0.32712623  1
  Al0+  Al65  1  0.25093286  0.75238688  0.66896495  1
  Al0+  Al66  1  0.75160386  0.25215044  0.00134828  1
  Al0+  Al67  1  0.75010945  0.24885790  0.34089470  1
  Al0+  Al68  1  0.75156671  0.25137213  0.66816300  1
  Al0+  Al69  1  0.75091962  0.75247619  -0.00012358  1
  Al0+  Al70  1  0.75240405  0.75123797  0.33664778  1
  Al0+  Al71  1  0.75095416  0.75236875  0.66374164  1
  Al0+  Al72  1  0.42988685  0.32144722  0.31825858  1
  Al0+  Al73  1  0.07022788  0.17757116  0.31988007  1
  Al0+  Al74  1  0.32006812  0.57230414  0.68090826  1
  Al0+  Al75  1  0.57026433  0.18147028  0.98823723  1
  Al0+  Al76  1  0.82020852  0.06989539  0.68043799  1
  Al0+  Al77  1  0.82100745  0.57417938  0.68263696  1
  Al0+  Al78  1  0.07073989  0.67700455  0.31907915  1
  Al0+  Al79  1  0.67571925  0.43029932  0.34805683  1
  Al0+  Al80  1  0.57367176  0.17854109  0.65138486  1
  Al0+  Al81  1  0.67790901  0.92901083  0.01402924  1
  Al0+  Al82  1  0.67866395  0.43020633  0.68369278  1
  Al0+  Al83  1  0.82343841  0.57172070  0.34757491  1
  Al0+  Al84  1  0.82108221  0.06884381  0.34880100  1
  Al0+  Al85  1  0.07074767  0.67810978  0.65412957  1
  Al0+  Al86  1  0.17741824  0.42639177  0.67980216  1
  Al0+  Al87  1  0.18018308  0.93119519  0.67954710  1
  Al0+  Al88  1  0.82134074  0.07391007  0.01689336  1
  Al0+  Al89  1  0.32000923  0.07276974  0.34684349  1
  Al0+  Al90  1  0.06953777  0.67907286  0.98463163  1
  Al0+  Al91  1  0.07077897  0.17899672  0.65532712  1
  Al0+  Al92  1  0.32084739  0.57141085  0.01796736  1
  Al0+  Al93  1  0.17707739  0.42824046  0.01831715  1
  Al0+  Al94  1  0.57091574  0.67845196  0.65231847  1
  Al0+  Al95  1  0.57180308  0.67924246  0.98777505  1
  Si0+  Si96  1  0.32073501  0.07075348  0.01343228  1
  Si0+  Si97  1  0.67855333  0.42965532  0.01413789  1
  Si0+  Si98  1  0.92761966  0.32198936  0.64776992  1
  Si0+  Si99  1  0.92707338  0.31964326  0.31643956  1
  Si0+  Si100  1  0.42935534  0.82221423  0.31779340  1
  Si0+  Si101  1  0.07165634  0.17746217  0.98580110  1
  Si0+  Si102  1  0.92900775  0.31992760  0.98465763  1
  Si0+  Si103  1  0.67583813  0.92825515  0.68249875  1
  Si0+  Si104  1  0.82056013  0.57157548  0.01316253  1
  Si0+  Si105  1  0.42754839  0.82363442  0.98291191  1
  Si0+  Si106  1  0.31977470  0.57294132  0.34711674  1
  Si0+  Si107  1  0.18011299  0.42879685  0.34688313  1
  Si0+  Si108  1  0.42941837  0.32016700  0.65078302  1
  Si0+  Si109  1  0.67586077  0.92677661  0.35252541  1
  Si0+  Si110  1  0.92677430  0.82199453  0.31423120  1
  Si0+  Si111  1  0.17863844  0.92845197  0.01706508  1
  Si0+  Si112  1  0.92948265  0.82268989  0.65023411  1
  Si0+  Si113  1  0.42697456  0.82289802  0.64709473  1
  Si0+  Si114  1  0.17953072  0.92679987  0.34840358  1
  Si0+  Si115  1  0.42550560  0.32233811  0.98033056  1
  Si0+  Si116  1  0.32463537  0.07268646  0.68336497  1
  Si0+  Si117  1  0.57327845  0.17680428  0.31742646  1
  Si0+  Si118  1  0.57050918  0.68050543  0.32038558  1
  Si0+  Si119  1  0.92901533  0.82388665  0.98216297  1
  O2-  O120  1  0.24863829  0.00135304  0.05749018  1
  O2-  O121  1  0.24266168  0.00048856  0.39275918  1
  O2-  O122  1  0.25432839  0.00607790  0.72833606  1
  O2-  O123  1  0.24844725  0.50050094  0.06928570  1
  O2-  O124  1  0.24610831  0.50462973  0.38867556  1
  O2-  O125  1  0.24285748  0.50478790  0.72916388  1
  O2-  O126  1  0.74739896  0.00273824  0.06501574  1
  O2-  O127  1  0.74400205  -0.00353223  0.39551150  1
  O2-  O128  1  0.74078261  0.00022326  0.72646920  1
  O2-  O129  1  0.74375634  0.50656121  0.05554237  1
  O2-  O130  1  0.74728885  0.50371192  0.39616467  1
  O2-  O131  1  0.74601555  0.50636166  0.73448737  1
  O2-  O132  1  -0.00650256  0.24906433  0.27089713  1
  O2-  O133  1  -0.00003711  0.25550609  0.60565937  1
  O2-  O134  1  -0.00061344  0.24690620  0.94423984  1
  O2-  O135  1  -0.00837260  0.74793144  0.27232048  1
  O2-  O136  1  -0.00704813  0.74901113  0.60567201  1
  O2-  O137  1  -0.00405366  0.75424019  0.93724661  1
  O2-  O138  1  0.50603288  0.24682706  0.27280529  1
  O2-  O139  1  0.49761027  0.25172298  0.60508055  1
  O2-  O140  1  0.49639911  0.25513758  0.93774027  1
  O2-  O141  1  0.50276045  0.75361007  0.27621205  1
  O2-  O142  1  0.49536527  0.75257785  0.60450158  1
  O2-  O143  1  0.49634551  0.75395266  0.94111015  1
  O2-  O144  1  0.07283871  0.17761138  0.09100525  1
  O2-  O145  1  0.07157941  0.17964573  0.43286251  1
  O2-  O146  1  0.06727707  0.17793019  0.76882571  1
  O2-  O147  1  0.06734228  0.68020292  0.09822753  1
  O2-  O148  1  0.07442091  0.67892818  0.43191838  1
  O2-  O149  1  0.07123693  0.68130964  0.76719049  1
  O2-  O150  1  0.56828793  0.18366328  0.10157449  1
  O2-  O151  1  0.57115284  0.17670504  0.42286326  1
  O2-  O152  1  0.57240893  0.17844009  0.76498524  1
  O2-  O153  1  0.57135496  0.68080600  0.10176443  1
  O2-  O154  1  0.56753702  0.68073384  0.42525966  1
  O2-  O155  1  0.56996419  0.68144101  0.76540478  1
  O2-  O156  1  0.18088818  0.42883147  0.24191909  1
  O2-  O157  1  0.18169818  0.42463934  0.56548562  1
  O2-  O158  1  0.17753921  0.42708825  0.90524203  1
  O2-  O159  1  0.18370924  0.92635404  0.24236431  1
  O2-  O160  1  0.18177852  0.93121532  0.56634318  1
  O2-  O161  1  0.17801095  0.92895720  0.91199473  1
  O2-  O162  1  0.67598991  0.43281196  0.23335645  1
  O2-  O163  1  0.67928953  0.43057906  0.57028158  1
  O2-  O164  1  0.68180721  0.42677397  0.90960819  1
  O2-  O165  1  0.67417360  0.92576594  0.24699650  1
  O2-  O166  1  0.67723601  0.92811499  0.57668825  1
  O2-  O167  1  0.67956660  0.92945360  0.90071669  1
  O2-  O168  1  0.42612591  0.32059797  0.08636559  1
  O2-  O169  1  0.42807056  0.32109124  0.43109710  1
  O2-  O170  1  0.42923847  0.31675827  0.75629719  1
  O2-  O171  1  0.42801795  0.82530030  0.08904726  1
  O2-  O172  1  0.42632012  0.82105173  0.42242054  1
  O2-  O173  1  0.42736292  0.82703489  0.75241466  1
  O2-  O174  1  0.92786798  0.32069980  0.08984579  1
  O2-  O175  1  0.92991435  0.32111949  0.42152810  1
  O2-  O176  1  0.92565932  0.31987238  0.75385709  1
  O2-  O177  1  0.93126425  0.82411122  0.08791307  1
  O2-  O178  1  0.92929926  0.82694389  0.41940331  1
  O2-  O179  1  0.93241537  0.82429891  0.75585678  1
  O2-  O180  1  0.32016202  0.06954832  0.23302055  1
  O2-  O181  1  0.32315918  0.07195861  0.57766447  1
  O2-  O182  1  0.32030386  0.06914178  0.90846599  1
  O2-  O183  1  0.32093398  0.57321236  0.24229331  1
  O2-  O184  1  0.31943975  0.57002904  0.56620198  1
  O2-  O185  1  0.32034492  0.57054247  0.90494529  1
  O2-  O186  1  0.81932937  0.06735692  0.23587664  1
  O2-  O187  1  0.82258257  0.06689844  0.56727708  1
  O2-  O188  1  0.82225351  0.07342183  0.90345936  1
  O2-  O189  1  0.82074337  0.56954364  0.23287373  1
  O2-  O190  1  0.82113917  0.57046708  0.56923426  1
  O2-  O191  1  0.82155012  0.56975133  0.90854149  1
  O2-  O192  1  0.04399014  0.07897980  0.26674824  1
  O2-  O193  1  0.03848624  0.08243189  0.60194984  1
  O2-  O194  1  0.04566026  0.08377435  0.94108163  1
  O2-  O195  1  0.04246396  0.57945553  0.26445818  1
  O2-  O196  1  0.04266080  0.57975042  0.60187119  1
  O2-  O197  1  0.03860661  0.58143147  0.93368604  1
  O2-  O198  1  0.54537634  0.08261091  0.27311077  1
  O2-  O199  1  0.54562061  0.08162639  0.59646179  1
  O2-  O200  1  0.53936263  0.08462037  0.93430733  1
  O2-  O201  1  0.54024891  0.59001386  0.27205801  1
  O2-  O202  1  0.53888376  0.58142504  0.59963692  1
  O2-  O203  1  0.54126838  0.58228577  0.93417690  1
  O2-  O204  1  0.16549025  0.21086842  0.26444740  1
  O2-  O205  1  0.17014540  0.20530199  0.60370672  1
  O2-  O206  1  0.16335818  0.20465934  0.93790762  1
  O2-  O207  1  0.16566683  0.71256295  0.26285540  1
  O2-  O208  1  0.16701609  0.71324490  0.60141674  1
  O2-  O209  1  0.16741035  0.71141042  0.93471352  1
  O2-  O210  1  0.66830010  0.20069705  0.27376421  1
  O2-  O211  1  0.66982968  0.21161753  0.59872284  1
  O2-  O212  1  0.66762702  0.21292395  0.93596073  1
  O2-  O213  1  0.66459707  0.70535520  0.27553850  1
  O2-  O214  1  0.66688159  0.71148281  0.59710562  1
  O2-  O215  1  0.66868008  0.70981405  0.93402386  1
  O2-  O216  1  0.07772266  0.45550700  0.07078432  1
  O2-  O217  1  0.08635563  0.44987145  0.39237276  1
  O2-  O218  1  0.07654127  0.44535634  0.72968861  1
  O2-  O219  1  0.08754676  0.95509509  0.06622153  1
  O2-  O220  1  0.08378118  0.94451355  0.39108741  1
  O2-  O221  1  0.08612557  0.96221274  0.73797704  1
  O2-  O222  1  0.58393934  0.45086349  0.05837762  1
  O2-  O223  1  0.57720390  0.45902616  0.40036947  1
  O2-  O224  1  0.57945990  0.45269366  0.73649360  1
  O2-  O225  1  0.57805123  0.95461528  0.06663366  1
  O2-  O226  1  0.58193135  0.94923412  0.39922211  1
  O2-  O227  1  0.58006125  0.94884051  0.72573369  1
  O2-  O228  1  0.20618092  0.32880291  0.07063677  1
  O2-  O229  1  0.21319922  0.33852517  0.39309746  1
  O2-  O230  1  0.21128272  0.33051857  0.73598125  1
  O2-  O231  1  0.20826539  0.83799210  0.06553526  1
  O2-  O232  1  0.21283270  0.83535345  0.39461456  1
  O2-  O233  1  0.21324466  0.83694040  0.73652778  1
  O2-  O234  1  0.71257484  0.34155357  0.06482961  1
  O2-  O235  1  0.70300745  0.33189751  0.40031150  1
  O2-  O236  1  0.71367869  0.33385847  0.73695043  1
  O2-  O237  1  0.70914332  0.83174395  0.06982545  1
  O2-  O238  1  0.70284641  0.83370876  0.39915718  1
  O2-  O239  1  0.70442088  0.83593894  0.72874019  1
  O2-  O240  1  0.45949643  0.41782016  0.26129069  1
  O2-  O241  1  0.45433126  0.41383899  0.60484397  1
  O2-  O242  1  0.44883869  0.41662476  0.93627556  1
  O2-  O243  1  0.45574844  0.91514568  0.27081953  1
  O2-  O244  1  0.45361841  0.91496808  0.59725685  1
  O2-  O245  1  0.45139940  0.91665254  0.93483495  1
  O2-  O246  1  0.95448019  0.41155131  0.26704210  1
  O2-  O247  1  0.94919963  0.41616532  0.60175705  1
  O2-  O248  1  0.95804488  0.41005673  0.93494862  1
  O2-  O249  1  0.95779756  0.91181576  0.26294847  1
  O2-  O250  1  0.96329750  0.91354992  0.60308617  1
  O2-  O251  1  0.95707688  0.91779699  0.93739187  1
  O2-  O252  1  0.33598184  0.28806640  0.26017404  1
  O2-  O253  1  0.33623242  0.29414047  0.60334780  1
  O2-  O254  1  0.33213080  0.29390370  0.93558725  1
  O2-  O255  1  0.33954352  0.79370676  0.26623674  1
  O2-  O256  1  0.33383197  0.79751171  0.59999067  1
  O2-  O257  1  0.33349387  0.79873872  0.93774621  1
  O2-  O258  1  0.83204387  0.29470141  0.27189791  1
  O2-  O259  1  0.83613253  0.29246580  0.60029544  1
  O2-  O260  1  0.83779302  0.29323538  0.93560230  1
  O2-  O261  1  0.83100061  0.80178976  0.26929408  1
  O2-  O262  1  0.83419354  0.80604105  0.60406857  1
  O2-  O263  1  0.83462295  0.80137871  0.93729822  1
  O2-  O264  1  0.41125712  0.04181603  0.06261222  1
  O2-  O265  1  0.41516091  0.04013873  0.40236294  1
  O2-  O266  1  0.41803011  0.04262348  0.72764328  1
  O2-  O267  1  0.41977314  0.54158842  0.07103888  1
  O2-  O268  1  0.41066625  0.54256127  0.39416822  1
  O2-  O269  1  0.41612699  0.53936904  0.73471143  1
  O2-  O270  1  0.91928531  0.04295188  0.07061921  1
  O2-  O271  1  0.91835574  0.03439913  0.40008003  1
  O2-  O272  1  0.91420931  0.03550917  0.73667568  1
  O2-  O273  1  0.90965538  0.53654651  0.06126484  1
  O2-  O274  1  0.92095554  0.53805871  0.39907652  1
  O2-  O275  1  0.91739616  0.54085646  0.73678462  1
  O2-  O276  1  0.29385993  0.16280335  0.06058441  1
  O2-  O277  1  0.29087464  0.16986836  0.39961185  1
  O2-  O278  1  0.30298751  0.16602187  0.73028584  1
  O2-  O279  1  0.29526120  0.67163758  0.06976438  1
  O2-  O280  1  0.29556858  0.66647683  0.39249396  1
  O2-  O281  1  0.29943065  0.67253875  0.73227545  1
  O2-  O282  1  0.79348253  0.17248359  0.07009885  1
  O2-  O283  1  0.79503369  0.16576727  0.40380874  1
  O2-  O284  1  0.79351154  0.16752235  0.73292756  1
  O2-  O285  1  0.79992038  0.66539615  0.05952628  1
  O2-  O286  1  0.80330104  0.67265421  0.39787400  1
  O2-  O287  1  0.79833373  0.67540091  0.73196777  1
