# generated using pymatgen
data_Ca2Al2SiO7
_symmetry_space_group_name_H-M   'P 1'
_cell_length_a   15.45549459
_cell_length_b   15.45580615
_cell_length_c   15.28180041
_cell_angle_alpha   90.00031806
_cell_angle_beta   89.99969055
_cell_angle_gamma   90.02523554
_symmetry_Int_Tables_number   1
_chemical_formula_structural   Ca2Al2SiO7
_chemical_formula_sum   'Ca48 Al48 Si24 O168'
_cell_volume   3650.47224312
_cell_formula_units_Z   24
loop_
 _symmetry_equiv_pos_site_id
 _symmetry_equiv_pos_as_xyz
  1  'x, y, z'
loop_
 _atom_type_symbol
 _atom_type_oxidation_number
  Ca2+  2.0
  Al0+  0.0
  Si0+  0.0
  O2-  -2.0
loop_
 _atom_site_type_symbol
 _atom_site_label
 _atom_site_symmetry_multiplicity
 _atom_site_fract_x
 _atom_site_fract_y
 _atom_site_fract_z
 _atom_site_occupancy
  Ca2+  Ca0  1  0.17735645  0.09400810  0.16789058  1
  Ca2+  Ca1  1  0.17403706  0.07874985  0.50386463  1
  Ca2+  Ca2  1  0.16830169  0.07901949  0.83812221  1
  Ca2+  Ca3  1  0.16854500  0.58388781  0.16916965  1
  Ca2+  Ca4  1  0.17134226  0.57189560  0.50800955  1
  Ca2+  Ca5  1  0.17487246  0.58142227  0.83643416  1
  Ca2+  Ca6  1  0.66825354  0.06973794  0.17575224  1
  Ca2+  Ca7  1  0.67694446  0.08386548  0.50249088  1
  Ca2+  Ca8  1  0.66973090  0.08263173  0.83485206  1
  Ca2+  Ca9  1  0.66854278  0.57407986  0.17030536  1
  Ca2+  Ca10  1  0.66424656  0.57413305  0.50544331  1
  Ca2+  Ca11  1  0.67505293  0.57461637  0.83833156  1
  Ca2+  Ca12  1  0.07756613  0.33268033  0.16352182  1
  Ca2+  Ca13  1  0.07759311  0.34089208  0.49202685  1
  Ca2+  Ca14  1  0.08719923  0.32735658  0.82969850  1
  Ca2+  Ca15  1  0.07991497  0.82606527  0.15804159  1
  Ca2+  Ca16  1  0.07958623  0.83670257  0.50181464  1
  Ca2+  Ca17  1  0.07983977  0.82758543  0.82441660  1
  Ca2+  Ca18  1  0.58701076  0.33525746  0.16394987  1
  Ca2+  Ca19  1  0.58447479  0.33403317  0.49908784  1
  Ca2+  Ca20  1  0.58080893  0.33421116  0.82231362  1
  Ca2+  Ca21  1  0.58513205  0.83370945  0.16696162  1
  Ca2+  Ca22  1  0.58028826  0.82350212  0.48629927  1
  Ca2+  Ca23  1  0.58370384  0.83425859  0.83001746  1
  Ca2+  Ca24  1  0.32546874  0.42329349  0.17110965  1
  Ca2+  Ca25  1  0.32373984  0.41756261  0.50945422  1
  Ca2+  Ca26  1  0.33602484  0.42454662  0.83227814  1
  Ca2+  Ca27  1  0.33684819  0.92875331  0.17317087  1
  Ca2+  Ca28  1  0.33300553  0.91819263  0.50084287  1
  Ca2+  Ca29  1  0.32684646  0.92205010  0.83796034  1
  Ca2+  Ca30  1  0.82719874  0.41683271  0.17180796  1
  Ca2+  Ca31  1  0.82427841  0.41861987  0.50561500  1
  Ca2+  Ca32  1  0.82313850  0.42344691  0.83659115  1
  Ca2+  Ca33  1  0.82296721  0.92032259  0.17263092  1
  Ca2+  Ca34  1  0.83348959  0.92539067  0.50638801  1
  Ca2+  Ca35  1  0.83143038  0.91915934  0.83355710  1
  Ca2+  Ca36  1  0.41336865  0.16569712  0.16044901  1
  Ca2+  Ca37  1  0.42161351  0.16935193  0.49896428  1
  Ca2+  Ca38  1  0.42459265  0.17311721  0.82348162  1
  Ca2+  Ca39  1  0.42057655  0.66990197  0.16504285  1
  Ca2+  Ca40  1  0.41971741  0.66997628  0.49179352  1
  Ca2+  Ca41  1  0.41437019  0.66189987  0.82814562  1
  Ca2+  Ca42  1  0.91696016  0.17151094  0.16522097  1
  Ca2+  Ca43  1  0.91335334  0.17005067  0.49281321  1
  Ca2+  Ca44  1  0.92071718  0.16392747  0.82756761  1
  Ca2+  Ca45  1  0.92240194  0.66284497  0.15731389  1
  Ca2+  Ca46  1  0.90948177  0.67167137  0.49975162  1
  Ca2+  Ca47  1  0.91441649  0.66716698  0.82848889  1
  Al0+  Al48  1  -0.00046595  -0.00030648  -0.00364019  1
  Al0+  Al49  1  0.00257341  0.00050694  0.33198170  1
  Al0+  Al50  1  -0.00006135  -0.00162983  0.66975869  1
  Al0+  Al51  1  -0.00002954  0.49972491  -0.00474849  1
  Al0+  Al52  1  -0.00082359  0.49933907  0.33147919  1
  Al0+  Al53  1  0.00182493  0.49909641  0.67410803  1
  Al0+  Al54  1  0.49902075  0.00038082  0.00516502  1
  Al0+  Al55  1  0.49979736  0.00013687  0.33887026  1
  Al0+  Al56  1  0.50119819  0.00031056  0.66040040  1
  Al0+  Al57  1  0.49852765  0.50128144  0.00773970  1
  Al0+  Al58  1  0.50020194  0.50014926  0.33117496  1
  Al0+  Al59  1  0.49816336  0.49935652  0.66767682  1
  Al0+  Al60  1  0.24986391  0.25078101  -0.00287671  1
  Al0+  Al61  1  0.25033251  0.25016108  0.34216542  1
  Al0+  Al62  1  0.25146275  0.24875415  0.66558720  1
  Al0+  Al63  1  0.24958726  0.75046767  -0.00069056  1
  Al0+  Al64  1  0.25048002  0.75212585  0.32781716  1
  Al0+  Al65  1  0.24861532  0.75022498  0.67180764  1
  Al0+  Al66  1  0.74967558  0.24907729  0.00130383  1
  Al0+  Al67  1  0.75003804  0.25120131  0.33399082  1
  Al0+  Al68  1  0.75226613  0.24765501  0.67149410  1
  Al0+  Al69  1  0.74886463  0.74926425  0.00650983  1
  Al0+  Al70  1  0.75022311  0.74893634  0.32954279  1
  Al0+  Al71  1  0.75001757  0.75149167  0.66379157  1
  Al0+  Al72  1  0.67872543  0.93051075  0.01297043  1
  Al0+  Al73  1  0.07190605  0.67848359  0.98393566  1
  Al0+  Al74  1  0.42935920  0.32221464  0.64985792  1
  Al0+  Al75  1  0.82128777  0.07008650  0.68132896  1
  Al0+  Al76  1  0.17788050  0.42535936  0.68379678  1
  Al0+  Al77  1  0.67898036  0.42816691  0.68072076  1
  Al0+  Al78  1  0.31986180  0.57294737  0.01646351  1
  Al0+  Al79  1  0.67963094  0.92641306  0.35083166  1
  Al0+  Al80  1  0.82251863  0.57011747  0.01598572  1
  Al0+  Al81  1  0.67850094  0.42752836  0.01618710  1
  Al0+  Al82  1  0.32038262  0.57124528  0.67965988  1
  Al0+  Al83  1  0.82219920  0.07026127  0.34686384  1
  Al0+  Al84  1  0.17846735  0.43102116  0.34501435  1
  Al0+  Al85  1  0.32127217  0.07177187  0.34914473  1
  Al0+  Al86  1  0.57448085  0.17820782  0.64987047  1
  Al0+  Al87  1  0.92940274  0.81991031  0.65238655  1
  Al0+  Al88  1  0.17961897  0.93057971  0.68012874  1
  Al0+  Al89  1  0.67831407  0.42988752  0.34823386  1
  Al0+  Al90  1  0.57223992  0.67673550  0.31552398  1
  Al0+  Al91  1  0.07133693  0.18011580  0.98564999  1
  Al0+  Al92  1  0.92833698  0.32073471  0.32040872  1
  Al0+  Al93  1  0.42854024  0.82281260  0.31631213  1
  Al0+  Al94  1  0.31824346  0.07077001  0.01092301  1
  Al0+  Al95  1  0.82061459  0.57433728  0.68026960  1
  Si0+  Si96  1  0.43043602  0.82279767  0.98388251  1
  Si0+  Si97  1  0.67690855  0.92805703  0.68141007  1
  Si0+  Si98  1  0.82470688  0.07185338  0.01699106  1
  Si0+  Si99  1  0.56976683  0.67893607  0.98425593  1
  Si0+  Si100  1  0.57024646  0.68016462  0.65406211  1
  Si0+  Si101  1  0.42647470  0.32008097  0.31736837  1
  Si0+  Si102  1  0.07402642  0.17798815  0.31814071  1
  Si0+  Si103  1  0.42998490  0.32218021  0.98679047  1
  Si0+  Si104  1  0.07113595  0.17717684  0.65095448  1
  Si0+  Si105  1  0.92595109  0.32103822  0.98045257  1
  Si0+  Si106  1  0.42650967  0.82129962  0.65326625  1
  Si0+  Si107  1  0.32454903  0.07073367  0.68333647  1
  Si0+  Si108  1  0.92575250  0.82074698  0.98302093  1
  Si0+  Si109  1  0.07298730  0.67724878  0.64936306  1
  Si0+  Si110  1  0.06970992  0.67912880  0.31955107  1
  Si0+  Si111  1  0.17631713  0.92832813  0.01652021  1
  Si0+  Si112  1  0.17809012  0.92549699  0.34861674  1
  Si0+  Si113  1  0.17880802  0.42743404  0.01616486  1
  Si0+  Si114  1  0.92955653  0.82332842  0.31727407  1
  Si0+  Si115  1  0.56990519  0.17725536  0.98770260  1
  Si0+  Si116  1  0.93136364  0.32101849  0.65331308  1
  Si0+  Si117  1  0.82389640  0.57129864  0.34906527  1
  Si0+  Si118  1  0.57040584  0.18089326  0.31759856  1
  Si0+  Si119  1  0.32085424  0.57346772  0.34794201  1
  O2-  O120  1  0.24203769  -0.00071592  0.06106002  1
  O2-  O121  1  0.24727406  -0.00573984  0.39177028  1
  O2-  O122  1  0.25538801  0.00323637  0.72798018  1
  O2-  O123  1  0.24258513  0.50011518  0.06162212  1
  O2-  O124  1  0.25326315  0.50473290  0.39231660  1
  O2-  O125  1  0.25020172  0.49815320  0.73127951  1
  O2-  O126  1  0.75465265  0.00414246  0.05942807  1
  O2-  O127  1  0.75380049  -0.00354963  0.39962162  1
  O2-  O128  1  0.74340682  -0.00199732  0.72670682  1
  O2-  O129  1  0.75294348  0.49662357  0.06662616  1
  O2-  O130  1  0.75107311  0.50722435  0.39284048  1
  O2-  O131  1  0.74983286  0.50140106  0.72990991  1
  O2-  O132  1  0.00296125  0.24466297  0.27474615  1
  O2-  O133  1  0.00496009  0.25283061  0.60947267  1
  O2-  O134  1  -0.00547805  0.25143306  0.93682728  1
  O2-  O135  1  -0.00066873  0.75055213  0.27614708  1
  O2-  O136  1  0.00098913  0.74225442  0.60411080  1
  O2-  O137  1  -0.00482836  0.75247371  0.93919630  1
  O2-  O138  1  0.49801577  0.25015571  0.27367107  1
  O2-  O139  1  0.50335130  0.25170509  0.60002837  1
  O2-  O140  1  0.50442338  0.25358421  0.94597081  1
  O2-  O141  1  0.50161241  0.75160119  0.26626335  1
  O2-  O142  1  0.49778327  0.75029737  0.61238756  1
  O2-  O143  1  0.49916052  0.75010314  0.94020893  1
  O2-  O144  1  0.07258766  0.18384022  0.09887115  1
  O2-  O145  1  0.07444151  0.17693930  0.42369863  1
  O2-  O146  1  0.06932603  0.17644230  0.75637376  1
  O2-  O147  1  0.07149888  0.68166089  0.09806529  1
  O2-  O148  1  0.07002987  0.67903336  0.42434751  1
  O2-  O149  1  0.07471200  0.68159358  0.75474286  1
  O2-  O150  1  0.56687278  0.17535846  0.09298376  1
  O2-  O151  1  0.57090504  0.18323491  0.42226966  1
  O2-  O152  1  0.57056749  0.17560565  0.76441434  1
  O2-  O153  1  0.56798968  0.68009931  0.08890801  1
  O2-  O154  1  0.56856532  0.67572554  0.42990400  1
  O2-  O155  1  0.57087563  0.68262497  0.75958286  1
  O2-  O156  1  0.17931188  0.43210151  0.23165763  1
  O2-  O157  1  0.17632077  0.42852264  0.56985110  1
  O2-  O158  1  0.18324927  0.42505660  0.91104241  1
  O2-  O159  1  0.17628611  0.92406788  0.24310579  1
  O2-  O160  1  0.18085108  0.93201529  0.56674608  1
  O2-  O161  1  0.17844206  0.92883253  0.91091230  1
  O2-  O162  1  0.68060833  0.42877711  0.23529624  1
  O2-  O163  1  0.68035742  0.42990752  0.56703122  1
  O2-  O164  1  0.67710146  0.42888306  0.90288507  1
  O2-  O165  1  0.68122340  0.92952245  0.23680100  1
  O2-  O166  1  0.67867169  0.92643194  0.57647263  1
  O2-  O167  1  0.67681432  0.93244971  0.89961469  1
  O2-  O168  1  0.42716001  0.31957756  0.09228561  1
  O2-  O169  1  0.42578798  0.31908770  0.42193075  1
  O2-  O170  1  0.43015550  0.32017641  0.76434808  1
  O2-  O171  1  0.43182843  0.82463310  0.08847021  1
  O2-  O172  1  0.42560660  0.81814660  0.43048147  1
  O2-  O173  1  0.42812076  0.82358507  0.75877521  1
  O2-  O174  1  0.92627344  0.31991317  0.08628925  1
  O2-  O175  1  0.93023940  0.32200494  0.43370590  1
  O2-  O176  1  0.93146986  0.31783941  0.75846363  1
  O2-  O177  1  0.92834345  0.82193138  0.08904183  1
  O2-  O178  1  0.93125476  0.82441860  0.42229072  1
  O2-  O179  1  0.93056498  0.82071120  0.76541714  1
  O2-  O180  1  0.31832287  0.07441581  0.23561440  1
  O2-  O181  1  0.32337925  0.06870653  0.57775571  1
  O2-  O182  1  0.31953222  0.06744075  0.89818334  1
  O2-  O183  1  0.31785747  0.57266893  0.24209067  1
  O2-  O184  1  0.31778304  0.57374009  0.56589741  1
  O2-  O185  1  0.32201647  0.57043697  0.90382981  1
  O2-  O186  1  0.82056768  0.06871346  0.23290378  1
  O2-  O187  1  0.82378640  0.06909132  0.56860435  1
  O2-  O188  1  0.82470951  0.07095333  0.91133131  1
  O2-  O189  1  0.82789934  0.56799112  0.24365100  1
  O2-  O190  1  0.81754256  0.57453219  0.56641320  1
  O2-  O191  1  0.81844042  0.57128532  0.90262711  1
  O2-  O192  1  0.05304877  0.08373309  0.27022804  1
  O2-  O193  1  0.03877311  0.08711655  0.60361978  1
  O2-  O194  1  0.04381794  0.08169788  0.93204009  1
  O2-  O195  1  0.04094862  0.58872301  0.26969975  1
  O2-  O196  1  0.05148832  0.58096446  0.60735215  1
  O2-  O197  1  0.04578462  0.58074403  0.93008441  1
  O2-  O198  1  0.54271867  0.08768978  0.27302025  1
  O2-  O199  1  0.54461787  0.08054378  0.59471191  1
  O2-  O200  1  0.53671255  0.08791203  0.93859667  1
  O2-  O201  1  0.54058362  0.57942502  0.26086614  1
  O2-  O202  1  0.54303384  0.58836912  0.60710954  1
  O2-  O203  1  0.53974104  0.58671370  0.93874210  1
  O2-  O204  1  0.16691030  0.20878091  0.27294413  1
  O2-  O205  1  0.16548642  0.19814936  0.60566262  1
  O2-  O206  1  0.16697105  0.21211889  0.92919549  1
  O2-  O207  1  0.16114480  0.70643078  0.27028658  1
  O2-  O208  1  0.16495433  0.70856788  0.60245924  1
  O2-  O209  1  0.16819862  0.71177113  0.93005197  1
  O2-  O210  1  0.66122920  0.20961663  0.26879561  1
  O2-  O211  1  0.67475065  0.20448188  0.59999026  1
  O2-  O212  1  0.66449655  0.19800636  0.94225160  1
  O2-  O213  1  0.67188270  0.70227011  0.26253257  1
  O2-  O214  1  0.66017978  0.70914854  0.60401021  1
  O2-  O215  1  0.66237441  0.70761833  0.93879854  1
  O2-  O216  1  0.08267598  0.44841142  0.05794803  1
  O2-  O217  1  0.08265255  0.46333936  0.39932468  1
  O2-  O218  1  0.08083392  0.45170578  0.73945499  1
  O2-  O219  1  0.08095560  0.95010498  0.06057100  1
  O2-  O220  1  0.08524910  0.95219078  0.39550676  1
  O2-  O221  1  0.08531758  0.96269148  0.73649391  1
  O2-  O222  1  0.58151153  0.45797161  0.07058258  1
  O2-  O223  1  0.57997219  0.45836512  0.40013059  1
  O2-  O224  1  0.58018416  0.45544053  0.73214690  1
  O2-  O225  1  0.58429031  0.96359164  0.06961880  1
  O2-  O226  1  0.58140583  0.95428236  0.40234775  1
  O2-  O227  1  0.58211207  0.95194097  0.72656016  1
  O2-  O228  1  0.20931418  0.33606257  0.06384129  1
  O2-  O229  1  0.20720154  0.33579358  0.40150840  1
  O2-  O230  1  0.20630332  0.32590839  0.73455449  1
  O2-  O231  1  0.20408230  0.83580473  0.06252052  1
  O2-  O232  1  0.20369740  0.83234560  0.39591392  1
  O2-  O233  1  0.20868423  0.83488932  0.73598890  1
  O2-  O234  1  0.70372672  0.32704195  0.06763008  1
  O2-  O235  1  0.71107613  0.33428388  0.40148132  1
  O2-  O236  1  0.70828966  0.33082417  0.73444946  1
  O2-  O237  1  0.70719993  0.83450747  0.06841554  1
  O2-  O238  1  0.70538182  0.82559532  0.39943509  1
  O2-  O239  1  0.70427837  0.83571262  0.72886014  1
  O2-  O240  1  0.45233634  0.41254804  0.27010662  1
  O2-  O241  1  0.45370818  0.42192454  0.59706111  1
  O2-  O242  1  0.45668673  0.41524745  0.94146188  1
  O2-  O243  1  0.45643211  0.92317351  0.26641223  1
  O2-  O244  1  0.45239841  0.91254788  0.60398692  1
  O2-  O245  1  0.46116458  0.91389132  0.93581809  1
  O2-  O246  1  0.96166864  0.41577845  0.26367328  1
  O2-  O247  1  0.95669685  0.41443535  0.60726258  1
  O2-  O248  1  0.95140145  0.41428729  0.93439546  1
  O2-  O249  1  0.95951694  0.91374727  0.26751732  1
  O2-  O250  1  0.96595335  0.91514702  0.59830863  1
  O2-  O251  1  0.95002601  0.91496059  0.93701501  1
  O2-  O252  1  0.33444415  0.29006611  0.27079498  1
  O2-  O253  1  0.33085551  0.29108673  0.59698214  1
  O2-  O254  1  0.33996944  0.29235413  0.93757871  1
  O2-  O255  1  0.32996412  0.79610018  0.26094772  1
  O2-  O256  1  0.33466484  0.79311141  0.60628610  1
  O2-  O257  1  0.33729792  0.79718144  0.93793965  1
  O2-  O258  1  0.83306084  0.28865417  0.26404837  1
  O2-  O259  1  0.84015187  0.29048408  0.60687380  1
  O2-  O260  1  0.83207450  0.29441190  0.93468839  1
  O2-  O261  1  0.83757319  0.79771602  0.26957946  1
  O2-  O262  1  0.83237929  0.79268346  0.59623332  1
  O2-  O263  1  0.83151153  0.79463722  0.93850832  1
  O2-  O264  1  0.41265731  0.03860447  0.06800602  1
  O2-  O265  1  0.41675436  0.04252765  0.40452211  1
  O2-  O266  1  0.41838910  0.04379077  0.72803036  1
  O2-  O267  1  0.41407080  0.54040440  0.07304092  1
  O2-  O268  1  0.41488275  0.54854602  0.39151394  1
  O2-  O269  1  0.41822375  0.54425747  0.73457379  1
  O2-  O270  1  0.91818376  0.04582119  0.06315788  1
  O2-  O271  1  0.92318388  0.04610978  0.39691716  1
  O2-  O272  1  0.91536483  0.03497310  0.73710761  1
  O2-  O273  1  0.92321012  0.54387513  0.06579060  1
  O2-  O274  1  0.91537581  0.54280104  0.39733483  1
  O2-  O275  1  0.91957303  0.54883033  0.73230973  1
  O2-  O276  1  0.28850398  0.16796670  0.06522655  1
  O2-  O277  1  0.28834949  0.16525695  0.40700901  1
  O2-  O278  1  0.29976056  0.16450171  0.72801179  1
  O2-  O279  1  0.29041681  0.67059359  0.06911738  1
  O2-  O280  1  0.29523812  0.66790603  0.39162812  1
  O2-  O281  1  0.29215995  0.66840299  0.73574876  1
  O2-  O282  1  0.80076561  0.16608606  0.06149408  1
  O2-  O283  1  0.79082635  0.16761530  0.39930094  1
  O2-  O284  1  0.79393115  0.16527258  0.73906378  1
  O2-  O285  1  0.79459456  0.66798113  0.07001600  1
  O2-  O286  1  0.80323780  0.66751058  0.39070586  1
  O2-  O287  1  0.79102235  0.67253555  0.73320961  1
