# generated using pymatgen
data_Ca2Al2SiO7
_symmetry_space_group_name_H-M   'P 1'
_cell_length_a   15.46191367
_cell_length_b   15.46132573
_cell_length_c   15.28670777
_cell_angle_alpha   89.99269857
_cell_angle_beta   90.00139699
_cell_angle_gamma   90.02081613
_symmetry_Int_Tables_number   1
_chemical_formula_structural   Ca2Al2SiO7
_chemical_formula_sum   'Ca48 Al48 Si24 O168'
_cell_volume   3654.46582444
_cell_formula_units_Z   24
loop_
 _symmetry_equiv_pos_site_id
 _symmetry_equiv_pos_as_xyz
  1  'x, y, z'
loop_
 _atom_type_symbol
 _atom_type_oxidation_number
  Ca2+  2.0
  Al0+  0.0
  Si0+  0.0
  O2-  -2.0
loop_
 _atom_site_type_symbol
 _atom_site_label
 _atom_site_symmetry_multiplicity
 _atom_site_fract_x
 _atom_site_fract_y
 _atom_site_fract_z
 _atom_site_occupancy
  Ca2+  Ca0  1  0.17244593  0.08401648  0.17655597  1
  Ca2+  Ca1  1  0.17153472  0.08413273  0.51012488  1
  Ca2+  Ca2  1  0.16797747  0.07969602  0.82493130  1
  Ca2+  Ca3  1  0.17053486  0.57566614  0.17755840  1
  Ca2+  Ca4  1  0.16183640  0.57419914  0.50236553  1
  Ca2+  Ca5  1  0.17106591  0.57042867  0.84095128  1
  Ca2+  Ca6  1  0.66238721  0.07685914  0.17242511  1
  Ca2+  Ca7  1  0.67346615  0.08548641  0.50516197  1
  Ca2+  Ca8  1  0.67298844  0.07783166  0.83526477  1
  Ca2+  Ca9  1  0.67674623  0.57944236  0.16926437  1
  Ca2+  Ca10  1  0.67541669  0.58392006  0.50894348  1
  Ca2+  Ca11  1  0.67044533  0.57994602  0.83354872  1
  Ca2+  Ca12  1  0.09437104  0.33264283  0.16733255  1
  Ca2+  Ca13  1  0.09391448  0.32518073  0.49726924  1
  Ca2+  Ca14  1  0.08947517  0.32992444  0.82547595  1
  Ca2+  Ca15  1  0.07880685  0.82432960  0.16828254  1
  Ca2+  Ca16  1  0.07356658  0.83225430  0.49448743  1
  Ca2+  Ca17  1  0.07852957  0.82937697  0.82068420  1
  Ca2+  Ca18  1  0.58670486  0.32937495  0.16287229  1
  Ca2+  Ca19  1  0.57888437  0.33173592  0.49816889  1
  Ca2+  Ca20  1  0.57845838  0.34242835  0.82395550  1
  Ca2+  Ca21  1  0.58198873  0.83243593  0.16076977  1
  Ca2+  Ca22  1  0.57931417  0.82817194  0.50237390  1
  Ca2+  Ca23  1  0.58000352  0.82675231  0.82335374  1
  Ca2+  Ca24  1  0.32515083  0.42805205  0.17155376  1
  Ca2+  Ca25  1  0.32447963  0.41642151  0.50375307  1
  Ca2+  Ca26  1  0.32702996  0.41693706  0.83443543  1
  Ca2+  Ca27  1  0.33064125  0.92338959  0.17542874  1
  Ca2+  Ca28  1  0.32849904  0.92771270  0.50961570  1
  Ca2+  Ca29  1  0.33412009  0.91709346  0.82888293  1
  Ca2+  Ca30  1  0.83339901  0.42717821  0.17044633  1
  Ca2+  Ca31  1  0.82957943  0.42900666  0.50912057  1
  Ca2+  Ca32  1  0.82251765  0.42769585  0.83728914  1
  Ca2+  Ca33  1  0.82714294  0.91132959  0.16929971  1
  Ca2+  Ca34  1  0.84088037  0.91950116  0.50822614  1
  Ca2+  Ca35  1  0.83321269  0.92010642  0.83165505  1
  Ca2+  Ca36  1  0.41942417  0.16567464  0.16797926  1
  Ca2+  Ca37  1  0.41261195  0.17137446  0.49576455  1
  Ca2+  Ca38  1  0.41848721  0.17435877  0.82154789  1
  Ca2+  Ca39  1  0.41194442  0.66116660  0.16206058  1
  Ca2+  Ca40  1  0.41832616  0.66700701  0.49839116  1
  Ca2+  Ca41  1  0.42343157  0.66677287  0.82160403  1
  Ca2+  Ca42  1  0.92577071  0.17033122  0.16499314  1
  Ca2+  Ca43  1  0.92964286  0.16379143  0.49665843  1
  Ca2+  Ca44  1  0.92209364  0.16903823  0.82166619  1
  Ca2+  Ca45  1  0.91629882  0.66125414  0.16897982  1
  Ca2+  Ca46  1  0.91567892  0.67356079  0.49283306  1
  Ca2+  Ca47  1  0.90928425  0.66995456  0.82602842  1
  Al0+  Al48  1  0.00135888  -0.00060863  -0.00080207  1
  Al0+  Al49  1  -0.00252246  0.00056432  0.32076079  1
  Al0+  Al50  1  0.00135376  0.00012305  0.66802639  1
  Al0+  Al51  1  0.00020768  0.49794439  0.00504287  1
  Al0+  Al52  1  -0.00169873  0.50005835  0.33908472  1
  Al0+  Al53  1  -0.00067750  0.49945251  0.67670250  1
  Al0+  Al54  1  0.50105213  0.00023894  0.00164693  1
  Al0+  Al55  1  0.49972271  -0.00014349  0.33410407  1
  Al0+  Al56  1  0.50072802  0.00055603  0.66681472  1
  Al0+  Al57  1  0.50066445  0.49913725  0.00566369  1
  Al0+  Al58  1  0.49901799  0.49988624  0.33410260  1
  Al0+  Al59  1  0.50001814  0.49885605  0.65763997  1
  Al0+  Al60  1  0.25250960  0.24851300  0.00131136  1
  Al0+  Al61  1  0.25213907  0.25091902  0.33274341  1
  Al0+  Al62  1  0.25205633  0.24962745  0.66728525  1
  Al0+  Al63  1  0.24874721  0.75287209  0.00057920  1
  Al0+  Al64  1  0.24873442  0.75088779  0.33240358  1
  Al0+  Al65  1  0.24954689  0.75058463  0.66504798  1
  Al0+  Al66  1  0.75294576  0.24811886  0.00113377  1
  Al0+  Al67  1  0.74917719  0.24719992  0.32734503  1
  Al0+  Al68  1  0.75083515  0.25126785  0.67447331  1
  Al0+  Al69  1  0.74876425  0.75202348  0.00594087  1
  Al0+  Al70  1  0.74610513  0.75010040  0.33262407  1
  Al0+  Al71  1  0.74995154  0.75149247  0.66123085  1
  Al0+  Al72  1  0.06930478  0.18180222  0.65437208  1
  Al0+  Al73  1  0.18000624  0.42673219  0.01591877  1
  Al0+  Al74  1  0.07025537  0.67751534  0.31892695  1
  Al0+  Al75  1  0.18015279  0.42879638  0.68121396  1
  Al0+  Al76  1  0.32243652  0.57439885  0.35136195  1
  Al0+  Al77  1  0.42629547  0.82321850  0.65066709  1
  Al0+  Al78  1  0.17862158  0.92749963  0.67991707  1
  Al0+  Al79  1  0.17909712  0.42974036  0.35063424  1
  Al0+  Al80  1  0.57043154  0.67882280  0.65070785  1
  Al0+  Al81  1  0.57076636  0.17871384  0.31951050  1
  Al0+  Al82  1  0.82068785  0.57416920  0.68154711  1
  Al0+  Al83  1  0.82274988  0.07125239  0.67803402  1
  Al0+  Al84  1  0.32047725  0.57351048  0.01199379  1
  Al0+  Al85  1  0.42937582  0.32008647  0.65223675  1
  Al0+  Al86  1  0.07262710  0.18098909  0.31894631  1
  Al0+  Al87  1  0.32081445  0.06950177  0.34663081  1
  Al0+  Al88  1  0.32292370  0.07147294  0.68240850  1
  Al0+  Al89  1  0.67797866  0.42642487  0.01611127  1
  Al0+  Al90  1  0.67689895  0.42929319  0.67921279  1
  Al0+  Al91  1  0.92562996  0.82121858  0.31540245  1
  Al0+  Al92  1  0.81842630  0.57085051  0.34956056  1
  Al0+  Al93  1  0.93076605  0.81994869  0.65509477  1
  Al0+  Al94  1  0.82033086  0.57220751  0.01632600  1
  Al0+  Al95  1  0.67975281  0.93228434  0.01299412  1
  Si0+  Si96  1  0.57527788  0.17769880  0.65238247  1
  Si0+  Si97  1  0.32242085  0.57240807  0.68061713  1
  Si0+  Si98  1  0.82527151  0.07137452  0.01857480  1
  Si0+  Si99  1  0.17485569  0.92970549  0.34757992  1
  Si0+  Si100  1  0.43188633  0.31924193  0.98565427  1
  Si0+  Si101  1  0.07281025  0.17869726  0.98311919  1
  Si0+  Si102  1  0.56990392  0.68009185  0.98717532  1
  Si0+  Si103  1  0.92654048  0.32125532  0.31747995  1
  Si0+  Si104  1  0.67835498  0.42465639  0.34954220  1
  Si0+  Si105  1  0.07262946  0.67422129  0.65320056  1
  Si0+  Si106  1  0.42794354  0.82353886  0.98574439  1
  Si0+  Si107  1  0.17697468  0.92904705  0.01669288  1
  Si0+  Si108  1  0.42888016  0.32273263  0.31311780  1
  Si0+  Si109  1  0.56928601  0.67831292  0.31542509  1
  Si0+  Si110  1  0.92850243  0.81999096  0.98365335  1
  Si0+  Si111  1  0.32095876  0.06897761  0.01513610  1
  Si0+  Si112  1  0.07124399  0.67851427  0.98512510  1
  Si0+  Si113  1  0.82095291  0.07023709  0.34596987  1
  Si0+  Si114  1  0.42956103  0.82113560  0.31770689  1
  Si0+  Si115  1  0.57249551  0.17670068  0.98396719  1
  Si0+  Si116  1  0.67814443  0.92862939  0.68134410  1
  Si0+  Si117  1  0.67801939  0.92923907  0.34976106  1
  Si0+  Si118  1  0.92903388  0.32104365  0.98374740  1
  Si0+  Si119  1  0.92636025  0.32377297  0.65218982  1
  O2-  O120  1  0.24904997  -0.00064511  0.05799226  1
  O2-  O121  1  0.24166067  -0.00039397  0.39181241  1
  O2-  O122  1  0.25411595  -0.00431412  0.73177485  1
  O2-  O123  1  0.24667862  0.50453038  0.06349052  1
  O2-  O124  1  0.24897497  0.50394426  0.40040902  1
  O2-  O125  1  0.25207513  0.50677433  0.72667697  1
  O2-  O126  1  0.75379791  0.00589505  0.06294539  1
  O2-  O127  1  0.75298519  -0.00298351  0.38951862  1
  O2-  O128  1  0.74609937  -0.00156383  0.72491056  1
  O2-  O129  1  0.75048952  0.49752406  0.06599140  1
  O2-  O130  1  0.74479927  0.49440206  0.39432189  1
  O2-  O131  1  0.74788817  0.50194308  0.72940025  1
  O2-  O132  1  -0.00005598  0.25759852  0.27154086  1
  O2-  O133  1  -0.00439243  0.25675771  0.60637731  1
  O2-  O134  1  0.00203294  0.25063989  0.94228653  1
  O2-  O135  1  -0.00337491  0.74751145  0.26624431  1
  O2-  O136  1  0.00384292  0.74345673  0.61002097  1
  O2-  O137  1  -0.00237501  0.74697447  0.94198893  1
  O2-  O138  1  0.49935361  0.25480722  0.26949537  1
  O2-  O139  1  0.50531464  0.24462512  0.60837686  1
  O2-  O140  1  0.50692764  0.25235433  0.94220196  1
  O2-  O141  1  0.49454731  0.74570877  0.27273043  1
  O2-  O142  1  0.49608541  0.74923033  0.60069404  1
  O2-  O143  1  0.49437105  0.74732762  0.94566405  1
  O2-  O144  1  0.07266654  0.17731842  0.08829581  1
  O2-  O145  1  0.07078861  0.17786419  0.43151738  1
  O2-  O146  1  0.06822932  0.18215315  0.76813527  1
  O2-  O147  1  0.07274473  0.68208669  0.08986659  1
  O2-  O148  1  0.06893902  0.67993098  0.43233712  1
  O2-  O149  1  0.07265423  0.67585794  0.75943870  1
  O2-  O150  1  0.56819449  0.17347120  0.08904090  1
  O2-  O151  1  0.57286565  0.17937485  0.43208505  1
  O2-  O152  1  0.57448543  0.17724105  0.75847007  1
  O2-  O153  1  0.56997995  0.68324606  0.09253115  1
  O2-  O154  1  0.57168235  0.68132620  0.41985677  1
  O2-  O155  1  0.57013502  0.68033268  0.76533727  1
  O2-  O156  1  0.18293388  0.42925700  0.23684301  1
  O2-  O157  1  0.18047159  0.42779911  0.56884020  1
  O2-  O158  1  0.18344352  0.42446665  0.90233794  1
  O2-  O159  1  0.17877647  0.93108323  0.24095353  1
  O2-  O160  1  0.17580205  0.93175395  0.56663016  1
  O2-  O161  1  0.17501577  0.92807172  0.91216134  1
  O2-  O162  1  0.68069579  0.42548179  0.24364882  1
  O2-  O163  1  0.68023996  0.42721169  0.56559647  1
  O2-  O164  1  0.67665321  0.42926652  0.90309102  1
  O2-  O165  1  0.67613066  0.93086785  0.24417846  1
  O2-  O166  1  0.67807039  0.92970899  0.57564458  1
  O2-  O167  1  0.67987178  0.93349956  0.90031482  1
  O2-  O168  1  0.43086547  0.31491821  0.09049552  1
  O2-  O169  1  0.42889343  0.32121449  0.41844697  1
  O2-  O170  1  0.42989924  0.31967012  0.76626799  1
  O2-  O171  1  0.42985086  0.82736365  0.09104870  1
  O2-  O172  1  0.43419545  0.82428251  0.42188891  1
  O2-  O173  1  0.43040984  0.82151268  0.76526934  1
  O2-  O174  1  0.92725697  0.31815617  0.08889784  1
  O2-  O175  1  0.92144452  0.31536328  0.42247262  1
  O2-  O176  1  0.92728975  0.32054972  0.75812721  1
  O2-  O177  1  0.93025825  0.82212183  0.08836586  1
  O2-  O178  1  0.92766421  0.82422272  0.42867636  1
  O2-  O179  1  0.93053785  0.82009708  0.76898868  1
  O2-  O180  1  0.32129110  0.06591073  0.23238018  1
  O2-  O181  1  0.32032409  0.07262965  0.56906072  1
  O2-  O182  1  0.32221166  0.06884827  0.91069151  1
  O2-  O183  1  0.32240325  0.57177262  0.23735986  1
  O2-  O184  1  0.32105197  0.57083764  0.57542891  1
  O2-  O185  1  0.32093167  0.57285198  0.89843370  1
  O2-  O186  1  0.81872394  0.07057399  0.24064780  1
  O2-  O187  1  0.82255517  0.07017089  0.56460969  1
  O2-  O188  1  0.82655368  0.06975396  0.91307271  1
  O2-  O189  1  0.81587153  0.56963073  0.23626881  1
  O2-  O190  1  0.82030485  0.57349262  0.56805219  1
  O2-  O191  1  0.81692764  0.57465709  0.90326181  1
  O2-  O192  1  0.03933098  0.08717966  0.25957748  1
  O2-  O193  1  0.03731088  0.08582683  0.60108081  1
  O2-  O194  1  0.04390634  0.08631133  0.93685406  1
  O2-  O195  1  0.04198033  0.57791202  0.26736863  1
  O2-  O196  1  0.04611381  0.58017792  0.60918496  1
  O2-  O197  1  0.04773493  0.58392575  0.94138903  1
  O2-  O198  1  0.53640151  0.08257434  0.26427758  1
  O2-  O199  1  0.55395847  0.08318893  0.60693491  1
  O2-  O200  1  0.53952782  0.08682367  0.93547077  1
  O2-  O201  1  0.54590557  0.58456606  0.26914327  1
  O2-  O202  1  0.54515376  0.58174856  0.59467269  1
  O2-  O203  1  0.54587351  0.58635407  0.94197798  1
  O2-  O204  1  0.16971422  0.21007075  0.26364371  1
  O2-  O205  1  0.16616740  0.21157555  0.60194887  1
  O2-  O206  1  0.16582093  0.20520801  0.93748455  1
  O2-  O207  1  0.16823289  0.70877649  0.26378537  1
  O2-  O208  1  0.16626028  0.69704111  0.60697213  1
  O2-  O209  1  0.16191986  0.71015554  0.93689070  1
  O2-  O210  1  0.66713365  0.20492438  0.26083859  1
  O2-  O211  1  0.66899725  0.20471010  0.60699875  1
  O2-  O212  1  0.66828915  0.19604046  0.94098579  1
  O2-  O213  1  0.65837721  0.71158465  0.26582611  1
  O2-  O214  1  0.66605734  0.71265174  0.59537055  1
  O2-  O215  1  0.66017879  0.71381812  0.94046368  1
  O2-  O216  1  0.07989652  0.44795228  0.06703253  1
  O2-  O217  1  0.07902116  0.45152400  0.40233550  1
  O2-  O218  1  0.08366185  0.45480501  0.73818990  1
  O2-  O219  1  0.08605104  0.95843417  0.06497986  1
  O2-  O220  1  0.07895344  0.95456997  0.38744287  1
  O2-  O221  1  0.08396213  0.96184677  0.73750151  1
  O2-  O222  1  0.58071486  0.45376028  0.07131497  1
  O2-  O223  1  0.58318118  0.44812968  0.39184165  1
  O2-  O224  1  0.57761064  0.45817358  0.73023477  1
  O2-  O225  1  0.58371923  0.96344354  0.06974681  1
  O2-  O226  1  0.58851987  0.96142788  0.39767819  1
  O2-  O227  1  0.58519112  0.95248992  0.72936997  1
  O2-  O228  1  0.21362536  0.32931144  0.06853216  1
  O2-  O229  1  0.21203371  0.33156117  0.40093771  1
  O2-  O230  1  0.21568691  0.33426263  0.73577060  1
  O2-  O231  1  0.20466965  0.83809557  0.06544374  1
  O2-  O232  1  0.19990621  0.83639990  0.39210818  1
  O2-  O233  1  0.20307046  0.82801481  0.73432331  1
  O2-  O234  1  0.70519722  0.32598339  0.06632252  1
  O2-  O235  1  0.70401017  0.32992507  0.39259295  1
  O2-  O236  1  0.70336904  0.33229182  0.73648902  1
  O2-  O237  1  0.70918885  0.83726849  0.07046329  1
  O2-  O238  1  0.70104264  0.83636261  0.39562755  1
  O2-  O239  1  0.70575457  0.83622426  0.72771505  1
  O2-  O240  1  0.45405900  0.41686342  0.26724991  1
  O2-  O241  1  0.45802028  0.41428063  0.59375078  1
  O2-  O242  1  0.45596930  0.41299130  0.94024130  1
  O2-  O243  1  0.46352763  0.91051677  0.26777855  1
  O2-  O244  1  0.45751383  0.92148542  0.59845415  1
  O2-  O245  1  0.46152860  0.91327833  0.93745351  1
  O2-  O246  1  0.94805930  0.41672589  0.27454099  1
  O2-  O247  1  0.95072925  0.41880196  0.60943148  1
  O2-  O248  1  0.95408798  0.41412497  0.93786836  1
  O2-  O249  1  0.95284165  0.91812749  0.25745218  1
  O2-  O250  1  0.96354428  0.91568496  0.60084328  1
  O2-  O251  1  0.95838365  0.91235332  0.93738473  1
  O2-  O252  1  0.33722827  0.29355339  0.26528778  1
  O2-  O253  1  0.33512282  0.28554515  0.59703690  1
  O2-  O254  1  0.34147985  0.28627569  0.93773138  1
  O2-  O255  1  0.33546826  0.80106316  0.27076392  1
  O2-  O256  1  0.32674738  0.79975336  0.59820883  1
  O2-  O257  1  0.33365255  0.80308367  0.93991245  1
  O2-  O258  1  0.83648046  0.29008677  0.26598267  1
  O2-  O259  1  0.83258833  0.29777202  0.60727795  1
  O2-  O260  1  0.83785070  0.29116647  0.93527152  1
  O2-  O261  1  0.82551700  0.79340371  0.26440789  1
  O2-  O262  1  0.83404994  0.79569522  0.59901591  1
  O2-  O263  1  0.83466638  0.79483198  0.93901748  1
  O2-  O264  1  0.41210996  0.03993794  0.06340960  1
  O2-  O265  1  0.41593897  0.03571292  0.40041819  1
  O2-  O266  1  0.42278403  0.04667737  0.73525185  1
  O2-  O267  1  0.41754825  0.54411594  0.06687930  1
  O2-  O268  1  0.42189983  0.54530672  0.40174060  1
  O2-  O269  1  0.41582456  0.54352587  0.72450605  1
  O2-  O270  1  0.91814038  0.04254462  0.06479361  1
  O2-  O271  1  0.91449964  0.04394845  0.39001739  1
  O2-  O272  1  0.91606500  0.03761523  0.73597809  1
  O2-  O273  1  0.91894527  0.54372929  0.06860047  1
  O2-  O274  1  0.91497260  0.54358092  0.40349919  1
  O2-  O275  1  0.91723170  0.54642964  0.73830915  1
  O2-  O276  1  0.29355485  0.16020016  0.06341121  1
  O2-  O277  1  0.29570196  0.16802540  0.39667410  1
  O2-  O278  1  0.28972959  0.16700658  0.73776662  1
  O2-  O279  1  0.29682515  0.67417417  0.06375812  1
  O2-  O280  1  0.29898330  0.67575148  0.39973061  1
  O2-  O281  1  0.30257374  0.66766767  0.72540997  1
  O2-  O282  1  0.80339903  0.16575463  0.06361335  1
  O2-  O283  1  0.79073208  0.16118973  0.39290650  1
  O2-  O284  1  0.79432009  0.16625560  0.73658554  1
  O2-  O285  1  0.78991367  0.66939782  0.07041605  1
  O2-  O286  1  0.78420177  0.66797185  0.40005652  1
  O2-  O287  1  0.79016048  0.67294388  0.73265925  1
