# generated using pymatgen
data_Ca2Al2SiO7
_symmetry_space_group_name_H-M   'P 1'
_cell_length_a   15.46440843
_cell_length_b   15.46418865
_cell_length_c   15.28837255
_cell_angle_alpha   89.98053930
_cell_angle_beta   90.01618440
_cell_angle_gamma   89.98215813
_symmetry_Int_Tables_number   1
_chemical_formula_structural   Ca2Al2SiO7
_chemical_formula_sum   'Ca48 Al48 Si24 O168'
_cell_volume   3656.13012371
_cell_formula_units_Z   24
loop_
 _symmetry_equiv_pos_site_id
 _symmetry_equiv_pos_as_xyz
  1  'x, y, z'
loop_
 _atom_type_symbol
 _atom_type_oxidation_number
  Ca2+  2.0
  Al0+  0.0
  Si0+  0.0
  O2-  -2.0
loop_
 _atom_site_type_symbol
 _atom_site_label
 _atom_site_symmetry_multiplicity
 _atom_site_fract_x
 _atom_site_fract_y
 _atom_site_fract_z
 _atom_site_occupancy
  Ca2+  Ca0  1  0.16612240  0.07761301  0.17225865  1
  Ca2+  Ca1  1  0.16980623  0.07511748  0.50856532  1
  Ca2+  Ca2  1  0.17454156  0.08151887  0.84065739  1
  Ca2+  Ca3  1  0.17230920  0.58587832  0.16587810  1
  Ca2+  Ca4  1  0.17560107  0.58040879  0.51000999  1
  Ca2+  Ca5  1  0.18013999  0.58425223  0.84146383  1
  Ca2+  Ca6  1  0.67249344  0.09358626  0.17408495  1
  Ca2+  Ca7  1  0.66819402  0.08574580  0.50729940  1
  Ca2+  Ca8  1  0.65823457  0.07971187  0.83429252  1
  Ca2+  Ca9  1  0.65670665  0.57869347  0.17342732  1
  Ca2+  Ca10  1  0.65568110  0.58001362  0.50247840  1
  Ca2+  Ca11  1  0.66238288  0.58563718  0.83893932  1
  Ca2+  Ca12  1  0.08441622  0.31895504  0.16149518  1
  Ca2+  Ca13  1  0.08073425  0.31967118  0.49900170  1
  Ca2+  Ca14  1  0.08141620  0.32153312  0.82633345  1
  Ca2+  Ca15  1  0.08739054  0.83493903  0.16040985  1
  Ca2+  Ca16  1  0.08991357  0.83746832  0.49506895  1
  Ca2+  Ca17  1  0.09584073  0.83281806  0.83328809  1
  Ca2+  Ca18  1  0.58208316  0.32692560  0.16329140  1
  Ca2+  Ca19  1  0.58454452  0.32422098  0.49589225  1
  Ca2+  Ca20  1  0.57626050  0.32082361  0.83439538  1
  Ca2+  Ca21  1  0.57703902  0.82488090  0.16262229  1
  Ca2+  Ca22  1  0.56918032  0.83382101  0.49620521  1
  Ca2+  Ca23  1  0.57622501  0.82549352  0.81999739  1
  Ca2+  Ca24  1  0.34485775  0.42203445  0.16402107  1
  Ca2+  Ca25  1  0.33822858  0.42640102  0.50618130  1
  Ca2+  Ca26  1  0.34575934  0.42795798  0.83868365  1
  Ca2+  Ca27  1  0.32482245  0.91870889  0.16701081  1
  Ca2+  Ca28  1  0.32804361  0.91540010  0.50829694  1
  Ca2+  Ca29  1  0.32944151  0.92614609  0.83365786  1
  Ca2+  Ca30  1  0.82497163  0.41930606  0.17566240  1
  Ca2+  Ca31  1  0.82881959  0.41427844  0.50454857  1
  Ca2+  Ca32  1  0.83419421  0.41298412  0.83489380  1
  Ca2+  Ca33  1  0.82896281  0.92419647  0.17324936  1
  Ca2+  Ca34  1  0.82342244  0.92327845  0.50324751  1
  Ca2+  Ca35  1  0.82343353  0.91419873  0.83308922  1
  Ca2+  Ca36  1  0.42591433  0.17037162  0.15547960  1
  Ca2+  Ca37  1  0.42789232  0.15419506  0.49899236  1
  Ca2+  Ca38  1  0.41700944  0.16275580  0.82729988  1
  Ca2+  Ca39  1  0.42123599  0.67161654  0.16245758  1
  Ca2+  Ca40  1  0.41956726  0.67761847  0.49827221  1
  Ca2+  Ca41  1  0.42022090  0.66958699  0.82628577  1
  Ca2+  Ca42  1  0.92672018  0.15845208  0.16560139  1
  Ca2+  Ca43  1  0.92622305  0.16107485  0.49704352  1
  Ca2+  Ca44  1  0.93103631  0.16747951  0.82693276  1
  Ca2+  Ca45  1  0.92447710  0.67079638  0.15909249  1
  Ca2+  Ca46  1  0.91918532  0.67098492  0.49851348  1
  Ca2+  Ca47  1  0.92595657  0.66753994  0.83199807  1
  Al0+  Al48  1  -0.00382600  0.00014782  -0.00201836  1
  Al0+  Al49  1  -0.00084129  -0.00077650  0.33751857  1
  Al0+  Al50  1  -0.00201500  -0.00246635  0.66728735  1
  Al0+  Al51  1  -0.00006055  0.50247877  -0.00184611  1
  Al0+  Al52  1  -0.00003819  0.49961447  0.33517683  1
  Al0+  Al53  1  -0.00109761  0.50026185  0.66338575  1
  Al0+  Al54  1  0.49944073  -0.00275667  0.00295187  1
  Al0+  Al55  1  0.49923691  -0.00083098  0.32111186  1
  Al0+  Al56  1  0.49929951  -0.00226696  0.66614715  1
  Al0+  Al57  1  0.50166056  0.49925557  -0.00144546  1
  Al0+  Al58  1  0.50055237  0.50020371  0.33704137  1
  Al0+  Al59  1  0.50251083  0.49774181  0.66919600  1
  Al0+  Al60  1  0.25068237  0.25365144  -0.00431403  1
  Al0+  Al61  1  0.25001728  0.25066671  0.33028563  1
  Al0+  Al62  1  0.24922787  0.25104918  0.66364056  1
  Al0+  Al63  1  0.25015579  0.74933115  0.00479339  1
  Al0+  Al64  1  0.25009967  0.74994657  0.33291247  1
  Al0+  Al65  1  0.25158188  0.74820913  0.67038857  1
  Al0+  Al66  1  0.74841117  0.25061700  -0.00236675  1
  Al0+  Al67  1  0.75132834  0.25294722  0.33991283  1
  Al0+  Al68  1  0.75034849  0.25189928  0.66373985  1
  Al0+  Al69  1  0.75143079  0.74946036  -0.00105511  1
  Al0+  Al70  1  0.75176222  0.74987606  0.33029937  1
  Al0+  Al71  1  0.75215064  0.74723114  0.66704960  1
  Al0+  Al72  1  0.57101226  0.68023257  0.98601041  1
  Al0+  Al73  1  0.17654532  0.92802403  0.68206342  1
  Al0+  Al74  1  0.32186500  0.56807044  0.68083652  1
  Al0+  Al75  1  0.32213837  0.56946577  0.01567409  1
  Al0+  Al76  1  0.18096095  0.93002834  0.34707198  1
  Al0+  Al77  1  0.92950075  0.32202046  0.65081951  1
  Al0+  Al78  1  0.07099947  0.17806272  0.98675924  1
  Al0+  Al79  1  0.07162997  0.68032184  0.98660862  1
  Al0+  Al80  1  0.67918420  0.92837155  0.67799946  1
  Al0+  Al81  1  0.07021655  0.17784573  0.31919646  1
  Al0+  Al82  1  0.42518213  0.82213981  0.31442102  1
  Al0+  Al83  1  0.07250670  0.17599991  0.65058302  1
  Al0+  Al84  1  0.57268743  0.18009837  0.32063696  1
  Al0+  Al85  1  0.42817012  0.81991389  0.65240165  1
  Al0+  Al86  1  0.32086349  0.07222081  0.67910188  1
  Al0+  Al87  1  0.17792982  0.93241886  0.01585499  1
  Al0+  Al88  1  0.67949039  0.43167951  0.34905940  1
  Al0+  Al89  1  0.57027570  0.67914415  0.31846634  1
  Al0+  Al90  1  0.57167710  0.17661770  0.98493783  1
  Al0+  Al91  1  0.57346066  0.67660983  0.65126562  1
  Al0+  Al92  1  0.42937648  0.32103018  0.98548398  1
  Al0+  Al93  1  0.56852138  0.17824531  0.65349966  1
  Al0+  Al94  1  0.81935231  0.07094004  0.34729864  1
  Al0+  Al95  1  0.32269504  0.07546021  0.01618989  1
  Si0+  Si96  1  0.32338895  0.07429458  0.34751469  1
  Si0+  Si97  1  0.82481696  0.57355196  0.35125794  1
  Si0+  Si98  1  0.31913110  0.56917194  0.34893297  1
  Si0+  Si99  1  0.92970346  0.82079114  0.31871860  1
  Si0+  Si100  1  0.92916874  0.32311705  0.31644259  1
  Si0+  Si101  1  0.07066847  0.67757834  0.31973303  1
  Si0+  Si102  1  0.42814815  0.32333125  0.31829591  1
  Si0+  Si103  1  0.07095555  0.68086203  0.65214258  1
  Si0+  Si104  1  0.42678555  0.82085146  0.98178671  1
  Si0+  Si105  1  0.92745547  0.82241146  0.98198929  1
  Si0+  Si106  1  0.67672302  0.92651824  0.34713272  1
  Si0+  Si107  1  0.81698700  0.07113966  0.01349362  1
  Si0+  Si108  1  0.67859320  0.92534487  0.01508654  1
  Si0+  Si109  1  0.17444845  0.42949874  0.01710573  1
  Si0+  Si110  1  0.82285430  0.57229703  0.01600316  1
  Si0+  Si111  1  0.82042261  0.07309584  0.68460328  1
  Si0+  Si112  1  0.17630529  0.42746179  0.34899285  1
  Si0+  Si113  1  0.68061026  0.42804716  0.68548515  1
  Si0+  Si114  1  0.17598495  0.42917714  0.68280184  1
  Si0+  Si115  1  0.92692550  0.82040963  0.65069140  1
  Si0+  Si116  1  0.68172454  0.43030072  0.01522351  1
  Si0+  Si117  1  0.92783516  0.32276567  0.98611705  1
  Si0+  Si118  1  0.82316870  0.57070403  0.68400082  1
  Si0+  Si119  1  0.42799857  0.32261224  0.64962080  1
  O2-  O120  1  0.24657974  0.00725648  0.06664120  1
  O2-  O121  1  0.25606816  0.00438244  0.39200597  1
  O2-  O122  1  0.24391943  0.00535800  0.72928606  1
  O2-  O123  1  0.24686598  0.49431152  0.06236409  1
  O2-  O124  1  0.24839753  0.49746406  0.39097695  1
  O2-  O125  1  0.24851234  0.49235906  0.72840993  1
  O2-  O126  1  0.74363943  0.00259126  0.05660799  1
  O2-  O127  1  0.73896292  0.00104115  0.39186466  1
  O2-  O128  1  0.75058839  0.00529594  0.72834598  1
  O2-  O129  1  0.75214717  0.50190808  0.05824240  1
  O2-  O130  1  0.75296410  0.50865679  0.39548024  1
  O2-  O131  1  0.75094243  0.50108144  0.72635797  1
  O2-  O132  1  -0.00374157  0.25376044  0.27163001  1
  O2-  O133  1  -0.00136633  0.24749046  0.60133089  1
  O2-  O134  1  -0.00157886  0.25647230  0.94242964  1
  O2-  O135  1  -0.00028468  0.74840892  0.27732204  1
  O2-  O136  1  0.00379329  0.75499153  0.60884420  1
  O2-  O137  1  0.00030548  0.75755044  0.93869978  1
  O2-  O138  1  0.49400454  0.25123189  0.27558483  1
  O2-  O139  1  0.49067783  0.24895390  0.60505100  1
  O2-  O140  1  0.49183664  0.24029009  0.93562522  1
  O2-  O141  1  0.50058379  0.75162903  0.26675000  1
  O2-  O142  1  0.50272128  0.74971722  0.60274748  1
  O2-  O143  1  0.49882071  0.75520742  0.93811372  1
  O2-  O144  1  0.06590263  0.17718538  0.10020608  1
  O2-  O145  1  0.06851490  0.17856669  0.43160140  1
  O2-  O146  1  0.07014629  0.17813250  0.76433920  1
  O2-  O147  1  0.06711103  0.67887231  0.10020275  1
  O2-  O148  1  0.06965473  0.67688367  0.42506281  1
  O2-  O149  1  0.06812411  0.67861695  0.75705989  1
  O2-  O150  1  0.57848125  0.18463924  0.09830521  1
  O2-  O151  1  0.57232192  0.18106439  0.43378253  1
  O2-  O152  1  0.56974487  0.18049228  0.76622951  1
  O2-  O153  1  0.57150617  0.68088590  0.09903241  1
  O2-  O154  1  0.56782595  0.67875960  0.43141808  1
  O2-  O155  1  0.57294754  0.67844117  0.76505494  1
  O2-  O156  1  0.17271115  0.42983326  0.24412750  1
  O2-  O157  1  0.17521027  0.43423358  0.57674402  1
  O2-  O158  1  0.16852523  0.43434128  0.91199863  1
  O2-  O159  1  0.17791547  0.92983253  0.23434282  1
  O2-  O160  1  0.17868018  0.92690118  0.56819505  1
  O2-  O161  1  0.17893930  0.93192331  0.90291227  1
  O2-  O162  1  0.68200028  0.43254170  0.23544974  1
  O2-  O163  1  0.68056167  0.42906555  0.58029090  1
  O2-  O164  1  0.68499859  0.42990746  0.91014896  1
  O2-  O165  1  0.68316352  0.92346016  0.24142213  1
  O2-  O166  1  0.68226510  0.92914696  0.56486345  1
  O2-  O167  1  0.68311764  0.92180334  0.91013850  1
  O2-  O168  1  0.43724482  0.32523144  0.09925680  1
  O2-  O169  1  0.42865108  0.32692672  0.42371227  1
  O2-  O170  1  0.43237995  0.32600928  0.75478372  1
  O2-  O171  1  0.42787206  0.81801046  0.08759959  1
  O2-  O172  1  0.42330308  0.81986325  0.42785123  1
  O2-  O173  1  0.42875201  0.81846526  0.76587734  1
  O2-  O174  1  0.92614127  0.32292656  0.09170896  1
  O2-  O175  1  0.93206831  0.32608098  0.42148529  1
  O2-  O176  1  0.93159893  0.32271580  0.76498187  1
  O2-  O177  1  0.92417602  0.82001733  0.08786597  1
  O2-  O178  1  0.92870830  0.81889141  0.42371680  1
  O2-  O179  1  0.92216122  0.81620973  0.75545777  1
  O2-  O180  1  0.31965494  0.07693938  0.24225835  1
  O2-  O181  1  0.32231362  0.06919257  0.56518190  1
  O2-  O182  1  0.32258411  0.07188803  0.90287446  1
  O2-  O183  1  0.31870026  0.56798284  0.24387984  1
  O2-  O184  1  0.31833475  0.56769051  0.56700303  1
  O2-  O185  1  0.32162718  0.56855794  0.90278140  1
  O2-  O186  1  0.82053601  0.06801817  0.23342309  1
  O2-  O187  1  0.82025908  0.07103082  0.57878262  1
  O2-  O188  1  0.81785956  0.07070577  0.90873339  1
  O2-  O189  1  0.83030262  0.57122975  0.24585178  1
  O2-  O190  1  0.82706025  0.57097816  0.57903324  1
  O2-  O191  1  0.82410164  0.57226598  0.91087259  1
  O2-  O192  1  0.03441593  0.08190757  0.26678469  1
  O2-  O193  1  0.04151930  0.07704649  0.59975212  1
  O2-  O194  1  0.03368586  0.08421565  0.93220734  1
  O2-  O195  1  0.04234233  0.58591903  0.27211341  1
  O2-  O196  1  0.03904100  0.59098236  0.60286490  1
  O2-  O197  1  0.03645162  0.58592668  0.93075544  1
  O2-  O198  1  0.55050767  0.08291773  0.26446702  1
  O2-  O199  1  0.54257690  0.08100290  0.59910173  1
  O2-  O200  1  0.55402823  0.07320684  0.93937806  1
  O2-  O201  1  0.53882628  0.58039613  0.26726314  1
  O2-  O202  1  0.54353113  0.57752539  0.60131570  1
  O2-  O203  1  0.54237749  0.58314460  0.93376112  1
  O2-  O204  1  0.16653688  0.20987508  0.26511990  1
  O2-  O205  1  0.16981462  0.20625261  0.59590041  1
  O2-  O206  1  0.16729704  0.20734518  0.93323716  1
  O2-  O207  1  0.16176481  0.70472425  0.27210250  1
  O2-  O208  1  0.16333700  0.70459766  0.60486903  1
  O2-  O209  1  0.16925401  0.70791076  0.93431303  1
  O2-  O210  1  0.66940843  0.21618965  0.26934285  1
  O2-  O211  1  0.66470098  0.21259864  0.60096969  1
  O2-  O212  1  0.66706761  0.21313817  0.92965273  1
  O2-  O213  1  0.67185049  0.70173303  0.26774188  1
  O2-  O214  1  0.67460114  0.69889705  0.60156055  1
  O2-  O215  1  0.67004739  0.70708296  0.93444266  1
  O2-  O216  1  0.08259235  0.45979353  0.06599321  1
  O2-  O217  1  0.08589081  0.45741193  0.39849799  1
  O2-  O218  1  0.08375891  0.45966370  0.72881782  1
  O2-  O219  1  0.07534871  0.95536468  0.06524626  1
  O2-  O220  1  0.08377127  0.95842809  0.40111570  1
  O2-  O221  1  0.07403204  0.94554319  0.73174521  1
  O2-  O222  1  0.59112179  0.45934976  0.06300462  1
  O2-  O223  1  0.58300378  0.46076845  0.40489462  1
  O2-  O224  1  0.58937302  0.45468936  0.73371398  1
  O2-  O225  1  0.58490016  0.94363299  0.06152387  1
  O2-  O226  1  0.57948754  0.94619981  0.38641698  1
  O2-  O227  1  0.58321905  0.95584456  0.73341530  1
  O2-  O228  1  0.19634886  0.33445368  0.06092814  1
  O2-  O229  1  0.20333884  0.33523849  0.39568979  1
  O2-  O230  1  0.19529845  0.33313244  0.72480510  1
  O2-  O231  1  0.20732101  0.83338661  0.06822622  1
  O2-  O232  1  0.20809676  0.83109758  0.39970875  1
  O2-  O233  1  0.20830264  0.83040359  0.73450291  1
  O2-  O234  1  0.71106716  0.33889660  0.06343616  1
  O2-  O235  1  0.71279933  0.33767866  0.40610424  1
  O2-  O236  1  0.71150624  0.33752500  0.73377046  1
  O2-  O237  1  0.71477078  0.83684600  0.06489672  1
  O2-  O238  1  0.70986417  0.83543462  0.39448787  1
  O2-  O239  1  0.71533466  0.83278547  0.73239976  1
  O2-  O240  1  0.45869213  0.41526005  0.27154085  1
  O2-  O241  1  0.46187148  0.41310366  0.60170680  1
  O2-  O242  1  0.46963192  0.41467618  0.93007715  1
  O2-  O243  1  0.45021061  0.91948878  0.25816887  1
  O2-  O244  1  0.45694735  0.91693339  0.59757435  1
  O2-  O245  1  0.45021906  0.91564806  0.93869035  1
  O2-  O246  1  0.95496924  0.41715339  0.26981388  1
  O2-  O247  1  0.95778560  0.42031423  0.59613427  1
  O2-  O248  1  0.95005383  0.41734217  0.94033663  1
  O2-  O249  1  0.95866103  0.91149437  0.27060535  1
  O2-  O250  1  0.94660267  0.91396760  0.60406760  1
  O2-  O251  1  0.94595413  0.91672393  0.93585489  1
  O2-  O252  1  0.33328273  0.30417252  0.27200608  1
  O2-  O253  1  0.33148953  0.30844903  0.60573654  1
  O2-  O254  1  0.32711914  0.31103302  0.93471845  1
  O2-  O255  1  0.32858439  0.78707646  0.26117507  1
  O2-  O256  1  0.33099601  0.78621632  0.59905935  1
  O2-  O257  1  0.33436496  0.79087222  0.93791966  1
  O2-  O258  1  0.83471433  0.29905128  0.27263143  1
  O2-  O259  1  0.83010777  0.29791308  0.59882898  1
  O2-  O260  1  0.83569582  0.29524817  0.93838077  1
  O2-  O261  1  0.83899643  0.79433541  0.26782316  1
  O2-  O262  1  0.83967676  0.78484523  0.59933011  1
  O2-  O263  1  0.83697407  0.78972170  0.93361381  1
  O2-  O264  1  0.42105789  0.04415208  0.06963070  1
  O2-  O265  1  0.41932311  0.04834755  0.38861249  1
  O2-  O266  1  0.41767139  0.04027704  0.73306115  1
  O2-  O267  1  0.41869108  0.53599825  0.06937428  1
  O2-  O268  1  0.40984159  0.54037455  0.39738959  1
  O2-  O269  1  0.41859999  0.53697007  0.73456675  1
  O2-  O270  1  0.90722257  0.04007131  0.06259731  1
  O2-  O271  1  0.91223575  0.03299278  0.40341635  1
  O2-  O272  1  0.91276209  0.04379974  0.73096718  1
  O2-  O273  1  0.91415935  0.54451271  0.06501051  1
  O2-  O274  1  0.91699098  0.54497894  0.40031520  1
  O2-  O275  1  0.91452069  0.54081408  0.73247079  1
  O2-  O276  1  0.30161879  0.17819535  0.06395050  1
  O2-  O277  1  0.29946784  0.16860386  0.39349987  1
  O2-  O278  1  0.29896839  0.17412248  0.72896351  1
  O2-  O279  1  0.28879459  0.66409000  0.07168397  1
  O2-  O280  1  0.28844073  0.65994626  0.39585922  1
  O2-  O281  1  0.28862924  0.66254186  0.73568611  1
  O2-  O282  1  0.79140360  0.16379107  0.06130624  1
  O2-  O283  1  0.79576560  0.16850407  0.40177428  1
  O2-  O284  1  0.79700784  0.16788885  0.72848799  1
  O2-  O285  1  0.79695903  0.66465857  0.06362358  1
  O2-  O286  1  0.80372012  0.66935102  0.39491527  1
  O2-  O287  1  0.79817594  0.66222570  0.73299526  1
