# generated using pymatgen
data_Ca2Al2SiO7
_symmetry_space_group_name_H-M   'P 1'
_cell_length_a   15.45681540
_cell_length_b   15.45722505
_cell_length_c   15.28281741
_cell_angle_alpha   90.00974809
_cell_angle_beta   89.98938405
_cell_angle_gamma   89.99239636
_symmetry_Int_Tables_number   1
_chemical_formula_structural   Ca2Al2SiO7
_chemical_formula_sum   'Ca48 Al48 Si24 O168'
_cell_volume   3651.36255182
_cell_formula_units_Z   24
loop_
 _symmetry_equiv_pos_site_id
 _symmetry_equiv_pos_as_xyz
  1  'x, y, z'
loop_
 _atom_type_symbol
 _atom_type_oxidation_number
  Ca2+  2.0
  Al0+  0.0
  Si0+  0.0
  O2-  -2.0
loop_
 _atom_site_type_symbol
 _atom_site_label
 _atom_site_symmetry_multiplicity
 _atom_site_fract_x
 _atom_site_fract_y
 _atom_site_fract_z
 _atom_site_occupancy
  Ca2+  Ca0  1  0.16714019  0.07329431  0.16916705  1
  Ca2+  Ca1  1  0.16005130  0.07692312  0.50308944  1
  Ca2+  Ca2  1  0.16848137  0.07978238  0.84104858  1
  Ca2+  Ca3  1  0.16968912  0.58259406  0.17286651  1
  Ca2+  Ca4  1  0.16488367  0.58288373  0.49868043  1
  Ca2+  Ca5  1  0.17947003  0.58696560  0.83678982  1
  Ca2+  Ca6  1  0.66584490  0.08466272  0.16848401  1
  Ca2+  Ca7  1  0.67644759  0.07963774  0.50662613  1
  Ca2+  Ca8  1  0.67192840  0.08497293  0.83614863  1
  Ca2+  Ca9  1  0.67163797  0.57346041  0.17563262  1
  Ca2+  Ca10  1  0.66836258  0.57773362  0.49928766  1
  Ca2+  Ca11  1  0.66834715  0.57037738  0.83831280  1
  Ca2+  Ca12  1  0.07128438  0.34603096  0.16458068  1
  Ca2+  Ca13  1  0.07403629  0.33341347  0.49206809  1
  Ca2+  Ca14  1  0.07226043  0.32724510  0.82430976  1
  Ca2+  Ca15  1  0.07989286  0.83489737  0.16699608  1
  Ca2+  Ca16  1  0.07535725  0.82723800  0.49136156  1
  Ca2+  Ca17  1  0.07775075  0.83865998  0.83132391  1
  Ca2+  Ca18  1  0.58437223  0.33154751  0.15573020  1
  Ca2+  Ca19  1  0.58833639  0.33823121  0.49785101  1
  Ca2+  Ca20  1  0.58407595  0.33471880  0.83657810  1
  Ca2+  Ca21  1  0.58118177  0.82369401  0.16710027  1
  Ca2+  Ca22  1  0.57098119  0.82694442  0.48977458  1
  Ca2+  Ca23  1  0.57283588  0.83007167  0.82556868  1
  Ca2+  Ca24  1  0.33156425  0.41983903  0.17052605  1
  Ca2+  Ca25  1  0.32415666  0.42366920  0.50535200  1
  Ca2+  Ca26  1  0.33728137  0.42735362  0.84182601  1
  Ca2+  Ca27  1  0.32431061  0.91886381  0.17263172  1
  Ca2+  Ca28  1  0.32838531  0.90542273  0.50129014  1
  Ca2+  Ca29  1  0.32684646  0.92189694  0.84455918  1
  Ca2+  Ca30  1  0.82708356  0.41640731  0.17702286  1
  Ca2+  Ca31  1  0.82826466  0.41659583  0.50181768  1
  Ca2+  Ca32  1  0.82565228  0.40469981  0.83661959  1
  Ca2+  Ca33  1  0.83834867  0.91520159  0.17128549  1
  Ca2+  Ca34  1  0.84072127  0.91922559  0.50750994  1
  Ca2+  Ca35  1  0.84321907  0.92191143  0.83599106  1
  Ca2+  Ca36  1  0.42222799  0.17363089  0.15463291  1
  Ca2+  Ca37  1  0.42096051  0.16912476  0.49503181  1
  Ca2+  Ca38  1  0.41870487  0.16783113  0.83578254  1
  Ca2+  Ca39  1  0.41789124  0.66540201  0.16604796  1
  Ca2+  Ca40  1  0.41857067  0.67121690  0.49553734  1
  Ca2+  Ca41  1  0.41242927  0.66706807  0.82650731  1
  Ca2+  Ca42  1  0.91644557  0.18089546  0.16205016  1
  Ca2+  Ca43  1  0.91674344  0.17471596  0.50279527  1
  Ca2+  Ca44  1  0.92036578  0.17313779  0.82549698  1
  Ca2+  Ca45  1  0.91927236  0.67097357  0.16643749  1
  Ca2+  Ca46  1  0.91650274  0.67422647  0.48756403  1
  Ca2+  Ca47  1  0.91692978  0.67916567  0.83024025  1
  Al0+  Al48  1  -0.00098014  0.00084071  0.00231007  1
  Al0+  Al49  1  0.00232602  0.00164959  0.33493438  1
  Al0+  Al50  1  0.00019922  0.00053241  0.66472716  1
  Al0+  Al51  1  0.00001477  0.50418329  -0.00977752  1
  Al0+  Al52  1  -0.00063750  0.50152362  0.33355648  1
  Al0+  Al53  1  -0.00126781  0.50043707  0.66576539  1
  Al0+  Al54  1  0.50171372  -0.00038764  -0.00037352  1
  Al0+  Al55  1  0.50066935  0.00152716  0.33020149  1
  Al0+  Al56  1  0.49899955  -0.00000374  0.66189261  1
  Al0+  Al57  1  0.50182213  0.49949867  0.00503446  1
  Al0+  Al58  1  0.49986965  0.49943982  0.33455123  1
  Al0+  Al59  1  0.50014174  0.49910851  0.67419486  1
  Al0+  Al60  1  0.25018040  0.25140860  0.00005536  1
  Al0+  Al61  1  0.25093231  0.24914326  0.33771349  1
  Al0+  Al62  1  0.25056517  0.24793367  0.66328995  1
  Al0+  Al63  1  0.24956189  0.74909399  0.00894594  1
  Al0+  Al64  1  0.24896867  0.75230500  0.33083698  1
  Al0+  Al65  1  0.24919238  0.75001443  0.66772021  1
  Al0+  Al66  1  0.74957372  0.24785497  -0.00333253  1
  Al0+  Al67  1  0.75055594  0.24851367  0.33415063  1
  Al0+  Al68  1  0.75010560  0.24764615  0.67130909  1
  Al0+  Al69  1  0.75055046  0.75010172  -0.00617535  1
  Al0+  Al70  1  0.74699577  0.75037725  0.32970862  1
  Al0+  Al71  1  0.74749341  0.74826742  0.66404001  1
  Al0+  Al72  1  0.68403780  0.42866336  0.01459705  1
  Al0+  Al73  1  0.17996434  0.92987827  0.35066438  1
  Al0+  Al74  1  0.92885187  0.81956574  0.65347281  1
  Al0+  Al75  1  0.17827089  0.42844604  0.34622681  1
  Al0+  Al76  1  0.42822284  0.32294598  0.98538073  1
  Al0+  Al77  1  0.42818408  0.82100110  0.65457450  1
  Al0+  Al78  1  0.92986238  0.82145485  0.98541678  1
  Al0+  Al79  1  0.92805783  0.82375615  0.31864210  1
  Al0+  Al80  1  0.68152911  0.42969021  0.68319172  1
  Al0+  Al81  1  0.92683677  0.32144124  0.64988822  1
  Al0+  Al82  1  0.42821926  0.82203240  0.31542946  1
  Al0+  Al83  1  0.07298132  0.17901921  0.65110147  1
  Al0+  Al84  1  0.32344679  0.07333183  0.01500931  1
  Al0+  Al85  1  0.92930529  0.32290409  0.98607717  1
  Al0+  Al86  1  0.57001626  0.67635565  0.31738180  1
  Al0+  Al87  1  0.92969323  0.31950891  0.32013309  1
  Al0+  Al88  1  0.32180928  0.56974825  0.01613783  1
  Al0+  Al89  1  0.17752980  0.93033217  0.01661194  1
  Al0+  Al90  1  0.82074799  0.06688927  0.68132761  1
  Al0+  Al91  1  0.82053883  0.57282882  0.34723887  1
  Al0+  Al92  1  0.07056439  0.67810009  0.31770979  1
  Al0+  Al93  1  0.57123009  0.17680315  0.98294217  1
  Al0+  Al94  1  0.31778567  0.56935170  0.67930074  1
  Al0+  Al95  1  0.67849670  0.42667177  0.34863511  1
  Si0+  Si96  1  0.82383169  0.57539416  0.68480567  1
  Si0+  Si97  1  0.32394657  0.07130354  0.35236551  1
  Si0+  Si98  1  0.07503553  0.67947295  0.98080557  1
  Si0+  Si99  1  0.57159328  0.18056172  0.31963145  1
  Si0+  Si100  1  0.67733987  0.92946344  0.34723615  1
  Si0+  Si101  1  0.56982975  0.67509345  0.65113261  1
  Si0+  Si102  1  0.18092069  0.93080574  0.68130392  1
  Si0+  Si103  1  0.67537075  0.92667626  0.68182974  1
  Si0+  Si104  1  0.42985558  0.32249310  0.65169013  1
  Si0+  Si105  1  0.42858442  0.81912951  0.98629701  1
  Si0+  Si106  1  0.32175419  0.57218874  0.35044143  1
  Si0+  Si107  1  0.82285151  0.57527148  0.01469586  1
  Si0+  Si108  1  0.32453347  0.07287037  0.68155011  1
  Si0+  Si109  1  0.07437995  0.17893158  0.31534808  1
  Si0+  Si110  1  0.17522457  0.42897514  0.01320308  1
  Si0+  Si111  1  0.42754083  0.32039803  0.32106332  1
  Si0+  Si112  1  0.17645117  0.42490574  0.68306318  1
  Si0+  Si113  1  0.57027870  0.17894484  0.65063505  1
  Si0+  Si114  1  0.82098341  0.07020567  0.34788471  1
  Si0+  Si115  1  0.67864286  0.92611872  0.01418274  1
  Si0+  Si116  1  0.07108413  0.17800085  0.98581256  1
  Si0+  Si117  1  0.81950760  0.06944610  0.01603990  1
  Si0+  Si118  1  0.57110733  0.67864524  0.98344493  1
  Si0+  Si119  1  0.07278975  0.67872321  0.65111922  1
  O2-  O120  1  0.25158561  0.00167166  0.06521702  1
  O2-  O121  1  0.25689201  0.00241211  0.39853682  1
  O2-  O122  1  0.25258552  0.00215153  0.72237619  1
  O2-  O123  1  0.24696235  0.49353780  0.05906231  1
  O2-  O124  1  0.25189365  0.50419330  0.39390801  1
  O2-  O125  1  0.24387413  0.49443961  0.72781388  1
  O2-  O126  1  0.74915244  -0.00271237  0.05748569  1
  O2-  O127  1  0.75408795  -0.00571907  0.38929401  1
  O2-  O128  1  0.74822288  -0.01070004  0.72833938  1
  O2-  O129  1  0.76148995  0.50076208  0.05954556  1
  O2-  O130  1  0.74973491  0.49953420  0.39792371  1
  O2-  O131  1  0.75928148  0.50250596  0.72893401  1
  O2-  O132  1  0.00823499  0.24968897  0.27098013  1
  O2-  O133  1  0.00500484  0.25501279  0.60129320  1
  O2-  O134  1  0.00788741  0.25123860  0.94135079  1
  O2-  O135  1  -0.00181952  0.75040562  0.26833758  1
  O2-  O136  1  -0.00237842  0.74004678  0.60735799  1
  O2-  O137  1  0.00634293  0.74910793  0.93812153  1
  O2-  O138  1  0.50156893  0.25261378  0.27918197  1
  O2-  O139  1  0.50011533  0.25084196  0.60827812  1
  O2-  O140  1  0.49750990  0.24820080  0.93429217  1
  O2-  O141  1  0.49740050  0.74731062  0.26572750  1
  O2-  O142  1  0.50467963  0.74796852  0.60849961  1
  O2-  O143  1  0.49766679  0.74764882  0.94132569  1
  O2-  O144  1  0.06669384  0.17527462  0.09124670  1
  O2-  O145  1  0.07268809  0.17888652  0.42088319  1
  O2-  O146  1  0.07279752  0.17852305  0.76513288  1
  O2-  O147  1  0.07454043  0.67560497  0.08567020  1
  O2-  O148  1  0.07039402  0.68050763  0.43184816  1
  O2-  O149  1  0.07667206  0.68351000  0.75674592  1
  O2-  O150  1  0.57302808  0.17845885  0.09697739  1
  O2-  O151  1  0.57115436  0.17834802  0.42510576  1
  O2-  O152  1  0.56811699  0.17589292  0.75511088  1
  O2-  O153  1  0.57299632  0.68103455  0.08805684  1
  O2-  O154  1  0.56766489  0.67808611  0.43147821  1
  O2-  O155  1  0.56811068  0.67587955  0.75724662  1
  O2-  O156  1  0.18226628  0.42720880  0.23303866  1
  O2-  O157  1  0.17926258  0.42521584  0.57743480  1
  O2-  O158  1  0.17526023  0.43191799  0.90749807  1
  O2-  O159  1  0.17855643  0.93378385  0.23803159  1
  O2-  O160  1  0.18197638  0.92989308  0.57638802  1
  O2-  O161  1  0.17838010  0.93171705  0.90198682  1
  O2-  O162  1  0.68023207  0.42355635  0.23528013  1
  O2-  O163  1  0.67920961  0.43152773  0.57040600  1
  O2-  O164  1  0.68371517  0.43036542  0.90127249  1
  O2-  O165  1  0.67464801  0.93373627  0.24195903  1
  O2-  O166  1  0.67325262  0.93119315  0.57626474  1
  O2-  O167  1  0.67798298  0.92536726  0.90900232  1
  O2-  O168  1  0.43118474  0.32297452  0.09942772  1
  O2-  O169  1  0.42691742  0.31772530  0.42667751  1
  O2-  O170  1  0.42976472  0.32211395  0.75637419  1
  O2-  O171  1  0.43180407  0.81865754  0.09083488  1
  O2-  O172  1  0.43081575  0.82139192  0.42949828  1
  O2-  O173  1  0.42840996  0.82094642  0.76823671  1
  O2-  O174  1  0.92875475  0.32174522  0.09937720  1
  O2-  O175  1  0.92722825  0.31547556  0.43275237  1
  O2-  O176  1  0.92737539  0.31626480  0.76376027  1
  O2-  O177  1  0.92772171  0.82017903  0.09771123  1
  O2-  O178  1  0.93028152  0.82446698  0.43243692  1
  O2-  O179  1  0.93312264  0.82136363  0.76676173  1
  O2-  O180  1  0.32405012  0.07187358  0.24716987  1
  O2-  O181  1  0.32791670  0.07357310  0.57674152  1
  O2-  O182  1  0.32277304  0.06889577  0.90062234  1
  O2-  O183  1  0.32301834  0.56862047  0.24486118  1
  O2-  O184  1  0.31776449  0.56843310  0.56644879  1
  O2-  O185  1  0.32065491  0.57213049  0.90254481  1
  O2-  O186  1  0.81749657  0.07292138  0.24253000  1
  O2-  O187  1  0.81772402  0.06690817  0.56783446  1
  O2-  O188  1  0.82028310  0.06809204  0.91094716  1
  O2-  O189  1  0.81967368  0.57066462  0.23325828  1
  O2-  O190  1  0.82162590  0.57916088  0.57977470  1
  O2-  O191  1  0.81786976  0.57921053  0.90904030  1
  O2-  O192  1  0.04503577  0.08670139  0.26953685  1
  O2-  O193  1  0.03896574  0.08290501  0.59708197  1
  O2-  O194  1  0.03983167  0.08695854  0.93757343  1
  O2-  O195  1  0.04456429  0.57987359  0.26342345  1
  O2-  O196  1  0.05587381  0.58182084  0.60889277  1
  O2-  O197  1  0.04998467  0.58820395  0.92895281  1
  O2-  O198  1  0.54383438  0.08982185  0.27013564  1
  O2-  O199  1  0.54168099  0.08840981  0.60010662  1
  O2-  O200  1  0.54601907  0.07708833  0.92936516  1
  O2-  O201  1  0.54250795  0.57734262  0.26461761  1
  O2-  O202  1  0.53892765  0.58325346  0.60549498  1
  O2-  O203  1  0.54358008  0.58643330  0.93783561  1
  O2-  O204  1  0.17010698  0.20051201  0.27218430  1
  O2-  O205  1  0.17361024  0.19920082  0.59759924  1
  O2-  O206  1  0.16700588  0.19660606  0.94159065  1
  O2-  O207  1  0.16882195  0.70643323  0.26538638  1
  O2-  O208  1  0.16304634  0.71088934  0.60250900  1
  O2-  O209  1  0.16914637  0.70723998  0.93619705  1
  O2-  O210  1  0.66303367  0.20605985  0.27104349  1
  O2-  O211  1  0.66228810  0.20629773  0.60449282  1
  O2-  O212  1  0.66840026  0.20649210  0.92867007  1
  O2-  O213  1  0.66605664  0.70784522  0.26187468  1
  O2-  O214  1  0.66426786  0.69608300  0.60539248  1
  O2-  O215  1  0.66080645  0.70893014  0.93292261  1
  O2-  O216  1  0.08214131  0.46022097  0.05818380  1
  O2-  O217  1  0.08235664  0.45831674  0.40118540  1
  O2-  O218  1  0.08135332  0.44789017  0.72739553  1
  O2-  O219  1  0.08003340  0.96162013  0.07015061  1
  O2-  O220  1  0.08398037  0.96382663  0.40523722  1
  O2-  O221  1  0.08976010  0.96041431  0.72844518  1
  O2-  O222  1  0.58811105  0.46081443  0.06800370  1
  O2-  O223  1  0.57893051  0.45340907  0.40128800  1
  O2-  O224  1  0.58576331  0.46203779  0.73876279  1
  O2-  O225  1  0.58766480  0.95336465  0.06307160  1
  O2-  O226  1  0.58822107  0.96427640  0.39682112  1
  O2-  O227  1  0.58330560  0.95839610  0.72881162  1
  O2-  O228  1  0.19354658  0.33360224  0.05802636  1
  O2-  O229  1  0.21063949  0.33270613  0.40251166  1
  O2-  O230  1  0.20351452  0.33089930  0.72760252  1
  O2-  O231  1  0.20430176  0.83224257  0.06948796  1
  O2-  O232  1  0.20972816  0.83238523  0.40385864  1
  O2-  O233  1  0.20862761  0.83960095  0.72978291  1
  O2-  O234  1  0.71089123  0.32960041  0.06552362  1
  O2-  O235  1  0.70778793  0.32801906  0.40211409  1
  O2-  O236  1  0.70902899  0.33172038  0.73629082  1
  O2-  O237  1  0.70811173  0.83456694  0.06109964  1
  O2-  O238  1  0.69651047  0.83568500  0.39305122  1
  O2-  O239  1  0.69265021  0.82997683  0.72489307  1
  O2-  O240  1  0.45030115  0.41344279  0.27532584  1
  O2-  O241  1  0.45957984  0.41386231  0.60499081  1
  O2-  O242  1  0.46195738  0.42049848  0.93272514  1
  O2-  O243  1  0.46062739  0.92025591  0.26399533  1
  O2-  O244  1  0.45690288  0.91720148  0.59824395  1
  O2-  O245  1  0.45782709  0.91050299  0.93867903  1
  O2-  O246  1  0.95719358  0.41696895  0.26765748  1
  O2-  O247  1  0.94815433  0.42333424  0.60113280  1
  O2-  O248  1  0.95370731  0.42034891  0.93006909  1
  O2-  O249  1  0.95857768  0.92263217  0.26694412  1
  O2-  O250  1  0.96285083  0.91471671  0.60006411  1
  O2-  O251  1  0.96034417  0.91931622  0.93298395  1
  O2-  O252  1  0.33733732  0.28964049  0.27244670  1
  O2-  O253  1  0.33820321  0.29513754  0.60354738  1
  O2-  O254  1  0.32796004  0.29985026  0.93250738  1
  O2-  O255  1  0.32922009  0.79754354  0.26430873  1
  O2-  O256  1  0.33261732  0.78763814  0.60062599  1
  O2-  O257  1  0.33514370  0.79257350  0.94179964  1
  O2-  O258  1  0.83464294  0.28248875  0.26598341  1
  O2-  O259  1  0.82991222  0.28467285  0.59928765  1
  O2-  O260  1  0.83578740  0.28433066  0.93230410  1
  O2-  O261  1  0.82758629  0.80113671  0.26808536  1
  O2-  O262  1  0.82841116  0.79725938  0.60265346  1
  O2-  O263  1  0.83381151  0.79094430  0.92863982  1
  O2-  O264  1  0.42297435  0.04530780  0.06625850  1
  O2-  O265  1  0.41919780  0.04757663  0.39735786  1
  O2-  O266  1  0.41595545  0.04362276  0.72916505  1
  O2-  O267  1  0.41790252  0.53996661  0.07079597  1
  O2-  O268  1  0.41426607  0.54483483  0.39768281  1
  O2-  O269  1  0.41347398  0.53912252  0.73567064  1
  O2-  O270  1  0.91045266  0.04290387  0.06505704  1
  O2-  O271  1  0.91388326  0.04780467  0.39476443  1
  O2-  O272  1  0.91775581  0.03721755  0.73575983  1
  O2-  O273  1  0.92062075  0.55723455  0.05398392  1
  O2-  O274  1  0.91904165  0.54718609  0.40038486  1
  O2-  O275  1  0.91992841  0.55617469  0.72923561  1
  O2-  O276  1  0.29849205  0.17335412  0.06674420  1
  O2-  O277  1  0.29875930  0.16462166  0.39992610  1
  O2-  O278  1  0.29834262  0.16528266  0.72891736  1
  O2-  O279  1  0.29114023  0.66479514  0.07215325  1
  O2-  O280  1  0.29708834  0.66673702  0.39402242  1
  O2-  O281  1  0.28624331  0.66588634  0.73494200  1
  O2-  O282  1  0.78883685  0.15998703  0.06398706  1
  O2-  O283  1  0.78627920  0.15832326  0.39803540  1
  O2-  O284  1  0.78625541  0.16111893  0.73694497  1
  O2-  O285  1  0.79095521  0.66676405  0.06138101  1
  O2-  O286  1  0.78963758  0.67162226  0.39962347  1
  O2-  O287  1  0.79300095  0.66761700  0.73297014  1
