# generated using pymatgen
data_Ca2Al2SiO7
_symmetry_space_group_name_H-M   'P 1'
_cell_length_a   15.45937313
_cell_length_b   15.46055673
_cell_length_c   15.28538370
_cell_angle_alpha   90.00351072
_cell_angle_beta   90.01275561
_cell_angle_gamma   89.99586502
_symmetry_Int_Tables_number   1
_chemical_formula_structural   Ca2Al2SiO7
_chemical_formula_sum   'Ca48 Al48 Si24 O168'
_cell_volume   3653.36732592
_cell_formula_units_Z   24
loop_
 _symmetry_equiv_pos_site_id
 _symmetry_equiv_pos_as_xyz
  1  'x, y, z'
loop_
 _atom_type_symbol
 _atom_type_oxidation_number
  Ca2+  2.0
  Al0+  0.0
  Si0+  0.0
  O2-  -2.0
loop_
 _atom_site_type_symbol
 _atom_site_label
 _atom_site_symmetry_multiplicity
 _atom_site_fract_x
 _atom_site_fract_y
 _atom_site_fract_z
 _atom_site_occupancy
  Ca2+  Ca0  1  0.17380594  0.08631746  0.17683999  1
  Ca2+  Ca1  1  0.16904034  0.08486607  0.49730138  1
  Ca2+  Ca2  1  0.17432052  0.08629548  0.84315169  1
  Ca2+  Ca3  1  0.16677449  0.57291351  0.17831331  1
  Ca2+  Ca4  1  0.16443765  0.57694894  0.49859127  1
  Ca2+  Ca5  1  0.16334166  0.57085554  0.83576680  1
  Ca2+  Ca6  1  0.66157910  0.08302532  0.16825501  1
  Ca2+  Ca7  1  0.67148125  0.08508452  0.51051622  1
  Ca2+  Ca8  1  0.66679839  0.07908829  0.83354605  1
  Ca2+  Ca9  1  0.66887603  0.58283152  0.17493658  1
  Ca2+  Ca10  1  0.66374707  0.57713553  0.50392471  1
  Ca2+  Ca11  1  0.66752131  0.57512533  0.83442622  1
  Ca2+  Ca12  1  0.08316662  0.33090037  0.16019086  1
  Ca2+  Ca13  1  0.07528085  0.33486945  0.49263405  1
  Ca2+  Ca14  1  0.07926485  0.33225791  0.83097633  1
  Ca2+  Ca15  1  0.09684332  0.82687896  0.16999269  1
  Ca2+  Ca16  1  0.07907063  0.83284410  0.49059053  1
  Ca2+  Ca17  1  0.07689383  0.83066331  0.82377757  1
  Ca2+  Ca18  1  0.57818625  0.31955816  0.16270070  1
  Ca2+  Ca19  1  0.58920899  0.32304025  0.49548858  1
  Ca2+  Ca20  1  0.58765231  0.32075844  0.82564395  1
  Ca2+  Ca21  1  0.57738977  0.83322696  0.16677761  1
  Ca2+  Ca22  1  0.57310859  0.83431245  0.49444011  1
  Ca2+  Ca23  1  0.58173840  0.84005138  0.82550412  1
  Ca2+  Ca24  1  0.31993141  0.41892419  0.17707171  1
  Ca2+  Ca25  1  0.32161919  0.41910621  0.50277105  1
  Ca2+  Ca26  1  0.31981643  0.41135607  0.83763223  1
  Ca2+  Ca27  1  0.33024957  0.92728969  0.17618875  1
  Ca2+  Ca28  1  0.33431326  0.91517994  0.49673403  1
  Ca2+  Ca29  1  0.33635312  0.92174357  0.83662846  1
  Ca2+  Ca30  1  0.83726362  0.40880384  0.16887031  1
  Ca2+  Ca31  1  0.83273708  0.41299233  0.50688380  1
  Ca2+  Ca32  1  0.83360705  0.40762027  0.83140246  1
  Ca2+  Ca33  1  0.82513174  0.91847332  0.17056541  1
  Ca2+  Ca34  1  0.82719747  0.92533225  0.51302178  1
  Ca2+  Ca35  1  0.82549891  0.92093589  0.83495664  1
  Ca2+  Ca36  1  0.42209979  0.15353573  0.16406858  1
  Ca2+  Ca37  1  0.42938941  0.16141207  0.49425528  1
  Ca2+  Ca38  1  0.42670748  0.15957106  0.83209243  1
  Ca2+  Ca39  1  0.41176253  0.66910576  0.17135664  1
  Ca2+  Ca40  1  0.41764831  0.67537921  0.48868136  1
  Ca2+  Ca41  1  0.41816507  0.67646490  0.82418591  1
  Ca2+  Ca42  1  0.93207964  0.17705460  0.16376249  1
  Ca2+  Ca43  1  0.91763094  0.17587659  0.49345691  1
  Ca2+  Ca44  1  0.91850653  0.17376093  0.82788599  1
  Ca2+  Ca45  1  0.92395438  0.66686660  0.16818518  1
  Ca2+  Ca46  1  0.92013451  0.67444601  0.49646365  1
  Ca2+  Ca47  1  0.91697166  0.67434034  0.82789968  1
  Al0+  Al48  1  -0.00111624  -0.00105441  -0.00167829  1
  Al0+  Al49  1  -0.00283922  0.00355474  0.33247113  1
  Al0+  Al50  1  0.00107892  0.00010191  0.66735685  1
  Al0+  Al51  1  -0.00097987  0.50159271  -0.00050638  1
  Al0+  Al52  1  -0.00410436  0.50434480  0.33142702  1
  Al0+  Al53  1  0.00063021  0.49929253  0.66843589  1
  Al0+  Al54  1  0.49972056  -0.00214341  0.00312886  1
  Al0+  Al55  1  0.49959609  -0.00232347  0.32943396  1
  Al0+  Al56  1  0.50008353  -0.00059764  0.66117038  1
  Al0+  Al57  1  0.50094362  0.50076897  -0.00016087  1
  Al0+  Al58  1  0.50087359  0.49916276  0.33325410  1
  Al0+  Al59  1  0.49891402  0.49959569  0.67306186  1
  Al0+  Al60  1  0.25136228  0.25024049  0.00581516  1
  Al0+  Al61  1  0.25107001  0.24959809  0.34290002  1
  Al0+  Al62  1  0.25155171  0.24967676  0.67173104  1
  Al0+  Al63  1  0.25099488  0.74959319  -0.00422968  1
  Al0+  Al64  1  0.24899233  0.75078801  0.33177126  1
  Al0+  Al65  1  0.25140301  0.74975543  0.66401618  1
  Al0+  Al66  1  0.75006210  0.24862019  -0.00549789  1
  Al0+  Al67  1  0.74926903  0.24939406  0.32356069  1
  Al0+  Al68  1  0.75239117  0.25011464  0.66736548  1
  Al0+  Al69  1  0.74871787  0.74882842  0.00430980  1
  Al0+  Al70  1  0.74870426  0.74925425  0.33175710  1
  Al0+  Al71  1  0.75014817  0.74924722  0.66595311  1
  Al0+  Al72  1  0.56992305  0.18152995  0.65330374  1
  Al0+  Al73  1  0.17672773  0.93031935  0.34813589  1
  Al0+  Al74  1  0.07313345  0.17982723  0.32043397  1
  Al0+  Al75  1  0.67819393  0.92922237  0.67939689  1
  Al0+  Al76  1  0.68005957  0.92921806  0.01552208  1
  Al0+  Al77  1  0.32353248  0.07116415  0.35171539  1
  Al0+  Al78  1  0.31920106  0.06882696  0.01276387  1
  Al0+  Al79  1  0.57147943  0.67670732  0.31813566  1
  Al0+  Al80  1  0.42807896  0.81984279  0.31497054  1
  Al0+  Al81  1  0.93099261  0.32202464  0.98184285  1
  Al0+  Al82  1  0.17944527  0.43161280  0.01468305  1
  Al0+  Al83  1  0.42984625  0.82052684  0.65188843  1
  Al0+  Al84  1  0.17526561  0.42883033  0.34992487  1
  Al0+  Al85  1  0.56833772  0.17762677  0.98423535  1
  Al0+  Al86  1  0.07461234  0.17774567  0.98491735  1
  Al0+  Al87  1  0.67881888  0.42865960  0.67949465  1
  Al0+  Al88  1  0.56962490  0.17868543  0.31885434  1
  Al0+  Al89  1  0.32220598  0.57076245  0.34850737  1
  Al0+  Al90  1  0.92919823  0.32293457  0.31855181  1
  Al0+  Al91  1  0.92790408  0.82259416  0.65393805  1
  Al0+  Al92  1  0.93186613  0.31937326  0.65219386  1
  Al0+  Al93  1  0.82377400  0.07251354  0.68207436  1
  Al0+  Al94  1  0.06946720  0.68200976  0.32052665  1
  Al0+  Al95  1  0.17875040  0.42911634  0.68219480  1
  Si0+  Si96  1  0.57217629  0.67477178  0.65159586  1
  Si0+  Si97  1  0.17935820  0.92679046  0.68123514  1
  Si0+  Si98  1  0.81902669  0.57104960  0.01621960  1
  Si0+  Si99  1  0.68092140  0.42770805  0.34549412  1
  Si0+  Si100  1  0.57372332  0.67745324  0.98306202  1
  Si0+  Si101  1  0.82300787  0.07329129  0.01885887  1
  Si0+  Si102  1  0.67992757  0.92763453  0.34860155  1
  Si0+  Si103  1  0.07098855  0.67901677  0.65051012  1
  Si0+  Si104  1  0.92543491  0.81990353  0.98629922  1
  Si0+  Si105  1  0.07097590  0.68090103  0.98424068  1
  Si0+  Si106  1  0.07652223  0.17692420  0.65058613  1
  Si0+  Si107  1  0.92626601  0.82449358  0.31631585  1
  Si0+  Si108  1  0.67878083  0.42703477  0.01554621  1
  Si0+  Si109  1  0.32324625  0.57463114  0.01582625  1
  Si0+  Si110  1  0.32132867  0.06912695  0.68199875  1
  Si0+  Si111  1  0.81776637  0.07219440  0.34643617  1
  Si0+  Si112  1  0.82237918  0.57202498  0.68368291  1
  Si0+  Si113  1  0.81970965  0.57358933  0.34966318  1
  Si0+  Si114  1  0.43093430  0.81826603  0.98375999  1
  Si0+  Si115  1  0.42885078  0.32511962  0.98388903  1
  Si0+  Si116  1  0.17519900  0.92556210  0.01361622  1
  Si0+  Si117  1  0.32124445  0.57352825  0.68477963  1
  Si0+  Si118  1  0.42621999  0.32335758  0.65122644  1
  Si0+  Si119  1  0.42786059  0.32243789  0.31927908  1
  O2-  O120  1  0.23760600  -0.00007808  0.05626424  1
  O2-  O121  1  0.24841174  0.00120158  0.40069155  1
  O2-  O122  1  0.24802363  -0.00027380  0.72406759  1
  O2-  O123  1  0.25670356  0.50455376  0.05953751  1
  O2-  O124  1  0.24959761  0.49981644  0.39900927  1
  O2-  O125  1  0.25484902  0.50306783  0.72938622  1
  O2-  O126  1  0.75401342  0.00431504  0.06312276  1
  O2-  O127  1  0.74915293  -0.00021707  0.39029113  1
  O2-  O128  1  0.75184306  -0.00116574  0.73070803  1
  O2-  O129  1  0.75071874  0.49709791  0.05798912  1
  O2-  O130  1  0.75004313  0.50015755  0.38884893  1
  O2-  O131  1  0.75256199  0.50426808  0.72769378  1
  O2-  O132  1  0.00857723  0.25859577  0.27007363  1
  O2-  O133  1  0.00659521  0.24458599  0.60718468  1
  O2-  O134  1  0.00224531  0.24848991  0.93304821  1
  O2-  O135  1  -0.00099735  0.76043155  0.27136917  1
  O2-  O136  1  0.00393076  0.74955568  0.60724289  1
  O2-  O137  1  0.00269255  0.75537049  0.94360836  1
  O2-  O138  1  0.49027976  0.24888744  0.27291818  1
  O2-  O139  1  0.49787418  0.25864221  0.60623721  1
  O2-  O140  1  0.49676225  0.25608109  0.93855334  1
  O2-  O141  1  0.49899260  0.74604270  0.26520747  1
  O2-  O142  1  0.50493615  0.74467010  0.60842949  1
  O2-  O143  1  0.50075614  0.74611715  0.94102304  1
  O2-  O144  1  0.07439583  0.17903092  0.09804361  1
  O2-  O145  1  0.06641863  0.17707536  0.43397702  1
  O2-  O146  1  0.07876467  0.17811424  0.75625607  1
  O2-  O147  1  0.07131874  0.68070046  0.08901068  1
  O2-  O148  1  0.06415807  0.68114894  0.43354515  1
  O2-  O149  1  0.07008829  0.68063967  0.75702913  1
  O2-  O150  1  0.56640501  0.17882288  0.09733771  1
  O2-  O151  1  0.57437538  0.18162615  0.43182388  1
  O2-  O152  1  0.56659800  0.17969314  0.76652540  1
  O2-  O153  1  0.57586153  0.67671181  0.08748655  1
  O2-  O154  1  0.57442752  0.67851511  0.43163345  1
  O2-  O155  1  0.57059093  0.67376493  0.75780972  1
  O2-  O156  1  0.17607590  0.43147014  0.23607983  1
  O2-  O157  1  0.17815111  0.43174955  0.56985369  1
  O2-  O158  1  0.17949093  0.43450311  0.90123294  1
  O2-  O159  1  0.17873345  0.93114951  0.23401188  1
  O2-  O160  1  0.17922596  0.92468330  0.57686922  1
  O2-  O161  1  0.17841001  0.92076906  0.90763662  1
  O2-  O162  1  0.68261129  0.42825099  0.24010319  1
  O2-  O163  1  0.68001694  0.43037308  0.56615597  1
  O2-  O164  1  0.67784864  0.43011278  0.91046522  1
  O2-  O165  1  0.68270623  0.92656836  0.24312567  1
  O2-  O166  1  0.67859650  0.93108255  0.56576494  1
  O2-  O167  1  0.68134822  0.92723168  0.90266657  1
  O2-  O168  1  0.43257869  0.32938820  0.08916867  1
  O2-  O169  1  0.43419621  0.32470600  0.42481301  1
  O2-  O170  1  0.42496826  0.32026369  0.75708088  1
  O2-  O171  1  0.42963041  0.81645407  0.08801142  1
  O2-  O172  1  0.43203860  0.82002583  0.42860041  1
  O2-  O173  1  0.42964139  0.81969831  0.76594185  1
  O2-  O174  1  0.93248519  0.32305966  0.09512836  1
  O2-  O175  1  0.92471032  0.31979637  0.43204693  1
  O2-  O176  1  0.93365303  0.31971684  0.76498952  1
  O2-  O177  1  0.92220281  0.81604634  0.09108209  1
  O2-  O178  1  0.92413269  0.82106510  0.42183824  1
  O2-  O179  1  0.93016875  0.81895295  0.76786473  1
  O2-  O180  1  0.32457589  0.06770619  0.23800407  1
  O2-  O181  1  0.32188486  0.06947942  0.57763781  1
  O2-  O182  1  0.32205067  0.06371868  0.89890969  1
  O2-  O183  1  0.32053948  0.56708149  0.23432494  1
  O2-  O184  1  0.32111040  0.57492516  0.57991092  1
  O2-  O185  1  0.32154733  0.57770386  0.91010941  1
  O2-  O186  1  0.81573923  0.07033827  0.24130027  1
  O2-  O187  1  0.82117419  0.07246828  0.56786789  1
  O2-  O188  1  0.82348948  0.07105493  0.91343844  1
  O2-  O189  1  0.81897241  0.57733191  0.24437448  1
  O2-  O190  1  0.82317567  0.57286273  0.57828472  1
  O2-  O191  1  0.81689654  0.57599937  0.91126485  1
  O2-  O192  1  0.03819464  0.08409581  0.26470554  1
  O2-  O193  1  0.05401915  0.08192535  0.60687764  1
  O2-  O194  1  0.04974019  0.07638594  0.93405678  1
  O2-  O195  1  0.03249025  0.58902022  0.26316929  1
  O2-  O196  1  0.04247336  0.58647378  0.60562410  1
  O2-  O197  1  0.03758285  0.59185872  0.93530268  1
  O2-  O198  1  0.54292635  0.08124267  0.26534550  1
  O2-  O199  1  0.53737661  0.08646640  0.59834305  1
  O2-  O200  1  0.53418855  0.08089434  0.93225733  1
  O2-  O201  1  0.54725675  0.57711004  0.26464508  1
  O2-  O202  1  0.54553049  0.58091134  0.60652881  1
  O2-  O203  1  0.54827630  0.58455701  0.93562034  1
  O2-  O204  1  0.17605204  0.19962700  0.27412283  1
  O2-  O205  1  0.17030001  0.20362416  0.60565700  1
  O2-  O206  1  0.17424593  0.20664932  0.93379236  1
  O2-  O207  1  0.16555441  0.70832435  0.26374352  1
  O2-  O208  1  0.16503856  0.70263517  0.60611430  1
  O2-  O209  1  0.16307594  0.70565758  0.93481031  1
  O2-  O210  1  0.66222428  0.21390621  0.26004015  1
  O2-  O211  1  0.66705283  0.21177094  0.60101644  1
  O2-  O212  1  0.66567893  0.20633750  0.93147636  1
  O2-  O213  1  0.66931388  0.70760627  0.26371390  1
  O2-  O214  1  0.66712614  0.69574699  0.60723008  1
  O2-  O215  1  0.66492761  0.70718054  0.93553879  1
  O2-  O216  1  0.08331098  0.46699751  0.06655826  1
  O2-  O217  1  0.07676521  0.46331655  0.39973724  1
  O2-  O218  1  0.08371023  0.46356376  0.73762823  1
  O2-  O219  1  0.07861014  0.94001374  0.05721998  1
  O2-  O220  1  0.07606144  0.95674534  0.39921246  1
  O2-  O221  1  0.08693822  0.95079409  0.72935428  1
  O2-  O222  1  0.58714448  0.45639577  0.06273265  1
  O2-  O223  1  0.58927079  0.45281992  0.39372072  1
  O2-  O224  1  0.58239139  0.45685296  0.73718845  1
  O2-  O225  1  0.58397194  0.95945666  0.06977869  1
  O2-  O226  1  0.58687767  0.95330901  0.39227742  1
  O2-  O227  1  0.58007670  0.96046494  0.73241387  1
  O2-  O228  1  0.20908247  0.33530382  0.06863111  1
  O2-  O229  1  0.20141345  0.33117920  0.40473511  1
  O2-  O230  1  0.21092095  0.33288620  0.73738788  1
  O2-  O231  1  0.20804616  0.83344996  0.05962797  1
  O2-  O232  1  0.20305487  0.83081101  0.39952502  1
  O2-  O233  1  0.20887203  0.83541216  0.73013730  1
  O2-  O234  1  0.70533309  0.33429265  0.06130726  1
  O2-  O235  1  0.71152721  0.33610597  0.39165058  1
  O2-  O236  1  0.71227899  0.33425924  0.73520289  1
  O2-  O237  1  0.71180521  0.83268362  0.07020598  1
  O2-  O238  1  0.70877767  0.83610182  0.39565986  1
  O2-  O239  1  0.70332967  0.82879301  0.73124439  1
  O2-  O240  1  0.45815230  0.41289268  0.26954248  1
  O2-  O241  1  0.44749939  0.41951073  0.60926726  1
  O2-  O242  1  0.45331819  0.41891933  0.93588205  1
  O2-  O243  1  0.46140187  0.91578037  0.26035639  1
  O2-  O244  1  0.46067763  0.91517400  0.59585468  1
  O2-  O245  1  0.46161640  0.90899377  0.93663695  1
  O2-  O246  1  0.94534605  0.42501622  0.26903659  1
  O2-  O247  1  0.96025052  0.41811395  0.60054093  1
  O2-  O248  1  0.95714029  0.42251591  0.93065164  1
  O2-  O249  1  0.94467436  0.91953051  0.27144868  1
  O2-  O250  1  0.95737574  0.91921320  0.60002518  1
  O2-  O251  1  0.94579390  0.91356238  0.93998953  1
  O2-  O252  1  0.33136905  0.30299676  0.27810321  1
  O2-  O253  1  0.33377281  0.29454098  0.60506708  1
  O2-  O254  1  0.33483371  0.29865153  0.94027237  1
  O2-  O255  1  0.32938772  0.79396090  0.26215217  1
  O2-  O256  1  0.33318942  0.79010030  0.59834321  1
  O2-  O257  1  0.33887761  0.79184601  0.93404101  1
  O2-  O258  1  0.83492095  0.28713034  0.26107201  1
  O2-  O259  1  0.83464570  0.29067294  0.59894429  1
  O2-  O260  1  0.83113867  0.29463865  0.93115846  1
  O2-  O261  1  0.83537439  0.79148534  0.26870413  1
  O2-  O262  1  0.83225737  0.79031960  0.59877149  1
  O2-  O263  1  0.83679047  0.78361327  0.93769645  1
  O2-  O264  1  0.41240885  0.03048359  0.06776499  1
  O2-  O265  1  0.42191681  0.03696964  0.40277267  1
  O2-  O266  1  0.41181916  0.03658878  0.72915441  1
  O2-  O267  1  0.41893242  0.55309586  0.05951205  1
  O2-  O268  1  0.42173809  0.54361150  0.40094916  1
  O2-  O269  1  0.41526158  0.55167490  0.73248684  1
  O2-  O270  1  0.91660949  0.04585474  0.06468628  1
  O2-  O271  1  0.90962417  0.04796991  0.39453473  1
  O2-  O272  1  0.92257222  0.04455610  0.73550490  1
  O2-  O273  1  0.91188888  0.54618466  0.06278629  1
  O2-  O274  1  0.91073474  0.54873679  0.39884410  1
  O2-  O275  1  0.91496749  0.54585958  0.73172641  1
  O2-  O276  1  0.29905523  0.16725827  0.06710103  1
  O2-  O277  1  0.30237151  0.17019094  0.40658242  1
  O2-  O278  1  0.29699083  0.16111814  0.73122414  1
  O2-  O279  1  0.29504421  0.66785069  0.06152448  1
  O2-  O280  1  0.29400977  0.66989681  0.39866688  1
  O2-  O281  1  0.29247260  0.66636277  0.73265950  1
  O2-  O282  1  0.79522726  0.16700309  0.06298591  1
  O2-  O283  1  0.78596281  0.16361057  0.39221684  1
  O2-  O284  1  0.79318793  0.16909336  0.73623259  1
  O2-  O285  1  0.78813139  0.66010603  0.06721246  1
  O2-  O286  1  0.78987302  0.66433305  0.39885761  1
  O2-  O287  1  0.79677478  0.66523698  0.73155938  1
