# generated using pymatgen
data_Ca2Al2SiO7
_symmetry_space_group_name_H-M   'P 1'
_cell_length_a   15.47475567
_cell_length_b   15.47714591
_cell_length_c   15.29790206
_cell_angle_alpha   90.01199923
_cell_angle_beta   90.00032274
_cell_angle_gamma   89.97459901
_symmetry_Int_Tables_number   1
_chemical_formula_structural   Ca2Al2SiO7
_chemical_formula_sum   'Ca48 Al48 Si24 O168'
_cell_volume   3663.92437991
_cell_formula_units_Z   24
loop_
 _symmetry_equiv_pos_site_id
 _symmetry_equiv_pos_as_xyz
  1  'x, y, z'
loop_
 _atom_type_symbol
 _atom_type_oxidation_number
  Ca2+  2.0
  Al0+  0.0
  Si0+  0.0
  O2-  -2.0
loop_
 _atom_site_type_symbol
 _atom_site_label
 _atom_site_symmetry_multiplicity
 _atom_site_fract_x
 _atom_site_fract_y
 _atom_site_fract_z
 _atom_site_occupancy
  Ca2+  Ca0  1  0.17859012  0.08429114  0.17246039  1
  Ca2+  Ca1  1  0.17851446  0.07099064  0.50497264  1
  Ca2+  Ca2  1  0.17778461  0.08288332  0.84028787  1
  Ca2+  Ca3  1  0.16486761  0.58163602  0.17301891  1
  Ca2+  Ca4  1  0.16489014  0.58652000  0.50101445  1
  Ca2+  Ca5  1  0.17051546  0.57979579  0.83881555  1
  Ca2+  Ca6  1  0.65952385  0.07496304  0.16809048  1
  Ca2+  Ca7  1  0.65962460  0.07414492  0.50147896  1
  Ca2+  Ca8  1  0.66281547  0.07757549  0.83941660  1
  Ca2+  Ca9  1  0.65684277  0.58265274  0.17134096  1
  Ca2+  Ca10  1  0.66032067  0.57560385  0.50435056  1
  Ca2+  Ca11  1  0.65630004  0.57506918  0.83877877  1
  Ca2+  Ca12  1  0.07295084  0.32502785  0.15968353  1
  Ca2+  Ca13  1  0.07527468  0.33058702  0.49165960  1
  Ca2+  Ca14  1  0.08005220  0.32299375  0.83790906  1
  Ca2+  Ca15  1  0.08435429  0.83666914  0.16891038  1
  Ca2+  Ca16  1  0.08142811  0.83572905  0.48891240  1
  Ca2+  Ca17  1  0.08194769  0.83959411  0.82713715  1
  Ca2+  Ca18  1  0.57819348  0.31629184  0.15999713  1
  Ca2+  Ca19  1  0.58901655  0.31970315  0.49727612  1
  Ca2+  Ca20  1  0.58286942  0.32036007  0.83112570  1
  Ca2+  Ca21  1  0.57732779  0.83595936  0.16142801  1
  Ca2+  Ca22  1  0.57452819  0.84050887  0.49263588  1
  Ca2+  Ca23  1  0.57272190  0.84785393  0.83124880  1
  Ca2+  Ca24  1  0.33785968  0.41604803  0.16904149  1
  Ca2+  Ca25  1  0.33410528  0.42276400  0.50413967  1
  Ca2+  Ca26  1  0.33932968  0.41777499  0.84317057  1
  Ca2+  Ca27  1  0.33659452  0.92429076  0.17333187  1
  Ca2+  Ca28  1  0.33500884  0.92227360  0.50332440  1
  Ca2+  Ca29  1  0.33679714  0.92400927  0.83551295  1
  Ca2+  Ca30  1  0.83882931  0.41520377  0.17055564  1
  Ca2+  Ca31  1  0.82840218  0.41792062  0.50441848  1
  Ca2+  Ca32  1  0.82874532  0.41628413  0.83725496  1
  Ca2+  Ca33  1  0.82353889  0.92066424  0.17082038  1
  Ca2+  Ca34  1  0.82063428  0.90849250  0.50058716  1
  Ca2+  Ca35  1  0.81815570  0.92250944  0.84288547  1
  Ca2+  Ca36  1  0.42257453  0.16028430  0.16060984  1
  Ca2+  Ca37  1  0.42466618  0.15510941  0.49878560  1
  Ca2+  Ca38  1  0.42567851  0.15628803  0.83244279  1
  Ca2+  Ca39  1  0.42653010  0.68134911  0.16364810  1
  Ca2+  Ca40  1  0.42143200  0.68225801  0.49241747  1
  Ca2+  Ca41  1  0.42373089  0.68110606  0.83382842  1
  Ca2+  Ca42  1  0.91779723  0.17262507  0.15536453  1
  Ca2+  Ca43  1  0.91600669  0.17302328  0.49191996  1
  Ca2+  Ca44  1  0.91832333  0.15934481  0.83536100  1
  Ca2+  Ca45  1  0.91906489  0.67631834  0.17140925  1
  Ca2+  Ca46  1  0.92455668  0.67541055  0.48947982  1
  Ca2+  Ca47  1  0.91825496  0.66882734  0.83280789  1
  Al0+  Al48  1  -0.00090966  -0.00124058  -0.00124708  1
  Al0+  Al49  1  0.00046049  0.00248189  0.33220840  1
  Al0+  Al50  1  0.00056317  0.00023411  0.66498078  1
  Al0+  Al51  1  -0.00031486  0.49917517  -0.00328916  1
  Al0+  Al52  1  -0.00080835  0.50040151  0.32880173  1
  Al0+  Al53  1  0.00011758  0.50021456  0.66776316  1
  Al0+  Al54  1  0.49749368  -0.00040669  0.00075405  1
  Al0+  Al55  1  0.50154384  0.00067957  0.33339144  1
  Al0+  Al56  1  0.50026461  0.00076414  0.66437245  1
  Al0+  Al57  1  0.49952094  0.50205491  -0.00275264  1
  Al0+  Al58  1  0.49914633  0.49943258  0.33491360  1
  Al0+  Al59  1  0.49946533  0.49925111  0.67213650  1
  Al0+  Al60  1  0.24647190  0.25119684  -0.00099374  1
  Al0+  Al61  1  0.24981584  0.25230622  0.34140754  1
  Al0+  Al62  1  0.24913587  0.25098621  0.66817664  1
  Al0+  Al63  1  0.25176580  0.74758003  -0.00305168  1
  Al0+  Al64  1  0.25080341  0.74843694  0.32844882  1
  Al0+  Al65  1  0.25022394  0.74818433  0.66698909  1
  Al0+  Al66  1  0.74900862  0.25282034  -0.00399202  1
  Al0+  Al67  1  0.74817252  0.25111378  0.32522085  1
  Al0+  Al68  1  0.74982560  0.25222031  0.66629172  1
  Al0+  Al69  1  0.75215898  0.74538072  0.00014499  1
  Al0+  Al70  1  0.75308128  0.74740769  0.33204347  1
  Al0+  Al71  1  0.75139224  0.74816894  0.67142090  1
  Al0+  Al72  1  0.07225318  0.68011329  0.31841763  1
  Al0+  Al73  1  0.43049408  0.82018399  0.65136617  1
  Al0+  Al74  1  0.56928186  0.17793363  0.98391384  1
  Al0+  Al75  1  0.17782428  0.92683358  0.68140538  1
  Al0+  Al76  1  0.56875123  0.17943213  0.31973293  1
  Al0+  Al77  1  0.68028067  0.92908214  0.67903105  1
  Al0+  Al78  1  0.68202014  0.92787360  0.34651233  1
  Al0+  Al79  1  0.31823691  0.07126338  0.01412294  1
  Al0+  Al80  1  0.42766438  0.32124830  0.98737611  1
  Al0+  Al81  1  0.43079344  0.82238105  0.31826392  1
  Al0+  Al82  1  0.32048978  0.07074426  0.68371402  1
  Al0+  Al83  1  0.17831278  0.92755351  0.34627208  1
  Al0+  Al84  1  0.06992184  0.17595425  0.98510346  1
  Al0+  Al85  1  0.67917507  0.42902573  0.68132809  1
  Al0+  Al86  1  0.67828545  0.92818608  0.01554771  1
  Al0+  Al87  1  0.92810743  0.32193749  0.98209674  1
  Al0+  Al88  1  0.42955210  0.82164816  0.98364845  1
  Al0+  Al89  1  0.82135942  0.07275464  0.01450071  1
  Al0+  Al90  1  0.57406191  0.67952360  0.98428233  1
  Al0+  Al91  1  0.57061229  0.18095561  0.65118160  1
  Al0+  Al92  1  0.92885954  0.31959308  0.32059280  1
  Al0+  Al93  1  0.57242615  0.67608398  0.32177016  1
  Al0+  Al94  1  0.32267528  0.07221648  0.34984422  1
  Al0+  Al95  1  0.92838608  0.82522086  0.31795471  1
  Si0+  Si96  1  0.92835150  0.82151275  0.65299262  1
  Si0+  Si97  1  0.17772971  0.43067873  0.01632913  1
  Si0+  Si98  1  0.06982574  0.67819184  0.65325141  1
  Si0+  Si99  1  0.82132502  0.07556963  0.34771228  1
  Si0+  Si100  1  0.17686723  0.42968097  0.68284894  1
  Si0+  Si101  1  0.67810414  0.43167619  0.01687569  1
  Si0+  Si102  1  0.82499394  0.56913917  0.01802710  1
  Si0+  Si103  1  0.17735684  0.92449436  0.01570666  1
  Si0+  Si104  1  0.82351686  0.56919007  0.34892482  1
  Si0+  Si105  1  0.32021724  0.56997142  0.68341302  1
  Si0+  Si106  1  0.92913180  0.82004739  0.98377068  1
  Si0+  Si107  1  0.82358732  0.57040911  0.68465588  1
  Si0+  Si108  1  0.32153496  0.56990901  0.34866350  1
  Si0+  Si109  1  0.32092030  0.57040260  0.01733466  1
  Si0+  Si110  1  0.67875407  0.42917077  0.34713836  1
  Si0+  Si111  1  0.93127655  0.32134558  0.65089181  1
  Si0+  Si112  1  0.42605771  0.32477654  0.64970650  1
  Si0+  Si113  1  0.07396694  0.17965501  0.31887981  1
  Si0+  Si114  1  0.57293238  0.67578166  0.65109593  1
  Si0+  Si115  1  0.17676803  0.43117028  0.34919787  1
  Si0+  Si116  1  0.07258456  0.17827984  0.64908202  1
  Si0+  Si117  1  0.82290250  0.07395252  0.67974020  1
  Si0+  Si118  1  0.42592506  0.32339986  0.32059838  1
  Si0+  Si119  1  0.07109586  0.67882931  0.98411294  1
  O2-  O120  1  0.24374021  -0.00494816  0.05901015  1
  O2-  O121  1  0.25160992  -0.00269040  0.39724638  1
  O2-  O122  1  0.24772858  -0.00104699  0.73313346  1
  O2-  O123  1  0.25142768  0.49784310  0.05991357  1
  O2-  O124  1  0.24835974  0.50100114  0.39232933  1
  O2-  O125  1  0.25206809  0.49556334  0.72559739  1
  O2-  O126  1  0.74844572  0.00260939  0.06525629  1
  O2-  O127  1  0.75851268  0.00228570  0.39320851  1
  O2-  O128  1  0.75604627  0.00375475  0.72317923  1
  O2-  O129  1  0.75105761  0.50097215  0.05951233  1
  O2-  O130  1  0.74830230  0.50187572  0.39011158  1
  O2-  O131  1  0.75088902  0.50657582  0.72878066  1
  O2-  O132  1  0.00061516  0.24288864  0.27451686  1
  O2-  O133  1  -0.00009667  0.24887700  0.60773436  1
  O2-  O134  1  -0.00609573  0.24383396  0.93309430  1
  O2-  O135  1  0.00549639  0.75702635  0.26910348  1
  O2-  O136  1  0.00277114  0.75277763  0.61207713  1
  O2-  O137  1  0.00426623  0.75266329  0.94090792  1
  O2-  O138  1  0.48877330  0.25044528  0.27697493  1
  O2-  O139  1  0.49334595  0.25534950  0.60558962  1
  O2-  O140  1  0.49494611  0.24803508  0.93380359  1
  O2-  O141  1  0.50748695  0.75320462  0.27122881  1
  O2-  O142  1  0.50903160  0.74761932  0.60628458  1
  O2-  O143  1  0.50898366  0.75684196  0.93376744  1
  O2-  O144  1  0.07159638  0.18132956  0.09861350  1
  O2-  O145  1  0.07289700  0.18473754  0.42492410  1
  O2-  O146  1  0.07213704  0.17951456  0.75375423  1
  O2-  O147  1  0.06991279  0.67637452  0.08853102  1
  O2-  O148  1  0.06774606  0.67463877  0.43237193  1
  O2-  O149  1  0.06704508  0.67366703  0.75841403  1
  O2-  O150  1  0.56867759  0.17967478  0.09741727  1
  O2-  O151  1  0.57246293  0.18251213  0.43299081  1
  O2-  O152  1  0.57219163  0.18200425  0.76354958  1
  O2-  O153  1  0.56886250  0.67611766  0.09735323  1
  O2-  O154  1  0.56661437  0.66989640  0.43528869  1
  O2-  O155  1  0.56959115  0.67303390  0.75611615  1
  O2-  O156  1  0.17648978  0.43101136  0.24446732  1
  O2-  O157  1  0.17351406  0.43322483  0.57763472  1
  O2-  O158  1  0.17600697  0.43530733  0.91093188  1
  O2-  O159  1  0.17902052  0.93038433  0.23274105  1
  O2-  O160  1  0.17565442  0.92720535  0.56844365  1
  O2-  O161  1  0.17832497  0.92310202  0.91003619  1
  O2-  O162  1  0.67824192  0.43024754  0.24241522  1
  O2-  O163  1  0.68271551  0.42956489  0.56758457  1
  O2-  O164  1  0.67853324  0.43436546  0.91164091  1
  O2-  O165  1  0.68147822  0.92830897  0.23415128  1
  O2-  O166  1  0.68217871  0.92764920  0.56582285  1
  O2-  O167  1  0.68053194  0.92951976  0.90149530  1
  O2-  O168  1  0.43132399  0.32348585  0.10111625  1
  O2-  O169  1  0.42865071  0.32935232  0.42604164  1
  O2-  O170  1  0.42663575  0.32826714  0.75463058  1
  O2-  O171  1  0.42529673  0.81837076  0.09657694  1
  O2-  O172  1  0.43056992  0.82004948  0.43227899  1
  O2-  O173  1  0.42929978  0.81839915  0.76400236  1
  O2-  O174  1  0.93402495  0.32638983  0.09541764  1
  O2-  O175  1  0.93007972  0.32063870  0.43455960  1
  O2-  O176  1  0.93352641  0.32439457  0.75516650  1
  O2-  O177  1  0.92897611  0.81795114  0.08831302  1
  O2-  O178  1  0.92679215  0.81883538  0.43220052  1
  O2-  O179  1  0.92855325  0.81889647  0.75815757  1
  O2-  O180  1  0.31948941  0.07617031  0.23651771  1
  O2-  O181  1  0.31913151  0.06994737  0.57033975  1
  O2-  O182  1  0.31770964  0.07108044  0.90129848  1
  O2-  O183  1  0.32234151  0.56531872  0.24395935  1
  O2-  O184  1  0.31831957  0.56901933  0.57811295  1
  O2-  O185  1  0.31703925  0.56982940  0.91187000  1
  O2-  O186  1  0.81857386  0.07815233  0.24278635  1
  O2-  O187  1  0.82416786  0.07538533  0.57407143  1
  O2-  O188  1  0.82294538  0.06668019  0.90042386  1
  O2-  O189  1  0.82832834  0.56595084  0.24427487  1
  O2-  O190  1  0.82863645  0.56787445  0.57934261  1
  O2-  O191  1  0.83021773  0.56716264  0.91285706  1
  O2-  O192  1  0.05610910  0.08496700  0.27445108  1
  O2-  O193  1  0.04496317  0.08674423  0.60111388  1
  O2-  O194  1  0.04629912  0.07672824  0.93091911  1
  O2-  O195  1  0.03753997  0.58411990  0.26383041  1
  O2-  O196  1  0.03815519  0.58776850  0.60419067  1
  O2-  O197  1  0.03877549  0.58920733  0.93460008  1
  O2-  O198  1  0.54126463  0.08341856  0.26577829  1
  O2-  O199  1  0.53969099  0.08496853  0.59675985  1
  O2-  O200  1  0.54105266  0.07979677  0.93189863  1
  O2-  O201  1  0.53772487  0.57966183  0.26735293  1
  O2-  O202  1  0.54330233  0.58236541  0.60594828  1
  O2-  O203  1  0.53564900  0.58485560  0.92963748  1
  O2-  O204  1  0.16561076  0.21319194  0.27408012  1
  O2-  O205  1  0.16303515  0.20992900  0.60159978  1
  O2-  O206  1  0.16406229  0.21381848  0.92932416  1
  O2-  O207  1  0.17150026  0.69818621  0.26417429  1
  O2-  O208  1  0.16315526  0.69904923  0.60681687  1
  O2-  O209  1  0.16397665  0.70054014  0.93614031  1
  O2-  O210  1  0.66142866  0.21578715  0.26283909  1
  O2-  O211  1  0.66700509  0.21570333  0.59761843  1
  O2-  O212  1  0.66670427  0.20944706  0.93141266  1
  O2-  O213  1  0.67463728  0.69136203  0.27368104  1
  O2-  O214  1  0.67056757  0.69374708  0.61026724  1
  O2-  O215  1  0.67731959  0.69139402  0.93522025  1
  O2-  O216  1  0.08772730  0.46480257  0.06354068  1
  O2-  O217  1  0.08576592  0.46173751  0.39758691  1
  O2-  O218  1  0.08788707  0.46382853  0.73221913  1
  O2-  O219  1  0.08185367  0.94590256  0.05877093  1
  O2-  O220  1  0.07869796  0.95574434  0.39938096  1
  O2-  O221  1  0.07760602  0.95440355  0.73257763  1
  O2-  O222  1  0.58713103  0.46315655  0.06374198  1
  O2-  O223  1  0.58725277  0.45554399  0.39675548  1
  O2-  O224  1  0.58216810  0.45672606  0.73619076  1
  O2-  O225  1  0.57925752  0.95509935  0.06652410  1
  O2-  O226  1  0.58667748  0.96199282  0.40049654  1
  O2-  O227  1  0.58495586  0.96300778  0.73123697  1
  O2-  O228  1  0.19996535  0.33842497  0.06389014  1
  O2-  O229  1  0.20222692  0.34093197  0.40097030  1
  O2-  O230  1  0.19849322  0.33633274  0.72860229  1
  O2-  O231  1  0.20329861  0.82981624  0.05977328  1
  O2-  O232  1  0.20061809  0.82520229  0.39494231  1
  O2-  O233  1  0.20159747  0.82604042  0.73248370  1
  O2-  O234  1  0.70382499  0.33905136  0.06261404  1
  O2-  O235  1  0.71061491  0.33838652  0.39431631  1
  O2-  O236  1  0.71472077  0.33492137  0.73609577  1
  O2-  O237  1  0.70964918  0.82806809  0.06373669  1
  O2-  O238  1  0.71241273  0.83004050  0.40010567  1
  O2-  O239  1  0.70936251  0.83195049  0.73345837  1
  O2-  O240  1  0.45532233  0.41456316  0.27225082  1
  O2-  O241  1  0.45261214  0.41898514  0.60400883  1
  O2-  O242  1  0.45821706  0.41888038  0.93377951  1
  O2-  O243  1  0.45735539  0.92048339  0.26656356  1
  O2-  O244  1  0.46097865  0.91627541  0.59767201  1
  O2-  O245  1  0.45356341  0.92044836  0.93112380  1
  O2-  O246  1  0.96312629  0.41403140  0.26606424  1
  O2-  O247  1  0.96246634  0.41278942  0.60326538  1
  O2-  O248  1  0.96544377  0.41750137  0.92730135  1
  O2-  O249  1  0.95045046  0.92519446  0.26614017  1
  O2-  O250  1  0.95158420  0.91393035  0.60517431  1
  O2-  O251  1  0.95325043  0.91163471  0.93507278  1
  O2-  O252  1  0.32910042  0.30566440  0.27835947  1
  O2-  O253  1  0.33007851  0.30400139  0.60529292  1
  O2-  O254  1  0.32571740  0.30402782  0.93802030  1
  O2-  O255  1  0.33457891  0.78951171  0.26521088  1
  O2-  O256  1  0.33417722  0.78341331  0.59952795  1
  O2-  O257  1  0.33385031  0.78366643  0.92936860  1
  O2-  O258  1  0.83289391  0.29453257  0.26441753  1
  O2-  O259  1  0.83889711  0.29633250  0.60383856  1
  O2-  O260  1  0.82753235  0.30374116  0.93134793  1
  O2-  O261  1  0.83440217  0.78737825  0.26288584  1
  O2-  O262  1  0.83793431  0.78896405  0.60531321  1
  O2-  O263  1  0.84045031  0.78570970  0.93442303  1
  O2-  O264  1  0.41442847  0.04092672  0.06776304  1
  O2-  O265  1  0.42073088  0.04275331  0.40205277  1
  O2-  O266  1  0.41898254  0.04029976  0.73356991  1
  O2-  O267  1  0.41247789  0.54235871  0.06410292  1
  O2-  O268  1  0.41068647  0.53845806  0.39997608  1
  O2-  O269  1  0.41176858  0.54466787  0.73185921  1
  O2-  O270  1  0.92038748  0.04331461  0.06659568  1
  O2-  O271  1  0.91785916  0.05833342  0.39149438  1
  O2-  O272  1  0.91711475  0.04967351  0.72492164  1
  O2-  O273  1  0.91538927  0.53689589  0.06600824  1
  O2-  O274  1  0.91289659  0.53564372  0.39897188  1
  O2-  O275  1  0.91520169  0.53936568  0.73332739  1
  O2-  O276  1  0.28646574  0.16883077  0.06654250  1
  O2-  O277  1  0.29467032  0.17110415  0.40440563  1
  O2-  O278  1  0.29324560  0.17142807  0.73329734  1
  O2-  O279  1  0.28921556  0.66075276  0.06437521  1
  O2-  O280  1  0.29413767  0.66142985  0.39595086  1
  O2-  O281  1  0.28738897  0.65881104  0.73252433  1
  O2-  O282  1  0.79909754  0.17520189  0.06156204  1
  O2-  O283  1  0.79090505  0.16841223  0.39446551  1
  O2-  O284  1  0.79831062  0.16737156  0.72589930  1
  O2-  O285  1  0.80257251  0.66207079  0.06468596  1
  O2-  O286  1  0.80203065  0.66171982  0.39703047  1
  O2-  O287  1  0.80416881  0.66488657  0.73102430  1
