# generated using pymatgen
data_Ca2Al2SiO7
_symmetry_space_group_name_H-M   'P 1'
_cell_length_a   15.45541351
_cell_length_b   15.45641099
_cell_length_c   15.28255273
_cell_angle_alpha   90.00033414
_cell_angle_beta   90.00317123
_cell_angle_gamma   90.00617209
_symmetry_Int_Tables_number   1
_chemical_formula_structural   Ca2Al2SiO7
_chemical_formula_sum   'Ca48 Al48 Si24 O168'
_cell_volume   3650.77599496
_cell_formula_units_Z   24
loop_
 _symmetry_equiv_pos_site_id
 _symmetry_equiv_pos_as_xyz
  1  'x, y, z'
loop_
 _atom_type_symbol
 _atom_type_oxidation_number
  Ca2+  2.0
  Al0+  0.0
  Si0+  0.0
  O2-  -2.0
loop_
 _atom_site_type_symbol
 _atom_site_label
 _atom_site_symmetry_multiplicity
 _atom_site_fract_x
 _atom_site_fract_y
 _atom_site_fract_z
 _atom_site_occupancy
  Ca2+  Ca0  1  0.17584771  0.07831923  0.16976436  1
  Ca2+  Ca1  1  0.17665988  0.07767492  0.50467809  1
  Ca2+  Ca2  1  0.17200377  0.06852703  0.84018834  1
  Ca2+  Ca3  1  0.16927900  0.58479145  0.17170790  1
  Ca2+  Ca4  1  0.17115338  0.57683383  0.50464194  1
  Ca2+  Ca5  1  0.18055539  0.59055658  0.83836793  1
  Ca2+  Ca6  1  0.66858952  0.07984235  0.17367154  1
  Ca2+  Ca7  1  0.66891599  0.08037433  0.50096884  1
  Ca2+  Ca8  1  0.66388742  0.06513156  0.83831009  1
  Ca2+  Ca9  1  0.66979498  0.58590806  0.17081162  1
  Ca2+  Ca10  1  0.65350651  0.58219186  0.50014366  1
  Ca2+  Ca11  1  0.67195795  0.59240305  0.84168079  1
  Ca2+  Ca12  1  0.07945969  0.33518360  0.16041815  1
  Ca2+  Ca13  1  0.08720105  0.33773206  0.49403268  1
  Ca2+  Ca14  1  0.08098790  0.33650947  0.83172562  1
  Ca2+  Ca15  1  0.08535731  0.82355787  0.16103718  1
  Ca2+  Ca16  1  0.08238663  0.83153903  0.49661841  1
  Ca2+  Ca17  1  0.08450991  0.83280963  0.82831735  1
  Ca2+  Ca18  1  0.58376767  0.32974065  0.16979564  1
  Ca2+  Ca19  1  0.57502861  0.32987567  0.48581200  1
  Ca2+  Ca20  1  0.58091362  0.32904009  0.82999967  1
  Ca2+  Ca21  1  0.57966691  0.82835054  0.16299233  1
  Ca2+  Ca22  1  0.57460569  0.82568825  0.49572501  1
  Ca2+  Ca23  1  0.58122577  0.82631155  0.82380581  1
  Ca2+  Ca24  1  0.33170450  0.42310075  0.17450378  1
  Ca2+  Ca25  1  0.32630082  0.41982875  0.50487301  1
  Ca2+  Ca26  1  0.33047089  0.43039322  0.83452913  1
  Ca2+  Ca27  1  0.33370649  0.92193492  0.16973542  1
  Ca2+  Ca28  1  0.33723902  0.91523179  0.50351918  1
  Ca2+  Ca29  1  0.32526342  0.91241571  0.83929167  1
  Ca2+  Ca30  1  0.82986982  0.41991583  0.17004616  1
  Ca2+  Ca31  1  0.82328809  0.41960874  0.49938059  1
  Ca2+  Ca32  1  0.83279717  0.42441999  0.84214779  1
  Ca2+  Ca33  1  0.82415632  0.91827002  0.17070973  1
  Ca2+  Ca34  1  0.82947256  0.91869622  0.50659971  1
  Ca2+  Ca35  1  0.82106736  0.90223237  0.83494314  1
  Ca2+  Ca36  1  0.41001894  0.16920411  0.16807224  1
  Ca2+  Ca37  1  0.42158262  0.17062277  0.48598929  1
  Ca2+  Ca38  1  0.41135361  0.16502867  0.83339216  1
  Ca2+  Ca39  1  0.42528422  0.66787427  0.16173148  1
  Ca2+  Ca40  1  0.41792669  0.67540499  0.49546549  1
  Ca2+  Ca41  1  0.42449832  0.66601576  0.82595235  1
  Ca2+  Ca42  1  0.91256476  0.17283856  0.16253370  1
  Ca2+  Ca43  1  0.91826367  0.16537260  0.49269712  1
  Ca2+  Ca44  1  0.91579450  0.17401339  0.83189157  1
  Ca2+  Ca45  1  0.92927953  0.65791001  0.16045689  1
  Ca2+  Ca46  1  0.92277698  0.67487982  0.49671494  1
  Ca2+  Ca47  1  0.92341516  0.66912693  0.83204585  1
  Al0+  Al48  1  -0.00100526  0.00097599  0.00262336  1
  Al0+  Al49  1  -0.00086585  0.00079461  0.33560067  1
  Al0+  Al50  1  0.00133428  0.00317266  0.66679268  1
  Al0+  Al51  1  -0.00102252  0.50077312  -0.00751286  1
  Al0+  Al52  1  -0.00095209  0.50068986  0.33549379  1
  Al0+  Al53  1  -0.00261672  0.49803392  0.66783605  1
  Al0+  Al54  1  0.50020116  0.00055097  0.00743828  1
  Al0+  Al55  1  0.50071086  -0.00009476  0.33041540  1
  Al0+  Al56  1  0.50283068  0.00030571  0.66712462  1
  Al0+  Al57  1  0.49977798  0.49826378  -0.00112731  1
  Al0+  Al58  1  0.49978144  0.50037826  0.33011280  1
  Al0+  Al59  1  0.49964621  0.49630108  0.66797783  1
  Al0+  Al60  1  0.24914662  0.24952903  -0.00079449  1
  Al0+  Al61  1  0.24901816  0.24872005  0.33653060  1
  Al0+  Al62  1  0.24814407  0.25043979  0.67145927  1
  Al0+  Al63  1  0.25094610  0.74922878  0.00537823  1
  Al0+  Al64  1  0.24881290  0.75025078  0.32602032  1
  Al0+  Al65  1  0.25142937  0.74981030  0.66943057  1
  Al0+  Al66  1  0.74844480  0.24979246  -0.00814504  1
  Al0+  Al67  1  0.74989539  0.25120384  0.33862734  1
  Al0+  Al68  1  0.75149129  0.25129211  0.66673119  1
  Al0+  Al69  1  0.75118784  0.74813524  0.00901215  1
  Al0+  Al70  1  0.75139128  0.75118069  0.33193983  1
  Al0+  Al71  1  0.75195371  0.74915324  0.65997030  1
  Al0+  Al72  1  0.57297246  0.17979402  0.31832609  1
  Al0+  Al73  1  0.67867573  0.43187985  0.34596268  1
  Al0+  Al74  1  0.92867972  0.32030344  0.98590967  1
  Al0+  Al75  1  0.57163225  0.67941101  0.98640222  1
  Al0+  Al76  1  0.82048445  0.07105927  0.34665271  1
  Al0+  Al77  1  0.68149207  0.92929167  0.67817477  1
  Al0+  Al78  1  0.57197559  0.67831823  0.31617481  1
  Al0+  Al79  1  0.42787436  0.82209188  0.31554245  1
  Al0+  Al80  1  0.32178833  0.57072621  0.68055181  1
  Al0+  Al81  1  0.07278507  0.68058705  0.98466242  1
  Al0+  Al82  1  0.82140409  0.56945846  0.01342959  1
  Al0+  Al83  1  0.93037296  0.82200598  0.65376961  1
  Al0+  Al84  1  0.17897975  0.92913659  0.67846982  1
  Al0+  Al85  1  0.32317280  0.57013831  0.01573815  1
  Al0+  Al86  1  0.32120880  0.06914969  0.34825851  1
  Al0+  Al87  1  0.06827286  0.67882344  0.32101002  1
  Al0+  Al88  1  0.17665002  0.42793467  0.68388650  1
  Al0+  Al89  1  0.42581117  0.32045849  0.31829291  1
  Al0+  Al90  1  0.17641334  0.92702304  0.01725227  1
  Al0+  Al91  1  0.68020484  0.92717178  0.01486133  1
  Al0+  Al92  1  0.17812809  0.43003727  0.34466209  1
  Al0+  Al93  1  0.57208181  0.67680386  0.65195881  1
  Al0+  Al94  1  0.42765166  0.82230805  0.65357740  1
  Al0+  Al95  1  0.32065777  0.07208035  0.01613904  1
  Si0+  Si96  1  0.67899815  0.42736523  0.68238187  1
  Si0+  Si97  1  0.92943072  0.32028505  0.32022769  1
  Si0+  Si98  1  0.07285702  0.17726874  0.98216345  1
  Si0+  Si99  1  0.32360815  0.07194748  0.68219549  1
  Si0+  Si100  1  0.17798532  0.42981257  0.01500730  1
  Si0+  Si101  1  0.42818950  0.31835452  0.65274976  1
  Si0+  Si102  1  0.67819428  0.92663367  0.35191638  1
  Si0+  Si103  1  0.81975813  0.57052115  0.68098379  1
  Si0+  Si104  1  0.42706733  0.32064363  0.98302430  1
  Si0+  Si105  1  0.67775402  0.42526373  0.01513999  1
  Si0+  Si106  1  0.43015758  0.82331750  0.98370477  1
  Si0+  Si107  1  0.82294260  0.57303644  0.35164829  1
  Si0+  Si108  1  0.07276205  0.67707209  0.65110696  1
  Si0+  Si109  1  0.17804915  0.92684277  0.35045127  1
  Si0+  Si110  1  0.92862280  0.82495619  0.31576914  1
  Si0+  Si111  1  0.07092767  0.17782777  0.31888470  1
  Si0+  Si112  1  0.57227746  0.17926101  0.65244122  1
  Si0+  Si113  1  0.82306849  0.07410576  0.68520720  1
  Si0+  Si114  1  0.92771757  0.32200792  0.64771657  1
  Si0+  Si115  1  0.92830408  0.82345547  0.98601128  1
  Si0+  Si116  1  0.81988824  0.07514667  0.01426047  1
  Si0+  Si117  1  0.57066848  0.17803277  0.98312692  1
  Si0+  Si118  1  0.07033313  0.18122967  0.65063106  1
  Si0+  Si119  1  0.32195748  0.57341610  0.34894230  1
  O2-  O120  1  0.24915309  -0.00060592  0.06526875  1
  O2-  O121  1  0.24942050  -0.00783519  0.39570903  1
  O2-  O122  1  0.25897474  -0.00107825  0.72475812  1
  O2-  O123  1  0.24631897  0.49666438  0.06129208  1
  O2-  O124  1  0.25407019  0.50283190  0.39208312  1
  O2-  O125  1  0.24548008  0.50308887  0.73212349  1
  O2-  O126  1  0.75534339  0.00350576  0.05875991  1
  O2-  O127  1  0.74748286  -0.00394639  0.39487456  1
  O2-  O128  1  0.75688460  0.00290199  0.72835320  1
  O2-  O129  1  0.74514362  0.49536609  0.05826892  1
  O2-  O130  1  0.74772192  0.51110483  0.39552961  1
  O2-  O131  1  0.74561109  0.50236336  0.72370889  1
  O2-  O132  1  0.00067954  0.25009006  0.27714421  1
  O2-  O133  1  0.00040660  0.25275804  0.60615232  1
  O2-  O134  1  0.00300877  0.24536772  0.93806906  1
  O2-  O135  1  -0.00525178  0.75395453  0.27243004  1
  O2-  O136  1  0.00784167  0.74981199  0.60716282  1
  O2-  O137  1  0.00132195  0.76007990  0.94043225  1
  O2-  O138  1  0.49842027  0.24887968  0.26737230  1
  O2-  O139  1  0.49849377  0.24697875  0.61044853  1
  O2-  O140  1  0.49726191  0.24744433  0.94150600  1
  O2-  O141  1  0.50016086  0.74994637  0.26607056  1
  O2-  O142  1  0.49813821  0.74806376  0.60436366  1
  O2-  O143  1  0.49794095  0.75420600  0.93851879  1
  O2-  O144  1  0.07316975  0.17926511  0.08786279  1
  O2-  O145  1  0.06938979  0.17739874  0.42426442  1
  O2-  O146  1  0.06767754  0.18180047  0.75555369  1
  O2-  O147  1  0.06880584  0.67690269  0.09770838  1
  O2-  O148  1  0.06662904  0.67914735  0.43451481  1
  O2-  O149  1  0.07034787  0.67669201  0.75662805  1
  O2-  O150  1  0.57667842  0.18087482  0.08738286  1
  O2-  O151  1  0.57285811  0.18297521  0.43269635  1
  O2-  O152  1  0.57299784  0.18114153  0.75791946  1
  O2-  O153  1  0.57101695  0.67972861  0.09891580  1
  O2-  O154  1  0.56937659  0.67963190  0.42986703  1
  O2-  O155  1  0.57432968  0.67888308  0.76585318  1
  O2-  O156  1  0.17477852  0.43138512  0.23168602  1
  O2-  O157  1  0.17887629  0.42699957  0.57015426  1
  O2-  O158  1  0.18061112  0.43010926  0.90944868  1
  O2-  O159  1  0.17501775  0.93015222  0.24528455  1
  O2-  O160  1  0.17586779  0.93371996  0.56557837  1
  O2-  O161  1  0.17659127  0.92893644  0.90309250  1
  O2-  O162  1  0.68516598  0.42788554  0.23320485  1
  O2-  O163  1  0.68095053  0.42355452  0.57755567  1
  O2-  O164  1  0.67949119  0.42315315  0.90891633  1
  O2-  O165  1  0.68153451  0.92687052  0.24613766  1
  O2-  O166  1  0.68317420  0.93401047  0.56565550  1
  O2-  O167  1  0.68048648  0.92713952  0.90119704  1
  O2-  O168  1  0.42639790  0.32131190  0.08757213  1
  O2-  O169  1  0.42668608  0.31836907  0.43267202  1
  O2-  O170  1  0.43065023  0.31744087  0.75828480  1
  O2-  O171  1  0.43295632  0.82330236  0.08909297  1
  O2-  O172  1  0.42764844  0.82081610  0.42945929  1
  O2-  O173  1  0.42970541  0.82423870  0.76720736  1
  O2-  O174  1  0.92820987  0.31810642  0.09936766  1
  O2-  O175  1  0.93039538  0.31942231  0.42561181  1
  O2-  O176  1  0.92434909  0.32044327  0.75264154  1
  O2-  O177  1  0.92856038  0.82249816  0.09154889  1
  O2-  O178  1  0.93050450  0.82589802  0.42174209  1
  O2-  O179  1  0.92844931  0.81752522  0.76684760  1
  O2-  O180  1  0.31556168  0.07138693  0.23586013  1
  O2-  O181  1  0.32133241  0.07600551  0.57682233  1
  O2-  O182  1  0.31896349  0.07213045  0.90186435  1
  O2-  O183  1  0.32028575  0.57167655  0.24324465  1
  O2-  O184  1  0.32155812  0.56754007  0.56684040  1
  O2-  O185  1  0.32478672  0.56842584  0.90263319  1
  O2-  O186  1  0.82050344  0.07114940  0.23341560  1
  O2-  O187  1  0.82158651  0.07735320  0.57964397  1
  O2-  O188  1  0.81669762  0.07819551  0.90867927  1
  O2-  O189  1  0.82737262  0.56755480  0.24634700  1
  O2-  O190  1  0.82345036  0.56670562  0.57608179  1
  O2-  O191  1  0.82040885  0.56925980  0.89966767  1
  O2-  O192  1  0.04116920  0.08705213  0.27068555  1
  O2-  O193  1  0.04220659  0.09075055  0.60095573  1
  O2-  O194  1  0.04628030  0.08359082  0.93609167  1
  O2-  O195  1  0.03448780  0.58297430  0.26636002  1
  O2-  O196  1  0.04101571  0.58431926  0.60593242  1
  O2-  O197  1  0.03775538  0.58660116  0.92814214  1
  O2-  O198  1  0.55061649  0.08022814  0.26738806  1
  O2-  O199  1  0.54905880  0.08702168  0.60498621  1
  O2-  O200  1  0.54243992  0.08542668  0.93703307  1
  O2-  O201  1  0.54744259  0.57901698  0.26398053  1
  O2-  O202  1  0.54570228  0.57552268  0.60310884  1
  O2-  O203  1  0.54409124  0.58042325  0.93392479  1
  O2-  O204  1  0.16166657  0.20586493  0.27113376  1
  O2-  O205  1  0.16325169  0.20853454  0.60442242  1
  O2-  O206  1  0.16518292  0.20430355  0.93375528  1
  O2-  O207  1  0.16387808  0.70654628  0.26488413  1
  O2-  O208  1  0.16746042  0.69834925  0.60673621  1
  O2-  O209  1  0.17111398  0.70917517  0.93292928  1
  O2-  O210  1  0.67079236  0.21317570  0.26624382  1
  O2-  O211  1  0.66396604  0.21002666  0.60616322  1
  O2-  O212  1  0.65955322  0.20787882  0.93017905  1
  O2-  O213  1  0.67307365  0.70482961  0.26675622  1
  O2-  O214  1  0.66971390  0.70369873  0.59722041  1
  O2-  O215  1  0.67091213  0.70988412  0.93698406  1
  O2-  O216  1  0.08298385  0.45436916  0.05744092  1
  O2-  O217  1  0.08222787  0.46100961  0.40146945  1
  O2-  O218  1  0.07481037  0.44957504  0.73276127  1
  O2-  O219  1  0.07736307  0.95598201  0.06963309  1
  O2-  O220  1  0.08525140  0.95609030  0.39679704  1
  O2-  O221  1  0.08456560  0.96590312  0.73421617  1
  O2-  O222  1  0.58341032  0.44691234  0.05946147  1
  O2-  O223  1  0.58031040  0.45716832  0.40023364  1
  O2-  O224  1  0.58560790  0.44712667  0.72961220  1
  O2-  O225  1  0.58564925  0.96012389  0.06977352  1
  O2-  O226  1  0.58459805  0.95264973  0.39616505  1
  O2-  O227  1  0.58626354  0.96205794  0.73480722  1
  O2-  O228  1  0.20074280  0.33455352  0.05871566  1
  O2-  O229  1  0.20526313  0.33283867  0.39969708  1
  O2-  O230  1  0.20670868  0.33046273  0.73869941  1
  O2-  O231  1  0.20453161  0.82965064  0.07057035  1
  O2-  O232  1  0.20042772  0.83139628  0.39381548  1
  O2-  O233  1  0.20317459  0.83149762  0.73273588  1
  O2-  O234  1  0.70676711  0.33205717  0.05993794  1
  O2-  O235  1  0.71480270  0.33846933  0.40399576  1
  O2-  O236  1  0.71219953  0.33748214  0.73183809  1
  O2-  O237  1  0.71349141  0.83436528  0.07329974  1
  O2-  O238  1  0.70581512  0.83348040  0.39807105  1
  O2-  O239  1  0.71408753  0.83181141  0.73002325  1
  O2-  O240  1  0.45364861  0.41857417  0.26600559  1
  O2-  O241  1  0.45710225  0.40896761  0.60471884  1
  O2-  O242  1  0.45863711  0.41003337  0.93289483  1
  O2-  O243  1  0.45647815  0.92037380  0.26315992  1
  O2-  O244  1  0.45795837  0.92113215  0.60084802  1
  O2-  O245  1  0.45490267  0.91837139  0.93987790  1
  O2-  O246  1  0.95637103  0.41217919  0.27327510  1
  O2-  O247  1  0.95262004  0.41443059  0.60007291  1
  O2-  O248  1  0.95961810  0.41459851  0.92765449  1
  O2-  O249  1  0.95499068  0.91819935  0.26926311  1
  O2-  O250  1  0.95693948  0.92116292  0.60187202  1
  O2-  O251  1  0.94505632  0.91979159  0.94093843  1
  O2-  O252  1  0.32764566  0.29019296  0.26537893  1
  O2-  O253  1  0.33483299  0.29226193  0.60784148  1
  O2-  O254  1  0.33553373  0.29272190  0.93417768  1
  O2-  O255  1  0.32920649  0.79634323  0.26232685  1
  O2-  O256  1  0.32826350  0.79672001  0.60019942  1
  O2-  O257  1  0.33493862  0.79797338  0.94189122  1
  O2-  O258  1  0.83869487  0.29063687  0.27303941  1
  O2-  O259  1  0.83625050  0.29168902  0.59983800  1
  O2-  O260  1  0.83320597  0.28926845  0.92752348  1
  O2-  O261  1  0.83405634  0.80246770  0.27137212  1
  O2-  O262  1  0.83752811  0.78799939  0.59465817  1
  O2-  O263  1  0.83645655  0.78996443  0.94111674  1
  O2-  O264  1  0.41949118  0.04878629  0.06926525  1
  O2-  O265  1  0.42041628  0.04386906  0.39986503  1
  O2-  O266  1  0.41922946  0.05337755  0.72669519  1
  O2-  O267  1  0.41851302  0.53476342  0.06921354  1
  O2-  O268  1  0.41590774  0.54933437  0.39364941  1
  O2-  O269  1  0.41803174  0.53505742  0.73546296  1
  O2-  O270  1  0.91552067  0.05685301  0.05861292  1
  O2-  O271  1  0.91748785  0.04200465  0.40270608  1
  O2-  O272  1  0.91793501  0.05343330  0.72956353  1
  O2-  O273  1  0.91743246  0.53401760  0.06580348  1
  O2-  O274  1  0.91207397  0.53920142  0.40193192  1
  O2-  O275  1  0.90960375  0.53883101  0.73038426  1
  O2-  O276  1  0.29030263  0.17101380  0.06790590  1
  O2-  O277  1  0.28678973  0.16419746  0.40396090  1
  O2-  O278  1  0.29238934  0.16302284  0.73087007  1
  O2-  O279  1  0.29468993  0.66622980  0.06988350  1
  O2-  O280  1  0.29250100  0.66663201  0.39343496  1
  O2-  O281  1  0.29801867  0.66945424  0.73480810  1
  O2-  O282  1  0.78958405  0.16752404  0.06063665  1
  O2-  O283  1  0.79128028  0.16675620  0.40380107  1
  O2-  O284  1  0.79447541  0.16756216  0.73133090  1
  O2-  O285  1  0.79422127  0.66365986  0.07234030  1
  O2-  O286  1  0.80532672  0.66997964  0.39373690  1
  O2-  O287  1  0.79515677  0.66318938  0.72706708  1
