# generated using pymatgen
data_Ca2Al2SiO7
_symmetry_space_group_name_H-M   'P 1'
_cell_length_a   15.46957980
_cell_length_b   15.47322996
_cell_length_c   15.29467617
_cell_angle_alpha   90.01427819
_cell_angle_beta   89.98710677
_cell_angle_gamma   89.99875109
_symmetry_Int_Tables_number   1
_chemical_formula_structural   Ca2Al2SiO7
_chemical_formula_sum   'Ca48 Al48 Si24 O168'
_cell_volume   3661.00025136
_cell_formula_units_Z   24
loop_
 _symmetry_equiv_pos_site_id
 _symmetry_equiv_pos_as_xyz
  1  'x, y, z'
loop_
 _atom_type_symbol
 _atom_type_oxidation_number
  Ca2+  2.0
  Al0+  0.0
  Si0+  0.0
  O2-  -2.0
loop_
 _atom_site_type_symbol
 _atom_site_label
 _atom_site_symmetry_multiplicity
 _atom_site_fract_x
 _atom_site_fract_y
 _atom_site_fract_z
 _atom_site_occupancy
  Ca2+  Ca0  1  0.16566374  0.08527963  0.16599500  1
  Ca2+  Ca1  1  0.16499346  0.08354256  0.50723334  1
  Ca2+  Ca2  1  0.15733803  0.08510729  0.83993351  1
  Ca2+  Ca3  1  0.17294882  0.56793192  0.17142734  1
  Ca2+  Ca4  1  0.17813270  0.57155289  0.50320074  1
  Ca2+  Ca5  1  0.16846521  0.56830775  0.83403712  1
  Ca2+  Ca6  1  0.67262160  0.09719057  0.16272699  1
  Ca2+  Ca7  1  0.67211378  0.08382783  0.51211860  1
  Ca2+  Ca8  1  0.67629830  0.09249913  0.83887148  1
  Ca2+  Ca9  1  0.66663774  0.58289702  0.15987790  1
  Ca2+  Ca10  1  0.67148303  0.57281224  0.51009847  1
  Ca2+  Ca11  1  0.67438002  0.57229181  0.83828846  1
  Ca2+  Ca12  1  0.07762229  0.33681279  0.15830419  1
  Ca2+  Ca13  1  0.07428116  0.34612691  0.49999294  1
  Ca2+  Ca14  1  0.07457294  0.33309621  0.82893812  1
  Ca2+  Ca15  1  0.08380623  0.82659845  0.16152617  1
  Ca2+  Ca16  1  0.07683437  0.83057641  0.50127767  1
  Ca2+  Ca17  1  0.07595105  0.82651371  0.82565384  1
  Ca2+  Ca18  1  0.57040419  0.33643733  0.15680759  1
  Ca2+  Ca19  1  0.58424124  0.33175365  0.49987039  1
  Ca2+  Ca20  1  0.59128675  0.33018095  0.83029814  1
  Ca2+  Ca21  1  0.57280511  0.82455045  0.15666797  1
  Ca2+  Ca22  1  0.57678698  0.82647383  0.49338252  1
  Ca2+  Ca23  1  0.58457110  0.82450002  0.83501848  1
  Ca2+  Ca24  1  0.32476419  0.40923820  0.17419332  1
  Ca2+  Ca25  1  0.32642777  0.41835983  0.50700461  1
  Ca2+  Ca26  1  0.32164233  0.40749339  0.83797643  1
  Ca2+  Ca27  1  0.33962912  0.91541767  0.16961999  1
  Ca2+  Ca28  1  0.33441733  0.91690086  0.50302904  1
  Ca2+  Ca29  1  0.33422447  0.91955080  0.83887545  1
  Ca2+  Ca30  1  0.83034798  0.41173820  0.16412270  1
  Ca2+  Ca31  1  0.83095643  0.41608501  0.51132673  1
  Ca2+  Ca32  1  0.82753267  0.41431969  0.84084451  1
  Ca2+  Ca33  1  0.83051810  0.92679031  0.16687996  1
  Ca2+  Ca34  1  0.83334766  0.92393343  0.51134436  1
  Ca2+  Ca35  1  0.84057259  0.93090734  0.83673056  1
  Ca2+  Ca36  1  0.42128991  0.17853601  0.15848127  1
  Ca2+  Ca37  1  0.42469867  0.17479773  0.49737762  1
  Ca2+  Ca38  1  0.42891848  0.17504165  0.83558947  1
  Ca2+  Ca39  1  0.41309778  0.67398938  0.15931318  1
  Ca2+  Ca40  1  0.41002072  0.66472378  0.49365193  1
  Ca2+  Ca41  1  0.41604053  0.66610144  0.83200890  1
  Ca2+  Ca42  1  0.92193658  0.17939848  0.15786115  1
  Ca2+  Ca43  1  0.91897493  0.17916092  0.50336780  1
  Ca2+  Ca44  1  0.91914146  0.17590996  0.82809071  1
  Ca2+  Ca45  1  0.91551366  0.66548589  0.15768421  1
  Ca2+  Ca46  1  0.90961420  0.67013527  0.49998610  1
  Ca2+  Ca47  1  0.90329922  0.67049929  0.82612884  1
  Al0+  Al48  1  -0.00080308  -0.00192602  0.00617040  1
  Al0+  Al49  1  -0.00060668  0.00018397  0.33399135  1
  Al0+  Al50  1  -0.00048228  -0.00208940  0.66200481  1
  Al0+  Al51  1  0.00234678  0.50101615  0.00415068  1
  Al0+  Al52  1  -0.00008937  0.50244731  0.33228261  1
  Al0+  Al53  1  0.00356291  0.50414231  0.66798196  1
  Al0+  Al54  1  0.49852736  0.00009093  -0.00598044  1
  Al0+  Al55  1  0.50171447  -0.00326510  0.33069568  1
  Al0+  Al56  1  0.49917307  -0.00087266  0.66326851  1
  Al0+  Al57  1  0.49823986  0.50378561  -0.00499165  1
  Al0+  Al58  1  0.50345159  0.49979209  0.33224805  1
  Al0+  Al59  1  0.50102554  0.50182517  0.67290471  1
  Al0+  Al60  1  0.25104619  0.24589166  -0.00062228  1
  Al0+  Al61  1  0.24951142  0.24609990  0.33765896  1
  Al0+  Al62  1  0.25233587  0.24729711  0.66755484  1
  Al0+  Al63  1  0.24678258  0.75117543  -0.00452557  1
  Al0+  Al64  1  0.24803483  0.75048325  0.33292695  1
  Al0+  Al65  1  0.24872693  0.75185461  0.66890236  1
  Al0+  Al66  1  0.75090852  0.25151466  0.00575317  1
  Al0+  Al67  1  0.75434501  0.24999840  0.33194708  1
  Al0+  Al68  1  0.75176947  0.24724952  0.66485068  1
  Al0+  Al69  1  0.74767570  0.75216099  0.00074022  1
  Al0+  Al70  1  0.74874783  0.75277109  0.33233606  1
  Al0+  Al71  1  0.74563605  0.75077972  0.66178902  1
  Al0+  Al72  1  0.32149790  0.57279027  0.68304712  1
  Al0+  Al73  1  0.93073623  0.32333075  0.98539923  1
  Al0+  Al74  1  0.82089734  0.57235554  0.01525065  1
  Al0+  Al75  1  0.07007485  0.17659621  0.98789092  1
  Al0+  Al76  1  0.82177949  0.57352774  0.67770317  1
  Al0+  Al77  1  0.57161287  0.17934389  0.65342249  1
  Al0+  Al78  1  0.18236861  0.42629681  0.01436572  1
  Al0+  Al79  1  0.17830910  0.42574171  0.34900482  1
  Al0+  Al80  1  0.42653563  0.82033991  0.98204883  1
  Al0+  Al81  1  0.57189937  0.18179348  0.98659902  1
  Al0+  Al82  1  0.32281351  0.57077069  0.34485502  1
  Al0+  Al83  1  0.93116003  0.32358169  0.65290583  1
  Al0+  Al84  1  0.92751361  0.81846224  0.65327038  1
  Al0+  Al85  1  0.42817717  0.81870388  0.32004421  1
  Al0+  Al86  1  0.93112685  0.32307201  0.31846235  1
  Al0+  Al87  1  0.57208943  0.67872375  0.98168993  1
  Al0+  Al88  1  0.82156324  0.07176423  0.01585755  1
  Al0+  Al89  1  0.68179928  0.42660446  0.68053552  1
  Al0+  Al90  1  0.42929989  0.32036524  0.32305961  1
  Al0+  Al91  1  0.42676108  0.32399064  0.98576850  1
  Al0+  Al92  1  0.07314859  0.17796553  0.65162861  1
  Al0+  Al93  1  0.67662568  0.42868417  0.01686756  1
  Al0+  Al94  1  0.82115242  0.06793845  0.68004037  1
  Al0+  Al95  1  0.17986999  0.42605551  0.68328050  1
  Si0+  Si96  1  0.82016574  0.57438403  0.34735494  1
  Si0+  Si97  1  0.17781383  0.92879035  0.34921856  1
  Si0+  Si98  1  0.42751873  0.82001202  0.65013337  1
  Si0+  Si99  1  0.07514429  0.67986102  0.64761203  1
  Si0+  Si100  1  0.57437581  0.67784049  0.31621000  1
  Si0+  Si101  1  0.42927054  0.32339374  0.65103236  1
  Si0+  Si102  1  0.32218733  0.06810309  0.01585963  1
  Si0+  Si103  1  0.67625579  0.92989138  0.01722176  1
  Si0+  Si104  1  0.67946332  0.92863324  0.34944873  1
  Si0+  Si105  1  0.32388780  0.06981042  0.68216107  1
  Si0+  Si106  1  0.92828407  0.82016571  0.98718432  1
  Si0+  Si107  1  0.56916501  0.67853193  0.64900552  1
  Si0+  Si108  1  0.07125013  0.17466795  0.31719192  1
  Si0+  Si109  1  0.17835448  0.92789199  0.01597560  1
  Si0+  Si110  1  0.31928530  0.57528075  0.01500047  1
  Si0+  Si111  1  0.67464328  0.92812625  0.68316640  1
  Si0+  Si112  1  0.06884870  0.68182831  0.31739755  1
  Si0+  Si113  1  0.17939802  0.93138475  0.68165045  1
  Si0+  Si114  1  0.68111720  0.42802954  0.34782643  1
  Si0+  Si115  1  0.32344970  0.06838740  0.34896133  1
  Si0+  Si116  1  0.92748340  0.82271971  0.31652709  1
  Si0+  Si117  1  0.82060673  0.07033262  0.35076643  1
  Si0+  Si118  1  0.06981872  0.67952805  0.98478565  1
  Si0+  Si119  1  0.57304438  0.17720409  0.31839085  1
  O2-  O120  1  0.25015467  -0.00251361  0.05840814  1
  O2-  O121  1  0.24976094  -0.00095789  0.39099939  1
  O2-  O122  1  0.24654883  0.00518200  0.72408321  1
  O2-  O123  1  0.26093408  0.49836952  0.06008297  1
  O2-  O124  1  0.25722846  0.49302861  0.39536416  1
  O2-  O125  1  0.25473255  0.49609156  0.73236248  1
  O2-  O126  1  0.74186077  0.00108464  0.06287068  1
  O2-  O127  1  0.74751895  0.00132694  0.39288381  1
  O2-  O128  1  0.74439431  -0.00491618  0.72705214  1
  O2-  O129  1  0.75029919  0.50013496  0.06726353  1
  O2-  O130  1  0.75203868  0.50051746  0.38837723  1
  O2-  O131  1  0.75871940  0.49488937  0.72813669  1
  O2-  O132  1  0.00978858  0.25018889  0.27514618  1
  O2-  O133  1  0.00715804  0.25525857  0.60131127  1
  O2-  O134  1  0.00171552  0.24985008  0.93667180  1
  O2-  O135  1  -0.00441177  0.75037440  0.27337628  1
  O2-  O136  1  -0.00153498  0.74113744  0.60409896  1
  O2-  O137  1  -0.00778098  0.74405272  0.94404393  1
  O2-  O138  1  0.50404360  0.24564836  0.27588948  1
  O2-  O139  1  0.50001012  0.25656042  0.60625229  1
  O2-  O140  1  0.50717554  0.26041976  0.93670021  1
  O2-  O141  1  0.49887320  0.74056179  0.27426239  1
  O2-  O142  1  0.49445295  0.74631270  0.60686279  1
  O2-  O143  1  0.49662756  0.74781036  0.93153332  1
  O2-  O144  1  0.06878911  0.17547306  0.10193868  1
  O2-  O145  1  0.06648447  0.16526518  0.42177209  1
  O2-  O146  1  0.06816571  0.17324206  0.76431934  1
  O2-  O147  1  0.07229013  0.68480409  0.09033507  1
  O2-  O148  1  0.06764674  0.68552998  0.42213113  1
  O2-  O149  1  0.08059164  0.68649963  0.75274342  1
  O2-  O150  1  0.56602562  0.17920136  0.10082240  1
  O2-  O151  1  0.57265419  0.17578236  0.42416137  1
  O2-  O152  1  0.56927488  0.17590000  0.76552492  1
  O2-  O153  1  0.57272598  0.68397647  0.09588227  1
  O2-  O154  1  0.57933119  0.68238196  0.42175096  1
  O2-  O155  1  0.57229622  0.68288769  0.75300357  1
  O2-  O156  1  0.17783048  0.42803626  0.23541055  1
  O2-  O157  1  0.18155588  0.42849577  0.56940152  1
  O2-  O158  1  0.18044440  0.42763340  0.90190392  1
  O2-  O159  1  0.17549437  0.92862171  0.24424164  1
  O2-  O160  1  0.18173124  0.92954513  0.57601658  1
  O2-  O161  1  0.17590965  0.92747230  0.91115624  1
  O2-  O162  1  0.67998228  0.42727127  0.24347077  1
  O2-  O163  1  0.67967947  0.42965151  0.56574230  1
  O2-  O164  1  0.68094874  0.42744334  0.90385334  1
  O2-  O165  1  0.68137160  0.92575408  0.24497188  1
  O2-  O166  1  0.67414675  0.92949153  0.57675862  1
  O2-  O167  1  0.67922578  0.92828213  0.91194609  1
  O2-  O168  1  0.42453872  0.31783801  0.09994840  1
  O2-  O169  1  0.43200821  0.31780958  0.43621738  1
  O2-  O170  1  0.42783887  0.31989647  0.75602991  1
  O2-  O171  1  0.42586718  0.81920892  0.09611117  1
  O2-  O172  1  0.43054984  0.82110182  0.43327905  1
  O2-  O173  1  0.42746562  0.82207360  0.75445222  1
  O2-  O174  1  0.93317197  0.32165177  0.09960977  1
  O2-  O175  1  0.92708385  0.32182373  0.43127073  1
  O2-  O176  1  0.92851889  0.32090411  0.76557572  1
  O2-  O177  1  0.93201050  0.82120501  0.09294729  1
  O2-  O178  1  0.92786616  0.82324487  0.42141413  1
  O2-  O179  1  0.93125427  0.82032344  0.76636119  1
  O2-  O180  1  0.32409854  0.06672275  0.24405733  1
  O2-  O181  1  0.32645067  0.06452055  0.57662651  1
  O2-  O182  1  0.32255081  0.06564414  0.91097820  1
  O2-  O183  1  0.31759351  0.57498599  0.23176548  1
  O2-  O184  1  0.31924435  0.57423381  0.56900522  1
  O2-  O185  1  0.31026853  0.58160696  0.91034740  1
  O2-  O186  1  0.82043022  0.06821016  0.24582797  1
  O2-  O187  1  0.81898023  0.06575473  0.56614164  1
  O2-  O188  1  0.82542133  0.06694838  0.90335139  1
  O2-  O189  1  0.81847394  0.57937468  0.24292483  1
  O2-  O190  1  0.81507923  0.57549296  0.56329821  1
  O2-  O191  1  0.81920630  0.57596938  0.90244688  1
  O2-  O192  1  0.04003303  0.08323059  0.26774293  1
  O2-  O193  1  0.04120843  0.08052167  0.59679067  1
  O2-  O194  1  0.04135423  0.07635946  0.93822392  1
  O2-  O195  1  0.04299091  0.59046463  0.26911970  1
  O2-  O196  1  0.05899722  0.58460044  0.60305746  1
  O2-  O197  1  0.04945270  0.58630107  0.93957798  1
  O2-  O198  1  0.54896910  0.08307335  0.27312051  1
  O2-  O199  1  0.53658021  0.08345262  0.59750778  1
  O2-  O200  1  0.53864772  0.08542945  0.93291839  1
  O2-  O201  1  0.55802419  0.58222048  0.27245255  1
  O2-  O202  1  0.54445508  0.58560967  0.60202212  1
  O2-  O203  1  0.54922299  0.58044056  0.92826535  1
  O2-  O204  1  0.16888378  0.19060768  0.27647695  1
  O2-  O205  1  0.17606695  0.19530320  0.60216831  1
  O2-  O206  1  0.17096314  0.19558485  0.93814260  1
  O2-  O207  1  0.15820487  0.71487405  0.26859214  1
  O2-  O208  1  0.16369622  0.71820918  0.59830231  1
  O2-  O209  1  0.15605503  0.71678668  0.93408465  1
  O2-  O210  1  0.66721451  0.20295657  0.27450258  1
  O2-  O211  1  0.66782297  0.20601428  0.59669272  1
  O2-  O212  1  0.67333713  0.20221529  0.93864634  1
  O2-  O213  1  0.66414771  0.71318104  0.26765103  1
  O2-  O214  1  0.65743262  0.71108092  0.59649242  1
  O2-  O215  1  0.66842013  0.71555629  0.92902456  1
  O2-  O216  1  0.08816104  0.46309120  0.06973725  1
  O2-  O217  1  0.08203264  0.46499552  0.40047656  1
  O2-  O218  1  0.08276219  0.45908054  0.73569749  1
  O2-  O219  1  0.08840735  0.95477164  0.06830586  1
  O2-  O220  1  0.08575145  0.95674894  0.39719644  1
  O2-  O221  1  0.08637513  0.95470836  0.72778603  1
  O2-  O222  1  0.57631433  0.45983387  0.06702139  1
  O2-  O223  1  0.58974530  0.45470457  0.39680016  1
  O2-  O224  1  0.58477569  0.45754821  0.73319280  1
  O2-  O225  1  0.58071502  0.95260303  0.06081524  1
  O2-  O226  1  0.58632717  0.95306572  0.39658346  1
  O2-  O227  1  0.58115297  0.95324329  0.72847450  1
  O2-  O228  1  0.21045567  0.32825176  0.06759769  1
  O2-  O229  1  0.19833324  0.32473285  0.40036304  1
  O2-  O230  1  0.20655882  0.32600189  0.73397293  1
  O2-  O231  1  0.20646871  0.83631827  0.06448224  1
  O2-  O232  1  0.20514393  0.83787681  0.39803690  1
  O2-  O233  1  0.20982753  0.84163937  0.73089134  1
  O2-  O234  1  0.70332373  0.33107196  0.07302762  1
  O2-  O235  1  0.71054693  0.33620478  0.39502469  1
  O2-  O236  1  0.70570698  0.32695854  0.73063368  1
  O2-  O237  1  0.70600120  0.83882098  0.06641093  1
  O2-  O238  1  0.70949852  0.83807469  0.39920046  1
  O2-  O239  1  0.69933160  0.83389374  0.72618071  1
  O2-  O240  1  0.45912972  0.41687061  0.26862368  1
  O2-  O241  1  0.45327564  0.41843420  0.60742724  1
  O2-  O242  1  0.43899650  0.42626818  0.93765768  1
  O2-  O243  1  0.46231190  0.91399796  0.26478590  1
  O2-  O244  1  0.45826522  0.91016750  0.60054754  1
  O2-  O245  1  0.45489156  0.91819422  0.92926945  1
  O2-  O246  1  0.95652887  0.42165372  0.26611231  1
  O2-  O247  1  0.95619132  0.42457216  0.60097010  1
  O2-  O248  1  0.95927636  0.42240804  0.93530771  1
  O2-  O249  1  0.95854047  0.91361553  0.26923450  1
  O2-  O250  1  0.96431741  0.91121784  0.59496022  1
  O2-  O251  1  0.96385529  0.90920454  0.94052417  1
  O2-  O252  1  0.33198911  0.28716453  0.27136032  1
  O2-  O253  1  0.33744587  0.29324838  0.60370659  1
  O2-  O254  1  0.33431854  0.28169674  0.93105776  1
  O2-  O255  1  0.32918701  0.79500520  0.26723456  1
  O2-  O256  1  0.33402968  0.79619448  0.60346029  1
  O2-  O257  1  0.32664072  0.79537137  0.92993792  1
  O2-  O258  1  0.83610764  0.28691058  0.26392557  1
  O2-  O259  1  0.83479922  0.28903784  0.59799043  1
  O2-  O260  1  0.83104880  0.29473809  0.93826610  1
  O2-  O261  1  0.83468098  0.79772869  0.27001996  1
  O2-  O262  1  0.82984450  0.79315708  0.59667532  1
  O2-  O263  1  0.83483500  0.80087055  0.94126596  1
  O2-  O264  1  0.41274595  0.03792194  0.06471141  1
  O2-  O265  1  0.41461119  0.03675996  0.39640063  1
  O2-  O266  1  0.41187299  0.03294654  0.73061062  1
  O2-  O267  1  0.41764955  0.56424409  0.05397510  1
  O2-  O268  1  0.42517681  0.55242949  0.39454065  1
  O2-  O269  1  0.42196457  0.55354938  0.73360050  1
  O2-  O270  1  0.91412511  0.03193447  0.07377651  1
  O2-  O271  1  0.91134103  0.03751378  0.39692830  1
  O2-  O272  1  0.91627142  0.03070879  0.73188339  1
  O2-  O273  1  0.92081251  0.54855228  0.06826095  1
  O2-  O274  1  0.91367373  0.55161600  0.39277316  1
  O2-  O275  1  0.92566656  0.56415642  0.72352742  1
  O2-  O276  1  0.29414851  0.15822144  0.06614084  1
  O2-  O277  1  0.29796819  0.15892227  0.39942351  1
  O2-  O278  1  0.30514699  0.16318687  0.72824134  1
  O2-  O279  1  0.28363384  0.66609468  0.06294533  1
  O2-  O280  1  0.28722593  0.66795497  0.39872041  1
  O2-  O281  1  0.28901910  0.67104976  0.73453334  1
  O2-  O282  1  0.79324365  0.16707460  0.07338187  1
  O2-  O283  1  0.79493205  0.16293930  0.39710080  1
  O2-  O284  1  0.79142797  0.16400542  0.73266778  1
  O2-  O285  1  0.79175562  0.67231941  0.06843626  1
  O2-  O286  1  0.79068347  0.66650993  0.39497093  1
  O2-  O287  1  0.78522987  0.67036438  0.72920804  1
