# generated using pymatgen
data_Ca2Al2SiO7
_symmetry_space_group_name_H-M   'P 1'
_cell_length_a   15.45392508
_cell_length_b   15.45354179
_cell_length_c   15.28059195
_cell_angle_alpha   89.99745101
_cell_angle_beta   89.99260221
_cell_angle_gamma   89.99313753
_symmetry_Int_Tables_number   1
_chemical_formula_structural   Ca2Al2SiO7
_chemical_formula_sum   'Ca48 Al48 Si24 O168'
_cell_volume   3649.27846796
_cell_formula_units_Z   24
loop_
 _symmetry_equiv_pos_site_id
 _symmetry_equiv_pos_as_xyz
  1  'x, y, z'
loop_
 _atom_type_symbol
 _atom_type_oxidation_number
  Ca2+  2.0
  Al0+  0.0
  Si0+  0.0
  O2-  -2.0
loop_
 _atom_site_type_symbol
 _atom_site_label
 _atom_site_symmetry_multiplicity
 _atom_site_fract_x
 _atom_site_fract_y
 _atom_site_fract_z
 _atom_site_occupancy
  Ca2+  Ca0  1  0.16512673  0.08058265  0.16960390  1
  Ca2+  Ca1  1  0.17223140  0.07971890  0.51410798  1
  Ca2+  Ca2  1  0.16970199  0.08491518  0.82834585  1
  Ca2+  Ca3  1  0.17759118  0.59220492  0.16944417  1
  Ca2+  Ca4  1  0.17334829  0.57434613  0.50541303  1
  Ca2+  Ca5  1  0.17116328  0.58067156  0.84018533  1
  Ca2+  Ca6  1  0.67544350  0.07823461  0.17033399  1
  Ca2+  Ca7  1  0.67080276  0.09716754  0.50089963  1
  Ca2+  Ca8  1  0.66813743  0.07789273  0.84249707  1
  Ca2+  Ca9  1  0.67568701  0.59082862  0.17149557  1
  Ca2+  Ca10  1  0.66958320  0.58006345  0.50022825  1
  Ca2+  Ca11  1  0.66785454  0.57735447  0.84003901  1
  Ca2+  Ca12  1  0.06846437  0.33592805  0.16276563  1
  Ca2+  Ca13  1  0.08474286  0.32874184  0.49849815  1
  Ca2+  Ca14  1  0.07714256  0.33257028  0.82754115  1
  Ca2+  Ca15  1  0.06982240  0.82705856  0.16011224  1
  Ca2+  Ca16  1  0.07934867  0.83593697  0.49569813  1
  Ca2+  Ca17  1  0.08248713  0.83046464  0.83215905  1
  Ca2+  Ca18  1  0.58323952  0.33044989  0.16884749  1
  Ca2+  Ca19  1  0.57724247  0.32858918  0.49774143  1
  Ca2+  Ca20  1  0.57841592  0.32854391  0.82109843  1
  Ca2+  Ca21  1  0.58954370  0.82113588  0.16137190  1
  Ca2+  Ca22  1  0.57522050  0.82879255  0.49604711  1
  Ca2+  Ca23  1  0.58367366  0.82853212  0.83186943  1
  Ca2+  Ca24  1  0.33517915  0.42734370  0.17268513  1
  Ca2+  Ca25  1  0.33809361  0.41752897  0.50579884  1
  Ca2+  Ca26  1  0.32661787  0.41356529  0.83656787  1
  Ca2+  Ca27  1  0.32898597  0.91561572  0.16994836  1
  Ca2+  Ca28  1  0.32875467  0.92183540  0.51362601  1
  Ca2+  Ca29  1  0.33433982  0.91792882  0.83036248  1
  Ca2+  Ca30  1  0.84054501  0.42718606  0.17192197  1
  Ca2+  Ca31  1  0.82959447  0.41908420  0.50248999  1
  Ca2+  Ca32  1  0.82564448  0.41660304  0.84038574  1
  Ca2+  Ca33  1  0.83568949  0.92063345  0.17096435  1
  Ca2+  Ca34  1  0.83428120  0.92122940  0.49909322  1
  Ca2+  Ca35  1  0.82734519  0.92373460  0.84676522  1
  Ca2+  Ca36  1  0.42111424  0.17243267  0.16710625  1
  Ca2+  Ca37  1  0.42298641  0.17420904  0.49600183  1
  Ca2+  Ca38  1  0.42430048  0.16995341  0.81696284  1
  Ca2+  Ca39  1  0.42795285  0.65524253  0.16272097  1
  Ca2+  Ca40  1  0.41988689  0.66809221  0.49406299  1
  Ca2+  Ca41  1  0.41904278  0.66875657  0.83220070  1
  Ca2+  Ca42  1  0.90263341  0.17697595  0.16472417  1
  Ca2+  Ca43  1  0.92172152  0.17166522  0.49253482  1
  Ca2+  Ca44  1  0.91715548  0.16924090  0.83114658  1
  Ca2+  Ca45  1  0.91254241  0.67395699  0.15568064  1
  Ca2+  Ca46  1  0.91687611  0.67272635  0.49030501  1
  Ca2+  Ca47  1  0.91485595  0.66905045  0.83827866  1
  Al0+  Al48  1  0.00128959  0.00208004  0.00091405  1
  Al0+  Al49  1  -0.00105759  -0.00073775  0.33405214  1
  Al0+  Al50  1  -0.00017956  0.00016100  0.66723617  1
  Al0+  Al51  1  -0.00128081  0.49779882  -0.00614093  1
  Al0+  Al52  1  0.00264133  0.50015826  0.33565920  1
  Al0+  Al53  1  0.00188539  0.50330682  0.66999885  1
  Al0+  Al54  1  0.49959983  -0.00043624  0.00669002  1
  Al0+  Al55  1  0.49900251  -0.00080717  0.32900685  1
  Al0+  Al56  1  0.50252781  -0.00205820  0.66131017  1
  Al0+  Al57  1  0.49779243  0.49864788  -0.00211352  1
  Al0+  Al58  1  0.49989931  0.50061097  0.33120187  1
  Al0+  Al59  1  0.50361496  0.50053365  0.66795661  1
  Al0+  Al60  1  0.24852476  0.25017689  0.00290902  1
  Al0+  Al61  1  0.25037409  0.24883284  0.32779709  1
  Al0+  Al62  1  0.24878832  0.25075321  0.66806261  1
  Al0+  Al63  1  0.25054023  0.75042792  0.00161906  1
  Al0+  Al64  1  0.24984600  0.74979868  0.34029255  1
  Al0+  Al65  1  0.24885688  0.75000358  0.66593233  1
  Al0+  Al66  1  0.74732728  0.24890604  -0.00195447  1
  Al0+  Al67  1  0.75061508  0.24908619  0.33034387  1
  Al0+  Al68  1  0.75093412  0.25312269  0.66884677  1
  Al0+  Al69  1  0.74792530  0.74848756  -0.00470134  1
  Al0+  Al70  1  0.74939178  0.75159908  0.33296049  1
  Al0+  Al71  1  0.75199924  0.75185896  0.66600570  1
  Al0+  Al72  1  0.32220972  0.56958758  0.34912034  1
  Al0+  Al73  1  0.68093649  0.43045990  0.67978651  1
  Al0+  Al74  1  0.57005116  0.67784600  0.98505637  1
  Al0+  Al75  1  0.17919462  0.42865423  0.68106671  1
  Al0+  Al76  1  0.81938976  0.07082257  0.34944045  1
  Al0+  Al77  1  0.93003380  0.82031083  0.32042716  1
  Al0+  Al78  1  0.42770997  0.32149266  0.31617526  1
  Al0+  Al79  1  0.57216466  0.17738866  0.31497737  1
  Al0+  Al80  1  0.92721944  0.31947365  0.98499582  1
  Al0+  Al81  1  0.67788039  0.92757134  0.01587350  1
  Al0+  Al82  1  0.93058267  0.32194681  0.32182753  1
  Al0+  Al83  1  0.81959262  0.56754804  0.01186240  1
  Al0+  Al84  1  0.32300845  0.07020591  0.67992466  1
  Al0+  Al85  1  0.56916582  0.68068008  0.32091733  1
  Al0+  Al86  1  0.42884428  0.81884612  0.65377442  1
  Al0+  Al87  1  0.82238320  0.07178240  0.01509668  1
  Al0+  Al88  1  0.31949793  0.57032883  0.01299214  1
  Al0+  Al89  1  0.92837476  0.82251608  0.98358775  1
  Al0+  Al90  1  0.57370567  0.17746903  0.65279093  1
  Al0+  Al91  1  0.07307275  0.67919481  0.98473217  1
  Al0+  Al92  1  0.17699786  0.92765352  0.68341100  1
  Al0+  Al93  1  0.06852753  0.17940806  0.65396752  1
  Al0+  Al94  1  0.82269078  0.57319723  0.34622886  1
  Al0+  Al95  1  0.42793828  0.32235174  0.65355664  1
  Si0+  Si96  1  0.68012453  0.92717555  0.68036159  1
  Si0+  Si97  1  0.17919761  0.93033893  0.34836743  1
  Si0+  Si98  1  0.32136118  0.07132192  0.34779825  1
  Si0+  Si99  1  0.82288488  0.57517996  0.68416973  1
  Si0+  Si100  1  0.42744537  0.82424827  0.98443608  1
  Si0+  Si101  1  0.42760393  0.31980277  0.98435684  1
  Si0+  Si102  1  0.17978994  0.92908252  0.01621765  1
  Si0+  Si103  1  0.32122264  0.07274823  0.01648412  1
  Si0+  Si104  1  0.17862196  0.42588714  0.34966142  1
  Si0+  Si105  1  0.67921950  0.42817258  0.34868499  1
  Si0+  Si106  1  0.92923640  0.82101099  0.65095993  1
  Si0+  Si107  1  0.67554004  0.42684997  0.01733898  1
  Si0+  Si108  1  0.07171584  0.17673541  0.31671382  1
  Si0+  Si109  1  0.57431860  0.67814151  0.64944778  1
  Si0+  Si110  1  0.32312686  0.57211100  0.68326881  1
  Si0+  Si111  1  0.67633150  0.92800328  0.35227375  1
  Si0+  Si112  1  0.82063765  0.07126023  0.68043876  1
  Si0+  Si113  1  0.07121163  0.67834960  0.64994189  1
  Si0+  Si114  1  0.92850507  0.32469104  0.65010069  1
  Si0+  Si115  1  0.07504507  0.17819042  0.98233221  1
  Si0+  Si116  1  0.07324328  0.67790568  0.31885210  1
  Si0+  Si117  1  0.42475509  0.82157881  0.31639577  1
  Si0+  Si118  1  0.17694816  0.42653334  0.01820895  1
  Si0+  Si119  1  0.56777035  0.17819560  0.98513505  1
  O2-  O120  1  0.24991094  0.00153859  0.05854439  1
  O2-  O121  1  0.25090576  0.00033873  0.39015837  1
  O2-  O122  1  0.25134359  -0.00165262  0.73214211  1
  O2-  O123  1  0.24253999  0.49850082  0.06163405  1
  O2-  O124  1  0.24978022  0.49214039  0.39432040  1
  O2-  O125  1  0.25770755  0.50010171  0.72711679  1
  O2-  O126  1  0.75471708  -0.00469464  0.06478124  1
  O2-  O127  1  0.74150376  -0.00009949  0.39784528  1
  O2-  O128  1  0.74662342  0.00291945  0.72139857  1
  O2-  O129  1  0.74522091  0.49418408  0.06167767  1
  O2-  O130  1  0.74962101  0.49643974  0.39213828  1
  O2-  O131  1  0.75524690  0.50510059  0.72691065  1
  O2-  O132  1  0.00384701  0.24619814  0.27334804  1
  O2-  O133  1  -0.00322758  0.25589097  0.60561596  1
  O2-  O134  1  0.00226518  0.24371331  0.94045270  1
  O2-  O135  1  -0.00036480  0.74070802  0.27450584  1
  O2-  O136  1  0.00019792  0.74989378  0.60844620  1
  O2-  O137  1  0.00057182  0.75047938  0.93310283  1
  O2-  O138  1  0.50038570  0.25025191  0.26537178  1
  O2-  O139  1  0.49864545  0.24795390  0.60505495  1
  O2-  O140  1  0.49666849  0.24781087  0.94161981  1
  O2-  O141  1  0.49319902  0.75352700  0.27219273  1
  O2-  O142  1  0.50196676  0.74324970  0.60600193  1
  O2-  O143  1  0.49633636  0.75525681  0.94118388  1
  O2-  O144  1  0.08140500  0.18044296  0.08785163  1
  O2-  O145  1  0.07220182  0.17621244  0.42232337  1
  O2-  O146  1  0.06442435  0.17853328  0.76696701  1
  O2-  O147  1  0.07546832  0.68349427  0.09853856  1
  O2-  O148  1  0.07399828  0.68098387  0.42481625  1
  O2-  O149  1  0.07133592  0.67743481  0.75462074  1
  O2-  O150  1  0.56646715  0.17934979  0.08993209  1
  O2-  O151  1  0.57029524  0.18007022  0.42841849  1
  O2-  O152  1  0.57335134  0.17801085  0.76705661  1
  O2-  O153  1  0.56863741  0.67700907  0.09817898  1
  O2-  O154  1  0.56828289  0.68291070  0.43435427  1
  O2-  O155  1  0.57577458  0.67977254  0.75496180  1
  O2-  O156  1  0.17719609  0.42739529  0.24415687  1
  O2-  O157  1  0.17551187  0.43250889  0.56802003  1
  O2-  O158  1  0.18089601  0.42314268  0.91261543  1
  O2-  O159  1  0.18007225  0.93008694  0.24287627  1
  O2-  O160  1  0.17648125  0.92971506  0.56930213  1
  O2-  O161  1  0.18090749  0.92851033  0.91162156  1
  O2-  O162  1  0.67963110  0.42897742  0.24296306  1
  O2-  O163  1  0.68259797  0.43128042  0.56653036  1
  O2-  O164  1  0.67588252  0.42741655  0.91142751  1
  O2-  O165  1  0.67859365  0.92695947  0.24695141  1
  O2-  O166  1  0.68395279  0.92055725  0.57573988  1
  O2-  O167  1  0.67477120  0.93258070  0.90146652  1
  O2-  O168  1  0.42779816  0.31891019  0.08926161  1
  O2-  O169  1  0.42657408  0.31971326  0.42949664  1
  O2-  O170  1  0.43037854  0.32108941  0.76777773  1
  O2-  O171  1  0.42567712  0.82557608  0.09001023  1
  O2-  O172  1  0.42441662  0.82135788  0.42206219  1
  O2-  O173  1  0.43095464  0.81804685  0.76701710  1
  O2-  O174  1  0.92932191  0.32040956  0.09831694  1
  O2-  O175  1  0.93267525  0.32074125  0.43505530  1
  O2-  O176  1  0.92790118  0.32224124  0.75573278  1
  O2-  O177  1  0.93089672  0.82158073  0.09732946  1
  O2-  O178  1  0.93349112  0.82138152  0.43420520  1
  O2-  O179  1  0.92707845  0.82058396  0.75551813  1
  O2-  O180  1  0.31848634  0.06961553  0.24199463  1
  O2-  O181  1  0.32033304  0.06827045  0.56602532  1
  O2-  O182  1  0.32287852  0.07406165  0.91190844  1
  O2-  O183  1  0.31965865  0.57127793  0.23596888  1
  O2-  O184  1  0.32054039  0.57251083  0.57740458  1
  O2-  O185  1  0.31984781  0.56773956  0.89988429  1
  O2-  O186  1  0.82066653  0.06870082  0.23693573  1
  O2-  O187  1  0.82203849  0.06991633  0.57527445  1
  O2-  O188  1  0.81792939  0.07257641  0.90068506  1
  O2-  O189  1  0.82211732  0.57355839  0.23326102  1
  O2-  O190  1  0.82240137  0.57715448  0.57826545  1
  O2-  O191  1  0.81705583  0.56546899  0.89857496  1
  O2-  O192  1  0.04545552  0.08350667  0.27061556  1
  O2-  O193  1  0.03711579  0.08313074  0.59873868  1
  O2-  O194  1  0.05388884  0.08327068  0.93806637  1
  O2-  O195  1  0.05622049  0.58222335  0.27524994  1
  O2-  O196  1  0.04264171  0.58726963  0.60082019  1
  O2-  O197  1  0.04671909  0.58025094  0.93214535  1
  O2-  O198  1  0.54194519  0.07899773  0.26219081  1
  O2-  O199  1  0.55185498  0.07852103  0.59881278  1
  O2-  O200  1  0.53966494  0.08524400  0.94009083  1
  O2-  O201  1  0.54099781  0.58446982  0.26584499  1
  O2-  O202  1  0.55229002  0.58381980  0.60418499  1
  O2-  O203  1  0.53607595  0.58199641  0.93036433  1
  O2-  O204  1  0.16514738  0.19941106  0.26868228  1
  O2-  O205  1  0.16569138  0.20810974  0.60055528  1
  O2-  O206  1  0.16730424  0.20775550  0.93456717  1
  O2-  O207  1  0.16530271  0.71042729  0.27335191  1
  O2-  O208  1  0.16262952  0.70548087  0.60152989  1
  O2-  O209  1  0.17104925  0.71038411  0.93134557  1
  O2-  O210  1  0.67028023  0.20589972  0.26217723  1
  O2-  O211  1  0.67112281  0.21170513  0.60074619  1
  O2-  O212  1  0.65914620  0.20504285  0.93693096  1
  O2-  O213  1  0.66498731  0.71332904  0.26675625  1
  O2-  O214  1  0.66695010  0.70832229  0.60328248  1
  O2-  O215  1  0.66475067  0.70699665  0.92741316  1
  O2-  O216  1  0.08146338  0.44929695  0.05999878  1
  O2-  O217  1  0.08711842  0.45350088  0.39920759  1
  O2-  O218  1  0.08381775  0.46294434  0.73669304  1
  O2-  O219  1  0.08874717  0.95757848  0.06508990  1
  O2-  O220  1  0.08820931  0.95889993  0.39640586  1
  O2-  O221  1  0.07931541  0.95853188  0.73643212  1
  O2-  O222  1  0.58175953  0.45247482  0.06210259  1
  O2-  O223  1  0.58648520  0.45648499  0.39463259  1
  O2-  O224  1  0.58483280  0.45995079  0.73658931  1
  O2-  O225  1  0.58106706  0.95787733  0.07190261  1
  O2-  O226  1  0.57963754  0.94937913  0.39458382  1
  O2-  O227  1  0.58715402  0.95039527  0.72652149  1
  O2-  O228  1  0.20515374  0.33446570  0.06677631  1
  O2-  O229  1  0.20171303  0.33000212  0.39275655  1
  O2-  O230  1  0.20488068  0.33199576  0.73702102  1
  O2-  O231  1  0.20990285  0.83928922  0.06626506  1
  O2-  O232  1  0.20502500  0.83898279  0.39793787  1
  O2-  O233  1  0.20494194  0.82856007  0.73486523  1
  O2-  O234  1  0.69963173  0.33242769  0.06137024  1
  O2-  O235  1  0.70506276  0.33472565  0.39420071  1
  O2-  O236  1  0.71179054  0.33491760  0.73751927  1
  O2-  O237  1  0.70247601  0.82696751  0.06426350  1
  O2-  O238  1  0.70618269  0.83656263  0.40029843  1
  O2-  O239  1  0.71228087  0.83767775  0.73091743  1
  O2-  O240  1  0.45665448  0.41972452  0.26378413  1
  O2-  O241  1  0.45940153  0.42067810  0.60153638  1
  O2-  O242  1  0.45510597  0.41056285  0.93586177  1
  O2-  O243  1  0.44740498  0.91540869  0.26960216  1
  O2-  O244  1  0.46086221  0.91335395  0.59649829  1
  O2-  O245  1  0.45349794  0.91840361  0.93918438  1
  O2-  O246  1  0.96314855  0.41834374  0.26708350  1
  O2-  O247  1  0.95396804  0.41969690  0.60699573  1
  O2-  O248  1  0.95790882  0.41394236  0.92746457  1
  O2-  O249  1  0.96547065  0.91507230  0.26592213  1
  O2-  O250  1  0.95746020  0.91250578  0.60326576  1
  O2-  O251  1  0.95728919  0.92234415  0.93328903  1
  O2-  O252  1  0.33028043  0.29123569  0.26055378  1
  O2-  O253  1  0.32861790  0.29820699  0.60199051  1
  O2-  O254  1  0.33408297  0.29283080  0.93981980  1
  O2-  O255  1  0.33008155  0.79621197  0.27222498  1
  O2-  O256  1  0.33132040  0.79097709  0.59928290  1
  O2-  O257  1  0.33456725  0.79782459  0.93809384  1
  O2-  O258  1  0.83476272  0.29251913  0.26678460  1
  O2-  O259  1  0.83538618  0.29846325  0.60442692  1
  O2-  O260  1  0.83019496  0.28863517  0.93076205  1
  O2-  O261  1  0.83224702  0.79469360  0.26833086  1
  O2-  O262  1  0.83809560  0.79269939  0.60147974  1
  O2-  O263  1  0.83059948  0.79352562  0.93008183  1
  O2-  O264  1  0.41120392  0.04441778  0.06710114  1
  O2-  O265  1  0.41393614  0.04432466  0.39328377  1
  O2-  O266  1  0.42233570  0.04008976  0.73113814  1
  O2-  O267  1  0.41481436  0.53472709  0.06700545  1
  O2-  O268  1  0.41961969  0.54133850  0.40253988  1
  O2-  O269  1  0.41912191  0.55291303  0.72646432  1
  O2-  O270  1  0.92377192  0.05221938  0.06614313  1
  O2-  O271  1  0.91612880  0.03688777  0.40291414  1
  O2-  O272  1  0.91030442  0.03973235  0.72905623  1
  O2-  O273  1  0.91769325  0.53805750  0.06383699  1
  O2-  O274  1  0.92021027  0.54466555  0.40073147  1
  O2-  O275  1  0.91720055  0.55259929  0.72918305  1
  O2-  O276  1  0.29146756  0.16354100  0.06584448  1
  O2-  O277  1  0.29350250  0.16374734  0.39327304  1
  O2-  O278  1  0.29344774  0.16775924  0.73350043  1
  O2-  O279  1  0.29270739  0.66804394  0.06782668  1
  O2-  O280  1  0.29015340  0.66579167  0.40453921  1
  O2-  O281  1  0.29253458  0.66403226  0.72930710  1
  O2-  O282  1  0.78645598  0.16853107  0.06726940  1
  O2-  O283  1  0.79154109  0.16904753  0.40258309  1
  O2-  O284  1  0.79713633  0.16435812  0.72715082  1
  O2-  O285  1  0.78927318  0.66540787  0.06264433  1
  O2-  O286  1  0.78909403  0.66861097  0.40174601  1
  O2-  O287  1  0.79514576  0.66837344  0.73046242  1
