# generated using pymatgen
data_Ca2Al2SiO7
_symmetry_space_group_name_H-M   'P 1'
_cell_length_a   15.46267541
_cell_length_b   15.46308250
_cell_length_c   15.28673297
_cell_angle_alpha   89.98343758
_cell_angle_beta   89.99482652
_cell_angle_gamma   89.98898880
_symmetry_Int_Tables_number   1
_chemical_formula_structural   Ca2Al2SiO7
_chemical_formula_sum   'Ca48 Al48 Si24 O168'
_cell_volume   3655.06718293
_cell_formula_units_Z   24
loop_
 _symmetry_equiv_pos_site_id
 _symmetry_equiv_pos_as_xyz
  1  'x, y, z'
loop_
 _atom_type_symbol
 _atom_type_oxidation_number
  Ca2+  2.0
  Al0+  0.0
  Si0+  0.0
  O2-  -2.0
loop_
 _atom_site_type_symbol
 _atom_site_label
 _atom_site_symmetry_multiplicity
 _atom_site_fract_x
 _atom_site_fract_y
 _atom_site_fract_z
 _atom_site_occupancy
  Ca2+  Ca0  1  0.17740854  0.08895693  0.17423062  1
  Ca2+  Ca1  1  0.17078778  0.09523459  0.50120008  1
  Ca2+  Ca2  1  0.17281391  0.08773140  0.83937614  1
  Ca2+  Ca3  1  0.16787181  0.58422130  0.17617298  1
  Ca2+  Ca4  1  0.16810185  0.58843950  0.49970368  1
  Ca2+  Ca5  1  0.16141925  0.58461503  0.83772241  1
  Ca2+  Ca6  1  0.66309069  0.07896376  0.16829557  1
  Ca2+  Ca7  1  0.66531797  0.07611981  0.50332345  1
  Ca2+  Ca8  1  0.67398823  0.07585318  0.83989062  1
  Ca2+  Ca9  1  0.67814026  0.58764190  0.17189283  1
  Ca2+  Ca10  1  0.67403718  0.57980019  0.50028816  1
  Ca2+  Ca11  1  0.67323527  0.58131477  0.84511818  1
  Ca2+  Ca12  1  0.07451450  0.32887539  0.16882960  1
  Ca2+  Ca13  1  0.07387894  0.32152007  0.49606895  1
  Ca2+  Ca14  1  0.07038641  0.32550294  0.82748276  1
  Ca2+  Ca15  1  0.08522199  0.82029220  0.16418089  1
  Ca2+  Ca16  1  0.08398590  0.82304527  0.49471177  1
  Ca2+  Ca17  1  0.08479454  0.82197338  0.82867580  1
  Ca2+  Ca18  1  0.57927099  0.32191542  0.16492046  1
  Ca2+  Ca19  1  0.57888180  0.32328506  0.48872971  1
  Ca2+  Ca20  1  0.58644474  0.32405286  0.83383527  1
  Ca2+  Ca21  1  0.58208756  0.83687994  0.16325979  1
  Ca2+  Ca22  1  0.57576822  0.84406636  0.49558588  1
  Ca2+  Ca23  1  0.58468417  0.83811141  0.83307417  1
  Ca2+  Ca24  1  0.33385098  0.42375028  0.17869611  1
  Ca2+  Ca25  1  0.33700611  0.42184261  0.49982499  1
  Ca2+  Ca26  1  0.32664831  0.41897361  0.83981493  1
  Ca2+  Ca27  1  0.33638340  0.92519696  0.17315891  1
  Ca2+  Ca28  1  0.33718531  0.91821396  0.49954329  1
  Ca2+  Ca29  1  0.33259868  0.91854852  0.83670468  1
  Ca2+  Ca30  1  0.84263156  0.42365565  0.16948775  1
  Ca2+  Ca31  1  0.84593493  0.41769637  0.49801074  1
  Ca2+  Ca32  1  0.84087069  0.41877468  0.83945150  1
  Ca2+  Ca33  1  0.81867635  0.91738548  0.17199543  1
  Ca2+  Ca34  1  0.81949830  0.92291453  0.50893882  1
  Ca2+  Ca35  1  0.82784502  0.92867904  0.84196319  1
  Ca2+  Ca36  1  0.42503077  0.15741192  0.16655227  1
  Ca2+  Ca37  1  0.42192779  0.16998560  0.48499531  1
  Ca2+  Ca38  1  0.42316549  0.15642578  0.83575471  1
  Ca2+  Ca39  1  0.42153109  0.67184217  0.16402014  1
  Ca2+  Ca40  1  0.41601086  0.67953069  0.49148555  1
  Ca2+  Ca41  1  0.42778556  0.67420482  0.82770878  1
  Ca2+  Ca42  1  0.91068020  0.17713632  0.15994100  1
  Ca2+  Ca43  1  0.91778725  0.17241112  0.49260941  1
  Ca2+  Ca44  1  0.90898354  0.17311599  0.82554958  1
  Ca2+  Ca45  1  0.92306953  0.65909987  0.16134239  1
  Ca2+  Ca46  1  0.92654736  0.66295495  0.49257078  1
  Ca2+  Ca47  1  0.92399087  0.66398829  0.83288342  1
  Al0+  Al48  1  0.00113101  -0.00049979  0.00540582  1
  Al0+  Al49  1  0.00032558  -0.00256448  0.32951374  1
  Al0+  Al50  1  0.00290441  -0.00133044  0.66800605  1
  Al0+  Al51  1  0.00089763  0.49787561  -0.00437010  1
  Al0+  Al52  1  0.00212417  0.49902431  0.33191663  1
  Al0+  Al53  1  0.00268059  0.49797564  0.66006023  1
  Al0+  Al54  1  0.49832517  0.00066950  0.00120046  1
  Al0+  Al55  1  0.49767905  -0.00064950  0.33408228  1
  Al0+  Al56  1  0.49906603  -0.00007467  0.66727574  1
  Al0+  Al57  1  0.49897762  0.50107368  -0.00454336  1
  Al0+  Al58  1  0.50162537  0.50136065  0.33628319  1
  Al0+  Al59  1  0.50129189  0.50213433  0.66946201  1
  Al0+  Al60  1  0.24847393  0.25194076  0.00538168  1
  Al0+  Al61  1  0.24841481  0.25286354  0.33253488  1
  Al0+  Al62  1  0.24891910  0.25359179  0.66770387  1
  Al0+  Al63  1  0.25020203  0.74936734  -0.00458064  1
  Al0+  Al64  1  0.25117126  0.75038084  0.32879800  1
  Al0+  Al65  1  0.25337651  0.75127784  0.66132498  1
  Al0+  Al66  1  0.74670950  0.25094036  -0.00617171  1
  Al0+  Al67  1  0.74894185  0.25063123  0.32460310  1
  Al0+  Al68  1  0.74772572  0.25207162  0.66376377  1
  Al0+  Al69  1  0.75095962  0.74915052  0.00294191  1
  Al0+  Al70  1  0.75024426  0.74984380  0.34677497  1
  Al0+  Al71  1  0.74979486  0.74724700  0.67129544  1
  Al0+  Al72  1  0.67679305  0.92868783  0.68372949  1
  Al0+  Al73  1  0.82220649  0.07222490  0.67913444  1
  Al0+  Al74  1  0.43315114  0.82049945  0.65239017  1
  Al0+  Al75  1  0.82279424  0.56889689  0.34848814  1
  Al0+  Al76  1  0.92977898  0.31812434  0.98516190  1
  Al0+  Al77  1  0.92919962  0.31930513  0.31575978  1
  Al0+  Al78  1  0.67852650  0.93059649  0.34896993  1
  Al0+  Al79  1  0.67989785  0.92914899  0.01622042  1
  Al0+  Al80  1  0.07346154  0.17589509  0.65370590  1
  Al0+  Al81  1  0.82131343  0.56788299  0.01233984  1
  Al0+  Al82  1  0.56925241  0.17750329  0.31780031  1
  Al0+  Al83  1  0.82196839  0.07488375  0.01583121  1
  Al0+  Al84  1  0.07154446  0.17506439  0.31701440  1
  Al0+  Al85  1  0.31732549  0.07074942  0.34806160  1
  Al0+  Al86  1  0.07045660  0.67960133  0.98579992  1
  Al0+  Al87  1  0.42829304  0.32474331  0.31994658  1
  Al0+  Al88  1  0.06907992  0.68106359  0.31908082  1
  Al0+  Al89  1  0.32265746  0.57269027  0.34702982  1
  Al0+  Al90  1  0.43047832  0.81985317  0.31810851  1
  Al0+  Al91  1  0.56785530  0.17869034  0.98369907  1
  Al0+  Al92  1  0.31810665  0.07026149  0.01402900  1
  Al0+  Al93  1  0.92696110  0.31833047  0.64997277  1
  Al0+  Al94  1  0.06997988  0.68024938  0.65165327  1
  Al0+  Al95  1  0.57306145  0.67869050  0.98795654  1
  Si0+  Si96  1  0.56727753  0.18088308  0.65213509  1
  Si0+  Si97  1  0.42781632  0.32445098  0.65395541  1
  Si0+  Si98  1  0.32138605  0.57329029  0.68329222  1
  Si0+  Si99  1  0.67650502  0.43011061  0.68269290  1
  Si0+  Si100  1  0.92396405  0.82116923  0.31811921  1
  Si0+  Si101  1  0.18057500  0.43107511  0.68335553  1
  Si0+  Si102  1  0.57459973  0.67515482  0.64862872  1
  Si0+  Si103  1  0.07371551  0.17679529  0.98503239  1
  Si0+  Si104  1  0.92753566  0.82304801  0.98454642  1
  Si0+  Si105  1  0.57495923  0.67822032  0.31958164  1
  Si0+  Si106  1  0.32174751  0.57177116  0.01363953  1
  Si0+  Si107  1  0.67843261  0.42671363  0.34932226  1
  Si0+  Si108  1  0.17715702  0.92610464  0.34977027  1
  Si0+  Si109  1  0.82394278  0.56761916  0.68217343  1
  Si0+  Si110  1  0.82296445  0.07365256  0.34734664  1
  Si0+  Si111  1  0.42531126  0.32364198  0.98258089  1
  Si0+  Si112  1  0.42914231  0.82133717  0.98264844  1
  Si0+  Si113  1  0.31871324  0.07314408  0.68073937  1
  Si0+  Si114  1  0.67418709  0.42813389  0.01651356  1
  Si0+  Si115  1  0.17791506  0.92394749  0.01679173  1
  Si0+  Si116  1  0.17931785  0.43123200  0.01591207  1
  Si0+  Si117  1  0.18055559  0.92551155  0.68059782  1
  Si0+  Si118  1  0.92611329  0.82238998  0.65162933  1
  Si0+  Si119  1  0.17871944  0.42982777  0.35303634  1
  O2-  O120  1  0.24174651  -0.00284943  0.06005253  1
  O2-  O121  1  0.23895056  0.00033057  0.39595589  1
  O2-  O122  1  0.24496296  0.00381758  0.72173702  1
  O2-  O123  1  0.25207770  0.50087375  0.05703404  1
  O2-  O124  1  0.25063354  0.49650640  0.39637281  1
  O2-  O125  1  0.25067115  0.50288782  0.72710241  1
  O2-  O126  1  0.75199818  0.00108357  0.06604099  1
  O2-  O127  1  0.75471383  0.00540050  0.39314910  1
  O2-  O128  1  0.75345578  -0.00261491  0.73056625  1
  O2-  O129  1  0.74377962  0.49627117  0.05971922  1
  O2-  O130  1  0.74947833  0.49246107  0.39529872  1
  O2-  O131  1  0.75032421  0.49894892  0.72405467  1
  O2-  O132  1  -0.00477757  0.24164413  0.26626782  1
  O2-  O133  1  -0.00648493  0.23915779  0.60430749  1
  O2-  O134  1  -0.00199850  0.23649359  0.93947898  1
  O2-  O135  1  -0.00695736  0.75361981  0.27210754  1
  O2-  O136  1  -0.00604614  0.75344665  0.60564294  1
  O2-  O137  1  -0.00169695  0.75639055  0.93896473  1
  O2-  O138  1  0.49620660  0.25007791  0.26924410  1
  O2-  O139  1  0.49614949  0.25217910  0.61102762  1
  O2-  O140  1  0.49214325  0.25394015  0.93693966  1
  O2-  O141  1  0.50626096  0.74552533  0.27370630  1
  O2-  O142  1  0.51085294  0.74864189  0.60577311  1
  O2-  O143  1  0.49988841  0.75422692  0.93944540  1
  O2-  O144  1  0.07815083  0.18255665  0.08979486  1
  O2-  O145  1  0.07099592  0.17855897  0.43072047  1
  O2-  O146  1  0.08118271  0.18280591  0.76701757  1
  O2-  O147  1  0.07224635  0.67907046  0.09839941  1
  O2-  O148  1  0.06952759  0.68252711  0.43243332  1
  O2-  O149  1  0.06953493  0.67987532  0.76501237  1
  O2-  O150  1  0.56556331  0.17879496  0.09595660  1
  O2-  O151  1  0.56810046  0.17917678  0.43240848  1
  O2-  O152  1  0.56553926  0.18133802  0.75724862  1
  O2-  O153  1  0.56930555  0.67638988  0.10067669  1
  O2-  O154  1  0.57329052  0.67806649  0.42544827  1
  O2-  O155  1  0.57093823  0.66954842  0.75410042  1
  O2-  O156  1  0.17759739  0.43319840  0.24709307  1
  O2-  O157  1  0.18344370  0.43048900  0.57895121  1
  O2-  O158  1  0.18112093  0.43172585  0.91019134  1
  O2-  O159  1  0.18162093  0.92268615  0.24434032  1
  O2-  O160  1  0.18461946  0.91915972  0.57628066  1
  O2-  O161  1  0.18096876  0.92087696  0.91071056  1
  O2-  O162  1  0.67571895  0.42972620  0.24420099  1
  O2-  O163  1  0.67050127  0.43209124  0.57810376  1
  O2-  O164  1  0.67351193  0.43046291  0.91016677  1
  O2-  O165  1  0.67904462  0.92826144  0.23633465  1
  O2-  O166  1  0.67443161  0.93360103  0.57020628  1
  O2-  O167  1  0.68101912  0.93066004  0.90254812  1
  O2-  O168  1  0.42607476  0.32751489  0.08737848  1
  O2-  O169  1  0.43202818  0.32355582  0.43458900  1
  O2-  O170  1  0.42786502  0.32538150  0.75907457  1
  O2-  O171  1  0.42652513  0.81926325  0.08787911  1
  O2-  O172  1  0.43077730  0.81972179  0.43140049  1
  O2-  O173  1  0.43079222  0.81818498  0.76563564  1
  O2-  O174  1  0.93443125  0.32266836  0.09740565  1
  O2-  O175  1  0.93177381  0.31945286  0.42930925  1
  O2-  O176  1  0.93033222  0.32213494  0.76363697  1
  O2-  O177  1  0.92820158  0.82009793  0.08992989  1
  O2-  O178  1  0.92603031  0.81937732  0.42403741  1
  O2-  O179  1  0.92854691  0.82023676  0.75728923  1
  O2-  O180  1  0.31879743  0.06702745  0.23517914  1
  O2-  O181  1  0.32015077  0.07477162  0.57609399  1
  O2-  O182  1  0.31727449  0.06865995  0.89977468  1
  O2-  O183  1  0.32038202  0.57228262  0.23349652  1
  O2-  O184  1  0.32204031  0.57164980  0.57854393  1
  O2-  O185  1  0.32084000  0.57061495  0.90802399  1
  O2-  O186  1  0.82132511  0.07162552  0.24206817  1
  O2-  O187  1  0.81802146  0.07228452  0.56537398  1
  O2-  O188  1  0.82034942  0.07367712  0.90189534  1
  O2-  O189  1  0.82232055  0.56933754  0.23547084  1
  O2-  O190  1  0.82386441  0.56642677  0.57713255  1
  O2-  O191  1  0.82222392  0.56534345  0.89857100  1
  O2-  O192  1  0.05534627  0.07298573  0.26689320  1
  O2-  O193  1  0.06125189  0.07259203  0.60558910  1
  O2-  O194  1  0.06044659  0.07836146  0.94463764  1
  O2-  O195  1  0.04080455  0.58394999  0.26639791  1
  O2-  O196  1  0.04194250  0.58372800  0.59734442  1
  O2-  O197  1  0.03783287  0.58440314  0.93021327  1
  O2-  O198  1  0.53629640  0.08120434  0.26516031  1
  O2-  O199  1  0.53799382  0.08965036  0.60562281  1
  O2-  O200  1  0.53338489  0.08307788  0.92894713  1
  O2-  O201  1  0.55131291  0.58447818  0.27417535  1
  O2-  O202  1  0.54343704  0.58345484  0.60125755  1
  O2-  O203  1  0.54002452  0.58373681  0.92978083  1
  O2-  O204  1  0.16774496  0.21116285  0.26457714  1
  O2-  O205  1  0.16860276  0.21582517  0.59941492  1
  O2-  O206  1  0.16464183  0.21150158  0.93727706  1
  O2-  O207  1  0.16473694  0.71277973  0.26440357  1
  O2-  O208  1  0.16692647  0.71198814  0.59962439  1
  O2-  O209  1  0.16743974  0.70864311  0.92969222  1
  O2-  O210  1  0.66622268  0.20505631  0.26302108  1
  O2-  O211  1  0.65770757  0.20996868  0.60390068  1
  O2-  O212  1  0.66214405  0.21142711  0.92633225  1
  O2-  O213  1  0.66957067  0.70476381  0.27713536  1
  O2-  O214  1  0.67121957  0.69340898  0.60636603  1
  O2-  O215  1  0.67031993  0.70616957  0.93333975  1
  O2-  O216  1  0.08928178  0.46275327  0.06267660  1
  O2-  O217  1  0.08765377  0.46063455  0.40054374  1
  O2-  O218  1  0.08862180  0.46032037  0.73002862  1
  O2-  O219  1  0.08277450  0.94121554  0.06211585  1
  O2-  O220  1  0.08006963  0.94183715  0.39305495  1
  O2-  O221  1  0.08682562  0.94307315  0.72853217  1
  O2-  O222  1  0.58002198  0.45387973  0.06099114  1
  O2-  O223  1  0.58703421  0.45499465  0.39969063  1
  O2-  O224  1  0.58637912  0.45942993  0.73409624  1
  O2-  O225  1  0.58019183  0.95729138  0.06581715  1
  O2-  O226  1  0.58266651  0.96423122  0.40257727  1
  O2-  O227  1  0.57928898  0.96169904  0.73678293  1
  O2-  O228  1  0.20487764  0.34017615  0.06511081  1
  O2-  O229  1  0.20183592  0.33616266  0.39958367  1
  O2-  O230  1  0.21044882  0.34112467  0.73437958  1
  O2-  O231  1  0.20921000  0.83180834  0.06349715  1
  O2-  O232  1  0.21060038  0.83535733  0.39741362  1
  O2-  O233  1  0.21727150  0.83738228  0.73149872  1
  O2-  O234  1  0.69787520  0.33366717  0.05915703  1
  O2-  O235  1  0.70151435  0.33146809  0.39377594  1
  O2-  O236  1  0.70136836  0.33715794  0.72893936  1
  O2-  O237  1  0.70704768  0.83034274  0.06895699  1
  O2-  O238  1  0.70728961  0.83534624  0.40757964  1
  O2-  O239  1  0.69787631  0.82612811  0.73218187  1
  O2-  O240  1  0.45861387  0.42288495  0.26720183  1
  O2-  O241  1  0.45674432  0.41658751  0.60780191  1
  O2-  O242  1  0.45067794  0.41644464  0.93346471  1
  O2-  O243  1  0.46097172  0.91568244  0.26455115  1
  O2-  O244  1  0.45956030  0.91870117  0.59876661  1
  O2-  O245  1  0.45297026  0.91497158  0.93648024  1
  O2-  O246  1  0.96566276  0.41583981  0.26418312  1
  O2-  O247  1  0.96484393  0.41345390  0.59635949  1
  O2-  O248  1  0.96868591  0.41134956  0.92881434  1
  O2-  O249  1  0.94612354  0.91462716  0.27098289  1
  O2-  O250  1  0.95117716  0.91577805  0.60564480  1
  O2-  O251  1  0.95177080  0.91796131  0.93958048  1
  O2-  O252  1  0.32767295  0.30441166  0.27044641  1
  O2-  O253  1  0.33537930  0.29988238  0.60752888  1
  O2-  O254  1  0.33039716  0.29843910  0.93801161  1
  O2-  O255  1  0.33563719  0.78817606  0.26231357  1
  O2-  O256  1  0.33875945  0.78676712  0.59639182  1
  O2-  O257  1  0.33691360  0.79298845  0.93427647  1
  O2-  O258  1  0.82916935  0.30043380  0.26275178  1
  O2-  O259  1  0.82590259  0.30005585  0.59783032  1
  O2-  O260  1  0.83062381  0.29712332  0.93154366  1
  O2-  O261  1  0.83012929  0.79272222  0.27520709  1
  O2-  O262  1  0.83152735  0.79650621  0.60743926  1
  O2-  O263  1  0.83568136  0.79463431  0.93714055  1
  O2-  O264  1  0.41328109  0.03706638  0.06751774  1
  O2-  O265  1  0.41244319  0.03652246  0.40292876  1
  O2-  O266  1  0.40895450  0.04098852  0.72887307  1
  O2-  O267  1  0.41389142  0.54492930  0.06013119  1
  O2-  O268  1  0.41959974  0.54495051  0.40310576  1
  O2-  O269  1  0.41328490  0.54482638  0.73129371  1
  O2-  O270  1  0.92328546  0.05301157  0.06614662  1
  O2-  O271  1  0.91781852  0.04893424  0.39174569  1
  O2-  O272  1  0.92336553  0.04926749  0.73090443  1
  O2-  O273  1  0.91775185  0.53361624  0.06479886  1
  O2-  O274  1  0.91955741  0.53683319  0.40208020  1
  O2-  O275  1  0.91594804  0.53693688  0.72791954  1
  O2-  O276  1  0.29097443  0.16811746  0.06738753  1
  O2-  O277  1  0.29135937  0.17016069  0.40026814  1
  O2-  O278  1  0.29407452  0.16574044  0.72927028  1
  O2-  O279  1  0.29376073  0.66403704  0.05916593  1
  O2-  O280  1  0.28775244  0.66841343  0.40068239  1
  O2-  O281  1  0.29297228  0.66502843  0.73003837  1
  O2-  O282  1  0.78927734  0.17358449  0.06489665  1
  O2-  O283  1  0.79735100  0.16870565  0.39038521  1
  O2-  O284  1  0.78920632  0.17092260  0.73014203  1
  O2-  O285  1  0.79515656  0.66504827  0.06634178  1
  O2-  O286  1  0.79217992  0.66295812  0.40789588  1
  O2-  O287  1  0.80007379  0.66046287  0.72959621  1
