# generated using pymatgen
data_Ca2Al2SiO7
_symmetry_space_group_name_H-M   'P 1'
_cell_length_a   15.45324298
_cell_length_b   15.45270472
_cell_length_c   15.27993790
_cell_angle_alpha   90.00385709
_cell_angle_beta   89.98604239
_cell_angle_gamma   89.99571006
_symmetry_Int_Tables_number   1
_chemical_formula_structural   Ca2Al2SiO7
_chemical_formula_sum   'Ca48 Al48 Si24 O168'
_cell_volume   3648.76348833
_cell_formula_units_Z   24
loop_
 _symmetry_equiv_pos_site_id
 _symmetry_equiv_pos_as_xyz
  1  'x, y, z'
loop_
 _atom_type_symbol
 _atom_type_oxidation_number
  Ca2+  2.0
  Al0+  0.0
  Si0+  0.0
  O2-  -2.0
loop_
 _atom_site_type_symbol
 _atom_site_label
 _atom_site_symmetry_multiplicity
 _atom_site_fract_x
 _atom_site_fract_y
 _atom_site_fract_z
 _atom_site_occupancy
  Ca2+  Ca0  1  0.16800700  0.07793694  0.17069570  1
  Ca2+  Ca1  1  0.17792715  0.08241906  0.50413731  1
  Ca2+  Ca2  1  0.17170400  0.07713926  0.83623925  1
  Ca2+  Ca3  1  0.17822442  0.57643178  0.16733764  1
  Ca2+  Ca4  1  0.17036277  0.58669276  0.50243338  1
  Ca2+  Ca5  1  0.17180120  0.58180370  0.84257583  1
  Ca2+  Ca6  1  0.67065032  0.08536667  0.17044662  1
  Ca2+  Ca7  1  0.67212833  0.07503360  0.50674861  1
  Ca2+  Ca8  1  0.66236098  0.07746912  0.83596079  1
  Ca2+  Ca9  1  0.67395875  0.58049268  0.16936799  1
  Ca2+  Ca10  1  0.66848442  0.59218624  0.50049557  1
  Ca2+  Ca11  1  0.67098570  0.57845925  0.84148275  1
  Ca2+  Ca12  1  0.07963860  0.33435751  0.15919712  1
  Ca2+  Ca13  1  0.07726511  0.33297673  0.50038491  1
  Ca2+  Ca14  1  0.07197418  0.34675301  0.83278307  1
  Ca2+  Ca15  1  0.07274933  0.83692849  0.15907804  1
  Ca2+  Ca16  1  0.07560628  0.83003592  0.49831760  1
  Ca2+  Ca17  1  0.07605399  0.82969415  0.82878250  1
  Ca2+  Ca18  1  0.57529741  0.33086002  0.15679407  1
  Ca2+  Ca19  1  0.56901379  0.33450684  0.49491291  1
  Ca2+  Ca20  1  0.57564602  0.33317357  0.83351438  1
  Ca2+  Ca21  1  0.58333191  0.82548298  0.16598679  1
  Ca2+  Ca22  1  0.58596907  0.82646725  0.50261413  1
  Ca2+  Ca23  1  0.57920484  0.82571475  0.82157176  1
  Ca2+  Ca24  1  0.33940905  0.42118861  0.16854703  1
  Ca2+  Ca25  1  0.33872038  0.41857130  0.50233695  1
  Ca2+  Ca26  1  0.33143713  0.42048808  0.84247928  1
  Ca2+  Ca27  1  0.32442224  0.92196277  0.17183862  1
  Ca2+  Ca28  1  0.34341456  0.92924971  0.50886612  1
  Ca2+  Ca29  1  0.33074000  0.91756406  0.83754603  1
  Ca2+  Ca30  1  0.83105900  0.42485697  0.16866523  1
  Ca2+  Ca31  1  0.83260329  0.42271237  0.50571909  1
  Ca2+  Ca32  1  0.83118505  0.42191561  0.84644375  1
  Ca2+  Ca33  1  0.83629509  0.91976252  0.17439384  1
  Ca2+  Ca34  1  0.83300370  0.91472542  0.50378897  1
  Ca2+  Ca35  1  0.83011204  0.90803931  0.83547649  1
  Ca2+  Ca36  1  0.41860532  0.17587895  0.15970106  1
  Ca2+  Ca37  1  0.40750890  0.17431298  0.49490050  1
  Ca2+  Ca38  1  0.41664262  0.17542998  0.82949167  1
  Ca2+  Ca39  1  0.41987840  0.65562260  0.16555078  1
  Ca2+  Ca40  1  0.42874845  0.66703165  0.49370794  1
  Ca2+  Ca41  1  0.42018763  0.66931148  0.82424166  1
  Ca2+  Ca42  1  0.91538950  0.17081962  0.15872057  1
  Ca2+  Ca43  1  0.91284320  0.16967929  0.49617965  1
  Ca2+  Ca44  1  0.91734773  0.18140582  0.83108109  1
  Ca2+  Ca45  1  0.90843459  0.67459158  0.16179692  1
  Ca2+  Ca46  1  0.91733069  0.67679203  0.49574796  1
  Ca2+  Ca47  1  0.92094319  0.67233927  0.82694053  1
  Al0+  Al48  1  -0.00078177  -0.00031423  -0.00295994  1
  Al0+  Al49  1  -0.00088863  0.00047725  0.33552982  1
  Al0+  Al50  1  0.00131105  0.00252802  0.66492249  1
  Al0+  Al51  1  0.00227433  0.50278750  0.00583959  1
  Al0+  Al52  1  -0.00040128  0.50112168  0.33774892  1
  Al0+  Al53  1  0.00065245  0.50030320  0.65762316  1
  Al0+  Al54  1  0.50097588  -0.00100105  -0.00122502  1
  Al0+  Al55  1  0.49983542  -0.00092262  0.33686893  1
  Al0+  Al56  1  0.50293517  0.00104330  0.67426085  1
  Al0+  Al57  1  0.50244858  0.49887257  0.00184932  1
  Al0+  Al58  1  0.49941791  0.49937380  0.32915667  1
  Al0+  Al59  1  0.50104827  0.49830085  0.65978462  1
  Al0+  Al60  1  0.24985604  0.24897209  -0.00101781  1
  Al0+  Al61  1  0.24696151  0.24921816  0.33150118  1
  Al0+  Al62  1  0.24906096  0.25079319  0.66930891  1
  Al0+  Al63  1  0.24936791  0.75142699  0.01062049  1
  Al0+  Al64  1  0.24876412  0.74799250  0.33786535  1
  Al0+  Al65  1  0.25054435  0.75207969  0.65899417  1
  Al0+  Al66  1  0.74979231  0.24839993  -0.00517165  1
  Al0+  Al67  1  0.74844525  0.24997486  0.33898589  1
  Al0+  Al68  1  0.74955136  0.25078217  0.66310336  1
  Al0+  Al69  1  0.74841423  0.75151614  -0.00029012  1
  Al0+  Al70  1  0.74937146  0.74890672  0.32801937  1
  Al0+  Al71  1  0.75119654  0.75014808  0.66553229  1
  Al0+  Al72  1  0.92812367  0.82137157  0.98554470  1
  Al0+  Al73  1  0.68315013  0.92888527  0.68172724  1
  Al0+  Al74  1  0.92906924  0.82212253  0.65147845  1
  Al0+  Al75  1  0.93175337  0.81969533  0.31801369  1
  Al0+  Al76  1  0.42833567  0.31851570  0.65231484  1
  Al0+  Al77  1  0.42902209  0.82386562  0.65319210  1
  Al0+  Al78  1  0.42785473  0.31840167  0.31810014  1
  Al0+  Al79  1  0.32202519  0.56884572  0.35040378  1
  Al0+  Al80  1  0.42831626  0.32219218  0.98355542  1
  Al0+  Al81  1  0.31970058  0.06996204  0.34548703  1
  Al0+  Al82  1  0.56936566  0.68066220  0.31646991  1
  Al0+  Al83  1  0.82020892  0.57169863  0.34927404  1
  Al0+  Al84  1  0.93148517  0.32275505  0.98981003  1
  Al0+  Al85  1  0.82103258  0.07184522  0.34656310  1
  Al0+  Al86  1  0.07280677  0.67786860  0.65132160  1
  Al0+  Al87  1  0.57192288  0.17664747  0.98394517  1
  Al0+  Al88  1  0.92772597  0.32098794  0.65198198  1
  Al0+  Al89  1  0.17772674  0.93028162  0.01311942  1
  Al0+  Al90  1  0.32127513  0.07241900  0.68296208  1
  Al0+  Al91  1  0.57062359  0.67747132  0.65270601  1
  Al0+  Al92  1  0.32294367  0.57114913  0.01320477  1
  Al0+  Al93  1  0.17829230  0.42677823  0.01423761  1
  Al0+  Al94  1  0.68023688  0.42590787  0.01437612  1
  Al0+  Al95  1  0.82127755  0.57334255  0.01381481  1
  Si0+  Si96  1  0.32335540  0.07088743  0.01676824  1
  Si0+  Si97  1  0.17842550  0.43048506  0.68063823  1
  Si0+  Si98  1  0.82159115  0.56919785  0.68054205  1
  Si0+  Si99  1  0.57014942  0.68002931  0.98552912  1
  Si0+  Si100  1  0.67764660  0.92840755  0.01620547  1
  Si0+  Si101  1  0.67842513  0.92691617  0.34942589  1
  Si0+  Si102  1  0.82415560  0.07473499  0.68569891  1
  Si0+  Si103  1  0.07222690  0.17627404  0.98305678  1
  Si0+  Si104  1  0.57280228  0.17608333  0.31897704  1
  Si0+  Si105  1  0.17713296  0.42713280  0.35264434  1
  Si0+  Si106  1  0.17746336  0.92741242  0.68297268  1
  Si0+  Si107  1  0.06852581  0.18000605  0.31844643  1
  Si0+  Si108  1  0.32228155  0.57079420  0.67813889  1
  Si0+  Si109  1  0.82013795  0.06970811  0.01219371  1
  Si0+  Si110  1  0.57226687  0.17724288  0.64860311  1
  Si0+  Si111  1  0.67815593  0.42845905  0.35184611  1
  Si0+  Si112  1  0.07396386  0.68038112  0.98665385  1
  Si0+  Si113  1  0.67808101  0.42823701  0.68079557  1
  Si0+  Si114  1  0.42602903  0.82422125  0.31643002  1
  Si0+  Si115  1  0.42732188  0.82064139  0.98801803  1
  Si0+  Si116  1  0.07389156  0.67585821  0.31316263  1
  Si0+  Si117  1  0.17663048  0.92796348  0.35180119  1
  Si0+  Si118  1  0.07198028  0.17895610  0.64978161  1
  Si0+  Si119  1  0.92686053  0.32195199  0.31908659  1
  O2-  O120  1  0.25169882  0.00533088  0.06086080  1
  O2-  O121  1  0.25141220  -0.00953178  0.39512699  1
  O2-  O122  1  0.24917109  -0.00649095  0.72718130  1
  O2-  O123  1  0.25525835  0.49409874  0.06297412  1
  O2-  O124  1  0.24639038  0.49485059  0.39746035  1
  O2-  O125  1  0.24912706  0.50256910  0.72137529  1
  O2-  O126  1  0.74927086  -0.00050214  0.05653350  1
  O2-  O127  1  0.74622190  -0.00262906  0.39250116  1
  O2-  O128  1  0.75907899  0.00276134  0.72989179  1
  O2-  O129  1  0.75263997  0.49782024  0.06395968  1
  O2-  O130  1  0.74732160  0.49593907  0.39756544  1
  O2-  O131  1  0.75043838  0.49832517  0.72281895  1
  O2-  O132  1  -0.00374416  0.24983450  0.27645518  1
  O2-  O133  1  -0.00062158  0.24342912  0.60494903  1
  O2-  O134  1  0.00998110  0.25218214  0.94108446  1
  O2-  O135  1  0.00603839  0.74549648  0.26922183  1
  O2-  O136  1  0.00161976  0.75100886  0.60162061  1
  O2-  O137  1  0.00219275  0.74524235  0.94129872  1
  O2-  O138  1  0.50250136  0.24214867  0.27420378  1
  O2-  O139  1  0.50108178  0.24262283  0.60376900  1
  O2-  O140  1  0.49927089  0.24840192  0.93442093  1
  O2-  O141  1  0.49148432  0.75342592  0.27033802  1
  O2-  O142  1  0.49786607  0.74924385  0.60294804  1
  O2-  O143  1  0.49496390  0.74713442  0.94488735  1
  O2-  O144  1  0.06780961  0.17206584  0.08895278  1
  O2-  O145  1  0.06950321  0.18154350  0.42351353  1
  O2-  O146  1  0.07193010  0.17935850  0.75521600  1
  O2-  O147  1  0.07522025  0.68361367  0.09202248  1
  O2-  O148  1  0.07273945  0.67720041  0.41879989  1
  O2-  O149  1  0.07167529  0.67555298  0.76530497  1
  O2-  O150  1  0.57039989  0.17406675  0.09803762  1
  O2-  O151  1  0.57367136  0.17723700  0.42444285  1
  O2-  O152  1  0.57325640  0.18020188  0.75397910  1
  O2-  O153  1  0.57187964  0.68326108  0.09066406  1
  O2-  O154  1  0.57016400  0.68345747  0.42934720  1
  O2-  O155  1  0.56895649  0.67641077  0.76683798  1
  O2-  O156  1  0.17547357  0.42684654  0.24733452  1
  O2-  O157  1  0.17878375  0.42823354  0.57552183  1
  O2-  O158  1  0.17579476  0.43288966  0.90018777  1
  O2-  O159  1  0.17432050  0.93223043  0.24596010  1
  O2-  O160  1  0.17508232  0.93099989  0.57751387  1
  O2-  O161  1  0.17960201  0.92998343  0.90002443  1
  O2-  O162  1  0.68139369  0.42630331  0.24646415  1
  O2-  O163  1  0.67880452  0.42793108  0.57562080  1
  O2-  O164  1  0.68049883  0.42969671  0.90003401  1
  O2-  O165  1  0.67806900  0.92835526  0.24335012  1
  O2-  O166  1  0.68413156  0.93055093  0.56840378  1
  O2-  O167  1  0.67755941  0.92648361  0.91136806  1
  O2-  O168  1  0.42974441  0.31929200  0.09728557  1
  O2-  O169  1  0.42823435  0.31718250  0.43158727  1
  O2-  O170  1  0.42902923  0.32113788  0.76478277  1
  O2-  O171  1  0.43043226  0.82382007  0.09309560  1
  O2-  O172  1  0.42982343  0.82656578  0.42164640  1
  O2-  O173  1  0.42813841  0.81937072  0.76761126  1
  O2-  O174  1  0.93069683  0.31780792  0.10324825  1
  O2-  O175  1  0.92865946  0.32033866  0.42433449  1
  O2-  O176  1  0.92936453  0.32343580  0.76511276  1
  O2-  O177  1  0.92858401  0.82413171  0.09870905  1
  O2-  O178  1  0.93316285  0.82032776  0.43085718  1
  O2-  O179  1  0.92975064  0.81846668  0.76523305  1
  O2-  O180  1  0.31571283  0.06918917  0.23243563  1
  O2-  O181  1  0.31758678  0.07362766  0.56946427  1
  O2-  O182  1  0.32318238  0.06820932  0.91116534  1
  O2-  O183  1  0.32133400  0.56608291  0.23757517  1
  O2-  O184  1  0.32249628  0.56704020  0.57318981  1
  O2-  O185  1  0.32056215  0.57525061  0.89890346  1
  O2-  O186  1  0.82074395  0.07264084  0.23302509  1
  O2-  O187  1  0.82137037  0.07582197  0.57988124  1
  O2-  O188  1  0.82078238  0.06900539  0.90736423  1
  O2-  O189  1  0.81894972  0.57024365  0.23641780  1
  O2-  O190  1  0.82030411  0.56804824  0.57528697  1
  O2-  O191  1  0.81937473  0.57349064  0.89949012  1
  O2-  O192  1  0.04131049  0.08806090  0.27113883  1
  O2-  O193  1  0.05162619  0.08491103  0.60220583  1
  O2-  O194  1  0.03899429  0.08710540  0.93268720  1
  O2-  O195  1  0.04749202  0.58102458  0.27041413  1
  O2-  O196  1  0.04427127  0.58176317  0.59378194  1
  O2-  O197  1  0.05250774  0.58548388  0.94200639  1
  O2-  O198  1  0.55111507  0.08074668  0.27418273  1
  O2-  O199  1  0.55050740  0.08197113  0.60580657  1
  O2-  O200  1  0.54335175  0.07756934  0.93070848  1
  O2-  O201  1  0.53971012  0.58361059  0.26321814  1
  O2-  O202  1  0.54369508  0.58081576  0.59592612  1
  O2-  O203  1  0.54801264  0.58666803  0.93968843  1
  O2-  O204  1  0.15837790  0.20846088  0.26769444  1
  O2-  O205  1  0.16299215  0.21089404  0.60229499  1
  O2-  O206  1  0.16832809  0.19282005  0.93944955  1
  O2-  O207  1  0.16920193  0.69959048  0.26958824  1
  O2-  O208  1  0.17011659  0.70528479  0.59533326  1
  O2-  O209  1  0.16669700  0.71037522  0.94048616  1
  O2-  O210  1  0.66646733  0.20393638  0.27297877  1
  O2-  O211  1  0.66520462  0.20399752  0.60137163  1
  O2-  O212  1  0.66981791  0.20235847  0.92871451  1
  O2-  O213  1  0.66401014  0.71369699  0.26016753  1
  O2-  O214  1  0.66831461  0.70836157  0.60050122  1
  O2-  O215  1  0.65938634  0.71300905  0.93647058  1
  O2-  O216  1  0.08315531  0.45830773  0.07230217  1
  O2-  O217  1  0.08401506  0.45365157  0.40029842  1
  O2-  O218  1  0.08558305  0.45952814  0.72591786  1
  O2-  O219  1  0.08142265  0.96366532  0.06727331  1
  O2-  O220  1  0.08657585  0.96155897  0.39989795  1
  O2-  O221  1  0.08489098  0.95710319  0.73029476  1
  O2-  O222  1  0.58319049  0.45523205  0.06843914  1
  O2-  O223  1  0.58460641  0.45636507  0.39579182  1
  O2-  O224  1  0.58638465  0.45772981  0.72759546  1
  O2-  O225  1  0.58617097  0.95591724  0.06505481  1
  O2-  O226  1  0.58481335  0.95033834  0.39679364  1
  O2-  O227  1  0.58779892  0.95952994  0.73897523  1
  O2-  O228  1  0.19785451  0.32479195  0.06458793  1
  O2-  O229  1  0.20116947  0.33263668  0.39765381  1
  O2-  O230  1  0.20472948  0.33942536  0.72952079  1
  O2-  O231  1  0.20828007  0.83713681  0.07326552  1
  O2-  O232  1  0.19384482  0.83159003  0.39442727  1
  O2-  O233  1  0.20080041  0.83234622  0.72729106  1
  O2-  O234  1  0.70743308  0.32649401  0.06574554  1
  O2-  O235  1  0.70192372  0.33499749  0.40010409  1
  O2-  O236  1  0.70459188  0.33546271  0.72686864  1
  O2-  O237  1  0.70600388  0.83783667  0.06516529  1
  O2-  O238  1  0.70751876  0.83456377  0.39422559  1
  O2-  O239  1  0.71278313  0.83155583  0.73668515  1
  O2-  O240  1  0.46086836  0.41384862  0.26482245  1
  O2-  O241  1  0.46192744  0.41301658  0.59586210  1
  O2-  O242  1  0.45873096  0.42082225  0.93135787  1
  O2-  O243  1  0.45406768  0.91720724  0.26891253  1
  O2-  O244  1  0.46256037  0.92207586  0.60314213  1
  O2-  O245  1  0.45720709  0.91083324  0.93886927  1
  O2-  O246  1  0.95617588  0.41411880  0.27395699  1
  O2-  O247  1  0.96205144  0.41410028  0.59407682  1
  O2-  O248  1  0.96022480  0.42094631  0.93665934  1
  O2-  O249  1  0.96214246  0.91828815  0.26620515  1
  O2-  O250  1  0.95438811  0.92275477  0.60108767  1
  O2-  O251  1  0.95968050  0.91703377  0.93035778  1
  O2-  O252  1  0.33024672  0.28858793  0.26574489  1
  O2-  O253  1  0.33041827  0.28955366  0.59981493  1
  O2-  O254  1  0.32820385  0.29568717  0.93208147  1
  O2-  O255  1  0.32956654  0.80162372  0.27488117  1
  O2-  O256  1  0.33003472  0.80437138  0.59880713  1
  O2-  O257  1  0.33371759  0.79568216  0.94335345  1
  O2-  O258  1  0.83380804  0.29465911  0.27450339  1
  O2-  O259  1  0.83121762  0.29245518  0.59640461  1
  O2-  O260  1  0.83749853  0.28862826  0.93314881  1
  O2-  O261  1  0.83467403  0.79044066  0.26444137  1
  O2-  O262  1  0.83222312  0.79160096  0.59777815  1
  O2-  O263  1  0.83063047  0.79148206  0.93293157  1
  O2-  O264  1  0.41573789  0.04143107  0.06328901  1
  O2-  O265  1  0.41803712  0.04522283  0.40012951  1
  O2-  O266  1  0.41864673  0.04614839  0.73674051  1
  O2-  O267  1  0.42170070  0.54520721  0.06603030  1
  O2-  O268  1  0.41911114  0.53640949  0.40242895  1
  O2-  O269  1  0.41382497  0.54045336  0.72481005  1
  O2-  O270  1  0.91165306  0.04212026  0.06045009  1
  O2-  O271  1  0.91722668  0.04238028  0.40219871  1
  O2-  O272  1  0.92046223  0.05521923  0.72856673  1
  O2-  O273  1  0.92031673  0.55101355  0.06711401  1
  O2-  O274  1  0.91730117  0.54243345  0.40351924  1
  O2-  O275  1  0.91440327  0.53974238  0.72498428  1
  O2-  O276  1  0.30022741  0.16551817  0.06096034  1
  O2-  O277  1  0.28220433  0.16473452  0.39948221  1
  O2-  O278  1  0.28481252  0.16711884  0.73790295  1
  O2-  O279  1  0.29294562  0.66694267  0.07141764  1
  O2-  O280  1  0.29390977  0.66719076  0.40338927  1
  O2-  O281  1  0.29793270  0.66526040  0.72196635  1
  O2-  O282  1  0.79290155  0.16117431  0.06036355  1
  O2-  O283  1  0.79130391  0.16762845  0.40383490  1
  O2-  O284  1  0.79445229  0.16823996  0.73057824  1
  O2-  O285  1  0.78610632  0.66986844  0.06748909  1
  O2-  O286  1  0.78616886  0.66837867  0.40094984  1
  O2-  O287  1  0.79535860  0.66128051  0.72726938  1
