# generated using pymatgen
data_Ca2Al2SiO7
_symmetry_space_group_name_H-M   'P 1'
_cell_length_a   15.46862528
_cell_length_b   15.46861025
_cell_length_c   15.29122924
_cell_angle_alpha   89.99126135
_cell_angle_beta   89.98675722
_cell_angle_gamma   90.04731791
_symmetry_Int_Tables_number   1
_chemical_formula_structural   Ca2Al2SiO7
_chemical_formula_sum   'Ca48 Al48 Si24 O168'
_cell_volume   3658.85543519
_cell_formula_units_Z   24
loop_
 _symmetry_equiv_pos_site_id
 _symmetry_equiv_pos_as_xyz
  1  'x, y, z'
loop_
 _atom_type_symbol
 _atom_type_oxidation_number
  Ca2+  2.0
  Al0+  0.0
  Si0+  0.0
  O2-  -2.0
loop_
 _atom_site_type_symbol
 _atom_site_label
 _atom_site_symmetry_multiplicity
 _atom_site_fract_x
 _atom_site_fract_y
 _atom_site_fract_z
 _atom_site_occupancy
  Ca2+  Ca0  1  0.17136550  0.07991553  0.17895109  1
  Ca2+  Ca1  1  0.17179672  0.08369625  0.49601676  1
  Ca2+  Ca2  1  0.17357150  0.08619486  0.83135869  1
  Ca2+  Ca3  1  0.17444949  0.57655188  0.17219237  1
  Ca2+  Ca4  1  0.17899876  0.58236653  0.50723438  1
  Ca2+  Ca5  1  0.16978315  0.57060971  0.83552788  1
  Ca2+  Ca6  1  0.67785094  0.07852471  0.17722538  1
  Ca2+  Ca7  1  0.67615345  0.07165266  0.50685941  1
  Ca2+  Ca8  1  0.67667387  0.07919993  0.83517484  1
  Ca2+  Ca9  1  0.66915751  0.58485562  0.17426847  1
  Ca2+  Ca10  1  0.67108551  0.57838564  0.49929368  1
  Ca2+  Ca11  1  0.67414700  0.58382729  0.83284301  1
  Ca2+  Ca12  1  0.08574973  0.32725776  0.16357932  1
  Ca2+  Ca13  1  0.08389273  0.32887777  0.49587019  1
  Ca2+  Ca14  1  0.08555879  0.33692071  0.82707068  1
  Ca2+  Ca15  1  0.07868272  0.83608669  0.16927700  1
  Ca2+  Ca16  1  0.07108975  0.83772643  0.49194880  1
  Ca2+  Ca17  1  0.07411902  0.82753990  0.82334104  1
  Ca2+  Ca18  1  0.57841269  0.33606146  0.16281131  1
  Ca2+  Ca19  1  0.58016746  0.34187021  0.49711405  1
  Ca2+  Ca20  1  0.57274305  0.33805259  0.82498842  1
  Ca2+  Ca21  1  0.59232167  0.82226306  0.16740600  1
  Ca2+  Ca22  1  0.58988108  0.82941174  0.49212781  1
  Ca2+  Ca23  1  0.59013909  0.82706302  0.82874474  1
  Ca2+  Ca24  1  0.33242262  0.41724716  0.16889070  1
  Ca2+  Ca25  1  0.33108260  0.42646047  0.50758712  1
  Ca2+  Ca26  1  0.32832477  0.41173989  0.83195189  1
  Ca2+  Ca27  1  0.32503162  0.92240084  0.18011969  1
  Ca2+  Ca28  1  0.32976226  0.92675827  0.50326078  1
  Ca2+  Ca29  1  0.33623063  0.92357937  0.83318099  1
  Ca2+  Ca30  1  0.82516660  0.43106246  0.17679413  1
  Ca2+  Ca31  1  0.82076371  0.42381847  0.50734561  1
  Ca2+  Ca32  1  0.83015870  0.42752161  0.83856162  1
  Ca2+  Ca33  1  0.83075643  0.92362818  0.17657325  1
  Ca2+  Ca34  1  0.82976083  0.91794986  0.50227820  1
  Ca2+  Ca35  1  0.83374873  0.92199843  0.83025065  1
  Ca2+  Ca36  1  0.41746006  0.17087387  0.16120237  1
  Ca2+  Ca37  1  0.41023466  0.17115984  0.49712902  1
  Ca2+  Ca38  1  0.41527139  0.17740211  0.82373271  1
  Ca2+  Ca39  1  0.42919384  0.66130547  0.16486580  1
  Ca2+  Ca40  1  0.42121938  0.66102487  0.49103160  1
  Ca2+  Ca41  1  0.42389955  0.66210205  0.82769911  1
  Ca2+  Ca42  1  0.92058040  0.15936523  0.16573268  1
  Ca2+  Ca43  1  0.91952743  0.16164306  0.49067228  1
  Ca2+  Ca44  1  0.91736411  0.16150859  0.82683797  1
  Ca2+  Ca45  1  0.90495587  0.67248385  0.16570772  1
  Ca2+  Ca46  1  0.90513141  0.67561613  0.49538942  1
  Ca2+  Ca47  1  0.91068938  0.66868014  0.82347227  1
  Al0+  Al48  1  0.00100395  -0.00056310  0.00037379  1
  Al0+  Al49  1  0.00183512  0.00020904  0.32913716  1
  Al0+  Al50  1  0.00073228  -0.00152826  0.66459723  1
  Al0+  Al51  1  0.00114911  0.49947055  0.01008101  1
  Al0+  Al52  1  0.00017332  0.50105544  0.33513636  1
  Al0+  Al53  1  0.00183834  0.49965108  0.66941284  1
  Al0+  Al54  1  0.50080955  -0.00054593  0.00019795  1
  Al0+  Al55  1  0.49970810  0.00223909  0.33790159  1
  Al0+  Al56  1  0.50042260  -0.00062704  0.67534528  1
  Al0+  Al57  1  0.49951713  0.50051823  -0.01095773  1
  Al0+  Al58  1  0.49859619  0.50052901  0.33331537  1
  Al0+  Al59  1  0.49962397  0.50019542  0.66773679  1
  Al0+  Al60  1  0.24925649  0.24895638  -0.00057036  1
  Al0+  Al61  1  0.24837272  0.25049697  0.33013912  1
  Al0+  Al62  1  0.25063438  0.24966214  0.66723476  1
  Al0+  Al63  1  0.24914703  0.74947853  -0.00143620  1
  Al0+  Al64  1  0.24821789  0.75053064  0.33947869  1
  Al0+  Al65  1  0.25113952  0.75023024  0.67073555  1
  Al0+  Al66  1  0.75162358  0.25011222  0.00372012  1
  Al0+  Al67  1  0.74811960  0.25168670  0.33782427  1
  Al0+  Al68  1  0.74918720  0.24887680  0.67314115  1
  Al0+  Al69  1  0.74987471  0.75125041  -0.00345663  1
  Al0+  Al70  1  0.74943721  0.75037405  0.32926251  1
  Al0+  Al71  1  0.74924126  0.75054422  0.66788623  1
  Al0+  Al72  1  0.67693537  0.42912712  0.34644611  1
  Al0+  Al73  1  0.82394763  0.07071237  0.68106553  1
  Al0+  Al74  1  0.17818677  0.92842403  0.34848704  1
  Al0+  Al75  1  0.18033485  0.42756526  0.01620515  1
  Al0+  Al76  1  0.67882675  0.92861874  0.34659243  1
  Al0+  Al77  1  0.93041464  0.81854283  0.31786540  1
  Al0+  Al78  1  0.67751460  0.42748307  0.68340585  1
  Al0+  Al79  1  0.32248895  0.57329930  0.68323359  1
  Al0+  Al80  1  0.81997774  0.57180988  0.01469617  1
  Al0+  Al81  1  0.67880696  0.92801516  0.68320254  1
  Al0+  Al82  1  0.82237619  0.07169839  0.34727124  1
  Al0+  Al83  1  0.32008565  0.07039102  0.68101795  1
  Al0+  Al84  1  0.82200162  0.57286607  0.34801583  1
  Al0+  Al85  1  0.32186789  0.07385070  0.34692894  1
  Al0+  Al86  1  0.43015228  0.31964724  0.64950000  1
  Al0+  Al87  1  0.42919262  0.31805028  0.98506245  1
  Al0+  Al88  1  0.82003092  0.57028004  0.68023125  1
  Al0+  Al89  1  0.31996089  0.57003318  0.34376518  1
  Al0+  Al90  1  0.57097123  0.68138482  0.98350269  1
  Al0+  Al91  1  0.06866482  0.18203159  0.31877099  1
  Al0+  Al92  1  0.18019375  0.42863478  0.67978719  1
  Al0+  Al93  1  0.92971080  0.81894636  0.65157321  1
  Al0+  Al94  1  0.56804501  0.68026923  0.32057126  1
  Al0+  Al95  1  0.82203375  0.07095324  0.01547970  1
  Si0+  Si96  1  0.42979971  0.31994239  0.31810231  1
  Si0+  Si97  1  0.67596687  0.42894307  0.01532612  1
  Si0+  Si98  1  0.57272573  0.17590582  0.65020879  1
  Si0+  Si99  1  0.17970156  0.92781928  0.01354245  1
  Si0+  Si100  1  0.42734763  0.82354289  0.65181922  1
  Si0+  Si101  1  0.42497318  0.82335531  0.98340278  1
  Si0+  Si102  1  0.93032213  0.32242806  0.98680199  1
  Si0+  Si103  1  0.67788478  0.92855380  0.01766090  1
  Si0+  Si104  1  0.92750515  0.32224817  0.65391511  1
  Si0+  Si105  1  0.32049117  0.07006473  0.01394823  1
  Si0+  Si106  1  0.57459954  0.17625543  0.98360428  1
  Si0+  Si107  1  0.07028025  0.17929388  0.65152684  1
  Si0+  Si108  1  0.07249418  0.67673893  0.98548629  1
  Si0+  Si109  1  0.07386507  0.67658572  0.65020168  1
  Si0+  Si110  1  0.92464437  0.32478744  0.31682847  1
  Si0+  Si111  1  0.17768330  0.92800315  0.68436732  1
  Si0+  Si112  1  0.07553354  0.67577374  0.31587823  1
  Si0+  Si113  1  0.32287131  0.57238774  0.01625861  1
  Si0+  Si114  1  0.93154714  0.82016516  0.98384922  1
  Si0+  Si115  1  0.56898911  0.68098651  0.64972370  1
  Si0+  Si116  1  0.17787725  0.42709446  0.34883161  1
  Si0+  Si117  1  0.57241078  0.17746059  0.31927283  1
  Si0+  Si118  1  0.42562164  0.82485686  0.31929358  1
  Si0+  Si119  1  0.06941709  0.17851067  0.98302994  1
  O2-  O120  1  0.25468146  -0.00543015  0.05538452  1
  O2-  O121  1  0.25318153  -0.00157331  0.39591858  1
  O2-  O122  1  0.24733740  -0.00520974  0.73006230  1
  O2-  O123  1  0.25602523  0.50216502  0.06088995  1
  O2-  O124  1  0.24152871  0.50030148  0.39132316  1
  O2-  O125  1  0.25056463  0.50084915  0.73196955  1
  O2-  O126  1  0.74355411  0.00018087  0.06079246  1
  O2-  O127  1  0.75025286  0.00052366  0.39657533  1
  O2-  O128  1  0.75063939  0.00086064  0.73209135  1
  O2-  O129  1  0.74377885  0.49792249  0.05980252  1
  O2-  O130  1  0.75363649  0.49648364  0.39507861  1
  O2-  O131  1  0.75237747  0.49622002  0.73332282  1
  O2-  O132  1  -0.00757150  0.25516881  0.27108535  1
  O2-  O133  1  -0.00419614  0.24800038  0.61164517  1
  O2-  O134  1  -0.00180619  0.24922631  0.94140477  1
  O2-  O135  1  0.00350390  0.74110717  0.27084396  1
  O2-  O136  1  0.00408353  0.74329643  0.60556598  1
  O2-  O137  1  -0.00080046  0.74530614  0.94252616  1
  O2-  O138  1  0.50061805  0.24830797  0.27647943  1
  O2-  O139  1  0.50665092  0.24615329  0.60343958  1
  O2-  O140  1  0.50609864  0.24475048  0.93893158  1
  O2-  O141  1  0.49414127  0.75687104  0.27351962  1
  O2-  O142  1  0.49607851  0.75122417  0.60890532  1
  O2-  O143  1  0.49439738  0.75597317  0.93846647  1
  O2-  O144  1  0.07065244  0.17739755  0.08777865  1
  O2-  O145  1  0.07143196  0.18485671  0.43192017  1
  O2-  O146  1  0.07081810  0.17879404  0.75732019  1
  O2-  O147  1  0.07701177  0.68021184  0.09008295  1
  O2-  O148  1  0.07889909  0.67663377  0.42094242  1
  O2-  O149  1  0.07366899  0.67872356  0.75647681  1
  O2-  O150  1  0.57188251  0.17549238  0.08943392  1
  O2-  O151  1  0.57252314  0.17645933  0.42372518  1
  O2-  O152  1  0.56925427  0.17634213  0.75619603  1
  O2-  O153  1  0.56984662  0.68170539  0.09667693  1
  O2-  O154  1  0.56621551  0.67891859  0.43339719  1
  O2-  O155  1  0.56913265  0.68306010  0.75525687  1
  O2-  O156  1  0.18153977  0.42511374  0.24292290  1
  O2-  O157  1  0.18084279  0.42876607  0.56630567  1
  O2-  O158  1  0.17953872  0.42780571  0.90366234  1
  O2-  O159  1  0.18014228  0.93020815  0.23375744  1
  O2-  O160  1  0.17760290  0.92920108  0.57947503  1
  O2-  O161  1  0.17827171  0.92951841  0.90849096  1
  O2-  O162  1  0.67466713  0.43079302  0.23228988  1
  O2-  O163  1  0.67785697  0.43022224  0.57009366  1
  O2-  O164  1  0.67869961  0.42826499  0.91014819  1
  O2-  O165  1  0.68008537  0.93038068  0.23244678  1
  O2-  O166  1  0.67880117  0.92776314  0.57015501  1
  O2-  O167  1  0.67866859  0.92857863  0.91226577  1
  O2-  O168  1  0.42916576  0.31626217  0.09883464  1
  O2-  O169  1  0.42881718  0.32016069  0.42281726  1
  O2-  O170  1  0.42874114  0.31614137  0.76280459  1
  O2-  O171  1  0.42146934  0.82400064  0.08860290  1
  O2-  O172  1  0.42589484  0.82401276  0.42474957  1
  O2-  O173  1  0.42783229  0.82288839  0.75729421  1
  O2-  O174  1  0.93314349  0.32118642  0.09151950  1
  O2-  O175  1  0.92735897  0.32461447  0.42244599  1
  O2-  O176  1  0.93078800  0.32291933  0.75943158  1
  O2-  O177  1  0.93302444  0.82160934  0.08873135  1
  O2-  O178  1  0.93078708  0.81856275  0.43062160  1
  O2-  O179  1  0.93301291  0.81881474  0.76565813  1
  O2-  O180  1  0.31990354  0.07383761  0.23240729  1
  O2-  O181  1  0.31729614  0.07050306  0.56863496  1
  O2-  O182  1  0.31768736  0.07058136  0.90891847  1
  O2-  O183  1  0.32136596  0.56583517  0.23024383  1
  O2-  O184  1  0.32121885  0.57274892  0.56950819  1
  O2-  O185  1  0.31975891  0.57453396  0.91121583  1
  O2-  O186  1  0.82040600  0.06964475  0.23318710  1
  O2-  O187  1  0.82544881  0.06972703  0.56828208  1
  O2-  O188  1  0.82468158  0.06787850  0.90276493  1
  O2-  O189  1  0.81750481  0.57238540  0.23389942  1
  O2-  O190  1  0.81763932  0.57023688  0.56730864  1
  O2-  O191  1  0.82160566  0.57050273  0.90185600  1
  O2-  O192  1  0.04181912  0.08549777  0.26201416  1
  O2-  O193  1  0.04596154  0.08671096  0.60458381  1
  O2-  O194  1  0.04208504  0.08641757  0.93489711  1
  O2-  O195  1  0.05488901  0.58001262  0.27074553  1
  O2-  O196  1  0.05277408  0.58160212  0.60564191  1
  O2-  O197  1  0.04594178  0.58301676  0.94181558  1
  O2-  O198  1  0.54421252  0.08640971  0.26926037  1
  O2-  O199  1  0.54420399  0.08178766  0.60710705  1
  O2-  O200  1  0.54975460  0.08191413  0.93804186  1
  O2-  O201  1  0.53369500  0.58495884  0.26430996  1
  O2-  O202  1  0.54172731  0.58872889  0.60400843  1
  O2-  O203  1  0.54172267  0.58575343  0.92702046  1
  O2-  O204  1  0.16456462  0.21449481  0.26148838  1
  O2-  O205  1  0.16053562  0.21049960  0.60396127  1
  O2-  O206  1  0.16123503  0.20672379  0.93570106  1
  O2-  O207  1  0.16784074  0.70568525  0.26766525  1
  O2-  O208  1  0.16817306  0.70419533  0.60615897  1
  O2-  O209  1  0.16281934  0.70644888  0.93511575  1
  O2-  O210  1  0.66355699  0.20645886  0.26998733  1
  O2-  O211  1  0.66859816  0.19768191  0.60738200  1
  O2-  O212  1  0.66946322  0.20073482  0.93952814  1
  O2-  O213  1  0.66334246  0.71100700  0.26360905  1
  O2-  O214  1  0.66023557  0.71089078  0.60352993  1
  O2-  O215  1  0.66667094  0.71467474  0.92805837  1
  O2-  O216  1  0.08578762  0.45791525  0.07358052  1
  O2-  O217  1  0.08225674  0.44534631  0.39240886  1
  O2-  O218  1  0.08236376  0.45527628  0.73539272  1
  O2-  O219  1  0.09004213  0.96011076  0.06176806  1
  O2-  O220  1  0.08237215  0.96241231  0.40049445  1
  O2-  O221  1  0.08575200  0.95659283  0.73183095  1
  O2-  O222  1  0.58075513  0.45463036  0.05754361  1
  O2-  O223  1  0.58084732  0.46197411  0.40005221  1
  O2-  O224  1  0.58080382  0.45997507  0.73572753  1
  O2-  O225  1  0.58202138  0.94848410  0.06210484  1
  O2-  O226  1  0.58018644  0.95378027  0.39912996  1
  O2-  O227  1  0.58127665  0.95369719  0.73960817  1
  O2-  O228  1  0.21153323  0.33020420  0.06901976  1
  O2-  O229  1  0.20851007  0.33601014  0.39537855  1
  O2-  O230  1  0.20937689  0.33121582  0.73429785  1
  O2-  O231  1  0.20282657  0.83475884  0.06062704  1
  O2-  O232  1  0.20076956  0.83044732  0.40310736  1
  O2-  O233  1  0.20164824  0.83460291  0.73170443  1
  O2-  O234  1  0.69999577  0.33480781  0.06139381  1
  O2-  O235  1  0.69856290  0.33041070  0.40078843  1
  O2-  O236  1  0.69959879  0.32797906  0.73629419  1
  O2-  O237  1  0.70851266  0.83625211  0.06233493  1
  O2-  O238  1  0.70787507  0.83073739  0.39756792  1
  O2-  O239  1  0.71068888  0.83169610  0.73753712  1
  O2-  O240  1  0.45900507  0.41051770  0.26890205  1
  O2-  O241  1  0.45909660  0.41818966  0.59807169  1
  O2-  O242  1  0.45509266  0.41491399  0.92967220  1
  O2-  O243  1  0.44895428  0.91964758  0.27339529  1
  O2-  O244  1  0.45520797  0.91626906  0.60687437  1
  O2-  O245  1  0.44996684  0.91807732  0.93767245  1
  O2-  O246  1  0.95119032  0.41863252  0.27036028  1
  O2-  O247  1  0.95812873  0.41257040  0.60506969  1
  O2-  O248  1  0.96146023  0.41404482  0.94057262  1
  O2-  O249  1  0.96485763  0.91373431  0.26198247  1
  O2-  O250  1  0.96271291  0.91520403  0.59814820  1
  O2-  O251  1  0.96517851  0.91035567  0.93595346  1
  O2-  O252  1  0.33842555  0.29208193  0.26927997  1
  O2-  O253  1  0.33339153  0.28602585  0.59701798  1
  O2-  O254  1  0.33308336  0.28340296  0.93166881  1
  O2-  O255  1  0.33126048  0.79919502  0.27404821  1
  O2-  O256  1  0.33352617  0.79945189  0.60632645  1
  O2-  O257  1  0.33138667  0.79867605  0.93545817  1
  O2-  O258  1  0.82985701  0.30164799  0.27167768  1
  O2-  O259  1  0.83384205  0.29786001  0.60906625  1
  O2-  O260  1  0.83651862  0.29866597  0.94110229  1
  O2-  O261  1  0.83431211  0.78944651  0.26115113  1
  O2-  O262  1  0.83235490  0.78854804  0.59957448  1
  O2-  O263  1  0.83886279  0.79628274  0.93701030  1
  O2-  O264  1  0.41495786  0.04875955  0.05917381  1
  O2-  O265  1  0.42011891  0.05159525  0.40077624  1
  O2-  O266  1  0.41484968  0.04091049  0.73862788  1
  O2-  O267  1  0.41772433  0.54563190  0.05837533  1
  O2-  O268  1  0.41308599  0.53488155  0.39963015  1
  O2-  O269  1  0.41964870  0.54365529  0.73544897  1
  O2-  O270  1  0.91880071  0.03665538  0.06750854  1
  O2-  O271  1  0.92142891  0.04378537  0.39592785  1
  O2-  O272  1  0.92192251  0.03932210  0.73472168  1
  O2-  O273  1  0.91577639  0.54252743  0.07038618  1
  O2-  O274  1  0.92337274  0.55305026  0.39776253  1
  O2-  O275  1  0.92039900  0.54689705  0.73156074  1
  O2-  O276  1  0.28778572  0.15938252  0.06206566  1
  O2-  O277  1  0.28700756  0.17028140  0.39918843  1
  O2-  O278  1  0.28463819  0.16450834  0.73632320  1
  O2-  O279  1  0.29571972  0.66599399  0.06195667  1
  O2-  O280  1  0.29543100  0.66697039  0.39879923  1
  O2-  O281  1  0.29665028  0.67202112  0.73745565  1
  O2-  O282  1  0.79700040  0.16949723  0.06867640  1
  O2-  O283  1  0.79741340  0.17088237  0.39828810  1
  O2-  O284  1  0.79880857  0.16894076  0.73596358  1
  O2-  O285  1  0.78915093  0.67004393  0.06479750  1
  O2-  O286  1  0.78807109  0.66923288  0.39866419  1
  O2-  O287  1  0.78755238  0.66664564  0.73426866  1
