# generated using pymatgen
data_Ca2Al2SiO7
_symmetry_space_group_name_H-M   'P 1'
_cell_length_a   15.46081962
_cell_length_b   15.46247584
_cell_length_c   15.28718135
_cell_angle_alpha   90.00238327
_cell_angle_beta   90.01102109
_cell_angle_gamma   90.00193330
_symmetry_Int_Tables_number   1
_chemical_formula_structural   Ca2Al2SiO7
_chemical_formula_sum   'Ca48 Al48 Si24 O168'
_cell_volume   3654.59248239
_cell_formula_units_Z   24
loop_
 _symmetry_equiv_pos_site_id
 _symmetry_equiv_pos_as_xyz
  1  'x, y, z'
loop_
 _atom_type_symbol
 _atom_type_oxidation_number
  Ca2+  2.0
  Al0+  0.0
  Si0+  0.0
  O2-  -2.0
loop_
 _atom_site_type_symbol
 _atom_site_label
 _atom_site_symmetry_multiplicity
 _atom_site_fract_x
 _atom_site_fract_y
 _atom_site_fract_z
 _atom_site_occupancy
  Ca2+  Ca0  1  0.16776420  0.07611106  0.16592478  1
  Ca2+  Ca1  1  0.16588246  0.07326634  0.50815400  1
  Ca2+  Ca2  1  0.16658100  0.08131631  0.84159460  1
  Ca2+  Ca3  1  0.16363175  0.57474770  0.16622806  1
  Ca2+  Ca4  1  0.17227468  0.58111683  0.50462327  1
  Ca2+  Ca5  1  0.16741697  0.57382550  0.83881036  1
  Ca2+  Ca6  1  0.67562587  0.09207140  0.16781495  1
  Ca2+  Ca7  1  0.66802037  0.09113060  0.50140223  1
  Ca2+  Ca8  1  0.67104061  0.08344402  0.84421669  1
  Ca2+  Ca9  1  0.67032339  0.57897355  0.16278542  1
  Ca2+  Ca10  1  0.66828868  0.57669133  0.51474230  1
  Ca2+  Ca11  1  0.67226921  0.57346079  0.83591730  1
  Ca2+  Ca12  1  0.08118272  0.32603769  0.15448453  1
  Ca2+  Ca13  1  0.07750000  0.32765967  0.50131627  1
  Ca2+  Ca14  1  0.08068387  0.32284514  0.82778173  1
  Ca2+  Ca15  1  0.07965748  0.84004665  0.15829916  1
  Ca2+  Ca16  1  0.08128583  0.83964997  0.50031096  1
  Ca2+  Ca17  1  0.07203685  0.84256430  0.83021467  1
  Ca2+  Ca18  1  0.58130959  0.32414450  0.16206002  1
  Ca2+  Ca19  1  0.57981625  0.32821747  0.49806521  1
  Ca2+  Ca20  1  0.58557498  0.32643722  0.82621580  1
  Ca2+  Ca21  1  0.57989933  0.84010532  0.16032409  1
  Ca2+  Ca22  1  0.58004788  0.82481386  0.49594992  1
  Ca2+  Ca23  1  0.58929564  0.82812368  0.82793834  1
  Ca2+  Ca24  1  0.32890284  0.40995677  0.16735160  1
  Ca2+  Ca25  1  0.34093556  0.41164245  0.50468284  1
  Ca2+  Ca26  1  0.33056869  0.41167244  0.83778556  1
  Ca2+  Ca27  1  0.32718010  0.92229696  0.17105392  1
  Ca2+  Ca28  1  0.32380112  0.91055454  0.50453904  1
  Ca2+  Ca29  1  0.32054247  0.92566513  0.84199731  1
  Ca2+  Ca30  1  0.82683687  0.41596734  0.16580717  1
  Ca2+  Ca31  1  0.82682273  0.42226839  0.51506036  1
  Ca2+  Ca32  1  0.82592914  0.41953106  0.83824700  1
  Ca2+  Ca33  1  0.83111126  0.92658962  0.16270240  1
  Ca2+  Ca34  1  0.83526853  0.92328685  0.50423552  1
  Ca2+  Ca35  1  0.83109129  0.91898974  0.84255564  1
  Ca2+  Ca36  1  0.42653609  0.16305609  0.15946191  1
  Ca2+  Ca37  1  0.42862124  0.17529909  0.49553944  1
  Ca2+  Ca38  1  0.42715177  0.16630878  0.82848902  1
  Ca2+  Ca39  1  0.41507036  0.67622513  0.16509040  1
  Ca2+  Ca40  1  0.42400372  0.66909348  0.49680834  1
  Ca2+  Ca41  1  0.42508340  0.66831191  0.82708829  1
  Ca2+  Ca42  1  0.92041511  0.15791074  0.15856513  1
  Ca2+  Ca43  1  0.91789769  0.16766928  0.50137700  1
  Ca2+  Ca44  1  0.92678904  0.16438673  0.82884085  1
  Ca2+  Ca45  1  0.91561572  0.67420479  0.15548711  1
  Ca2+  Ca46  1  0.91142831  0.67320066  0.50217438  1
  Ca2+  Ca47  1  0.90359781  0.67644046  0.83022672  1
  Al0+  Al48  1  -0.00096156  -0.00067141  -0.00210590  1
  Al0+  Al49  1  -0.00092838  -0.00023145  0.34162036  1
  Al0+  Al50  1  -0.00105892  -0.00203634  0.66197549  1
  Al0+  Al51  1  0.00123434  0.50165243  0.00717636  1
  Al0+  Al52  1  0.00019932  0.50015590  0.33486536  1
  Al0+  Al53  1  0.00190086  0.50313237  0.66702012  1
  Al0+  Al54  1  0.49778664  0.00024988  -0.00070816  1
  Al0+  Al55  1  0.50111500  -0.00115080  0.32753963  1
  Al0+  Al56  1  0.49817479  -0.00020079  0.66188041  1
  Al0+  Al57  1  0.49975320  0.50180568  0.00497554  1
  Al0+  Al58  1  0.49951271  0.49956222  0.32822398  1
  Al0+  Al59  1  0.50090171  0.50098710  0.66484699  1
  Al0+  Al60  1  0.25013514  0.25019327  0.00454782  1
  Al0+  Al61  1  0.24836807  0.24822153  0.33275324  1
  Al0+  Al62  1  0.25113489  0.24805279  0.65829739  1
  Al0+  Al63  1  0.24886384  0.74904192  0.00087035  1
  Al0+  Al64  1  0.24987513  0.74693749  0.33349584  1
  Al0+  Al65  1  0.24697771  0.74967815  0.67387109  1
  Al0+  Al66  1  0.74963365  0.25157409  0.00405948  1
  Al0+  Al67  1  0.75114034  0.25236843  0.33595534  1
  Al0+  Al68  1  0.75168625  0.25024277  0.66476064  1
  Al0+  Al69  1  0.74908872  0.74998855  0.00459454  1
  Al0+  Al70  1  0.75175029  0.75087450  0.33185617  1
  Al0+  Al71  1  0.74989843  0.75143827  0.65861442  1
  Al0+  Al72  1  0.18119799  0.92845559  0.34868813  1
  Al0+  Al73  1  0.81932233  0.07117492  0.34972756  1
  Al0+  Al74  1  0.17792419  0.92930607  0.01446521  1
  Al0+  Al75  1  0.42971274  0.32123494  0.65389346  1
  Al0+  Al76  1  0.92966375  0.81894196  0.98730238  1
  Al0+  Al77  1  0.32142885  0.07238180  0.01484502  1
  Al0+  Al78  1  0.07098581  0.17755060  0.65020175  1
  Al0+  Al79  1  0.57030290  0.68078315  0.65460407  1
  Al0+  Al80  1  0.67711357  0.42787416  0.01706602  1
  Al0+  Al81  1  0.42723481  0.32145002  0.31512164  1
  Al0+  Al82  1  0.67859259  0.42768922  0.68161289  1
  Al0+  Al83  1  0.57312908  0.17990782  0.31592520  1
  Al0+  Al84  1  0.82232285  0.57419541  0.68103033  1
  Al0+  Al85  1  0.82072079  0.57155249  0.01577116  1
  Al0+  Al86  1  0.82068628  0.07159033  0.01153070  1
  Al0+  Al87  1  0.42817081  0.81909149  0.31990673  1
  Al0+  Al88  1  0.07058493  0.17957425  0.98818719  1
  Al0+  Al89  1  0.57371111  0.17617973  0.65217984  1
  Al0+  Al90  1  0.18006636  0.42890940  0.01223762  1
  Al0+  Al91  1  0.57176241  0.17911022  0.98529294  1
  Al0+  Al92  1  0.92986988  0.32384676  0.65392919  1
  Al0+  Al93  1  0.92924908  0.81935831  0.65150346  1
  Al0+  Al94  1  0.67730705  0.92812180  0.01231962  1
  Al0+  Al95  1  0.17789407  0.92952403  0.68305842  1
  Si0+  Si96  1  0.32161494  0.57106289  0.68132949  1
  Si0+  Si97  1  0.82238446  0.57230941  0.34961355  1
  Si0+  Si98  1  0.07340539  0.67601249  0.98264224  1
  Si0+  Si99  1  0.32023955  0.56862096  0.34847613  1
  Si0+  Si100  1  0.07048151  0.67722931  0.31803650  1
  Si0+  Si101  1  0.42888942  0.32331711  0.98424091  1
  Si0+  Si102  1  0.81997556  0.07039507  0.68085032  1
  Si0+  Si103  1  0.93089731  0.82165556  0.31712286  1
  Si0+  Si104  1  0.92825547  0.32518807  0.98550711  1
  Si0+  Si105  1  0.67718991  0.92956632  0.67734909  1
  Si0+  Si106  1  0.57349911  0.67823005  0.31444989  1
  Si0+  Si107  1  0.32447542  0.07185943  0.35173510  1
  Si0+  Si108  1  0.06796757  0.17761695  0.31835549  1
  Si0+  Si109  1  0.42492034  0.82069520  0.65246989  1
  Si0+  Si110  1  0.32274490  0.57291568  0.01799292  1
  Si0+  Si111  1  0.07527421  0.67760515  0.64943779  1
  Si0+  Si112  1  0.42600390  0.82167462  0.98343279  1
  Si0+  Si113  1  0.67701094  0.92607883  0.35131600  1
  Si0+  Si114  1  0.18010536  0.42727586  0.67926977  1
  Si0+  Si115  1  0.56933102  0.67999722  0.98525913  1
  Si0+  Si116  1  0.17761479  0.42724196  0.35012103  1
  Si0+  Si117  1  0.67931912  0.43228371  0.34947022  1
  Si0+  Si118  1  0.93092106  0.32315567  0.31818375  1
  Si0+  Si119  1  0.32210748  0.07242182  0.68174061  1
  O2-  O120  1  0.25047586  -0.00063400  0.06559767  1
  O2-  O121  1  0.25774650  0.00101513  0.39649137  1
  O2-  O122  1  0.25200554  0.00553804  0.72666542  1
  O2-  O123  1  0.25428721  0.50350309  0.06106110  1
  O2-  O124  1  0.25344956  0.49376281  0.39182866  1
  O2-  O125  1  0.25294691  0.49694196  0.72150190  1
  O2-  O126  1  0.74465492  0.00412754  0.06270473  1
  O2-  O127  1  0.74195060  -0.00194407  0.39586220  1
  O2-  O128  1  0.74296295  0.00464184  0.72013176  1
  O2-  O129  1  0.75203332  0.49746965  0.06733946  1
  O2-  O130  1  0.74817947  0.50554392  0.39171321  1
  O2-  O131  1  0.75458511  0.49749270  0.72918252  1
  O2-  O132  1  -0.00052615  0.25053706  0.27526081  1
  O2-  O133  1  -0.00038332  0.25101316  0.60069927  1
  O2-  O134  1  -0.00466370  0.25450541  0.94246703  1
  O2-  O135  1  0.00078907  0.74906736  0.27575237  1
  O2-  O136  1  0.00450210  0.74420518  0.60536427  1
  O2-  O137  1  0.00452601  0.74428106  0.93942921  1
  O2-  O138  1  0.49655135  0.24726964  0.26568669  1
  O2-  O139  1  0.50337800  0.25107077  0.60423394  1
  O2-  O140  1  0.49840880  0.25628411  0.93991693  1
  O2-  O141  1  0.50759480  0.74987482  0.27090899  1
  O2-  O142  1  0.49480291  0.75418000  0.60701722  1
  O2-  O143  1  0.49961583  0.75239448  0.94229788  1
  O2-  O144  1  0.06887851  0.18035829  0.10199907  1
  O2-  O145  1  0.06670038  0.17929862  0.42327944  1
  O2-  O146  1  0.07142881  0.17884033  0.76377654  1
  O2-  O147  1  0.07391202  0.67586135  0.08878149  1
  O2-  O148  1  0.07001499  0.67412261  0.42304250  1
  O2-  O149  1  0.08124270  0.67659808  0.75419392  1
  O2-  O150  1  0.57107497  0.18031209  0.09812205  1
  O2-  O151  1  0.57366347  0.18415861  0.42949028  1
  O2-  O152  1  0.57144991  0.17322490  0.76559230  1
  O2-  O153  1  0.56667282  0.67997157  0.09062430  1
  O2-  O154  1  0.57205826  0.67723933  0.42021353  1
  O2-  O155  1  0.56878773  0.68220031  0.76777665  1
  O2-  O156  1  0.17428359  0.43088625  0.24537671  1
  O2-  O157  1  0.18027510  0.43074000  0.57376741  1
  O2-  O158  1  0.18213566  0.42972672  0.89882298  1
  O2-  O159  1  0.17939459  0.92971182  0.23611591  1
  O2-  O160  1  0.18159785  0.92763774  0.56944788  1
  O2-  O161  1  0.17889922  0.93058778  0.90107069  1
  O2-  O162  1  0.68133213  0.43309889  0.24457717  1
  O2-  O163  1  0.67749654  0.43184778  0.56725094  1
  O2-  O164  1  0.67492427  0.42992817  0.90396083  1
  O2-  O165  1  0.68045355  0.92104101  0.24640610  1
  O2-  O166  1  0.67883112  0.92774742  0.57211983  1
  O2-  O167  1  0.68049136  0.92571579  0.89816364  1
  O2-  O168  1  0.42944448  0.32305726  0.08973467  1
  O2-  O169  1  0.43091808  0.32357801  0.42843504  1
  O2-  O170  1  0.42690122  0.32053178  0.76729303  1
  O2-  O171  1  0.42436271  0.81790494  0.08868025  1
  O2-  O172  1  0.42697713  0.81254339  0.43322001  1
  O2-  O173  1  0.42594910  0.81889336  0.75797231  1
  O2-  O174  1  0.93160186  0.32591330  0.09186443  1
  O2-  O175  1  0.93403103  0.32646768  0.42295447  1
  O2-  O176  1  0.93270589  0.32306135  0.76733717  1
  O2-  O177  1  0.93152296  0.81834189  0.10098512  1
  O2-  O178  1  0.93079163  0.81973151  0.42230993  1
  O2-  O179  1  0.92784263  0.82004614  0.76415180  1
  O2-  O180  1  0.32112769  0.07162802  0.24638382  1
  O2-  O181  1  0.32255341  0.06964843  0.57607819  1
  O2-  O182  1  0.32115758  0.07110296  0.90094258  1
  O2-  O183  1  0.31659813  0.57123024  0.24372859  1
  O2-  O184  1  0.31960552  0.57426973  0.57592520  1
  O2-  O185  1  0.32414291  0.57344574  0.91222724  1
  O2-  O186  1  0.82305606  0.06841571  0.23711735  1
  O2-  O187  1  0.82102745  0.06787283  0.57533991  1
  O2-  O188  1  0.82213207  0.06924274  0.89782987  1
  O2-  O189  1  0.82441715  0.57135187  0.24493282  1
  O2-  O190  1  0.81810737  0.57388419  0.56647450  1
  O2-  O191  1  0.81736677  0.57245062  0.90271329  1
  O2-  O192  1  0.03678143  0.08586905  0.27329512  1
  O2-  O193  1  0.03881181  0.08115336  0.59586124  1
  O2-  O194  1  0.03922625  0.08437170  0.93281808  1
  O2-  O195  1  0.04082155  0.58581296  0.26972418  1
  O2-  O196  1  0.05360321  0.58395630  0.60134338  1
  O2-  O197  1  0.04908293  0.58137587  0.93817223  1
  O2-  O198  1  0.55282761  0.07826088  0.26653975  1
  O2-  O199  1  0.54336287  0.07887091  0.59590637  1
  O2-  O200  1  0.54020781  0.08203305  0.93191727  1
  O2-  O201  1  0.54388147  0.58665810  0.26728766  1
  O2-  O202  1  0.53785977  0.58629250  0.59789321  1
  O2-  O203  1  0.53867907  0.58868194  0.93830333  1
  O2-  O204  1  0.16108251  0.20250433  0.27282713  1
  O2-  O205  1  0.16826560  0.20471022  0.59451970  1
  O2-  O206  1  0.16736836  0.21198702  0.93556168  1
  O2-  O207  1  0.16292886  0.70159492  0.27113925  1
  O2-  O208  1  0.16776991  0.70689688  0.60127144  1
  O2-  O209  1  0.16803574  0.69861683  0.93685062  1
  O2-  O210  1  0.67141925  0.21446640  0.26556020  1
  O2-  O211  1  0.67240067  0.20222646  0.59974097  1
  O2-  O212  1  0.67028123  0.20852171  0.93414921  1
  O2-  O213  1  0.66884133  0.70096428  0.27048697  1
  O2-  O214  1  0.66307853  0.71325230  0.59487620  1
  O2-  O215  1  0.66128884  0.70742548  0.93954399  1
  O2-  O216  1  0.08602867  0.46056207  0.07144240  1
  O2-  O217  1  0.08823625  0.46173619  0.39910962  1
  O2-  O218  1  0.09022206  0.45742966  0.72813960  1
  O2-  O219  1  0.08062415  0.95951370  0.06734631  1
  O2-  O220  1  0.08571980  0.96100544  0.40392659  1
  O2-  O221  1  0.07967175  0.96018709  0.73256317  1
  O2-  O222  1  0.58086787  0.46186263  0.07207546  1
  O2-  O223  1  0.58580737  0.45962619  0.39380489  1
  O2-  O224  1  0.58116760  0.46081756  0.73377126  1
  O2-  O225  1  0.57654110  0.94910518  0.06203092  1
  O2-  O226  1  0.58068070  0.94550830  0.39440547  1
  O2-  O227  1  0.58243496  0.94905221  0.72285520  1
  O2-  O228  1  0.20999684  0.33488148  0.07090095  1
  O2-  O229  1  0.19920597  0.33343030  0.39598324  1
  O2-  O230  1  0.20691637  0.33431087  0.72403711  1
  O2-  O231  1  0.20373564  0.82891959  0.06531265  1
  O2-  O232  1  0.20995302  0.82949283  0.40060941  1
  O2-  O233  1  0.20699074  0.83294644  0.73792189  1
  O2-  O234  1  0.70582300  0.33128223  0.07278994  1
  O2-  O235  1  0.70963682  0.34189786  0.39714080  1
  O2-  O236  1  0.70544648  0.32832753  0.73288469  1
  O2-  O237  1  0.70747666  0.83261174  0.06989999  1
  O2-  O238  1  0.70720015  0.83290761  0.39831368  1
  O2-  O239  1  0.70968015  0.83911980  0.72393908  1
  O2-  O240  1  0.45458874  0.42060818  0.26224518  1
  O2-  O241  1  0.45442736  0.42071223  0.60051614  1
  O2-  O242  1  0.45102604  0.41956072  0.94123506  1
  O2-  O243  1  0.45269026  0.91650047  0.26550707  1
  O2-  O244  1  0.44690598  0.91393755  0.60485733  1
  O2-  O245  1  0.44972737  0.91362270  0.93578383  1
  O2-  O246  1  0.96116363  0.41423276  0.26981349  1
  O2-  O247  1  0.95946314  0.42233773  0.59971940  1
  O2-  O248  1  0.95665705  0.41864611  0.94135030  1
  O2-  O249  1  0.96155531  0.91350158  0.27278818  1
  O2-  O250  1  0.96181479  0.91364091  0.59420025  1
  O2-  O251  1  0.96007059  0.91437546  0.93156333  1
  O2-  O252  1  0.32492215  0.29794387  0.26729818  1
  O2-  O253  1  0.33311506  0.29370189  0.59604573  1
  O2-  O254  1  0.33443099  0.29798655  0.94044383  1
  O2-  O255  1  0.33397824  0.78086771  0.26495896  1
  O2-  O256  1  0.33204899  0.79020804  0.60757058  1
  O2-  O257  1  0.33542189  0.78964144  0.93547514  1
  O2-  O258  1  0.83775103  0.29850441  0.27337459  1
  O2-  O259  1  0.83225721  0.29660597  0.59911235  1
  O2-  O260  1  0.83320036  0.30330115  0.94276513  1
  O2-  O261  1  0.83839525  0.79498993  0.27058808  1
  O2-  O262  1  0.83491773  0.78930527  0.59203555  1
  O2-  O263  1  0.83199585  0.78721386  0.93522309  1
  O2-  O264  1  0.41827698  0.04142910  0.06864983  1
  O2-  O265  1  0.41997454  0.04828752  0.39447381  1
  O2-  O266  1  0.41539401  0.04447666  0.72794964  1
  O2-  O267  1  0.41507018  0.54953501  0.06702314  1
  O2-  O268  1  0.41437301  0.54495398  0.39400768  1
  O2-  O269  1  0.41352044  0.54625002  0.72907859  1
  O2-  O270  1  0.91615932  0.03691630  0.06671990  1
  O2-  O271  1  0.91338581  0.03615477  0.40665213  1
  O2-  O272  1  0.91011847  0.03615749  0.72653115  1
  O2-  O273  1  0.92024733  0.54911908  0.06972575  1
  O2-  O274  1  0.91361019  0.54208070  0.39726227  1
  O2-  O275  1  0.92459174  0.55609937  0.72970226  1
  O2-  O276  1  0.29412768  0.16935308  0.07019698  1
  O2-  O277  1  0.29559577  0.16528036  0.39701329  1
  O2-  O278  1  0.29787995  0.16706782  0.72560029  1
  O2-  O279  1  0.29471399  0.66530072  0.06537873  1
  O2-  O280  1  0.28787079  0.65746628  0.39911692  1
  O2-  O281  1  0.29142066  0.66025648  0.73242655  1
  O2-  O282  1  0.79903026  0.17054222  0.06640061  1
  O2-  O283  1  0.79278891  0.16991579  0.40279611  1
  O2-  O284  1  0.80017074  0.16404194  0.72668552  1
  O2-  O285  1  0.78714660  0.66677849  0.07245877  1
  O2-  O286  1  0.79858121  0.66657066  0.39450472  1
  O2-  O287  1  0.78686609  0.67196129  0.73053150  1
