# generated using pymatgen
data_Ca2Al2SiO7
_symmetry_space_group_name_H-M   'P 1'
_cell_length_a   15.45772593
_cell_length_b   15.45667013
_cell_length_c   15.28214922
_cell_angle_alpha   90.01275047
_cell_angle_beta   90.02652631
_cell_angle_gamma   89.98564126
_symmetry_Int_Tables_number   1
_chemical_formula_structural   Ca2Al2SiO7
_chemical_formula_sum   'Ca48 Al48 Si24 O168'
_cell_volume   3651.28645893
_cell_formula_units_Z   24
loop_
 _symmetry_equiv_pos_site_id
 _symmetry_equiv_pos_as_xyz
  1  'x, y, z'
loop_
 _atom_type_symbol
 _atom_type_oxidation_number
  Ca2+  2.0
  Al0+  0.0
  Si0+  0.0
  O2-  -2.0
loop_
 _atom_site_type_symbol
 _atom_site_label
 _atom_site_symmetry_multiplicity
 _atom_site_fract_x
 _atom_site_fract_y
 _atom_site_fract_z
 _atom_site_occupancy
  Ca2+  Ca0  1  0.16493805  0.08129706  0.17503759  1
  Ca2+  Ca1  1  0.15984429  0.07281485  0.50146222  1
  Ca2+  Ca2  1  0.16775964  0.07539566  0.83636613  1
  Ca2+  Ca3  1  0.15970461  0.57436468  0.16728571  1
  Ca2+  Ca4  1  0.16059685  0.57402336  0.50802780  1
  Ca2+  Ca5  1  0.16082742  0.57881253  0.83948122  1
  Ca2+  Ca6  1  0.66957322  0.07475618  0.16705840  1
  Ca2+  Ca7  1  0.66669431  0.07916801  0.50480302  1
  Ca2+  Ca8  1  0.66670620  0.08001344  0.84457008  1
  Ca2+  Ca9  1  0.66498209  0.58080396  0.17593146  1
  Ca2+  Ca10  1  0.66253477  0.57607979  0.50291674  1
  Ca2+  Ca11  1  0.65929404  0.58143554  0.83668594  1
  Ca2+  Ca12  1  0.07633437  0.33652517  0.16162960  1
  Ca2+  Ca13  1  0.08090927  0.33196154  0.48878884  1
  Ca2+  Ca14  1  0.07784613  0.34196184  0.83196155  1
  Ca2+  Ca15  1  0.07271408  0.83436708  0.16050005  1
  Ca2+  Ca16  1  0.08311019  0.83178642  0.49328661  1
  Ca2+  Ca17  1  0.08351344  0.82412528  0.82584956  1
  Ca2+  Ca18  1  0.57826120  0.32997895  0.15673764  1
  Ca2+  Ca19  1  0.59064269  0.33119105  0.49635536  1
  Ca2+  Ca20  1  0.58503991  0.32276602  0.82816774  1
  Ca2+  Ca21  1  0.59466811  0.82487419  0.16206672  1
  Ca2+  Ca22  1  0.58300814  0.82299859  0.49256454  1
  Ca2+  Ca23  1  0.58376613  0.82476222  0.82723449  1
  Ca2+  Ca24  1  0.32463390  0.41378268  0.16953919  1
  Ca2+  Ca25  1  0.32104209  0.41797424  0.50466917  1
  Ca2+  Ca26  1  0.32210172  0.41278727  0.84056776  1
  Ca2+  Ca27  1  0.32619823  0.91937475  0.17320348  1
  Ca2+  Ca28  1  0.32408893  0.91171574  0.50614525  1
  Ca2+  Ca29  1  0.33206898  0.90939807  0.83172961  1
  Ca2+  Ca30  1  0.83155883  0.41499682  0.17183853  1
  Ca2+  Ca31  1  0.82505728  0.41297808  0.50249526  1
  Ca2+  Ca32  1  0.82904189  0.41757164  0.83756844  1
  Ca2+  Ca33  1  0.82967938  0.91530703  0.16899417  1
  Ca2+  Ca34  1  0.83101053  0.91291916  0.49786555  1
  Ca2+  Ca35  1  0.82773146  0.92408325  0.84693797  1
  Ca2+  Ca36  1  0.42248699  0.17336736  0.15778307  1
  Ca2+  Ca37  1  0.42285228  0.16591733  0.50032432  1
  Ca2+  Ca38  1  0.42689099  0.16927625  0.83329033  1
  Ca2+  Ca39  1  0.42935878  0.66419321  0.16345399  1
  Ca2+  Ca40  1  0.42484423  0.66741176  0.50146624  1
  Ca2+  Ca41  1  0.42686624  0.67118969  0.82747526  1
  Ca2+  Ca42  1  0.91756671  0.17562379  0.16454388  1
  Ca2+  Ca43  1  0.92440021  0.17441859  0.49028846  1
  Ca2+  Ca44  1  0.91013091  0.17115563  0.83598032  1
  Ca2+  Ca45  1  0.91774708  0.68053437  0.16044759  1
  Ca2+  Ca46  1  0.92195884  0.67148409  0.49656930  1
  Ca2+  Ca47  1  0.92609852  0.67062638  0.83526961  1
  Al0+  Al48  1  -0.00197408  0.00277690  0.00101918  1
  Al0+  Al49  1  0.00040573  0.00108912  0.33020085  1
  Al0+  Al50  1  -0.00009036  0.00141295  0.67243678  1
  Al0+  Al51  1  -0.00206179  0.49956650  -0.00220316  1
  Al0+  Al52  1  -0.00103282  0.50113271  0.33462424  1
  Al0+  Al53  1  -0.00306398  0.50136741  0.66612516  1
  Al0+  Al54  1  0.49865129  -0.00085233  0.00239155  1
  Al0+  Al55  1  0.50046758  -0.00099670  0.33725073  1
  Al0+  Al56  1  0.49900005  0.00153780  0.65920371  1
  Al0+  Al57  1  0.49576583  0.50060948  -0.00742510  1
  Al0+  Al58  1  0.50023680  0.49972787  0.33482984  1
  Al0+  Al59  1  0.49832471  0.49824681  0.66795392  1
  Al0+  Al60  1  0.24853231  0.24900000  0.00075718  1
  Al0+  Al61  1  0.25233676  0.24965501  0.33572665  1
  Al0+  Al62  1  0.25002674  0.24822515  0.67167421  1
  Al0+  Al63  1  0.25197032  0.74701055  0.00041994  1
  Al0+  Al64  1  0.25310492  0.74987475  0.33642181  1
  Al0+  Al65  1  0.24955498  0.74806430  0.66292716  1
  Al0+  Al66  1  0.75145209  0.24913669  -0.00238848  1
  Al0+  Al67  1  0.75111704  0.24902740  0.33287272  1
  Al0+  Al68  1  0.74975002  0.25064220  0.66598838  1
  Al0+  Al69  1  0.75124166  0.74876906  -0.00662044  1
  Al0+  Al70  1  0.75151792  0.74955316  0.33169881  1
  Al0+  Al71  1  0.75185457  0.74965225  0.66394329  1
  Al0+  Al72  1  0.92966196  0.32087845  0.98479001  1
  Al0+  Al73  1  0.17747108  0.42869666  0.68139019  1
  Al0+  Al74  1  0.42928678  0.82115367  0.65022860  1
  Al0+  Al75  1  0.67830122  0.92701619  0.01376319  1
  Al0+  Al76  1  0.67923699  0.42817421  0.34442508  1
  Al0+  Al77  1  0.56928391  0.67961262  0.31958706  1
  Al0+  Al78  1  0.17957042  0.92826461  0.68109800  1
  Al0+  Al79  1  0.07137459  0.68015976  0.98694212  1
  Al0+  Al80  1  0.57169747  0.67947097  0.98667675  1
  Al0+  Al81  1  0.92848001  0.32293200  0.31840511  1
  Al0+  Al82  1  0.17862337  0.92993895  0.34546285  1
  Al0+  Al83  1  0.57078453  0.17893777  0.98705515  1
  Al0+  Al84  1  0.57360334  0.67699174  0.64944701  1
  Al0+  Al85  1  0.93088421  0.82029781  0.32022558  1
  Al0+  Al86  1  0.92910413  0.82406896  0.98326680  1
  Al0+  Al87  1  0.06926607  0.67887968  0.65176949  1
  Al0+  Al88  1  0.17873608  0.43061667  0.34673044  1
  Al0+  Al89  1  0.82197713  0.07367443  0.01792476  1
  Al0+  Al90  1  0.42586868  0.32136278  0.98456770  1
  Al0+  Al91  1  0.57185564  0.18115091  0.65089207  1
  Al0+  Al92  1  0.07320898  0.18016588  0.31922496  1
  Al0+  Al93  1  0.67892576  0.42952419  0.68192053  1
  Al0+  Al94  1  0.17797481  0.43001858  0.01477496  1
  Al0+  Al95  1  0.68020723  0.92772835  0.34869309  1
  Si0+  Si96  1  0.32124850  0.57122877  0.68478039  1
  Si0+  Si97  1  0.92987879  0.32038359  0.65167179  1
  Si0+  Si98  1  0.32396407  0.57141042  0.35156275  1
  Si0+  Si99  1  0.81985222  0.56964178  0.01453267  1
  Si0+  Si100  1  0.17937843  0.92727634  0.01371695  1
  Si0+  Si101  1  0.32005678  0.07066151  0.01530170  1
  Si0+  Si102  1  0.82155805  0.57317036  0.34979725  1
  Si0+  Si103  1  0.82150637  0.57336094  0.68506159  1
  Si0+  Si104  1  0.32386562  0.07144246  0.68542649  1
  Si0+  Si105  1  0.07566558  0.67759519  0.31763514  1
  Si0+  Si106  1  0.42658011  0.82278484  0.98554152  1
  Si0+  Si107  1  0.32331668  0.57233437  0.01835874  1
  Si0+  Si108  1  0.67850944  0.92915854  0.67911549  1
  Si0+  Si109  1  0.42785380  0.82358291  0.31543872  1
  Si0+  Si110  1  0.82009115  0.07130712  0.68118791  1
  Si0+  Si111  1  0.57195375  0.17690051  0.31822883  1
  Si0+  Si112  1  0.92997159  0.82589552  0.64979777  1
  Si0+  Si113  1  0.32381247  0.07271904  0.35156769  1
  Si0+  Si114  1  0.07295910  0.17772553  0.98163735  1
  Si0+  Si115  1  0.42546230  0.32068542  0.64906911  1
  Si0+  Si116  1  0.43047426  0.32050668  0.32006704  1
  Si0+  Si117  1  0.82127636  0.07179363  0.35145600  1
  Si0+  Si118  1  0.07183798  0.17805748  0.65383929  1
  Si0+  Si119  1  0.67689567  0.42992761  0.01244964  1
  O2-  O120  1  0.24899993  -0.00073201  0.05675616  1
  O2-  O121  1  0.25358698  0.00431233  0.39365572  1
  O2-  O122  1  0.25635040  0.00071123  0.72884860  1
  O2-  O123  1  0.25346678  0.50405174  0.06173965  1
  O2-  O124  1  0.24929376  0.50845022  0.39514913  1
  O2-  O125  1  0.25212304  0.50274229  0.72898234  1
  O2-  O126  1  0.75103321  -0.00149674  0.06466111  1
  O2-  O127  1  0.75268550  0.00379143  0.39741494  1
  O2-  O128  1  0.74996516  -0.00102471  0.72217696  1
  O2-  O129  1  0.74495907  0.50240509  0.05662984  1
  O2-  O130  1  0.75559016  0.50071658  0.39244287  1
  O2-  O131  1  0.74805352  0.50913294  0.72904465  1
  O2-  O132  1  0.00489329  0.25530693  0.26897846  1
  O2-  O133  1  0.00533371  0.25317215  0.61138290  1
  O2-  O134  1  0.00463071  0.24668941  0.93708615  1
  O2-  O135  1  0.00940921  0.74883357  0.27447340  1
  O2-  O136  1  -0.00128592  0.75753792  0.60526508  1
  O2-  O137  1  0.00605993  0.75693568  0.93448189  1
  O2-  O138  1  0.50186071  0.24958539  0.27770122  1
  O2-  O139  1  0.49808629  0.25674052  0.60323438  1
  O2-  O140  1  0.50169145  0.25304039  0.93543823  1
  O2-  O141  1  0.49762842  0.75648355  0.27103725  1
  O2-  O142  1  0.50404958  0.75186781  0.60007276  1
  O2-  O143  1  0.49971086  0.75818130  0.94296008  1
  O2-  O144  1  0.07521902  0.17837494  0.08691888  1
  O2-  O145  1  0.07056437  0.18024559  0.43372180  1
  O2-  O146  1  0.06946087  0.17572529  0.75872398  1
  O2-  O147  1  0.06879060  0.68103741  0.10069759  1
  O2-  O148  1  0.07334470  0.67726414  0.42350236  1
  O2-  O149  1  0.06722117  0.67868451  0.76456593  1
  O2-  O150  1  0.56785873  0.18004949  0.10115307  1
  O2-  O151  1  0.57129226  0.17756444  0.42361925  1
  O2-  O152  1  0.57207216  0.18011927  0.76354385  1
  O2-  O153  1  0.57064283  0.67666207  0.09995999  1
  O2-  O154  1  0.56693417  0.67844359  0.43224356  1
  O2-  O155  1  0.57226039  0.67972828  0.76308155  1
  O2-  O156  1  0.18051490  0.43058838  0.23378980  1
  O2-  O157  1  0.17815852  0.42841757  0.56799926  1
  O2-  O158  1  0.17820842  0.43224838  0.90155711  1
  O2-  O159  1  0.18090650  0.93117304  0.23190762  1
  O2-  O160  1  0.17693421  0.93210649  0.56808777  1
  O2-  O161  1  0.18210422  0.92760856  0.90844869  1
  O2-  O162  1  0.67670809  0.42973260  0.23106203  1
  O2-  O163  1  0.68374584  0.42689405  0.56864744  1
  O2-  O164  1  0.67960682  0.43071439  0.90723533  1
  O2-  O165  1  0.68076248  0.92828363  0.23608162  1
  O2-  O166  1  0.68136915  0.93024515  0.57390768  1
  O2-  O167  1  0.67768666  0.92874231  0.89941332  1
  O2-  O168  1  0.42728868  0.31929242  0.09901655  1
  O2-  O169  1  0.43019448  0.31942764  0.42523761  1
  O2-  O170  1  0.42416482  0.31663956  0.75421906  1
  O2-  O171  1  0.42181101  0.82142982  0.09100991  1
  O2-  O172  1  0.42750394  0.82290173  0.42069074  1
  O2-  O173  1  0.43201161  0.82039342  0.76437283  1
  O2-  O174  1  0.93027571  0.32265014  0.09744950  1
  O2-  O175  1  0.92772789  0.31982283  0.43270530  1
  O2-  O176  1  0.92839940  0.31926687  0.75676596  1
  O2-  O177  1  0.92952280  0.82146422  0.09706078  1
  O2-  O178  1  0.93152664  0.81812178  0.43374941  1
  O2-  O179  1  0.93089318  0.82726146  0.75494121  1
  O2-  O180  1  0.32590912  0.07207989  0.24573264  1
  O2-  O181  1  0.32188489  0.07440671  0.57995934  1
  O2-  O182  1  0.31982205  0.07039148  0.91025307  1
  O2-  O183  1  0.32735516  0.56845764  0.24612450  1
  O2-  O184  1  0.32078336  0.56851458  0.57884691  1
  O2-  O185  1  0.32368405  0.57440005  0.91312093  1
  O2-  O186  1  0.81866892  0.07340922  0.24650319  1
  O2-  O187  1  0.82114858  0.07179482  0.57603091  1
  O2-  O188  1  0.81913087  0.07352816  0.90335300  1
  O2-  O189  1  0.81960264  0.57490637  0.24404158  1
  O2-  O190  1  0.82463779  0.57090585  0.57946798  1
  O2-  O191  1  0.82068553  0.56734335  0.90930430  1
  O2-  O192  1  0.04281963  0.08351849  0.26489622  1
  O2-  O193  1  0.03877479  0.08796001  0.60557527  1
  O2-  O194  1  0.04666055  0.08446042  0.93513367  1
  O2-  O195  1  0.04705495  0.58488794  0.27209348  1
  O2-  O196  1  0.03309859  0.58394130  0.59666763  1
  O2-  O197  1  0.03582903  0.58466249  0.93306295  1
  O2-  O198  1  0.54204862  0.08524852  0.27214045  1
  O2-  O199  1  0.54014662  0.08606696  0.59449837  1
  O2-  O200  1  0.53864559  0.08088892  0.93481197  1
  O2-  O201  1  0.53632163  0.58301230  0.26604188  1
  O2-  O202  1  0.54204442  0.57765391  0.59951512  1
  O2-  O203  1  0.53704260  0.58546797  0.93020070  1
  O2-  O204  1  0.17456864  0.20217956  0.26930311  1
  O2-  O205  1  0.16575624  0.20020592  0.60858485  1
  O2-  O206  1  0.16651993  0.20126323  0.93503256  1
  O2-  O207  1  0.17139967  0.69842622  0.27437152  1
  O2-  O208  1  0.16679414  0.70361375  0.59805730  1
  O2-  O209  1  0.17228211  0.70142622  0.93571501  1
  O2-  O210  1  0.66403248  0.20292431  0.27216750  1
  O2-  O211  1  0.66835241  0.21231715  0.59602826  1
  O2-  O212  1  0.66868640  0.20550285  0.93349853  1
  O2-  O213  1  0.66685308  0.70818424  0.26732959  1
  O2-  O214  1  0.67375283  0.70216508  0.59804040  1
  O2-  O215  1  0.66770229  0.70486928  0.92986362  1
  O2-  O216  1  0.08122554  0.46311259  0.06749033  1
  O2-  O217  1  0.08076001  0.45765376  0.40078531  1
  O2-  O218  1  0.07962547  0.46029060  0.73233009  1
  O2-  O219  1  0.08704758  0.95523714  0.05911248  1
  O2-  O220  1  0.08241547  0.96160724  0.40031165  1
  O2-  O221  1  0.08461559  0.96266513  0.73712293  1
  O2-  O222  1  0.58263624  0.45526742  0.05614280  1
  O2-  O223  1  0.58370084  0.45947744  0.40063248  1
  O2-  O224  1  0.57930015  0.45215621  0.73353599  1
  O2-  O225  1  0.57903204  0.95331800  0.06747912  1
  O2-  O226  1  0.58274434  0.95680473  0.40232312  1
  O2-  O227  1  0.58589244  0.95803687  0.72322098  1
  O2-  O228  1  0.20773031  0.33202258  0.06683947  1
  O2-  O229  1  0.21290769  0.33445871  0.40067961  1
  O2-  O230  1  0.20638556  0.33113618  0.73503368  1
  O2-  O231  1  0.20793847  0.83586408  0.06133490  1
  O2-  O232  1  0.20876017  0.83270616  0.39970080  1
  O2-  O233  1  0.20945981  0.83040680  0.73282953  1
  O2-  O234  1  0.70606950  0.33832341  0.05854399  1
  O2-  O235  1  0.70905537  0.33114614  0.39928624  1
  O2-  O236  1  0.71583580  0.33415031  0.73545260  1
  O2-  O237  1  0.70908766  0.82751143  0.06386086  1
  O2-  O238  1  0.71432235  0.83194136  0.40247561  1
  O2-  O239  1  0.70456189  0.83602930  0.72483714  1
  O2-  O240  1  0.45771317  0.41177852  0.27222327  1
  O2-  O241  1  0.44545642  0.41611665  0.60549357  1
  O2-  O242  1  0.44686480  0.42026613  0.93100765  1
  O2-  O243  1  0.45098975  0.91872587  0.27130083  1
  O2-  O244  1  0.45056036  0.92100886  0.59727740  1
  O2-  O245  1  0.44614131  0.91769213  0.94025910  1
  O2-  O246  1  0.95144225  0.42359839  0.26783771  1
  O2-  O247  1  0.95280524  0.41317572  0.60492999  1
  O2-  O248  1  0.96045350  0.41623739  0.92864324  1
  O2-  O249  1  0.95809683  0.91724917  0.26635404  1
  O2-  O250  1  0.95535509  0.92001734  0.60427498  1
  O2-  O251  1  0.95148050  0.92508615  0.93374559  1
  O2-  O252  1  0.33946916  0.29186116  0.27180030  1
  O2-  O253  1  0.33302561  0.28938929  0.60227262  1
  O2-  O254  1  0.32917278  0.28764850  0.93157707  1
  O2-  O255  1  0.33427117  0.79695438  0.26910989  1
  O2-  O256  1  0.33183536  0.79000463  0.59667331  1
  O2-  O257  1  0.33562947  0.79252021  0.93623066  1
  O2-  O258  1  0.83116731  0.29050114  0.26493523  1
  O2-  O259  1  0.84033339  0.28727308  0.60331766  1
  O2-  O260  1  0.83391365  0.28986837  0.92921921  1
  O2-  O261  1  0.83636437  0.78591102  0.26490346  1
  O2-  O262  1  0.83642392  0.79931247  0.60385281  1
  O2-  O263  1  0.83404237  0.79026675  0.92768550  1
  O2-  O264  1  0.41083640  0.04377216  0.06550742  1
  O2-  O265  1  0.41636821  0.04616699  0.39970840  1
  O2-  O266  1  0.41832320  0.04620783  0.73025677  1
  O2-  O267  1  0.41619293  0.54354022  0.06547110  1
  O2-  O268  1  0.41375254  0.53835402  0.40105166  1
  O2-  O269  1  0.41486605  0.54640325  0.73123300  1
  O2-  O270  1  0.92190588  0.04944131  0.07025670  1
  O2-  O271  1  0.91515038  0.04555599  0.39667116  1
  O2-  O272  1  0.91138023  0.04589050  0.73101832  1
  O2-  O273  1  0.90928813  0.53807887  0.06369257  1
  O2-  O274  1  0.91587768  0.55129730  0.39658541  1
  O2-  O275  1  0.91196117  0.54094806  0.73355297  1
  O2-  O276  1  0.29163875  0.16144961  0.06465341  1
  O2-  O277  1  0.30098549  0.16623683  0.39916665  1
  O2-  O278  1  0.29586036  0.16314900  0.73421207  1
  O2-  O279  1  0.30013636  0.66587582  0.06691924  1
  O2-  O280  1  0.30575291  0.66721035  0.39605769  1
  O2-  O281  1  0.29631308  0.66522242  0.72942634  1
  O2-  O282  1  0.79171707  0.17189435  0.07065782  1
  O2-  O283  1  0.79510322  0.16488134  0.39918706  1
  O2-  O284  1  0.79069916  0.16251838  0.72852860  1
  O2-  O285  1  0.79521226  0.66294429  0.05994827  1
  O2-  O286  1  0.79278588  0.66416219  0.39896339  1
  O2-  O287  1  0.80228565  0.66942026  0.72936871  1
