# generated using pymatgen
data_Ca2Al2SiO7
_symmetry_space_group_name_H-M   'P 1'
_cell_length_a   15.45924496
_cell_length_b   15.45862691
_cell_length_c   15.28370807
_cell_angle_alpha   90.00504116
_cell_angle_beta   90.02152588
_cell_angle_gamma   90.01317771
_symmetry_Int_Tables_number   1
_chemical_formula_structural   Ca2Al2SiO7
_chemical_formula_sum   'Ca48 Al48 Si24 O168'
_cell_volume   3652.48031969
_cell_formula_units_Z   24
loop_
 _symmetry_equiv_pos_site_id
 _symmetry_equiv_pos_as_xyz
  1  'x, y, z'
loop_
 _atom_type_symbol
 _atom_type_oxidation_number
  Ca2+  2.0
  Al0+  0.0
  Si0+  0.0
  O2-  -2.0
loop_
 _atom_site_type_symbol
 _atom_site_label
 _atom_site_symmetry_multiplicity
 _atom_site_fract_x
 _atom_site_fract_y
 _atom_site_fract_z
 _atom_site_occupancy
  Ca2+  Ca0  1  0.16888477  0.08481321  0.17850932  1
  Ca2+  Ca1  1  0.17337044  0.08408534  0.50401731  1
  Ca2+  Ca2  1  0.16824642  0.08289282  0.83459823  1
  Ca2+  Ca3  1  0.17131580  0.58116677  0.17804976  1
  Ca2+  Ca4  1  0.16912093  0.57324791  0.50030641  1
  Ca2+  Ca5  1  0.15937750  0.57864514  0.83559834  1
  Ca2+  Ca6  1  0.65721908  0.07557417  0.17249218  1
  Ca2+  Ca7  1  0.65917906  0.07108259  0.50299866  1
  Ca2+  Ca8  1  0.66682992  0.07273043  0.84060165  1
  Ca2+  Ca9  1  0.67084229  0.57157825  0.17896391  1
  Ca2+  Ca10  1  0.66609752  0.57594105  0.50158092  1
  Ca2+  Ca11  1  0.66407415  0.57293373  0.83450964  1
  Ca2+  Ca12  1  0.08362793  0.32774216  0.16627552  1
  Ca2+  Ca13  1  0.07661973  0.33689327  0.49094297  1
  Ca2+  Ca14  1  0.07804301  0.32960740  0.82387929  1
  Ca2+  Ca15  1  0.08446818  0.82875501  0.16103845  1
  Ca2+  Ca16  1  0.08019115  0.84314312  0.49663063  1
  Ca2+  Ca17  1  0.07927328  0.82807574  0.82393928  1
  Ca2+  Ca18  1  0.59237695  0.32339472  0.16457640  1
  Ca2+  Ca19  1  0.58618949  0.32854606  0.48989534  1
  Ca2+  Ca20  1  0.58951549  0.32957836  0.82860339  1
  Ca2+  Ca21  1  0.58842205  0.82998645  0.16751837  1
  Ca2+  Ca22  1  0.59151442  0.82297659  0.49329137  1
  Ca2+  Ca23  1  0.58982995  0.82863117  0.82380146  1
  Ca2+  Ca24  1  0.32616877  0.42306815  0.17720244  1
  Ca2+  Ca25  1  0.32262814  0.41599133  0.50017999  1
  Ca2+  Ca26  1  0.32735016  0.41693499  0.83220608  1
  Ca2+  Ca27  1  0.32453597  0.92376013  0.17895539  1
  Ca2+  Ca28  1  0.32326952  0.92836842  0.50246740  1
  Ca2+  Ca29  1  0.33143849  0.92212674  0.83064809  1
  Ca2+  Ca30  1  0.82800678  0.41957479  0.17518810  1
  Ca2+  Ca31  1  0.82948731  0.41580331  0.50180521  1
  Ca2+  Ca32  1  0.82390584  0.40947971  0.83371417  1
  Ca2+  Ca33  1  0.82308242  0.91932422  0.17175479  1
  Ca2+  Ca34  1  0.82610909  0.91584713  0.50423104  1
  Ca2+  Ca35  1  0.82482789  0.90925887  0.83347518  1
  Ca2+  Ca36  1  0.42440309  0.16330991  0.16822934  1
  Ca2+  Ca37  1  0.41759834  0.16198897  0.49382035  1
  Ca2+  Ca38  1  0.42186176  0.16403446  0.83177677  1
  Ca2+  Ca39  1  0.41982472  0.66372914  0.16859862  1
  Ca2+  Ca40  1  0.42757948  0.66299637  0.49297612  1
  Ca2+  Ca41  1  0.42576904  0.67102012  0.82482941  1
  Ca2+  Ca42  1  0.92769829  0.17042664  0.16718993  1
  Ca2+  Ca43  1  0.92087956  0.18086715  0.49046812  1
  Ca2+  Ca44  1  0.92165647  0.17059771  0.82761291  1
  Ca2+  Ca45  1  0.92023753  0.66300358  0.16706749  1
  Ca2+  Ca46  1  0.91129377  0.67227985  0.49602298  1
  Ca2+  Ca47  1  0.91995099  0.67152869  0.82844010  1
  Al0+  Al48  1  -0.00128492  -0.00014442  -0.00525275  1
  Al0+  Al49  1  -0.00346515  0.00072258  0.33022108  1
  Al0+  Al50  1  0.00084094  -0.00016862  0.66586299  1
  Al0+  Al51  1  -0.00080146  0.49998250  -0.00450706  1
  Al0+  Al52  1  -0.00231957  0.50332232  0.33571685  1
  Al0+  Al53  1  -0.00031532  0.50081332  0.66732428  1
  Al0+  Al54  1  0.49814109  0.00050997  -0.00006089  1
  Al0+  Al55  1  0.49753870  -0.00206495  0.33719673  1
  Al0+  Al56  1  0.49942352  -0.00166750  0.67535833  1
  Al0+  Al57  1  0.49837241  0.49985804  0.00330119  1
  Al0+  Al58  1  0.50078353  0.49989256  0.33373267  1
  Al0+  Al59  1  0.50058662  0.49818939  0.66699578  1
  Al0+  Al60  1  0.25057111  0.25044913  -0.00405010  1
  Al0+  Al61  1  0.25125134  0.25068320  0.33613650  1
  Al0+  Al62  1  0.25295389  0.25133495  0.67628894  1
  Al0+  Al63  1  0.25048942  0.75005379  -0.00665682  1
  Al0+  Al64  1  0.25079387  0.75149686  0.34202851  1
  Al0+  Al65  1  0.25228782  0.75085355  0.66831558  1
  Al0+  Al66  1  0.75063179  0.24743281  -0.00043898  1
  Al0+  Al67  1  0.75091534  0.24895554  0.32572055  1
  Al0+  Al68  1  0.75100643  0.24887901  0.66558787  1
  Al0+  Al69  1  0.74979561  0.74923568  0.00456678  1
  Al0+  Al70  1  0.74981074  0.74907914  0.33264181  1
  Al0+  Al71  1  0.75224595  0.74830065  0.66297090  1
  Al0+  Al72  1  0.68196845  0.92760182  0.67989062  1
  Al0+  Al73  1  0.32034226  0.07190814  0.34684469  1
  Al0+  Al74  1  0.92874905  0.32526532  0.31604434  1
  Al0+  Al75  1  0.67805077  0.92909944  0.01521183  1
  Al0+  Al76  1  0.67920183  0.93050844  0.34670450  1
  Al0+  Al77  1  0.17447904  0.92903048  0.34600185  1
  Al0+  Al78  1  0.57151628  0.67816101  0.31759579  1
  Al0+  Al79  1  0.57037093  0.67857661  0.65280598  1
  Al0+  Al80  1  0.67920947  0.42761292  0.68004201  1
  Al0+  Al81  1  0.17669271  0.92878143  0.68410916  1
  Al0+  Al82  1  0.17804461  0.43181907  0.68205566  1
  Al0+  Al83  1  0.92868113  0.32072770  0.65229974  1
  Al0+  Al84  1  0.17805013  0.42929512  0.34585712  1
  Al0+  Al85  1  0.07178552  0.67930520  0.98694004  1
  Al0+  Al86  1  0.07230352  0.17980541  0.32050617  1
  Al0+  Al87  1  0.32138406  0.07192397  0.68592697  1
  Al0+  Al88  1  0.56967778  0.17685080  0.32168311  1
  Al0+  Al89  1  0.67843912  0.42777363  0.01417720  1
  Al0+  Al90  1  0.68016198  0.42545268  0.34770089  1
  Al0+  Al91  1  0.93097607  0.82094418  0.65192801  1
  Al0+  Al92  1  0.57037865  0.17894997  0.98506170  1
  Al0+  Al93  1  0.07254169  0.17886101  0.98432648  1
  Al0+  Al94  1  0.82080529  0.57162027  0.34924412  1
  Al0+  Al95  1  0.32302221  0.57297717  0.34870332  1
  Si0+  Si96  1  0.82392189  0.07143030  0.01738467  1
  Si0+  Si97  1  0.31892695  0.07150241  0.01658582  1
  Si0+  Si98  1  0.82139182  0.57200057  0.68476499  1
  Si0+  Si99  1  0.82150497  0.07280843  0.68228837  1
  Si0+  Si100  1  0.07432405  0.67802416  0.64801591  1
  Si0+  Si101  1  0.42884633  0.82093350  0.98441075  1
  Si0+  Si102  1  0.42794999  0.32292569  0.31714422  1
  Si0+  Si103  1  0.92663021  0.82121031  0.98377001  1
  Si0+  Si104  1  0.07223730  0.68168909  0.32120392  1
  Si0+  Si105  1  0.92761619  0.82199194  0.31634617  1
  Si0+  Si106  1  0.17862329  0.92847502  0.01268550  1
  Si0+  Si107  1  0.57029238  0.17777705  0.65353996  1
  Si0+  Si108  1  0.42817323  0.82372464  0.64841252  1
  Si0+  Si109  1  0.82231455  0.07224991  0.34895139  1
  Si0+  Si110  1  0.17853650  0.42977324  0.01352398  1
  Si0+  Si111  1  0.32365282  0.57131590  0.68424699  1
  Si0+  Si112  1  0.31978625  0.57314203  0.01374784  1
  Si0+  Si113  1  0.82248605  0.57136900  0.01609897  1
  Si0+  Si114  1  0.07447975  0.17993923  0.65087768  1
  Si0+  Si115  1  0.57092306  0.67865567  0.98613541  1
  Si0+  Si116  1  0.92888558  0.32173840  0.98161475  1
  Si0+  Si117  1  0.42921337  0.32037956  0.65204939  1
  Si0+  Si118  1  0.42766527  0.82023280  0.31737026  1
  Si0+  Si119  1  0.42818116  0.32403319  0.98221907  1
  O2-  O120  1  0.24440011  0.00308930  0.05705435  1
  O2-  O121  1  0.24231879  0.00539053  0.39439102  1
  O2-  O122  1  0.24718038  0.00148010  0.73572893  1
  O2-  O123  1  0.24774027  0.50277106  0.05527758  1
  O2-  O124  1  0.25140840  0.49984740  0.39640478  1
  O2-  O125  1  0.24997172  0.50909779  0.73055562  1
  O2-  O126  1  0.75213858  0.00502401  0.06072185  1
  O2-  O127  1  0.75042781  0.00759730  0.39406984  1
  O2-  O128  1  0.75581805  0.00195573  0.72853171  1
  O2-  O129  1  0.75327875  0.50292285  0.05892778  1
  O2-  O130  1  0.75136698  0.49725554  0.39869734  1
  O2-  O131  1  0.75431864  0.50132312  0.72856712  1
  O2-  O132  1  0.00361068  0.25431064  0.26836569  1
  O2-  O133  1  0.00637422  0.24871746  0.60680861  1
  O2-  O134  1  -0.00177104  0.25358757  0.93735188  1
  O2-  O135  1  0.00348987  0.75434678  0.27671685  1
  O2-  O136  1  0.00974444  0.75061878  0.60425840  1
  O2-  O137  1  -0.00311542  0.75366864  0.94043533  1
  O2-  O138  1  0.49816302  0.25488613  0.27390947  1
  O2-  O139  1  0.49977288  0.24869849  0.61090438  1
  O2-  O140  1  0.50013008  0.25817896  0.93803742  1
  O2-  O141  1  0.49499306  0.75141011  0.27030158  1
  O2-  O142  1  0.49650565  0.75423748  0.60568611  1
  O2-  O143  1  0.50353231  0.75275037  0.94283251  1
  O2-  O144  1  0.07421867  0.18009340  0.09692077  1
  O2-  O145  1  0.06948567  0.17916445  0.43390004  1
  O2-  O146  1  0.07169147  0.18163954  0.75720514  1
  O2-  O147  1  0.07415646  0.68097867  0.10014385  1
  O2-  O148  1  0.07127715  0.68184505  0.42589525  1
  O2-  O149  1  0.07084782  0.67782086  0.75431221  1
  O2-  O150  1  0.56584077  0.17663086  0.09782913  1
  O2-  O151  1  0.56721198  0.17542392  0.43509120  1
  O2-  O152  1  0.56993290  0.17928504  0.75899495  1
  O2-  O153  1  0.56874816  0.67848473  0.09080088  1
  O2-  O154  1  0.57175125  0.67994541  0.43054405  1
  O2-  O155  1  0.56866272  0.67938043  0.76726575  1
  O2-  O156  1  0.17983538  0.43176611  0.23127304  1
  O2-  O157  1  0.17945086  0.43128515  0.56967427  1
  O2-  O158  1  0.17998865  0.43114158  0.90834764  1
  O2-  O159  1  0.17804119  0.92585776  0.23131635  1
  O2-  O160  1  0.17722761  0.93209290  0.57112105  1
  O2-  O161  1  0.18200702  0.92781929  0.90803717  1
  O2-  O162  1  0.68151991  0.42733175  0.23364527  1
  O2-  O163  1  0.67826858  0.42631187  0.56802790  1
  O2-  O164  1  0.67878250  0.43019394  0.90055902  1
  O2-  O165  1  0.68062645  0.93088928  0.23318090  1
  O2-  O166  1  0.68176692  0.92868883  0.56722889  1
  O2-  O167  1  0.68050925  0.92689797  0.90191345  1
  O2-  O168  1  0.42394812  0.32392180  0.08726831  1
  O2-  O169  1  0.42720078  0.32254882  0.42286866  1
  O2-  O170  1  0.43037772  0.32188392  0.75754687  1
  O2-  O171  1  0.42455624  0.81901029  0.08912179  1
  O2-  O172  1  0.42945361  0.82018418  0.42248520  1
  O2-  O173  1  0.42948283  0.82179070  0.75505830  1
  O2-  O174  1  0.93154875  0.32391727  0.08664028  1
  O2-  O175  1  0.92930030  0.32319971  0.42982874  1
  O2-  O176  1  0.92854458  0.31690969  0.76595898  1
  O2-  O177  1  0.92719581  0.82174536  0.08932905  1
  O2-  O178  1  0.92599171  0.82196901  0.42123030  1
  O2-  O179  1  0.92887948  0.81554610  0.76551700  1
  O2-  O180  1  0.32153255  0.06824943  0.23247152  1
  O2-  O181  1  0.32202518  0.07217007  0.57298266  1
  O2-  O182  1  0.32009436  0.06967970  0.91172063  1
  O2-  O183  1  0.31867390  0.57348193  0.23392145  1
  O2-  O184  1  0.32497762  0.56726066  0.57937604  1
  O2-  O185  1  0.32143203  0.57294042  0.90873385  1
  O2-  O186  1  0.82488060  0.06732357  0.24313887  1
  O2-  O187  1  0.81748833  0.07403816  0.57707057  1
  O2-  O188  1  0.82423634  0.07041590  0.91155953  1
  O2-  O189  1  0.82015140  0.57256816  0.23493245  1
  O2-  O190  1  0.82049695  0.57335434  0.57977556  1
  O2-  O191  1  0.82196151  0.57370403  0.91050173  1
  O2-  O192  1  0.03980903  0.08250589  0.26475311  1
  O2-  O193  1  0.05112246  0.08535820  0.60757244  1
  O2-  O194  1  0.04180343  0.08194512  0.92985664  1
  O2-  O195  1  0.04253647  0.59148811  0.27154800  1
  O2-  O196  1  0.04491792  0.58553228  0.60295117  1
  O2-  O197  1  0.04053490  0.58337574  0.93080561  1
  O2-  O198  1  0.53391928  0.08116578  0.26713157  1
  O2-  O199  1  0.54096615  0.08477292  0.60974911  1
  O2-  O200  1  0.53496843  0.08326932  0.93061548  1
  O2-  O201  1  0.54085340  0.58141666  0.26299374  1
  O2-  O202  1  0.53779313  0.58189416  0.60042982  1
  O2-  O203  1  0.53902267  0.58774190  0.93861362  1
  O2-  O204  1  0.17218089  0.20526282  0.26795528  1
  O2-  O205  1  0.16999899  0.20612257  0.61066534  1
  O2-  O206  1  0.16880724  0.20989151  0.92933409  1
  O2-  O207  1  0.16535684  0.70772469  0.27454817  1
  O2-  O208  1  0.17112335  0.69742828  0.60681811  1
  O2-  O209  1  0.16707283  0.70911521  0.92898481  1
  O2-  O210  1  0.66637264  0.20195198  0.26464032  1
  O2-  O211  1  0.66210023  0.20371750  0.60658791  1
  O2-  O212  1  0.66946130  0.20338996  0.93236003  1
  O2-  O213  1  0.66670949  0.71262768  0.26230768  1
  O2-  O214  1  0.66683520  0.70826599  0.59986208  1
  O2-  O215  1  0.66452182  0.70355672  0.94070563  1
  O2-  O216  1  0.08533781  0.45540485  0.05823918  1
  O2-  O217  1  0.08169814  0.46110397  0.39896600  1
  O2-  O218  1  0.08136490  0.46164962  0.73754674  1
  O2-  O219  1  0.08345094  0.94962165  0.05594570  1
  O2-  O220  1  0.07392397  0.95202168  0.39533105  1
  O2-  O221  1  0.07702359  0.95416508  0.73702536  1
  O2-  O222  1  0.58100337  0.45772422  0.06678658  1
  O2-  O223  1  0.58087539  0.45247738  0.39789408  1
  O2-  O224  1  0.58291152  0.45891345  0.73554769  1
  O2-  O225  1  0.58011930  0.95923441  0.06679699  1
  O2-  O226  1  0.58256244  0.95733732  0.40103312  1
  O2-  O227  1  0.58581800  0.95616045  0.73579212  1
  O2-  O228  1  0.20924658  0.33824887  0.05929637  1
  O2-  O229  1  0.20586997  0.33224964  0.40040390  1
  O2-  O230  1  0.21251880  0.33774108  0.73893166  1
  O2-  O231  1  0.21095032  0.83705923  0.05867992  1
  O2-  O232  1  0.20530441  0.83403444  0.40311696  1
  O2-  O233  1  0.20650340  0.82913115  0.73589953  1
  O2-  O234  1  0.70805301  0.32957872  0.06486998  1
  O2-  O235  1  0.70653840  0.32529604  0.39735123  1
  O2-  O236  1  0.71136266  0.33089580  0.73445405  1
  O2-  O237  1  0.70895947  0.83229733  0.06936189  1
  O2-  O238  1  0.71407319  0.83504561  0.39829912  1
  O2-  O239  1  0.71505916  0.83101374  0.73346463  1
  O2-  O240  1  0.45072768  0.41667493  0.26992447  1
  O2-  O241  1  0.45616198  0.41162089  0.60436862  1
  O2-  O242  1  0.45033249  0.41917083  0.93640629  1
  O2-  O243  1  0.45443324  0.91290444  0.26964449  1
  O2-  O244  1  0.45463502  0.91808670  0.60594910  1
  O2-  O245  1  0.45384158  0.91342499  0.93742341  1
  O2-  O246  1  0.95527529  0.42509148  0.26438596  1
  O2-  O247  1  0.95647573  0.41940179  0.60205263  1
  O2-  O248  1  0.95288765  0.41520600  0.93385437  1
  O2-  O249  1  0.95070444  0.91378625  0.26650466  1
  O2-  O250  1  0.95593200  0.91958728  0.59846931  1
  O2-  O251  1  0.94918109  0.91444792  0.93594843  1
  O2-  O252  1  0.33517583  0.29653162  0.26913180  1
  O2-  O253  1  0.33673701  0.29223286  0.60648255  1
  O2-  O254  1  0.33651678  0.29461432  0.93328362  1
  O2-  O255  1  0.33308298  0.79479379  0.27147633  1
  O2-  O256  1  0.33360850  0.80013769  0.60386693  1
  O2-  O257  1  0.34009832  0.78964052  0.93227937  1
  O2-  O258  1  0.83276333  0.29313160  0.26010640  1
  O2-  O259  1  0.83323349  0.28705552  0.59768633  1
  O2-  O260  1  0.83549838  0.29366927  0.93617460  1
  O2-  O261  1  0.83877621  0.78860477  0.26646034  1
  O2-  O262  1  0.83660337  0.78642022  0.59619883  1
  O2-  O263  1  0.83335430  0.79191957  0.93777651  1
  O2-  O264  1  0.40952554  0.04012537  0.06354813  1
  O2-  O265  1  0.41440754  0.03653627  0.40348425  1
  O2-  O266  1  0.41751153  0.03876118  0.74251667  1
  O2-  O267  1  0.41059694  0.54517985  0.06308402  1
  O2-  O268  1  0.42104665  0.54489199  0.40033711  1
  O2-  O269  1  0.41411297  0.53897779  0.73367038  1
  O2-  O270  1  0.91672480  0.04191821  0.06388559  1
  O2-  O271  1  0.91323145  0.04309353  0.39756295  1
  O2-  O272  1  0.91655828  0.05050416  0.72664818  1
  O2-  O273  1  0.91664599  0.54471499  0.06141926  1
  O2-  O274  1  0.91964227  0.55000765  0.40316403  1
  O2-  O275  1  0.91574909  0.54908994  0.73067358  1
  O2-  O276  1  0.29412237  0.16528270  0.06113806  1
  O2-  O277  1  0.30009939  0.17126927  0.40011065  1
  O2-  O278  1  0.29725474  0.17021400  0.74178803  1
  O2-  O279  1  0.29206524  0.66542000  0.06018703  1
  O2-  O280  1  0.29588416  0.66946305  0.40457957  1
  O2-  O281  1  0.30576005  0.66767250  0.72800149  1
  O2-  O282  1  0.80208582  0.16582066  0.06239924  1
  O2-  O283  1  0.80087254  0.16760161  0.39095115  1
  O2-  O284  1  0.79301199  0.16400721  0.73203453  1
  O2-  O285  1  0.79909398  0.66480042  0.06349634  1
  O2-  O286  1  0.78994079  0.66911719  0.40174159  1
  O2-  O287  1  0.79278191  0.66398506  0.73256720  1
