# generated using pymatgen
data_Ca2Al2SiO7
_symmetry_space_group_name_H-M   'P 1'
_cell_length_a   15.46532939
_cell_length_b   15.46357271
_cell_length_c   15.28786797
_cell_angle_alpha   89.99875240
_cell_angle_beta   89.98473565
_cell_angle_gamma   90.00510957
_symmetry_Int_Tables_number   1
_chemical_formula_structural   Ca2Al2SiO7
_chemical_formula_sum   'Ca48 Al48 Si24 O168'
_cell_volume   3656.08194416
_cell_formula_units_Z   24
loop_
 _symmetry_equiv_pos_site_id
 _symmetry_equiv_pos_as_xyz
  1  'x, y, z'
loop_
 _atom_type_symbol
 _atom_type_oxidation_number
  Ca2+  2.0
  Al0+  0.0
  Si0+  0.0
  O2-  -2.0
loop_
 _atom_site_type_symbol
 _atom_site_label
 _atom_site_symmetry_multiplicity
 _atom_site_fract_x
 _atom_site_fract_y
 _atom_site_fract_z
 _atom_site_occupancy
  Ca2+  Ca0  1  0.17077163  0.07715577  0.17414174  1
  Ca2+  Ca1  1  0.18203286  0.08320481  0.50363350  1
  Ca2+  Ca2  1  0.17365508  0.07683893  0.83627725  1
  Ca2+  Ca3  1  0.17943215  0.57756723  0.17281223  1
  Ca2+  Ca4  1  0.17334261  0.58090833  0.49529084  1
  Ca2+  Ca5  1  0.17621470  0.58282431  0.84011088  1
  Ca2+  Ca6  1  0.66743013  0.08153717  0.16893415  1
  Ca2+  Ca7  1  0.65587159  0.07538815  0.50231925  1
  Ca2+  Ca8  1  0.66576731  0.08898248  0.83833105  1
  Ca2+  Ca9  1  0.67533134  0.58083953  0.17849201  1
  Ca2+  Ca10  1  0.66623799  0.57899975  0.50454987  1
  Ca2+  Ca11  1  0.67169787  0.57894331  0.83270587  1
  Ca2+  Ca12  1  0.07891220  0.33774954  0.16383246  1
  Ca2+  Ca13  1  0.07863327  0.33972115  0.49495118  1
  Ca2+  Ca14  1  0.06835511  0.33952791  0.82907511  1
  Ca2+  Ca15  1  0.07955876  0.83546388  0.16391424  1
  Ca2+  Ca16  1  0.07289352  0.83149062  0.49304951  1
  Ca2+  Ca17  1  0.08411325  0.83447519  0.83260270  1
  Ca2+  Ca18  1  0.58094406  0.33377780  0.16586799  1
  Ca2+  Ca19  1  0.57755594  0.33639728  0.49668844  1
  Ca2+  Ca20  1  0.58241046  0.32299857  0.82339521  1
  Ca2+  Ca21  1  0.58259335  0.83032025  0.17352741  1
  Ca2+  Ca22  1  0.57937359  0.82312253  0.49326618  1
  Ca2+  Ca23  1  0.57666559  0.82465478  0.82263232  1
  Ca2+  Ca24  1  0.33270870  0.42374309  0.17862969  1
  Ca2+  Ca25  1  0.33476545  0.41343705  0.50076717  1
  Ca2+  Ca26  1  0.33898493  0.42100980  0.83444797  1
  Ca2+  Ca27  1  0.33231273  0.92090173  0.17458965  1
  Ca2+  Ca28  1  0.35161284  0.92639465  0.50223869  1
  Ca2+  Ca29  1  0.33558356  0.92063836  0.83543883  1
  Ca2+  Ca30  1  0.82871790  0.42391607  0.17324903  1
  Ca2+  Ca31  1  0.82063403  0.42475766  0.50712348  1
  Ca2+  Ca32  1  0.83103773  0.42010981  0.83621189  1
  Ca2+  Ca33  1  0.82849078  0.92247287  0.17551353  1
  Ca2+  Ca34  1  0.82527867  0.91005490  0.49883963  1
  Ca2+  Ca35  1  0.82865336  0.92746543  0.84131578  1
  Ca2+  Ca36  1  0.41993266  0.17088215  0.16656820  1
  Ca2+  Ca37  1  0.41569886  0.17310447  0.49744060  1
  Ca2+  Ca38  1  0.42683932  0.16882181  0.82240159  1
  Ca2+  Ca39  1  0.42064209  0.65968517  0.16661293  1
  Ca2+  Ca40  1  0.42761767  0.67151599  0.48911081  1
  Ca2+  Ca41  1  0.42147693  0.67060617  0.82330834  1
  Ca2+  Ca42  1  0.91480728  0.17379018  0.15652824  1
  Ca2+  Ca43  1  0.91696339  0.17550792  0.49868098  1
  Ca2+  Ca44  1  0.91076226  0.17930602  0.83079776  1
  Ca2+  Ca45  1  0.91002912  0.66808315  0.16639930  1
  Ca2+  Ca46  1  0.91134126  0.66563456  0.49197929  1
  Ca2+  Ca47  1  0.91432792  0.66169195  0.82870042  1
  Al0+  Al48  1  -0.00051200  0.00057572  0.00581206  1
  Al0+  Al49  1  0.00108392  0.00104047  0.33060048  1
  Al0+  Al50  1  0.00029929  -0.00044411  0.66696542  1
  Al0+  Al51  1  0.00040824  0.50228939  -0.00100867  1
  Al0+  Al52  1  0.00140419  0.50074913  0.33736219  1
  Al0+  Al53  1  0.00041311  0.50093483  0.66462608  1
  Al0+  Al54  1  0.49938522  -0.00099939  -0.00328214  1
  Al0+  Al55  1  0.50202360  -0.00084121  0.33540520  1
  Al0+  Al56  1  0.50017890  0.00011988  0.66880958  1
  Al0+  Al57  1  0.50132324  0.50050428  0.00130357  1
  Al0+  Al58  1  0.50073397  0.49950898  0.33075806  1
  Al0+  Al59  1  0.50069940  0.49837635  0.66614209  1
  Al0+  Al60  1  0.24891568  0.24944592  -0.00217557  1
  Al0+  Al61  1  0.24981864  0.24823704  0.33510632  1
  Al0+  Al62  1  0.24963935  0.24738387  0.67299874  1
  Al0+  Al63  1  0.24880057  0.75011080  0.00754151  1
  Al0+  Al64  1  0.24727619  0.75055115  0.33374681  1
  Al0+  Al65  1  0.24661401  0.75111498  0.66174206  1
  Al0+  Al66  1  0.74953262  0.25004456  -0.00310378  1
  Al0+  Al67  1  0.75162676  0.25078084  0.33569252  1
  Al0+  Al68  1  0.75088880  0.24918404  0.65986416  1
  Al0+  Al69  1  0.74930953  0.75045928  0.00079287  1
  Al0+  Al70  1  0.75053779  0.75358200  0.33069575  1
  Al0+  Al71  1  0.75044535  0.75074630  0.66967210  1
  Al0+  Al72  1  0.67716992  0.42652780  0.68355729  1
  Al0+  Al73  1  0.32248177  0.57250353  0.34956602  1
  Al0+  Al74  1  0.92939187  0.82151484  0.31857283  1
  Al0+  Al75  1  0.82151302  0.57153926  0.01467036  1
  Al0+  Al76  1  0.32159156  0.06920272  0.68274999  1
  Al0+  Al77  1  0.93020209  0.32232995  0.65041492  1
  Al0+  Al78  1  0.68113157  0.93175498  0.34715415  1
  Al0+  Al79  1  0.17975524  0.93000469  0.01449572  1
  Al0+  Al80  1  0.18044141  0.42760643  0.34798648  1
  Al0+  Al81  1  0.32230208  0.56945255  0.01195082  1
  Al0+  Al82  1  0.42702229  0.32040197  0.65247744  1
  Al0+  Al83  1  0.57223257  0.67840654  0.65264253  1
  Al0+  Al84  1  0.42801800  0.82239382  0.31678283  1
  Al0+  Al85  1  0.56839204  0.17927734  0.98767304  1
  Al0+  Al86  1  0.81858875  0.07234027  0.01254128  1
  Al0+  Al87  1  0.32092668  0.06855940  0.34610745  1
  Al0+  Al88  1  0.57086117  0.67818786  0.31653593  1
  Al0+  Al89  1  0.42675750  0.82025696  0.65282333  1
  Al0+  Al90  1  0.57256229  0.17814975  0.64978020  1
  Al0+  Al91  1  0.42838414  0.31967087  0.31931816  1
  Al0+  Al92  1  0.82039951  0.57198763  0.34737999  1
  Al0+  Al93  1  0.82118493  0.57141819  0.68291127  1
  Al0+  Al94  1  0.93125105  0.32198711  0.98731957  1
  Al0+  Al95  1  0.67813100  0.42703173  0.34818821  1
  Si0+  Si96  1  0.67928126  0.42773740  0.01624213  1
  Si0+  Si97  1  0.17849735  0.42861820  0.68285499  1
  Si0+  Si98  1  0.42645234  0.32371223  0.98399023  1
  Si0+  Si99  1  0.07296190  0.17504254  0.98237900  1
  Si0+  Si100  1  0.82370730  0.07013580  0.68075773  1
  Si0+  Si101  1  0.17481311  0.92738139  0.68310657  1
  Si0+  Si102  1  0.07082673  0.17668273  0.65080819  1
  Si0+  Si103  1  0.32338009  0.07205542  0.01682805  1
  Si0+  Si104  1  0.92994046  0.32143266  0.31791181  1
  Si0+  Si105  1  0.57243973  0.67826489  0.98411993  1
  Si0+  Si106  1  0.92982964  0.82182954  0.65439345  1
  Si0+  Si107  1  0.57364569  0.17779810  0.31647162  1
  Si0+  Si108  1  0.07127453  0.67814770  0.65093117  1
  Si0+  Si109  1  0.67985142  0.93001055  0.68322838  1
  Si0+  Si110  1  0.82507438  0.07336971  0.35118161  1
  Si0+  Si111  1  0.67634572  0.92733436  0.01647461  1
  Si0+  Si112  1  0.17753738  0.42787044  0.01364443  1
  Si0+  Si113  1  0.07112911  0.17967663  0.31814030  1
  Si0+  Si114  1  0.92811275  0.82255995  0.98424759  1
  Si0+  Si115  1  0.42727423  0.81864782  0.98604296  1
  Si0+  Si116  1  0.17567663  0.92825945  0.35150979  1
  Si0+  Si117  1  0.07099520  0.67669771  0.31373054  1
  Si0+  Si118  1  0.07091181  0.68191409  0.98501381  1
  Si0+  Si119  1  0.31954270  0.57235998  0.67942969  1
  O2-  O120  1  0.25190882  0.00672152  0.06131531  1
  O2-  O121  1  0.25092833  -0.01065264  0.39477638  1
  O2-  O122  1  0.24774503  -0.00851170  0.72670484  1
  O2-  O123  1  0.25330065  0.48840936  0.05663518  1
  O2-  O124  1  0.25399756  0.49687695  0.39957998  1
  O2-  O125  1  0.25171001  0.49839339  0.72374559  1
  O2-  O126  1  0.74478696  -0.00278918  0.05906427  1
  O2-  O127  1  0.75543592  0.00645362  0.39575634  1
  O2-  O128  1  0.74915317  0.00338610  0.72424555  1
  O2-  O129  1  0.74639351  0.49785464  0.06034455  1
  O2-  O130  1  0.74673408  0.50273962  0.39721329  1
  O2-  O131  1  0.75036364  0.49844476  0.73323324  1
  O2-  O132  1  -0.00038419  0.24950875  0.27474764  1
  O2-  O133  1  0.00625888  0.24789165  0.60466357  1
  O2-  O134  1  0.00653716  0.24680061  0.93967963  1
  O2-  O135  1  0.00243375  0.74606861  0.27000943  1
  O2-  O136  1  -0.00286202  0.74764049  0.61223614  1
  O2-  O137  1  -0.00195144  0.75080805  0.94094199  1
  O2-  O138  1  0.50648812  0.24806103  0.27240940  1
  O2-  O139  1  0.50147862  0.25155949  0.60160841  1
  O2-  O140  1  0.49202267  0.25209616  0.94072568  1
  O2-  O141  1  0.49435103  0.74596460  0.26509848  1
  O2-  O142  1  0.49606698  0.74615791  0.60372142  1
  O2-  O143  1  0.49898285  0.74822066  0.94354988  1
  O2-  O144  1  0.07336968  0.17455075  0.08807556  1
  O2-  O145  1  0.06892337  0.17841032  0.42305129  1
  O2-  O146  1  0.06718222  0.17480709  0.75647601  1
  O2-  O147  1  0.07123543  0.68289769  0.08933667  1
  O2-  O148  1  0.07049671  0.67759380  0.41968895  1
  O2-  O149  1  0.07512713  0.67914414  0.75642096  1
  O2-  O150  1  0.56731235  0.17867127  0.10069972  1
  O2-  O151  1  0.57258965  0.17663877  0.42150391  1
  O2-  O152  1  0.57042211  0.17776492  0.76399332  1
  O2-  O153  1  0.57394279  0.67810166  0.08844786  1
  O2-  O154  1  0.57288185  0.68118205  0.42976253  1
  O2-  O155  1  0.57116817  0.68207603  0.76752203  1
  O2-  O156  1  0.17893301  0.42900139  0.23382398  1
  O2-  O157  1  0.17671222  0.42921165  0.57832207  1
  O2-  O158  1  0.17472526  0.43205366  0.90784174  1
  O2-  O159  1  0.17200794  0.93348742  0.24582004  1
  O2-  O160  1  0.16569127  0.93046780  0.57849193  1
  O2-  O161  1  0.18136966  0.92889701  0.90109306  1
  O2-  O162  1  0.68376275  0.42328539  0.23393761  1
  O2-  O163  1  0.67887684  0.42745563  0.57061495  1
  O2-  O164  1  0.67917837  0.42833642  0.91083143  1
  O2-  O165  1  0.68231285  0.93485144  0.23362056  1
  O2-  O166  1  0.68237313  0.92834751  0.57844365  1
  O2-  O167  1  0.67830386  0.92558735  0.91054271  1
  O2-  O168  1  0.42617048  0.32373837  0.08942901  1
  O2-  O169  1  0.42512042  0.31543040  0.43166624  1
  O2-  O170  1  0.42621124  0.31823131  0.76684160  1
  O2-  O171  1  0.42748067  0.82028160  0.09041701  1
  O2-  O172  1  0.43387507  0.82326771  0.42983185  1
  O2-  O173  1  0.42693658  0.81761251  0.76778622  1
  O2-  O174  1  0.93348217  0.32059587  0.10055169  1
  O2-  O175  1  0.93169612  0.31933548  0.42270660  1
  O2-  O176  1  0.93186950  0.32134691  0.76405883  1
  O2-  O177  1  0.92908009  0.82275450  0.08879040  1
  O2-  O178  1  0.93242066  0.82321563  0.43227116  1
  O2-  O179  1  0.93238091  0.82485672  0.75972256  1
  O2-  O180  1  0.31690626  0.06912217  0.23248318  1
  O2-  O181  1  0.31908385  0.06943454  0.56995538  1
  O2-  O182  1  0.32324928  0.06909854  0.91136702  1
  O2-  O183  1  0.31862439  0.57001199  0.23545454  1
  O2-  O184  1  0.31536712  0.57447616  0.57529900  1
  O2-  O185  1  0.31966251  0.57169321  0.89806358  1
  O2-  O186  1  0.82515509  0.07345272  0.24526761  1
  O2-  O187  1  0.82993758  0.06479150  0.57622788  1
  O2-  O188  1  0.81844402  0.07048722  0.89901029  1
  O2-  O189  1  0.82132810  0.56810511  0.23331150  1
  O2-  O190  1  0.82229954  0.57303409  0.57015026  1
  O2-  O191  1  0.82117118  0.57150156  0.90188768  1
  O2-  O192  1  0.04393459  0.08839583  0.26868905  1
  O2-  O193  1  0.04195165  0.08450788  0.60311266  1
  O2-  O194  1  0.04456989  0.08200495  0.93664218  1
  O2-  O195  1  0.04480669  0.58314334  0.26768785  1
  O2-  O196  1  0.04598190  0.58697908  0.60242605  1
  O2-  O197  1  0.04555392  0.59003197  0.93604726  1
  O2-  O198  1  0.54596266  0.08518234  0.26992069  1
  O2-  O199  1  0.54112265  0.07972322  0.59999758  1
  O2-  O200  1  0.54107787  0.08151239  0.93208236  1
  O2-  O201  1  0.54763265  0.57895434  0.26241168  1
  O2-  O202  1  0.54820895  0.57889061  0.60295962  1
  O2-  O203  1  0.54579467  0.58582063  0.93699802  1
  O2-  O204  1  0.16171013  0.20716934  0.26874504  1
  O2-  O205  1  0.16598521  0.19971934  0.60852024  1
  O2-  O206  1  0.16780054  0.19686103  0.93598491  1
  O2-  O207  1  0.16425374  0.70285967  0.26738806  1
  O2-  O208  1  0.15982077  0.70837724  0.59898013  1
  O2-  O209  1  0.16200384  0.71306498  0.93671952  1
  O2-  O210  1  0.66904296  0.20169828  0.27186087  1
  O2-  O211  1  0.67264523  0.19684602  0.59728614  1
  O2-  O212  1  0.66466963  0.20972272  0.93267350  1
  O2-  O213  1  0.66711323  0.71439742  0.26287119  1
  O2-  O214  1  0.66988365  0.71207442  0.60192263  1
  O2-  O215  1  0.66306919  0.70929399  0.93559266  1
  O2-  O216  1  0.08768463  0.46104590  0.06209807  1
  O2-  O217  1  0.08401312  0.45996420  0.40282935  1
  O2-  O218  1  0.08840766  0.46151987  0.73097084  1
  O2-  O219  1  0.08289673  0.95825213  0.06939578  1
  O2-  O220  1  0.08485966  0.96191622  0.39918485  1
  O2-  O221  1  0.08397288  0.95815527  0.73409649  1
  O2-  O222  1  0.58498477  0.45178914  0.06142890  1
  O2-  O223  1  0.57824670  0.45064303  0.39757003  1
  O2-  O224  1  0.57820770  0.45374098  0.73777367  1
  O2-  O225  1  0.58249105  0.95312980  0.06122080  1
  O2-  O226  1  0.58592579  0.96145544  0.40321382  1
  O2-  O227  1  0.58859103  0.95620790  0.73220925  1
  O2-  O228  1  0.19286265  0.33038558  0.05601274  1
  O2-  O229  1  0.20341401  0.32842450  0.40087312  1
  O2-  O230  1  0.20153903  0.33647382  0.73195144  1
  O2-  O231  1  0.20931421  0.83497407  0.07121801  1
  O2-  O232  1  0.18960502  0.83137518  0.39336573  1
  O2-  O233  1  0.19587915  0.83166880  0.72740061  1
  O2-  O234  1  0.70639731  0.33496714  0.06197275  1
  O2-  O235  1  0.70971070  0.32994823  0.40218076  1
  O2-  O236  1  0.70847094  0.32629056  0.73264283  1
  O2-  O237  1  0.70390886  0.83506929  0.06314260  1
  O2-  O238  1  0.71494076  0.83696859  0.40169586  1
  O2-  O239  1  0.71073906  0.84036917  0.73347853  1
  O2-  O240  1  0.45586977  0.41640755  0.26429731  1
  O2-  O241  1  0.44966127  0.42043441  0.60187900  1
  O2-  O242  1  0.45437649  0.41694208  0.93766542  1
  O2-  O243  1  0.46285657  0.91945243  0.26319842  1
  O2-  O244  1  0.46049780  0.91741326  0.60365007  1
  O2-  O245  1  0.45467881  0.91040252  0.93739068  1
  O2-  O246  1  0.96042931  0.41300167  0.27168200  1
  O2-  O247  1  0.96337846  0.41801713  0.59703788  1
  O2-  O248  1  0.96388417  0.41789089  0.93176480  1
  O2-  O249  1  0.96220365  0.91823157  0.26408254  1
  O2-  O250  1  0.96095715  0.91149134  0.60464683  1
  O2-  O251  1  0.95787775  0.91450835  0.93739170  1
  O2-  O252  1  0.33234653  0.28527046  0.26457847  1
  O2-  O253  1  0.32736582  0.28965676  0.60321049  1
  O2-  O254  1  0.33051667  0.30363711  0.93914749  1
  O2-  O255  1  0.32453960  0.80330465  0.26995976  1
  O2-  O256  1  0.32591972  0.80116147  0.60148223  1
  O2-  O257  1  0.33508235  0.78987558  0.93989196  1
  O2-  O258  1  0.83821582  0.29342251  0.27035960  1
  O2-  O259  1  0.83623713  0.28893792  0.59494214  1
  O2-  O260  1  0.83566178  0.28946323  0.93269627  1
  O2-  O261  1  0.83355014  0.79550103  0.26194572  1
  O2-  O262  1  0.83716237  0.79746942  0.60824129  1
  O2-  O263  1  0.83558268  0.79653446  0.93682284  1
  O2-  O264  1  0.41573006  0.04256859  0.06267422  1
  O2-  O265  1  0.41813883  0.04181024  0.39962169  1
  O2-  O266  1  0.41723703  0.03745951  0.73876494  1
  O2-  O267  1  0.42000273  0.54397879  0.06575255  1
  O2-  O268  1  0.42231705  0.54808028  0.39810805  1
  O2-  O269  1  0.41186908  0.54779828  0.72722054  1
  O2-  O270  1  0.91487591  0.04328603  0.06753770  1
  O2-  O271  1  0.91861561  0.04647232  0.39626065  1
  O2-  O272  1  0.91306384  0.03788260  0.73163233  1
  O2-  O273  1  0.91960596  0.54306261  0.06657352  1
  O2-  O274  1  0.91869376  0.54389274  0.39956100  1
  O2-  O275  1  0.92188458  0.54391098  0.73376173  1
  O2-  O276  1  0.30104939  0.16817655  0.05946235  1
  O2-  O277  1  0.28414912  0.16190668  0.40133772  1
  O2-  O278  1  0.28787074  0.16341812  0.74065064  1
  O2-  O279  1  0.28563176  0.66229349  0.06799394  1
  O2-  O280  1  0.28894407  0.67012844  0.40177296  1
  O2-  O281  1  0.28655538  0.66335638  0.72730638  1
  O2-  O282  1  0.78831896  0.16838117  0.06743672  1
  O2-  O283  1  0.80205607  0.16731934  0.39649048  1
  O2-  O284  1  0.79914033  0.16361384  0.72523814  1
  O2-  O285  1  0.79223815  0.66977111  0.06622832  1
  O2-  O286  1  0.79809440  0.67330143  0.39510056  1
  O2-  O287  1  0.79462011  0.67101461  0.73678041  1
