# generated using pymatgen
data_Ca2Al2SiO7
_symmetry_space_group_name_H-M   'P 1'
_cell_length_a   15.46592460
_cell_length_b   15.46385050
_cell_length_c   15.28925694
_cell_angle_alpha   90.00155420
_cell_angle_beta   90.01086962
_cell_angle_gamma   90.01369486
_symmetry_Int_Tables_number   1
_chemical_formula_structural   Ca2Al2SiO7
_chemical_formula_sum   'Ca48 Al48 Si24 O168'
_cell_volume   3656.62049900
_cell_formula_units_Z   24
loop_
 _symmetry_equiv_pos_site_id
 _symmetry_equiv_pos_as_xyz
  1  'x, y, z'
loop_
 _atom_type_symbol
 _atom_type_oxidation_number
  Ca2+  2.0
  Al0+  0.0
  Si0+  0.0
  O2-  -2.0
loop_
 _atom_site_type_symbol
 _atom_site_label
 _atom_site_symmetry_multiplicity
 _atom_site_fract_x
 _atom_site_fract_y
 _atom_site_fract_z
 _atom_site_occupancy
  Ca2+  Ca0  1  0.16719657  0.08019609  0.17909526  1
  Ca2+  Ca1  1  0.16148487  0.08102829  0.50402241  1
  Ca2+  Ca2  1  0.15537368  0.07849879  0.83343250  1
  Ca2+  Ca3  1  0.16428604  0.57555121  0.17641240  1
  Ca2+  Ca4  1  0.16465740  0.57948658  0.49602031  1
  Ca2+  Ca5  1  0.16030417  0.57464743  0.84144324  1
  Ca2+  Ca6  1  0.67242083  0.07308001  0.17562792  1
  Ca2+  Ca7  1  0.67832862  0.08073362  0.50701119  1
  Ca2+  Ca8  1  0.67327304  0.08117905  0.83311424  1
  Ca2+  Ca9  1  0.66984090  0.58249416  0.17118622  1
  Ca2+  Ca10  1  0.67525587  0.57365796  0.50980768  1
  Ca2+  Ca11  1  0.67498899  0.58024560  0.82874256  1
  Ca2+  Ca12  1  0.08817910  0.32483131  0.16487644  1
  Ca2+  Ca13  1  0.07383403  0.32322340  0.49181299  1
  Ca2+  Ca14  1  0.08262267  0.32189317  0.82712695  1
  Ca2+  Ca15  1  0.09656249  0.82031432  0.16606802  1
  Ca2+  Ca16  1  0.08237101  0.83350996  0.49585034  1
  Ca2+  Ca17  1  0.07985007  0.82639410  0.82320858  1
  Ca2+  Ca18  1  0.57333721  0.33256590  0.16717368  1
  Ca2+  Ca19  1  0.58420853  0.32841120  0.49569719  1
  Ca2+  Ca20  1  0.58338825  0.32811659  0.82111012  1
  Ca2+  Ca21  1  0.57801997  0.84160904  0.16011868  1
  Ca2+  Ca22  1  0.58929695  0.83658511  0.49669009  1
  Ca2+  Ca23  1  0.58066015  0.84522483  0.82968228  1
  Ca2+  Ca24  1  0.32100328  0.42070744  0.17832285  1
  Ca2+  Ca25  1  0.33004012  0.41462277  0.49603214  1
  Ca2+  Ca26  1  0.32511454  0.41815582  0.83961762  1
  Ca2+  Ca27  1  0.33010297  0.92301708  0.17550957  1
  Ca2+  Ca28  1  0.31940052  0.92240733  0.49805348  1
  Ca2+  Ca29  1  0.32892520  0.91692565  0.83433640  1
  Ca2+  Ca30  1  0.83622558  0.41546138  0.17250173  1
  Ca2+  Ca31  1  0.83918415  0.41900258  0.50981283  1
  Ca2+  Ca32  1  0.83545528  0.41354725  0.82800273  1
  Ca2+  Ca33  1  0.82334616  0.92130507  0.17508846  1
  Ca2+  Ca34  1  0.83130296  0.92769243  0.50884799  1
  Ca2+  Ca35  1  0.82891598  0.91830697  0.83155841  1
  Ca2+  Ca36  1  0.40453846  0.17333100  0.16906609  1
  Ca2+  Ca37  1  0.42369905  0.16611669  0.49431010  1
  Ca2+  Ca38  1  0.42591746  0.16670138  0.82580447  1
  Ca2+  Ca39  1  0.41330778  0.67345186  0.16357611  1
  Ca2+  Ca40  1  0.41754647  0.66591049  0.49214472  1
  Ca2+  Ca41  1  0.41764906  0.67585570  0.83097833  1
  Ca2+  Ca42  1  0.92555741  0.16523918  0.17033684  1
  Ca2+  Ca43  1  0.91755046  0.16995303  0.49364870  1
  Ca2+  Ca44  1  0.92509465  0.16817452  0.82204563  1
  Ca2+  Ca45  1  0.93067663  0.66773410  0.16486893  1
  Ca2+  Ca46  1  0.91484320  0.67436596  0.49668784  1
  Ca2+  Ca47  1  0.91753634  0.67108445  0.82746053  1
  Al0+  Al48  1  -0.00111172  -0.00073823  -0.00067418  1
  Al0+  Al49  1  -0.00378201  -0.00055937  0.33455579  1
  Al0+  Al50  1  0.00042086  -0.00438271  0.66929531  1
  Al0+  Al51  1  -0.00114658  0.49948172  0.00076365  1
  Al0+  Al52  1  -0.00008205  0.50132524  0.33070455  1
  Al0+  Al53  1  0.00372543  0.49985214  0.66925267  1
  Al0+  Al54  1  0.49933333  0.00132704  -0.00081731  1
  Al0+  Al55  1  0.49898016  -0.00215130  0.33961723  1
  Al0+  Al56  1  0.49758579  0.00153113  0.66260268  1
  Al0+  Al57  1  0.50040746  0.50195883  -0.00119353  1
  Al0+  Al58  1  0.50032686  0.50006410  0.33051581  1
  Al0+  Al59  1  0.49950644  0.50264024  0.67187769  1
  Al0+  Al60  1  0.24886108  0.25067211  -0.00279839  1
  Al0+  Al61  1  0.25151632  0.25128985  0.33464077  1
  Al0+  Al62  1  0.25188479  0.25078771  0.66413188  1
  Al0+  Al63  1  0.25222218  0.74997335  -0.01093033  1
  Al0+  Al64  1  0.25215321  0.75031595  0.33656069  1
  Al0+  Al65  1  0.25196511  0.75155280  0.66979082  1
  Al0+  Al66  1  0.74970994  0.25061454  0.00307441  1
  Al0+  Al67  1  0.74855897  0.24865907  0.32874682  1
  Al0+  Al68  1  0.74936983  0.24976050  0.66774301  1
  Al0+  Al69  1  0.74890626  0.74823908  0.00485982  1
  Al0+  Al70  1  0.74933154  0.74693415  0.33348871  1
  Al0+  Al71  1  0.74932301  0.74852355  0.67028910  1
  Al0+  Al72  1  0.57074621  0.17924090  0.65273903  1
  Al0+  Al73  1  0.93023546  0.32145543  0.65345672  1
  Al0+  Al74  1  0.92728393  0.32214243  0.31726822  1
  Al0+  Al75  1  0.67880845  0.93084385  0.01367582  1
  Al0+  Al76  1  0.43003795  0.32142737  0.31970862  1
  Al0+  Al77  1  0.67879835  0.92614666  0.34879997  1
  Al0+  Al78  1  0.92783549  0.81764113  0.65376676  1
  Al0+  Al79  1  0.32079692  0.07371227  0.34829542  1
  Al0+  Al80  1  0.32204296  0.57092899  0.34725384  1
  Al0+  Al81  1  0.17926989  0.42944287  0.01399218  1
  Al0+  Al82  1  0.17653329  0.42857472  0.35012407  1
  Al0+  Al83  1  0.07162018  0.68248870  0.32151968  1
  Al0+  Al84  1  0.17951931  0.92935242  0.68210147  1
  Al0+  Al85  1  0.82288806  0.07179224  0.68309057  1
  Al0+  Al86  1  0.17749777  0.92877415  0.34588608  1
  Al0+  Al87  1  0.81982161  0.07202602  0.34845036  1
  Al0+  Al88  1  0.67856632  0.42793328  0.68045278  1
  Al0+  Al89  1  0.07196970  0.17684879  0.65112800  1
  Al0+  Al90  1  0.82440913  0.57063153  0.68170362  1
  Al0+  Al91  1  0.07050105  0.67890619  0.98572789  1
  Al0+  Al92  1  0.07105673  0.17711421  0.31902890  1
  Al0+  Al93  1  0.67736416  0.92953884  0.68212944  1
  Al0+  Al94  1  0.43150268  0.82224352  0.98526739  1
  Al0+  Al95  1  0.07119647  0.17850578  0.98593796  1
  Si0+  Si96  1  0.42880517  0.32239542  0.98478804  1
  Si0+  Si97  1  0.92481135  0.82126435  0.31614169  1
  Si0+  Si98  1  0.32254023  0.57329750  0.01555022  1
  Si0+  Si99  1  0.57016668  0.17566430  0.31494307  1
  Si0+  Si100  1  0.92598819  0.32166110  0.98295467  1
  Si0+  Si101  1  0.92556590  0.82025647  0.98479128  1
  Si0+  Si102  1  0.67698400  0.42787936  0.01670502  1
  Si0+  Si103  1  0.32233018  0.57306034  0.68434854  1
  Si0+  Si104  1  0.57054153  0.18140050  0.98639427  1
  Si0+  Si105  1  0.57403115  0.67657124  0.98097798  1
  Si0+  Si106  1  0.42858464  0.32546275  0.65060115  1
  Si0+  Si107  1  0.07524524  0.67772195  0.64981805  1
  Si0+  Si108  1  0.81996713  0.57016350  0.01760037  1
  Si0+  Si109  1  0.18189427  0.42903336  0.68252767  1
  Si0+  Si110  1  0.32063987  0.07339013  0.68405442  1
  Si0+  Si111  1  0.67844301  0.42967681  0.34472638  1
  Si0+  Si112  1  0.17886619  0.92756752  0.01254282  1
  Si0+  Si113  1  0.42837441  0.82134659  0.64802562  1
  Si0+  Si114  1  0.82327109  0.07362794  0.01862681  1
  Si0+  Si115  1  0.57194168  0.67787990  0.31797991  1
  Si0+  Si116  1  0.82163611  0.56923032  0.34694032  1
  Si0+  Si117  1  0.32058461  0.07038172  0.01260456  1
  Si0+  Si118  1  0.43062262  0.82027237  0.31934283  1
  Si0+  Si119  1  0.56936753  0.67909759  0.65152260  1
  O2-  O120  1  0.24667144  0.00184076  0.05411625  1
  O2-  O121  1  0.24135069  0.00852491  0.39599979  1
  O2-  O122  1  0.24937596  0.00859437  0.72997449  1
  O2-  O123  1  0.25319927  0.50602347  0.05938904  1
  O2-  O124  1  0.25047616  0.50012347  0.39915462  1
  O2-  O125  1  0.25148545  0.50181419  0.72560931  1
  O2-  O126  1  0.75507204  0.00294736  0.06067521  1
  O2-  O127  1  0.74993458  -0.00204973  0.39792866  1
  O2-  O128  1  0.74939268  0.00044305  0.73329085  1
  O2-  O129  1  0.74872099  0.49813335  0.05890935  1
  O2-  O130  1  0.75511083  0.49349341  0.38717879  1
  O2-  O131  1  0.75443249  0.49575883  0.73152772  1
  O2-  O132  1  0.00146371  0.25172410  0.26795933  1
  O2-  O133  1  -0.00323974  0.24570766  0.60238256  1
  O2-  O134  1  -0.00578687  0.25191134  0.94082174  1
  O2-  O135  1  -0.00011974  0.75914599  0.27197559  1
  O2-  O136  1  0.00333321  0.74324482  0.60717538  1
  O2-  O137  1  -0.00224010  0.75545478  0.93990118  1
  O2-  O138  1  0.49944197  0.24253438  0.27009057  1
  O2-  O139  1  0.49940641  0.25856650  0.60812701  1
  O2-  O140  1  0.50252239  0.25489750  0.94260437  1
  O2-  O141  1  0.50378079  0.75159312  0.27617489  1
  O2-  O142  1  0.50181441  0.75213557  0.60727621  1
  O2-  O143  1  0.50763253  0.74824867  0.93815878  1
  O2-  O144  1  0.07445381  0.17810611  0.09837999  1
  O2-  O145  1  0.06883616  0.17762457  0.43194446  1
  O2-  O146  1  0.07317685  0.18149649  0.76540218  1
  O2-  O147  1  0.07142844  0.67958541  0.09883424  1
  O2-  O148  1  0.06904222  0.68217774  0.43428177  1
  O2-  O149  1  0.07624571  0.67893267  0.75593750  1
  O2-  O150  1  0.56913589  0.18265308  0.09120637  1
  O2-  O151  1  0.57105000  0.17890011  0.42024758  1
  O2-  O152  1  0.56632879  0.17934137  0.76695687  1
  O2-  O153  1  0.57289119  0.67293424  0.08661744  1
  O2-  O154  1  0.57204296  0.67539417  0.42287769  1
  O2-  O155  1  0.56567069  0.67689962  0.75660535  1
  O2-  O156  1  0.17816018  0.43089995  0.23604249  1
  O2-  O157  1  0.18302298  0.42949189  0.57818287  1
  O2-  O158  1  0.18314556  0.42978720  0.90036287  1
  O2-  O159  1  0.18490663  0.92492408  0.23145976  1
  O2-  O160  1  0.18364006  0.92418190  0.56978946  1
  O2-  O161  1  0.18056328  0.92770048  0.90759810  1
  O2-  O162  1  0.67652225  0.43460743  0.23898986  1
  O2-  O163  1  0.67243264  0.43334434  0.56706524  1
  O2-  O164  1  0.67511649  0.42700831  0.91227214  1
  O2-  O165  1  0.67871373  0.92719396  0.23441341  1
  O2-  O166  1  0.67919056  0.92980670  0.56923479  1
  O2-  O167  1  0.67829465  0.93450490  0.90126347  1
  O2-  O168  1  0.42899929  0.32220008  0.08959424  1
  O2-  O169  1  0.43777838  0.32632023  0.43216991  1
  O2-  O170  1  0.42765450  0.32430097  0.75707444  1
  O2-  O171  1  0.43100758  0.82153542  0.09849365  1
  O2-  O172  1  0.43034283  0.81762510  0.42426828  1
  O2-  O173  1  0.42797397  0.81977394  0.75351121  1
  O2-  O174  1  0.92416454  0.32174883  0.08825952  1
  O2-  O175  1  0.92588517  0.32353492  0.43026264  1
  O2-  O176  1  0.93583022  0.32268964  0.76757842  1
  O2-  O177  1  0.92408137  0.81731196  0.09029920  1
  O2-  O178  1  0.92035517  0.81546044  0.42125655  1
  O2-  O179  1  0.92959865  0.81544234  0.76755228  1
  O2-  O180  1  0.32304754  0.06853805  0.23362986  1
  O2-  O181  1  0.32189633  0.07148984  0.57903225  1
  O2-  O182  1  0.32411602  0.06917822  0.90765915  1
  O2-  O183  1  0.32220651  0.57154563  0.23337270  1
  O2-  O184  1  0.32488643  0.57420982  0.57984378  1
  O2-  O185  1  0.32437954  0.57065676  0.90965176  1
  O2-  O186  1  0.81704072  0.07080068  0.23403219  1
  O2-  O187  1  0.82127298  0.07159670  0.57009262  1
  O2-  O188  1  0.82231801  0.07644780  0.91350045  1
  O2-  O189  1  0.81811471  0.57192603  0.24139341  1
  O2-  O190  1  0.82055750  0.57115607  0.56787777  1
  O2-  O191  1  0.81927206  0.57136058  0.91301361  1
  O2-  O192  1  0.04130554  0.07821446  0.26509052  1
  O2-  O193  1  0.05069196  0.07479998  0.60545058  1
  O2-  O194  1  0.04213486  0.08016456  0.93346712  1
  O2-  O195  1  0.03805430  0.58763794  0.26544020  1
  O2-  O196  1  0.05446368  0.58242385  0.60692807  1
  O2-  O197  1  0.03656946  0.58264948  0.93252682  1
  O2-  O198  1  0.54515791  0.08042870  0.27207176  1
  O2-  O199  1  0.53491242  0.08558711  0.59640091  1
  O2-  O200  1  0.53863061  0.09170640  0.93814331  1
  O2-  O201  1  0.54206782  0.58852789  0.26654615  1
  O2-  O202  1  0.53780834  0.58829635  0.60374844  1
  O2-  O203  1  0.54549632  0.58410759  0.93294498  1
  O2-  O204  1  0.17182602  0.20277004  0.26874962  1
  O2-  O205  1  0.17087578  0.20764439  0.60056834  1
  O2-  O206  1  0.16705729  0.21073283  0.92996400  1
  O2-  O207  1  0.16944299  0.71152653  0.26731511  1
  O2-  O208  1  0.16843385  0.70714392  0.60548027  1
  O2-  O209  1  0.16696129  0.70552034  0.92937042  1
  O2-  O210  1  0.66131470  0.20418739  0.26545674  1
  O2-  O211  1  0.66728610  0.20750348  0.59916649  1
  O2-  O212  1  0.66342660  0.20763554  0.94023009  1
  O2-  O213  1  0.66409484  0.70231320  0.26854796  1
  O2-  O214  1  0.66233083  0.70260355  0.60547697  1
  O2-  O215  1  0.66893047  0.69946713  0.93734093  1
  O2-  O216  1  0.08159725  0.45808758  0.06589781  1
  O2-  O217  1  0.07928106  0.46178696  0.40190637  1
  O2-  O218  1  0.09137386  0.45625901  0.73249825  1
  O2-  O219  1  0.08511032  0.94883466  0.05856395  1
  O2-  O220  1  0.07548113  0.94481516  0.39403951  1
  O2-  O221  1  0.08279062  0.95279211  0.73853955  1
  O2-  O222  1  0.58498309  0.45787667  0.06384546  1
  O2-  O223  1  0.59037652  0.46412552  0.39355637  1
  O2-  O224  1  0.58198485  0.46197180  0.73712739  1
  O2-  O225  1  0.58236073  0.96459119  0.06728613  1
  O2-  O226  1  0.57972384  0.94986093  0.40047179  1
  O2-  O227  1  0.57696199  0.95926534  0.73130859  1
  O2-  O228  1  0.21392851  0.33335725  0.06643547  1
  O2-  O229  1  0.20670549  0.33144090  0.40234207  1
  O2-  O230  1  0.21312322  0.33806543  0.73073337  1
  O2-  O231  1  0.21223945  0.83578054  0.05671740  1
  O2-  O232  1  0.21514006  0.83502433  0.40168696  1
  O2-  O233  1  0.21710269  0.83473538  0.73807225  1
  O2-  O234  1  0.70285263  0.33628743  0.06578378  1
  O2-  O235  1  0.69743977  0.33465955  0.38729125  1
  O2-  O236  1  0.70142056  0.32960444  0.73527472  1
  O2-  O237  1  0.70346251  0.83144497  0.06612147  1
  O2-  O238  1  0.70451633  0.82557811  0.39853365  1
  O2-  O239  1  0.70213285  0.82978630  0.73434534  1
  O2-  O240  1  0.46633394  0.41556321  0.26186765  1
  O2-  O241  1  0.45132208  0.42091146  0.60792348  1
  O2-  O242  1  0.45399236  0.41577776  0.93840175  1
  O2-  O243  1  0.45673206  0.91255680  0.27143362  1
  O2-  O244  1  0.45221279  0.91363774  0.60129839  1
  O2-  O245  1  0.46174531  0.91878177  0.93007025  1
  O2-  O246  1  0.95240130  0.42201683  0.26478047  1
  O2-  O247  1  0.96200325  0.42001425  0.60198146  1
  O2-  O248  1  0.95069409  0.41586305  0.93842490  1
  O2-  O249  1  0.94127187  0.91702175  0.27252338  1
  O2-  O250  1  0.95887368  0.91356289  0.60057348  1
  O2-  O251  1  0.94644013  0.91561142  0.94105267  1
  O2-  O252  1  0.33292447  0.29515368  0.26415152  1
  O2-  O253  1  0.33676581  0.29801341  0.60326954  1
  O2-  O254  1  0.33911462  0.29200412  0.93515797  1
  O2-  O255  1  0.34063595  0.78990076  0.27002705  1
  O2-  O256  1  0.33809103  0.78798623  0.60172525  1
  O2-  O257  1  0.33786140  0.78997482  0.92567683  1
  O2-  O258  1  0.82843396  0.29405058  0.26232834  1
  O2-  O259  1  0.82791559  0.30351386  0.60592983  1
  O2-  O260  1  0.83072288  0.29786940  0.93820688  1
  O2-  O261  1  0.83446253  0.78641741  0.26696690  1
  O2-  O262  1  0.83137897  0.78551183  0.60015913  1
  O2-  O263  1  0.83320353  0.78932596  0.93890101  1
  O2-  O264  1  0.41066384  0.04125831  0.06215347  1
  O2-  O265  1  0.41549035  0.03773786  0.40365422  1
  O2-  O266  1  0.41244814  0.04187771  0.73097349  1
  O2-  O267  1  0.41719538  0.54912024  0.06082769  1
  O2-  O268  1  0.42107512  0.54165945  0.39944700  1
  O2-  O269  1  0.41286354  0.54617991  0.73525462  1
  O2-  O270  1  0.91676080  0.04679869  0.06453412  1
  O2-  O271  1  0.91811338  0.04680715  0.40089264  1
  O2-  O272  1  0.91962480  0.03990344  0.73729064  1
  O2-  O273  1  0.91131077  0.54198577  0.06550188  1
  O2-  O274  1  0.91379763  0.54761711  0.39429887  1
  O2-  O275  1  0.92382580  0.54640007  0.73545398  1
  O2-  O276  1  0.29498227  0.16367788  0.05786457  1
  O2-  O277  1  0.30675153  0.17510246  0.39855651  1
  O2-  O278  1  0.30197433  0.16933715  0.72917239  1
  O2-  O279  1  0.29853848  0.66898444  0.05727460  1
  O2-  O280  1  0.29581777  0.66844910  0.40189913  1
  O2-  O281  1  0.29493860  0.66447235  0.73276192  1
  O2-  O282  1  0.79506989  0.16644928  0.06525110  1
  O2-  O283  1  0.78788166  0.17046553  0.39922035  1
  O2-  O284  1  0.79435133  0.16998434  0.73652025  1
  O2-  O285  1  0.79080056  0.66020685  0.06801180  1
  O2-  O286  1  0.78820970  0.65833660  0.39558675  1
  O2-  O287  1  0.78844785  0.66512984  0.73811953  1
