# generated using pymatgen
data_Ca2Al2SiO7
_symmetry_space_group_name_H-M   'P 1'
_cell_length_a   15.46655874
_cell_length_b   15.46450707
_cell_length_c   15.28865093
_cell_angle_alpha   89.99185085
_cell_angle_beta   89.98439308
_cell_angle_gamma   89.98165699
_symmetry_Int_Tables_number   1
_chemical_formula_structural   Ca2Al2SiO7
_chemical_formula_sum   'Ca48 Al48 Si24 O168'
_cell_volume   3656.78055777
_cell_formula_units_Z   24
loop_
 _symmetry_equiv_pos_site_id
 _symmetry_equiv_pos_as_xyz
  1  'x, y, z'
loop_
 _atom_type_symbol
 _atom_type_oxidation_number
  Ca2+  2.0
  Al0+  0.0
  Si0+  0.0
  O2-  -2.0
loop_
 _atom_site_type_symbol
 _atom_site_label
 _atom_site_symmetry_multiplicity
 _atom_site_fract_x
 _atom_site_fract_y
 _atom_site_fract_z
 _atom_site_occupancy
  Ca2+  Ca0  1  0.17424139  0.07454065  0.17422939  1
  Ca2+  Ca1  1  0.17493980  0.07865370  0.51244054  1
  Ca2+  Ca2  1  0.16744317  0.07674464  0.82716758  1
  Ca2+  Ca3  1  0.15819105  0.57965609  0.16912266  1
  Ca2+  Ca4  1  0.16813659  0.57877759  0.51037180  1
  Ca2+  Ca5  1  0.16608625  0.57913233  0.83384954  1
  Ca2+  Ca6  1  0.67594308  0.08242660  0.17309697  1
  Ca2+  Ca7  1  0.67710685  0.09007246  0.50661857  1
  Ca2+  Ca8  1  0.67755039  0.08926200  0.83499202  1
  Ca2+  Ca9  1  0.67230238  0.58810966  0.17292743  1
  Ca2+  Ca10  1  0.67199174  0.58878579  0.50650739  1
  Ca2+  Ca11  1  0.66230577  0.59008663  0.83529709  1
  Ca2+  Ca12  1  0.07695910  0.33416810  0.16421949  1
  Ca2+  Ca13  1  0.08670364  0.32575462  0.49855828  1
  Ca2+  Ca14  1  0.08869694  0.32964604  0.82629296  1
  Ca2+  Ca15  1  0.08533744  0.81796744  0.16220990  1
  Ca2+  Ca16  1  0.08922003  0.82526372  0.50312764  1
  Ca2+  Ca17  1  0.08275781  0.82572747  0.82181194  1
  Ca2+  Ca18  1  0.57552786  0.33473765  0.16770226  1
  Ca2+  Ca19  1  0.56976649  0.32851902  0.50234460  1
  Ca2+  Ca20  1  0.57543819  0.32748818  0.82158915  1
  Ca2+  Ca21  1  0.57373029  0.83277503  0.16148517  1
  Ca2+  Ca22  1  0.57276739  0.83250357  0.50198569  1
  Ca2+  Ca23  1  0.57480546  0.82533786  0.82783800  1
  Ca2+  Ca24  1  0.32649713  0.41759147  0.17085458  1
  Ca2+  Ca25  1  0.33239622  0.42131876  0.51357390  1
  Ca2+  Ca26  1  0.32439934  0.41851097  0.83041421  1
  Ca2+  Ca27  1  0.33933744  0.91803316  0.17396927  1
  Ca2+  Ca28  1  0.33447982  0.92352396  0.50856733  1
  Ca2+  Ca29  1  0.33775704  0.91525105  0.82995812  1
  Ca2+  Ca30  1  0.83098605  0.42118484  0.17815045  1
  Ca2+  Ca31  1  0.83668615  0.41952973  0.49976145  1
  Ca2+  Ca32  1  0.82945163  0.41850965  0.83611200  1
  Ca2+  Ca33  1  0.83328591  0.92760491  0.17319834  1
  Ca2+  Ca34  1  0.83614983  0.92419167  0.51064764  1
  Ca2+  Ca35  1  0.84052819  0.92548146  0.83231809  1
  Ca2+  Ca36  1  0.41083027  0.17028633  0.16814150  1
  Ca2+  Ca37  1  0.40649608  0.17452215  0.49668190  1
  Ca2+  Ca38  1  0.42022388  0.17191233  0.81803040  1
  Ca2+  Ca39  1  0.42059120  0.68109562  0.15773988  1
  Ca2+  Ca40  1  0.40661858  0.67921646  0.50077408  1
  Ca2+  Ca41  1  0.42116254  0.67377975  0.82259570  1
  Ca2+  Ca42  1  0.90797754  0.17023438  0.16614171  1
  Ca2+  Ca43  1  0.92117706  0.16616905  0.49830383  1
  Ca2+  Ca44  1  0.92108646  0.16390055  0.82278934  1
  Ca2+  Ca45  1  0.92535389  0.65925990  0.16531542  1
  Ca2+  Ca46  1  0.92740023  0.66895321  0.49676368  1
  Ca2+  Ca47  1  0.92818638  0.67342178  0.82369861  1
  Al0+  Al48  1  0.00266700  0.00222932  0.00854595  1
  Al0+  Al49  1  0.00104033  -0.00271727  0.33656681  1
  Al0+  Al50  1  0.00107957  0.00205096  0.66658021  1
  Al0+  Al51  1  -0.00146143  0.49812144  -0.00091661  1
  Al0+  Al52  1  -0.00187806  0.49738608  0.33073409  1
  Al0+  Al53  1  -0.00224617  0.50018884  0.66925384  1
  Al0+  Al54  1  0.50210090  0.00210886  -0.00208769  1
  Al0+  Al55  1  0.50069403  0.00062251  0.33302814  1
  Al0+  Al56  1  0.50547023  -0.00125824  0.66436484  1
  Al0+  Al57  1  0.49832677  0.49925016  -0.00067909  1
  Al0+  Al58  1  0.49951462  0.49833588  0.32828391  1
  Al0+  Al59  1  0.50203006  0.49882820  0.66430918  1
  Al0+  Al60  1  0.24735530  0.25078460  0.00543004  1
  Al0+  Al61  1  0.24884271  0.24856915  0.32911299  1
  Al0+  Al62  1  0.24865394  0.24996210  0.66659865  1
  Al0+  Al63  1  0.24948392  0.75008119  -0.00732689  1
  Al0+  Al64  1  0.24989677  0.74713312  0.32215859  1
  Al0+  Al65  1  0.25047846  0.74906765  0.66695126  1
  Al0+  Al66  1  0.74946221  0.25323846  0.00578561  1
  Al0+  Al67  1  0.74937640  0.25025691  0.33404521  1
  Al0+  Al68  1  0.74910814  0.25201055  0.66768245  1
  Al0+  Al69  1  0.74990842  0.75303153  -0.00038123  1
  Al0+  Al70  1  0.75164129  0.75050293  0.33852616  1
  Al0+  Al71  1  0.75107389  0.75276225  0.66187439  1
  Al0+  Al72  1  0.42770471  0.31839437  0.65329347  1
  Al0+  Al73  1  0.57377771  0.17754521  0.65268406  1
  Al0+  Al74  1  0.32309243  0.57134515  0.68070658  1
  Al0+  Al75  1  0.17995812  0.92873544  0.68095584  1
  Al0+  Al76  1  0.07036684  0.18055281  0.65467718  1
  Al0+  Al77  1  0.57200649  0.67739210  0.65016172  1
  Al0+  Al78  1  0.31988267  0.06987380  0.34634666  1
  Al0+  Al79  1  0.82139105  0.07107820  0.35003980  1
  Al0+  Al80  1  0.42823826  0.82093506  0.65044302  1
  Al0+  Al81  1  0.57241312  0.67812467  0.98677510  1
  Al0+  Al82  1  0.42654736  0.32147837  0.31733244  1
  Al0+  Al83  1  0.06801733  0.67705353  0.98400780  1
  Al0+  Al84  1  0.82186199  0.07210049  0.01536361  1
  Al0+  Al85  1  0.17856569  0.42979619  0.01659672  1
  Al0+  Al86  1  0.81979734  0.07175764  0.68029435  1
  Al0+  Al87  1  0.07178467  0.67657589  0.65165820  1
  Al0+  Al88  1  0.82094455  0.57007567  0.34818457  1
  Al0+  Al89  1  0.17635060  0.42868018  0.68002411  1
  Al0+  Al90  1  0.43067307  0.82066849  0.31900150  1
  Al0+  Al91  1  0.42888367  0.82400374  0.98289686  1
  Al0+  Al92  1  0.93086791  0.82284062  0.65204317  1
  Al0+  Al93  1  0.92984934  0.31732772  0.32023213  1
  Al0+  Al94  1  0.06861922  0.67850266  0.31867437  1
  Al0+  Al95  1  0.32451185  0.07083492  0.68089439  1
  Si0+  Si96  1  0.92974195  0.82596338  0.98630736  1
  Si0+  Si97  1  0.68045181  0.43039651  0.68199495  1
  Si0+  Si98  1  0.81927674  0.57142083  0.01314675  1
  Si0+  Si99  1  0.32224878  0.07086722  0.01434401  1
  Si0+  Si100  1  0.32166514  0.57265644  0.01755929  1
  Si0+  Si101  1  0.67694510  0.42934496  0.01625206  1
  Si0+  Si102  1  0.57450607  0.67779608  0.31768064  1
  Si0+  Si103  1  0.82042005  0.57345009  0.68277657  1
  Si0+  Si104  1  0.67962787  0.92551253  0.68569058  1
  Si0+  Si105  1  0.92569425  0.32286251  0.65185993  1
  Si0+  Si106  1  0.17967269  0.92326926  0.34814344  1
  Si0+  Si107  1  0.07216448  0.17489950  0.31479762  1
  Si0+  Si108  1  0.67761155  0.92983144  0.01773989  1
  Si0+  Si109  1  0.67546582  0.42829508  0.35169440  1
  Si0+  Si110  1  0.17864221  0.42931513  0.34669521  1
  Si0+  Si111  1  0.17982652  0.92758774  0.01595702  1
  Si0+  Si112  1  0.32119505  0.56992990  0.34427126  1
  Si0+  Si113  1  0.92750224  0.31944002  0.98511363  1
  Si0+  Si114  1  0.57236004  0.18264590  0.98700562  1
  Si0+  Si115  1  0.57150533  0.17924904  0.31527003  1
  Si0+  Si116  1  0.67799263  0.92814133  0.35172809  1
  Si0+  Si117  1  0.42597298  0.31946440  0.98520355  1
  Si0+  Si118  1  0.07090117  0.17918111  0.98641866  1
  Si0+  Si119  1  0.92618660  0.82301019  0.31571427  1
  O2-  O120  1  0.25613782  -0.00537275  0.05638360  1
  O2-  O121  1  0.24596830  -0.00561853  0.39106950  1
  O2-  O122  1  0.25537069  -0.00301938  0.73284643  1
  O2-  O123  1  0.25093196  0.50663690  0.06401357  1
  O2-  O124  1  0.25335309  0.49636219  0.38718994  1
  O2-  O125  1  0.24749763  0.50183422  0.72999707  1
  O2-  O126  1  0.74839769  -0.00350365  0.06249866  1
  O2-  O127  1  0.74901443  -0.00552483  0.39583832  1
  O2-  O128  1  0.74588795  -0.00233141  0.72916209  1
  O2-  O129  1  0.74282481  0.50619422  0.05614264  1
  O2-  O130  1  0.74195787  0.49963000  0.39501277  1
  O2-  O131  1  0.74803814  0.50415816  0.72578258  1
  O2-  O132  1  -0.00015842  0.23980209  0.26993446  1
  O2-  O133  1  -0.00239782  0.25752367  0.60896163  1
  O2-  O134  1  -0.00352549  0.24682497  0.94414979  1
  O2-  O135  1  -0.00630715  0.75337718  0.27100775  1
  O2-  O136  1  0.00172795  0.75020647  0.60171848  1
  O2-  O137  1  -0.00474951  0.75519766  0.94118521  1
  O2-  O138  1  0.50068480  0.24581955  0.27006561  1
  O2-  O139  1  0.49337525  0.24019331  0.60304035  1
  O2-  O140  1  0.49817364  0.24946818  0.94425891  1
  O2-  O141  1  0.50614083  0.74607866  0.27287390  1
  O2-  O142  1  0.49678670  0.74528437  0.60016230  1
  O2-  O143  1  0.49815137  0.74719587  0.93713327  1
  O2-  O144  1  0.07159040  0.18030093  0.09161068  1
  O2-  O145  1  0.07419266  0.17771390  0.41988886  1
  O2-  O146  1  0.06785532  0.18032599  0.76854506  1
  O2-  O147  1  0.06480743  0.67605719  0.09763672  1
  O2-  O148  1  0.07011871  0.67770367  0.43070976  1
  O2-  O149  1  0.06686159  0.67538443  0.76538843  1
  O2-  O150  1  0.57298729  0.18493131  0.09226936  1
  O2-  O151  1  0.57340996  0.18148238  0.42001430  1
  O2-  O152  1  0.57711216  0.18520397  0.76706400  1
  O2-  O153  1  0.57311829  0.68012703  0.10078736  1
  O2-  O154  1  0.57419879  0.67752724  0.42247030  1
  O2-  O155  1  0.57257239  0.68026113  0.76389621  1
  O2-  O156  1  0.17820973  0.43106259  0.24102393  1
  O2-  O157  1  0.17632841  0.42881877  0.56592795  1
  O2-  O158  1  0.18029420  0.42610312  0.90457879  1
  O2-  O159  1  0.18087810  0.92451119  0.24157923  1
  O2-  O160  1  0.17953988  0.93150611  0.56717103  1
  O2-  O161  1  0.17357089  0.93080279  0.91190254  1
  O2-  O162  1  0.67663737  0.42883791  0.24524777  1
  O2-  O163  1  0.68353586  0.42814537  0.57728483  1
  O2-  O164  1  0.68035844  0.42312634  0.91159691  1
  O2-  O165  1  0.67908594  0.92990963  0.24542330  1
  O2-  O166  1  0.68244917  0.92337425  0.58016936  1
  O2-  O167  1  0.67651084  0.93145367  0.91296340  1
  O2-  O168  1  0.42673137  0.31834936  0.09067989  1
  O2-  O169  1  0.42595999  0.32283640  0.42934401  1
  O2-  O170  1  0.43114263  0.31940558  0.76761890  1
  O2-  O171  1  0.43195757  0.82524589  0.09723751  1
  O2-  O172  1  0.42823460  0.82034765  0.43088381  1
  O2-  O173  1  0.43185447  0.82073613  0.76380161  1
  O2-  O174  1  0.92677463  0.31989619  0.09030356  1
  O2-  O175  1  0.93334367  0.31904124  0.43272453  1
  O2-  O176  1  0.92243226  0.32103440  0.75801380  1
  O2-  O177  1  0.93180604  0.82589299  0.09214478  1
  O2-  O178  1  0.92615165  0.82349632  0.42050460  1
  O2-  O179  1  0.93083517  0.82055032  0.76653244  1
  O2-  O180  1  0.31820940  0.06896993  0.23200145  1
  O2-  O181  1  0.31953181  0.07182897  0.56733448  1
  O2-  O182  1  0.32137019  0.07474018  0.91013242  1
  O2-  O183  1  0.31968927  0.56924268  0.23885393  1
  O2-  O184  1  0.32225891  0.56894280  0.56616365  1
  O2-  O185  1  0.32357256  0.56861140  0.91273475  1
  O2-  O186  1  0.81765570  0.07072086  0.23619466  1
  O2-  O187  1  0.81876087  0.07274538  0.56743233  1
  O2-  O188  1  0.82160719  0.07401352  0.90281632  1
  O2-  O189  1  0.81963131  0.56731996  0.23403825  1
  O2-  O190  1  0.82169979  0.57036652  0.57781153  1
  O2-  O191  1  0.82008998  0.56792247  0.90823455  1
  O2-  O192  1  0.05098848  0.07881061  0.27137001  1
  O2-  O193  1  0.03772090  0.08676394  0.59841203  1
  O2-  O194  1  0.04545911  0.08592865  0.94152578  1
  O2-  O195  1  0.03409983  0.58285047  0.26382895  1
  O2-  O196  1  0.03885454  0.57882689  0.59964959  1
  O2-  O197  1  0.03405345  0.58106373  0.93143893  1
  O2-  O198  1  0.54798749  0.08542551  0.26851162  1
  O2-  O199  1  0.56242784  0.07573471  0.60372120  1
  O2-  O200  1  0.55084454  0.08944783  0.94115973  1
  O2-  O201  1  0.55119934  0.58353959  0.27127043  1
  O2-  O202  1  0.55330213  0.57642557  0.59974824  1
  O2-  O203  1  0.54963302  0.57667316  0.93682652  1
  O2-  O204  1  0.16289143  0.20483959  0.26485417  1
  O2-  O205  1  0.16547579  0.21011340  0.59831314  1
  O2-  O206  1  0.16151771  0.21106655  0.93973725  1
  O2-  O207  1  0.16335092  0.70804995  0.25908707  1
  O2-  O208  1  0.17060048  0.70174365  0.59990994  1
  O2-  O209  1  0.16583682  0.70390776  0.93280053  1
  O2-  O210  1  0.66362918  0.20892514  0.26728858  1
  O2-  O211  1  0.66736369  0.21804649  0.59768549  1
  O2-  O212  1  0.66300876  0.21556984  0.94029644  1
  O2-  O213  1  0.66915646  0.70357457  0.27275369  1
  O2-  O214  1  0.66927756  0.70938019  0.59734427  1
  O2-  O215  1  0.67140725  0.70661293  0.93419283  1
  O2-  O216  1  0.07971429  0.45887750  0.06898052  1
  O2-  O217  1  0.08795872  0.45896036  0.39315084  1
  O2-  O218  1  0.07692094  0.45345105  0.73469241  1
  O2-  O219  1  0.09200878  0.96030953  0.06934294  1
  O2-  O220  1  0.08481073  0.94416239  0.39259947  1
  O2-  O221  1  0.08388454  0.96353000  0.73581384  1
  O2-  O222  1  0.58303128  0.45058425  0.06319843  1
  O2-  O223  1  0.58021935  0.45061839  0.39518230  1
  O2-  O224  1  0.58855639  0.45408799  0.73092084  1
  O2-  O225  1  0.58554220  0.95984421  0.06626884  1
  O2-  O226  1  0.58530683  0.95632696  0.39692686  1
  O2-  O227  1  0.58568113  0.94770803  0.73154169  1
  O2-  O228  1  0.21044857  0.33397071  0.07342738  1
  O2-  O229  1  0.20258364  0.33499189  0.38963287  1
  O2-  O230  1  0.20631808  0.33138717  0.73464811  1
  O2-  O231  1  0.20349534  0.83350041  0.06136056  1
  O2-  O232  1  0.20774707  0.82934643  0.39072747  1
  O2-  O233  1  0.20274045  0.82910399  0.73308555  1
  O2-  O234  1  0.71051292  0.34176745  0.06910539  1
  O2-  O235  1  0.70475517  0.33600675  0.39668552  1
  O2-  O236  1  0.71253067  0.34139834  0.73346874  1
  O2-  O237  1  0.70141610  0.83558299  0.06473660  1
  O2-  O238  1  0.69985805  0.83379067  0.39696319  1
  O2-  O239  1  0.70997088  0.83384006  0.73380191  1
  O2-  O240  1  0.45935868  0.41652762  0.25948587  1
  O2-  O241  1  0.46372123  0.41356950  0.59942028  1
  O2-  O242  1  0.45270327  0.41184629  0.93986278  1
  O2-  O243  1  0.46227083  0.91759280  0.26456943  1
  O2-  O244  1  0.46062222  0.91824243  0.59771224  1
  O2-  O245  1  0.46009260  0.92237242  0.93158775  1
  O2-  O246  1  0.96279744  0.41187611  0.26268292  1
  O2-  O247  1  0.94660595  0.41779306  0.60782627  1
  O2-  O248  1  0.95550369  0.41021771  0.93677026  1
  O2-  O249  1  0.95289125  0.91670042  0.26920919  1
  O2-  O250  1  0.95897413  0.92061710  0.59948480  1
  O2-  O251  1  0.95848671  0.91970616  0.94241648  1
  O2-  O252  1  0.33098795  0.28912171  0.26077652  1
  O2-  O253  1  0.32865532  0.29636676  0.60026737  1
  O2-  O254  1  0.33417190  0.28957375  0.94036227  1
  O2-  O255  1  0.33632081  0.78817981  0.26060974  1
  O2-  O256  1  0.32936102  0.79507682  0.59791768  1
  O2-  O257  1  0.32917210  0.80074912  0.93230020  1
  O2-  O258  1  0.83140677  0.29100482  0.26556623  1
  O2-  O259  1  0.83451740  0.29458759  0.60361675  1
  O2-  O260  1  0.83413160  0.29449127  0.93922339  1
  O2-  O261  1  0.83158368  0.79889407  0.27023096  1
  O2-  O262  1  0.83341286  0.79555153  0.59817820  1
  O2-  O263  1  0.83434138  0.80528251  0.94267289  1
  O2-  O264  1  0.41623899  0.04871857  0.06127145  1
  O2-  O265  1  0.41854585  0.04435066  0.39700790  1
  O2-  O266  1  0.42596053  0.04754864  0.73062011  1
  O2-  O267  1  0.41473151  0.54431314  0.06499533  1
  O2-  O268  1  0.41458211  0.54564315  0.38917554  1
  O2-  O269  1  0.42131267  0.53971474  0.73314007  1
  O2-  O270  1  0.91853038  0.04447758  0.07189644  1
  O2-  O271  1  0.92058720  0.04425899  0.40021098  1
  O2-  O272  1  0.91598698  0.04095798  0.73468212  1
  O2-  O273  1  0.90808586  0.53625279  0.06193480  1
  O2-  O274  1  0.91527864  0.53200125  0.40123163  1
  O2-  O275  1  0.90995240  0.54324821  0.73331741  1
  O2-  O276  1  0.28822599  0.15994215  0.06459769  1
  O2-  O277  1  0.28754726  0.16738268  0.39702556  1
  O2-  O278  1  0.29258721  0.16833693  0.73390949  1
  O2-  O279  1  0.29795264  0.66853999  0.06026027  1
  O2-  O280  1  0.28973720  0.66140488  0.38922826  1
  O2-  O281  1  0.29786144  0.66967248  0.73386842  1
  O2-  O282  1  0.78746128  0.16836862  0.06970390  1
  O2-  O283  1  0.78932305  0.16831429  0.40123813  1
  O2-  O284  1  0.78828954  0.16869887  0.73486298  1
  O2-  O285  1  0.79846818  0.66561045  0.06002053  1
  O2-  O286  1  0.79665752  0.66817716  0.40179453  1
  O2-  O287  1  0.79378815  0.66594030  0.72876991  1
