# generated using pymatgen
data_Ca2Al2SiO7
_symmetry_space_group_name_H-M   'P 1'
_cell_length_a   15.46311508
_cell_length_b   15.46295103
_cell_length_c   15.28612343
_cell_angle_alpha   90.00347707
_cell_angle_beta   90.01877920
_cell_angle_gamma   89.96513507
_symmetry_Int_Tables_number   1
_chemical_formula_structural   Ca2Al2SiO7
_chemical_formula_sum   'Ca48 Al48 Si24 O168'
_cell_volume   3654.99364152
_cell_formula_units_Z   24
loop_
 _symmetry_equiv_pos_site_id
 _symmetry_equiv_pos_as_xyz
  1  'x, y, z'
loop_
 _atom_type_symbol
 _atom_type_oxidation_number
  Ca2+  2.0
  Al0+  0.0
  Si0+  0.0
  O2-  -2.0
loop_
 _atom_site_type_symbol
 _atom_site_label
 _atom_site_symmetry_multiplicity
 _atom_site_fract_x
 _atom_site_fract_y
 _atom_site_fract_z
 _atom_site_occupancy
  Ca2+  Ca0  1  0.16625862  0.07721338  0.17066145  1
  Ca2+  Ca1  1  0.17149166  0.08754017  0.50759256  1
  Ca2+  Ca2  1  0.17365681  0.08014252  0.83684389  1
  Ca2+  Ca3  1  0.15741713  0.57634995  0.17213582  1
  Ca2+  Ca4  1  0.15752567  0.57788168  0.49984433  1
  Ca2+  Ca5  1  0.16626140  0.57812247  0.84682031  1
  Ca2+  Ca6  1  0.66718503  0.07875754  0.17174729  1
  Ca2+  Ca7  1  0.67094494  0.08085483  0.50692409  1
  Ca2+  Ca8  1  0.65983709  0.07333848  0.83804474  1
  Ca2+  Ca9  1  0.65632489  0.57998656  0.16879498  1
  Ca2+  Ca10  1  0.66165994  0.58809367  0.50461298  1
  Ca2+  Ca11  1  0.66146125  0.58302005  0.84141803  1
  Ca2+  Ca12  1  0.09103193  0.33040374  0.16449458  1
  Ca2+  Ca13  1  0.08765442  0.32229993  0.49453938  1
  Ca2+  Ca14  1  0.08608493  0.32930995  0.83008176  1
  Ca2+  Ca15  1  0.07431123  0.82947325  0.15619852  1
  Ca2+  Ca16  1  0.06941006  0.83316355  0.49063237  1
  Ca2+  Ca17  1  0.07263637  0.84213960  0.83339092  1
  Ca2+  Ca18  1  0.58252692  0.32335475  0.15555090  1
  Ca2+  Ca19  1  0.58341857  0.31861470  0.49429028  1
  Ca2+  Ca20  1  0.58364216  0.32436667  0.83440258  1
  Ca2+  Ca21  1  0.58191717  0.82421330  0.15534133  1
  Ca2+  Ca22  1  0.58269545  0.82989022  0.50075004  1
  Ca2+  Ca23  1  0.57927022  0.83370451  0.82709271  1
  Ca2+  Ca24  1  0.32704625  0.41479479  0.16857946  1
  Ca2+  Ca25  1  0.32906682  0.41800084  0.50145797  1
  Ca2+  Ca26  1  0.33146464  0.41773848  0.84407818  1
  Ca2+  Ca27  1  0.32743741  0.90707569  0.16403352  1
  Ca2+  Ca28  1  0.33244078  0.92167385  0.51050637  1
  Ca2+  Ca29  1  0.33754876  0.91913679  0.83962865  1
  Ca2+  Ca30  1  0.82696906  0.41908108  0.16755574  1
  Ca2+  Ca31  1  0.83169158  0.42184361  0.50331861  1
  Ca2+  Ca32  1  0.82573419  0.42202995  0.84314838  1
  Ca2+  Ca33  1  0.83171408  0.91590836  0.16871339  1
  Ca2+  Ca34  1  0.83130645  0.91589882  0.50332432  1
  Ca2+  Ca35  1  0.82357055  0.90968552  0.83683687  1
  Ca2+  Ca36  1  0.42808937  0.17174091  0.15997223  1
  Ca2+  Ca37  1  0.42834626  0.15650031  0.50033697  1
  Ca2+  Ca38  1  0.42512551  0.16600572  0.83177387  1
  Ca2+  Ca39  1  0.42560183  0.66991991  0.15927220  1
  Ca2+  Ca40  1  0.42584905  0.67166655  0.49891530  1
  Ca2+  Ca41  1  0.42519905  0.67897637  0.83205235  1
  Ca2+  Ca42  1  0.91930087  0.16199781  0.16828061  1
  Ca2+  Ca43  1  0.92728391  0.16123485  0.49288145  1
  Ca2+  Ca44  1  0.92489607  0.16660161  0.82912924  1
  Ca2+  Ca45  1  0.92476036  0.67656708  0.16278809  1
  Ca2+  Ca46  1  0.91750202  0.68037580  0.49406910  1
  Ca2+  Ca47  1  0.91945893  0.67824434  0.83420327  1
  Al0+  Al48  1  0.00162373  0.00068446  -0.00020598  1
  Al0+  Al49  1  -0.00144532  0.00198055  0.32936622  1
  Al0+  Al50  1  0.00019664  0.00154995  0.65872468  1
  Al0+  Al51  1  -0.00043949  0.49913009  0.00204070  1
  Al0+  Al52  1  -0.00303431  0.49928753  0.33839513  1
  Al0+  Al53  1  -0.00245349  0.49990620  0.66946200  1
  Al0+  Al54  1  0.50215657  0.00077889  0.00140588  1
  Al0+  Al55  1  0.49864242  -0.00075858  0.32915051  1
  Al0+  Al56  1  0.49954412  0.00100069  0.66685542  1
  Al0+  Al57  1  0.49879339  0.49800235  -0.00105054  1
  Al0+  Al58  1  0.49698663  0.49973416  0.33388173  1
  Al0+  Al59  1  0.49785224  0.49927115  0.66494511  1
  Al0+  Al60  1  0.25198018  0.25036852  0.00144915  1
  Al0+  Al61  1  0.24966289  0.24995625  0.33494645  1
  Al0+  Al62  1  0.25011074  0.24970288  0.66846797  1
  Al0+  Al63  1  0.25168540  0.74931213  -0.00199683  1
  Al0+  Al64  1  0.24987655  0.74751109  0.33485419  1
  Al0+  Al65  1  0.24915736  0.74779083  0.66419010  1
  Al0+  Al66  1  0.75287126  0.25136738  0.00020671  1
  Al0+  Al67  1  0.75098245  0.24821154  0.33521634  1
  Al0+  Al68  1  0.75077536  0.25158873  0.66395170  1
  Al0+  Al69  1  0.75367927  0.75026590  -0.00088221  1
  Al0+  Al70  1  0.74810642  0.74920125  0.32604009  1
  Al0+  Al71  1  0.75213187  0.74964271  0.66363948  1
  Al0+  Al72  1  0.17982116  0.92947935  0.01282254  1
  Al0+  Al73  1  0.67952271  0.92890088  0.01370182  1
  Al0+  Al74  1  0.68180292  0.93020255  0.67857493  1
  Al0+  Al75  1  0.42816681  0.31963311  0.98563604  1
  Al0+  Al76  1  0.17864851  0.42890680  0.01445215  1
  Al0+  Al77  1  0.32067399  0.07032006  0.68114491  1
  Al0+  Al78  1  0.92870312  0.82280172  0.31587022  1
  Al0+  Al79  1  0.17851492  0.42952889  0.34956016  1
  Al0+  Al80  1  0.57133241  0.17946536  0.65271870  1
  Al0+  Al81  1  0.42947062  0.82224555  0.98569565  1
  Al0+  Al82  1  0.56878425  0.67903461  0.31883040  1
  Al0+  Al83  1  0.82018595  0.07024911  0.34792515  1
  Al0+  Al84  1  0.57257250  0.17820905  0.31944934  1
  Al0+  Al85  1  0.07148679  0.67718746  0.98559565  1
  Al0+  Al86  1  0.93063640  0.82371375  0.98257919  1
  Al0+  Al87  1  0.07091840  0.67726519  0.31996976  1
  Al0+  Al88  1  0.67828447  0.42996044  0.01349155  1
  Al0+  Al89  1  0.42717874  0.82282194  0.65120540  1
  Al0+  Al90  1  0.57084553  0.67869351  0.65230756  1
  Al0+  Al91  1  0.07075748  0.18164058  0.65405013  1
  Al0+  Al92  1  0.57515715  0.17892392  0.98484922  1
  Al0+  Al93  1  0.07210622  0.18114772  0.31805782  1
  Al0+  Al94  1  0.93047391  0.82050392  0.65182150  1
  Al0+  Al95  1  0.57271641  0.67822124  0.98582960  1
  Si0+  Si96  1  0.81806910  0.57117672  0.34917950  1
  Si0+  Si97  1  0.17849478  0.92816025  0.34758048  1
  Si0+  Si98  1  0.92986298  0.32170539  0.98589788  1
  Si0+  Si99  1  0.42713111  0.32189482  0.64906568  1
  Si0+  Si100  1  0.07209936  0.17958563  0.98595162  1
  Si0+  Si101  1  0.81999852  0.57062701  0.68252889  1
  Si0+  Si102  1  0.32199309  0.57135117  0.68321242  1
  Si0+  Si103  1  0.92710311  0.32257743  0.31699350  1
  Si0+  Si104  1  0.67665494  0.92684313  0.34948103  1
  Si0+  Si105  1  0.32321796  0.57238436  0.35346446  1
  Si0+  Si106  1  0.42869749  0.32107120  0.31812975  1
  Si0+  Si107  1  0.32032311  0.07017484  0.34792803  1
  Si0+  Si108  1  0.82246104  0.57175663  0.01847313  1
  Si0+  Si109  1  0.67683604  0.42862027  0.34928450  1
  Si0+  Si110  1  0.32180334  0.57181332  0.01736326  1
  Si0+  Si111  1  0.32281346  0.07232508  0.01877363  1
  Si0+  Si112  1  0.17628922  0.92687512  0.68045277  1
  Si0+  Si113  1  0.92773392  0.32405997  0.64977999  1
  Si0+  Si114  1  0.07146774  0.67436781  0.65077100  1
  Si0+  Si115  1  0.67770612  0.42812205  0.68083349  1
  Si0+  Si116  1  0.17926990  0.43055734  0.68243066  1
  Si0+  Si117  1  0.82416839  0.07430280  0.68273626  1
  Si0+  Si118  1  0.82391109  0.07324888  0.01537969  1
  Si0+  Si119  1  0.42604449  0.82309359  0.31676584  1
  O2-  O120  1  0.25630480  0.00112468  0.06269318  1
  O2-  O121  1  0.25068016  -0.00234002  0.39053341  1
  O2-  O122  1  0.24886169  -0.00879637  0.72521527  1
  O2-  O123  1  0.24987366  0.50611793  0.06185482  1
  O2-  O124  1  0.25019124  0.50695622  0.39723095  1
  O2-  O125  1  0.24732909  0.50341326  0.72496405  1
  O2-  O126  1  0.75341560  0.00591044  0.05837810  1
  O2-  O127  1  0.74467611  -0.00384373  0.39424542  1
  O2-  O128  1  0.75503473  0.00690055  0.72665784  1
  O2-  O129  1  0.74798797  0.50849378  0.06231267  1
  O2-  O130  1  0.74521918  0.50176028  0.39267179  1
  O2-  O131  1  0.74658196  0.50118374  0.72325139  1
  O2-  O132  1  -0.00219336  0.25654951  0.27192437  1
  O2-  O133  1  -0.00490904  0.25462478  0.60587433  1
  O2-  O134  1  0.00185061  0.25159251  0.94415811  1
  O2-  O135  1  0.00487982  0.75338959  0.26904152  1
  O2-  O136  1  0.00887436  0.74840166  0.60699004  1
  O2-  O137  1  0.00472006  0.75261571  0.93378401  1
  O2-  O138  1  0.50023067  0.25560946  0.27459595  1
  O2-  O139  1  0.49657791  0.25412101  0.60483158  1
  O2-  O140  1  0.50147031  0.24964373  0.93541616  1
  O2-  O141  1  0.49543344  0.75485303  0.27394279  1
  O2-  O142  1  0.50009738  0.75145870  0.60148995  1
  O2-  O143  1  0.50572832  0.75456341  0.93602356  1
  O2-  O144  1  0.07130569  0.17977540  0.09099391  1
  O2-  O145  1  0.07279745  0.18246346  0.43125491  1
  O2-  O146  1  0.07029946  0.18422118  0.76753279  1
  O2-  O147  1  0.06674161  0.67557295  0.09891701  1
  O2-  O148  1  0.06667514  0.67873650  0.43412924  1
  O2-  O149  1  0.06823186  0.66821610  0.75565269  1
  O2-  O150  1  0.57447446  0.18107613  0.09873620  1
  O2-  O151  1  0.57068043  0.17827895  0.43292757  1
  O2-  O152  1  0.57231914  0.18206238  0.76505830  1
  O2-  O153  1  0.56793261  0.67782484  0.09965043  1
  O2-  O154  1  0.56808794  0.67896894  0.43188969  1
  O2-  O155  1  0.56945373  0.67642192  0.76501117  1
  O2-  O156  1  0.18141444  0.42851273  0.23689051  1
  O2-  O157  1  0.17913883  0.43068372  0.57733221  1
  O2-  O158  1  0.17903403  0.42828572  0.90071557  1
  O2-  O159  1  0.18013667  0.92900873  0.24257887  1
  O2-  O160  1  0.17575706  0.92993196  0.57434996  1
  O2-  O161  1  0.17655660  0.93603705  0.89984633  1
  O2-  O162  1  0.67811363  0.42857491  0.24444870  1
  O2-  O163  1  0.68032236  0.42723634  0.57533163  1
  O2-  O164  1  0.68323774  0.42841072  0.90005208  1
  O2-  O165  1  0.67673288  0.92794016  0.24400996  1
  O2-  O166  1  0.68384313  0.93072063  0.56511016  1
  O2-  O167  1  0.68039451  0.92932168  0.90036144  1
  O2-  O168  1  0.42727744  0.31688158  0.09957000  1
  O2-  O169  1  0.42973869  0.32121716  0.42414830  1
  O2-  O170  1  0.42688881  0.32311725  0.75410906  1
  O2-  O171  1  0.42873609  0.81829026  0.09964644  1
  O2-  O172  1  0.42588101  0.82471792  0.42230453  1
  O2-  O173  1  0.42753753  0.82149293  0.76410069  1
  O2-  O174  1  0.92832284  0.32175857  0.09079678  1
  O2-  O175  1  0.92686565  0.32234699  0.42284284  1
  O2-  O176  1  0.92871003  0.32616077  0.75549953  1
  O2-  O177  1  0.93159445  0.82416423  0.09572983  1
  O2-  O178  1  0.92821362  0.82057101  0.43001620  1
  O2-  O179  1  0.93033270  0.81959882  0.76439506  1
  O2-  O180  1  0.31938422  0.07153375  0.24313949  1
  O2-  O181  1  0.31817424  0.07128162  0.56727333  1
  O2-  O182  1  0.31953755  0.07454177  0.91317442  1
  O2-  O183  1  0.32777979  0.57037649  0.24863042  1
  O2-  O184  1  0.32308292  0.56825393  0.57812414  1
  O2-  O185  1  0.32116315  0.56873735  0.91143252  1
  O2-  O186  1  0.81873030  0.07202078  0.23495625  1
  O2-  O187  1  0.82405047  0.07446947  0.57711493  1
  O2-  O188  1  0.82676457  0.07471156  0.90973732  1
  O2-  O189  1  0.81926691  0.56800326  0.24460639  1
  O2-  O190  1  0.82244077  0.56773681  0.57719054  1
  O2-  O191  1  0.82535440  0.56686590  0.91252811  1
  O2-  O192  1  0.04057485  0.08571649  0.26372155  1
  O2-  O193  1  0.04300356  0.08632499  0.59666365  1
  O2-  O194  1  0.04251160  0.08989111  0.93664626  1
  O2-  O195  1  0.03771425  0.57899923  0.27025948  1
  O2-  O196  1  0.03878516  0.58278785  0.60305159  1
  O2-  O197  1  0.03891300  0.57918805  0.93278069  1
  O2-  O198  1  0.53979374  0.08271562  0.26541943  1
  O2-  O199  1  0.53915876  0.08438721  0.59769635  1
  O2-  O200  1  0.54553438  0.08100092  0.93383247  1
  O2-  O201  1  0.53722122  0.58118146  0.26756043  1
  O2-  O202  1  0.54050916  0.57993090  0.59893407  1
  O2-  O203  1  0.54170100  0.58036900  0.93415225  1
  O2-  O204  1  0.16854017  0.21217681  0.26447695  1
  O2-  O205  1  0.16640153  0.21526538  0.59958489  1
  O2-  O206  1  0.16353834  0.20771882  0.93906868  1
  O2-  O207  1  0.17311660  0.69568302  0.27194138  1
  O2-  O208  1  0.16738451  0.69097994  0.60655162  1
  O2-  O209  1  0.17204822  0.69797835  0.93568077  1
  O2-  O210  1  0.66942957  0.20886419  0.26759315  1
  O2-  O211  1  0.66816648  0.21122627  0.59831830  1
  O2-  O212  1  0.67315081  0.20932323  0.93236616  1
  O2-  O213  1  0.66517407  0.70465632  0.26353587  1
  O2-  O214  1  0.66986798  0.70454352  0.59957947  1
  O2-  O215  1  0.67435954  0.69803473  0.93771119  1
  O2-  O216  1  0.08071282  0.45517089  0.06842606  1
  O2-  O217  1  0.08039986  0.45645521  0.40442198  1
  O2-  O218  1  0.08544369  0.45493728  0.72856341  1
  O2-  O219  1  0.08493269  0.96449872  0.06859970  1
  O2-  O220  1  0.08681793  0.95862061  0.39330243  1
  O2-  O221  1  0.08420481  0.95945808  0.72587326  1
  O2-  O222  1  0.58040605  0.45494019  0.06772099  1
  O2-  O223  1  0.58399564  0.45380288  0.39631080  1
  O2-  O224  1  0.58437708  0.45276011  0.72604663  1
  O2-  O225  1  0.58320375  0.95794337  0.06983470  1
  O2-  O226  1  0.58156790  0.95187430  0.39357128  1
  O2-  O227  1  0.58475955  0.96028977  0.73105842  1
  O2-  O228  1  0.21141301  0.33266454  0.06861681  1
  O2-  O229  1  0.21329914  0.33362634  0.40427752  1
  O2-  O230  1  0.20826465  0.33935585  0.72981093  1
  O2-  O231  1  0.20841615  0.83158032  0.06615541  1
  O2-  O232  1  0.20268906  0.83523880  0.39531510  1
  O2-  O233  1  0.19378126  0.83005800  0.72297479  1
  O2-  O234  1  0.71595349  0.33536606  0.06850135  1
  O2-  O235  1  0.70842471  0.33815237  0.39761477  1
  O2-  O236  1  0.70880131  0.33752555  0.72897078  1
  O2-  O237  1  0.71196757  0.83221058  0.06728903  1
  O2-  O238  1  0.70351907  0.83246591  0.39362207  1
  O2-  O239  1  0.71466453  0.83331300  0.73105942  1
  O2-  O240  1  0.44979772  0.41553638  0.27303005  1
  O2-  O241  1  0.45168840  0.41508520  0.60149618  1
  O2-  O242  1  0.45403905  0.41774133  0.93234240  1
  O2-  O243  1  0.44829929  0.91634568  0.26912220  1
  O2-  O244  1  0.45495425  0.92101835  0.59826232  1
  O2-  O245  1  0.45343522  0.92252850  0.93612718  1
  O2-  O246  1  0.94939105  0.41712112  0.27276368  1
  O2-  O247  1  0.95464482  0.41721624  0.60285898  1
  O2-  O248  1  0.95714285  0.41240075  0.93655653  1
  O2-  O249  1  0.95469958  0.92133566  0.26407589  1
  O2-  O250  1  0.95790026  0.91719198  0.59630853  1
  O2-  O251  1  0.96016771  0.92219920  0.92963820  1
  O2-  O252  1  0.33646080  0.29172839  0.27277596  1
  O2-  O253  1  0.33360972  0.29562557  0.60341189  1
  O2-  O254  1  0.33031663  0.29047452  0.93093456  1
  O2-  O255  1  0.33227493  0.79601526  0.27211254  1
  O2-  O256  1  0.32810465  0.79384115  0.59793238  1
  O2-  O257  1  0.33222097  0.79327469  0.93113968  1
  O2-  O258  1  0.83465865  0.29455108  0.27039034  1
  O2-  O259  1  0.83408230  0.30181921  0.60275682  1
  O2-  O260  1  0.84001564  0.29358048  0.93502996  1
  O2-  O261  1  0.83177479  0.79086842  0.26349999  1
  O2-  O262  1  0.83700308  0.78466948  0.59562362  1
  O2-  O263  1  0.83405262  0.79111403  0.92951122  1
  O2-  O264  1  0.41732107  0.05044509  0.06395965  1
  O2-  O265  1  0.41301203  0.04242853  0.39493249  1
  O2-  O266  1  0.41762066  0.04358765  0.73531205  1
  O2-  O267  1  0.41339537  0.54135243  0.06498171  1
  O2-  O268  1  0.41398631  0.54006595  0.40353854  1
  O2-  O269  1  0.41211344  0.53949241  0.73149342  1
  O2-  O270  1  0.91667312  0.04607512  0.06292969  1
  O2-  O271  1  0.91835931  0.04084733  0.40115606  1
  O2-  O272  1  0.91883521  0.04857897  0.72677163  1
  O2-  O273  1  0.91197722  0.53675284  0.06716792  1
  O2-  O274  1  0.90743871  0.54125440  0.40106642  1
  O2-  O275  1  0.90991895  0.53912195  0.73260206  1
  O2-  O276  1  0.29272010  0.16409283  0.06625898  1
  O2-  O277  1  0.29151906  0.16098150  0.39676187  1
  O2-  O278  1  0.28628775  0.16597968  0.73582624  1
  O2-  O279  1  0.30141411  0.66638048  0.06288264  1
  O2-  O280  1  0.30188230  0.66716663  0.39991155  1
  O2-  O281  1  0.29766488  0.66461808  0.72921260  1
  O2-  O282  1  0.80196236  0.16764637  0.06188582  1
  O2-  O283  1  0.79243224  0.16768557  0.40378264  1
  O2-  O284  1  0.80181543  0.17002803  0.72687112  1
  O2-  O285  1  0.80494089  0.66712398  0.06251375  1
  O2-  O286  1  0.78981785  0.66372543  0.39520281  1
  O2-  O287  1  0.79473404  0.66242418  0.72957034  1
