# generated using pymatgen
data_Ca2Al2SiO7
_symmetry_space_group_name_H-M   'P 1'
_cell_length_a   15.46868780
_cell_length_b   15.46873609
_cell_length_c   15.29212306
_cell_angle_alpha   89.99049577
_cell_angle_beta   89.99413508
_cell_angle_gamma   90.01171875
_symmetry_Int_Tables_number   1
_chemical_formula_structural   Ca2Al2SiO7
_chemical_formula_sum   'Ca48 Al48 Si24 O168'
_cell_volume   3659.11510617
_cell_formula_units_Z   24
loop_
 _symmetry_equiv_pos_site_id
 _symmetry_equiv_pos_as_xyz
  1  'x, y, z'
loop_
 _atom_type_symbol
 _atom_type_oxidation_number
  Ca2+  2.0
  Al0+  0.0
  Si0+  0.0
  O2-  -2.0
loop_
 _atom_site_type_symbol
 _atom_site_label
 _atom_site_symmetry_multiplicity
 _atom_site_fract_x
 _atom_site_fract_y
 _atom_site_fract_z
 _atom_site_occupancy
  Ca2+  Ca0  1  0.16513826  0.07782905  0.16441503  1
  Ca2+  Ca1  1  0.16566618  0.07601859  0.50133441  1
  Ca2+  Ca2  1  0.16880622  0.08025045  0.84889182  1
  Ca2+  Ca3  1  0.16376867  0.57902533  0.16037130  1
  Ca2+  Ca4  1  0.16898952  0.58233902  0.50236914  1
  Ca2+  Ca5  1  0.17305530  0.57741625  0.84646609  1
  Ca2+  Ca6  1  0.67990042  0.08856984  0.16867871  1
  Ca2+  Ca7  1  0.67578887  0.08799340  0.50586237  1
  Ca2+  Ca8  1  0.67461963  0.09122595  0.83428549  1
  Ca2+  Ca9  1  0.67396438  0.57427552  0.16765377  1
  Ca2+  Ca10  1  0.67457022  0.57363665  0.50888659  1
  Ca2+  Ca11  1  0.67120044  0.57698462  0.84273544  1
  Ca2+  Ca12  1  0.07056423  0.33066661  0.15343556  1
  Ca2+  Ca13  1  0.06625177  0.33274516  0.49436491  1
  Ca2+  Ca14  1  0.07165005  0.33484237  0.83572678  1
  Ca2+  Ca15  1  0.08817192  0.83007674  0.15965233  1
  Ca2+  Ca16  1  0.08268018  0.83207357  0.49413959  1
  Ca2+  Ca17  1  0.08652974  0.82946688  0.83797054  1
  Ca2+  Ca18  1  0.58171414  0.34035219  0.16020747  1
  Ca2+  Ca19  1  0.59691774  0.33127350  0.50162111  1
  Ca2+  Ca20  1  0.58272628  0.33669396  0.83227013  1
  Ca2+  Ca21  1  0.57798917  0.82653451  0.15904726  1
  Ca2+  Ca22  1  0.58090898  0.82624621  0.49427953  1
  Ca2+  Ca23  1  0.58971633  0.81718173  0.83023987  1
  Ca2+  Ca24  1  0.33069946  0.41717426  0.15996326  1
  Ca2+  Ca25  1  0.32795713  0.41558530  0.50293765  1
  Ca2+  Ca26  1  0.32801079  0.41839016  0.84899813  1
  Ca2+  Ca27  1  0.32404781  0.91522851  0.16851653  1
  Ca2+  Ca28  1  0.33101924  0.90994803  0.49819188  1
  Ca2+  Ca29  1  0.32785608  0.92539293  0.84483409  1
  Ca2+  Ca30  1  0.82841952  0.41848976  0.17180986  1
  Ca2+  Ca31  1  0.82886947  0.42112496  0.50512301  1
  Ca2+  Ca32  1  0.82490869  0.41905092  0.83922963  1
  Ca2+  Ca33  1  0.84008342  0.93111004  0.16770799  1
  Ca2+  Ca34  1  0.83720350  0.93202819  0.50441055  1
  Ca2+  Ca35  1  0.83548418  0.93091875  0.83916258  1
  Ca2+  Ca36  1  0.41855011  0.17227005  0.15538350  1
  Ca2+  Ca37  1  0.42739310  0.16681907  0.49775183  1
  Ca2+  Ca38  1  0.41903301  0.17150691  0.83190800  1
  Ca2+  Ca39  1  0.42041540  0.66802824  0.15702217  1
  Ca2+  Ca40  1  0.42744074  0.66887332  0.49465371  1
  Ca2+  Ca41  1  0.43146743  0.65610906  0.83452006  1
  Ca2+  Ca42  1  0.91507315  0.17538377  0.15814709  1
  Ca2+  Ca43  1  0.90281592  0.17867287  0.49737839  1
  Ca2+  Ca44  1  0.90836975  0.17888228  0.83347727  1
  Ca2+  Ca45  1  0.91771266  0.66429756  0.15603091  1
  Ca2+  Ca46  1  0.91319727  0.66234210  0.49585146  1
  Ca2+  Ca47  1  0.91965361  0.65609074  0.83265626  1
  Al0+  Al48  1  0.00013974  -0.00034020  0.00448152  1
  Al0+  Al49  1  0.00247970  -0.00115499  0.34297883  1
  Al0+  Al50  1  0.00123726  -0.00100838  0.67118996  1
  Al0+  Al51  1  0.00091109  0.50135797  -0.00352109  1
  Al0+  Al52  1  0.00093812  0.49915355  0.33258068  1
  Al0+  Al53  1  0.00170156  0.49954768  0.66306028  1
  Al0+  Al54  1  0.49997061  -0.00013604  0.00205432  1
  Al0+  Al55  1  0.49908004  -0.00014364  0.32772241  1
  Al0+  Al56  1  0.49858498  0.00012066  0.66165242  1
  Al0+  Al57  1  0.50005310  0.49969389  -0.00015980  1
  Al0+  Al58  1  0.50021736  0.49864765  0.33781439  1
  Al0+  Al59  1  0.49867581  0.50116065  0.66158577  1
  Al0+  Al60  1  0.24965213  0.24966512  0.00096281  1
  Al0+  Al61  1  0.25129413  0.24848199  0.33585908  1
  Al0+  Al62  1  0.24857549  0.24760724  0.66449487  1
  Al0+  Al63  1  0.25016358  0.75094279  0.00052480  1
  Al0+  Al64  1  0.25056501  0.75058417  0.33455496  1
  Al0+  Al65  1  0.24853299  0.74974721  0.66644527  1
  Al0+  Al66  1  0.74829195  0.25003032  0.00403081  1
  Al0+  Al67  1  0.74963219  0.25045969  0.33482331  1
  Al0+  Al68  1  0.74866033  0.25151713  0.66687696  1
  Al0+  Al69  1  0.74950403  0.75112633  -0.00145012  1
  Al0+  Al70  1  0.75099699  0.75082358  0.33331049  1
  Al0+  Al71  1  0.75207013  0.75125415  0.66204189  1
  Al0+  Al72  1  0.67813923  0.43002964  0.35083226  1
  Al0+  Al73  1  0.07101759  0.68004495  0.98635410  1
  Al0+  Al74  1  0.57276712  0.67817296  0.65059411  1
  Al0+  Al75  1  0.42979124  0.31998245  0.98813979  1
  Al0+  Al76  1  0.82213630  0.57261911  0.01349021  1
  Al0+  Al77  1  0.42909543  0.81956031  0.31779323  1
  Al0+  Al78  1  0.82321278  0.57324492  0.68260856  1
  Al0+  Al79  1  0.17743503  0.42771317  0.01387461  1
  Al0+  Al80  1  0.67918225  0.42903817  0.01526830  1
  Al0+  Al81  1  0.67783840  0.43054986  0.68408096  1
  Al0+  Al82  1  0.56895356  0.18032529  0.65321586  1
  Al0+  Al83  1  0.82003346  0.06927342  0.34778675  1
  Al0+  Al84  1  0.92584468  0.32201080  0.98446098  1
  Al0+  Al85  1  0.93034946  0.32004465  0.65195404  1
  Al0+  Al86  1  0.17919232  0.92902173  0.01534148  1
  Al0+  Al87  1  0.06974321  0.17757738  0.98689050  1
  Al0+  Al88  1  0.18219303  0.92887494  0.34973101  1
  Al0+  Al89  1  0.57118657  0.67971260  0.98774647  1
  Al0+  Al90  1  0.82389064  0.57238450  0.34810147  1
  Al0+  Al91  1  0.81907307  0.07060199  0.01357094  1
  Al0+  Al92  1  0.81979822  0.07101620  0.68185536  1
  Al0+  Al93  1  0.32318018  0.07288956  0.01503296  1
  Al0+  Al94  1  0.32233467  0.57088570  0.01378351  1
  Al0+  Al95  1  0.92931906  0.31949631  0.31853755  1
  Si0+  Si96  1  0.57219222  0.17567021  0.98414354  1
  Si0+  Si97  1  0.93070925  0.82435088  0.65098020  1
  Si0+  Si98  1  0.92941202  0.82306917  0.31992322  1
  Si0+  Si99  1  0.67730622  0.92606115  0.01596239  1
  Si0+  Si100  1  0.18007576  0.92820415  0.68337464  1
  Si0+  Si101  1  0.17995913  0.42761295  0.67950912  1
  Si0+  Si102  1  0.32185857  0.07044003  0.68046696  1
  Si0+  Si103  1  0.42803842  0.82299833  0.98217204  1
  Si0+  Si104  1  0.31977157  0.57058534  0.34881019  1
  Si0+  Si105  1  0.92731429  0.82290584  0.98328254  1
  Si0+  Si106  1  0.07384160  0.17649185  0.31829431  1
  Si0+  Si107  1  0.31893447  0.57120852  0.67942251  1
  Si0+  Si108  1  0.32433281  0.07308105  0.35260628  1
  Si0+  Si109  1  0.57028973  0.18041002  0.31766629  1
  Si0+  Si110  1  0.57252387  0.67685191  0.31543111  1
  Si0+  Si111  1  0.42629149  0.32170099  0.31838635  1
  Si0+  Si112  1  0.67532839  0.92836146  0.34869561  1
  Si0+  Si113  1  0.07118395  0.68067273  0.65031923  1
  Si0+  Si114  1  0.67555963  0.92796371  0.68120299  1
  Si0+  Si115  1  0.42427990  0.32239635  0.64875312  1
  Si0+  Si116  1  0.17914392  0.42729363  0.34871156  1
  Si0+  Si117  1  0.07070761  0.67963996  0.31919921  1
  Si0+  Si118  1  0.07338336  0.17521471  0.64901636  1
  Si0+  Si119  1  0.42712007  0.82070287  0.65018449  1
  O2-  O120  1  0.25094065  0.00133883  0.06487353  1
  O2-  O121  1  0.25627023  0.00388176  0.39759502  1
  O2-  O122  1  0.24968665  0.00106997  0.72280408  1
  O2-  O123  1  0.24881557  0.50071115  0.06426897  1
  O2-  O124  1  0.25060498  0.49788311  0.39195809  1
  O2-  O125  1  0.25523279  0.49402000  0.72078250  1
  O2-  O126  1  0.74428435  -0.00404805  0.06049013  1
  O2-  O127  1  0.74523667  -0.00564161  0.39488153  1
  O2-  O128  1  0.74367237  -0.00362657  0.72657231  1
  O2-  O129  1  0.75476092  0.49750488  0.06443749  1
  O2-  O130  1  0.75044037  0.50277964  0.39873580  1
  O2-  O131  1  0.74794890  0.50509339  0.73228228  1
  O2-  O132  1  0.00527576  0.24460493  0.27466545  1
  O2-  O133  1  0.00353429  0.24240306  0.60492661  1
  O2-  O134  1  -0.00201514  0.24864370  0.93543248  1
  O2-  O135  1  -0.00539503  0.74620652  0.27907096  1
  O2-  O136  1  -0.00259640  0.74871219  0.60831977  1
  O2-  O137  1  -0.00662760  0.75155394  0.93865381  1
  O2-  O138  1  0.49837105  0.25140791  0.27763616  1
  O2-  O139  1  0.49598402  0.25676342  0.60461921  1
  O2-  O140  1  0.50210455  0.24342137  0.94118205  1
  O2-  O141  1  0.50521130  0.74697826  0.27127130  1
  O2-  O142  1  0.49765540  0.75423695  0.60552376  1
  O2-  O143  1  0.49695194  0.75474466  0.93842329  1
  O2-  O144  1  0.06672763  0.17698405  0.10087588  1
  O2-  O145  1  0.07625403  0.17913365  0.42432609  1
  O2-  O146  1  0.07826668  0.17555631  0.75365005  1
  O2-  O147  1  0.07176933  0.68267687  0.09984286  1
  O2-  O148  1  0.07343875  0.68138038  0.42502530  1
  O2-  O149  1  0.07611657  0.68265742  0.75456768  1
  O2-  O150  1  0.57203338  0.17448557  0.08996149  1
  O2-  O151  1  0.56901365  0.17924439  0.42304047  1
  O2-  O152  1  0.56451999  0.17711824  0.76560334  1
  O2-  O153  1  0.56924956  0.68274845  0.10077000  1
  O2-  O154  1  0.56979112  0.67862604  0.42136072  1
  O2-  O155  1  0.57015808  0.67857884  0.76340114  1
  O2-  O156  1  0.17917141  0.42728042  0.24449069  1
  O2-  O157  1  0.18099905  0.43026531  0.57357273  1
  O2-  O158  1  0.17965163  0.42990712  0.89960478  1
  O2-  O159  1  0.18223252  0.92752407  0.23795984  1
  O2-  O160  1  0.18117722  0.92604537  0.57807795  1
  O2-  O161  1  0.18171481  0.92890882  0.90111274  1
  O2-  O162  1  0.67490631  0.43125942  0.23796926  1
  O2-  O163  1  0.68093414  0.43064816  0.57045671  1
  O2-  O164  1  0.67707535  0.43014807  0.90194835  1
  O2-  O165  1  0.67526299  0.93053369  0.24339167  1
  O2-  O166  1  0.67610191  0.92939205  0.57532123  1
  O2-  O167  1  0.67852061  0.92493218  0.91025670  1
  O2-  O168  1  0.43234572  0.31981716  0.10176301  1
  O2-  O169  1  0.42149292  0.31953710  0.42358253  1
  O2-  O170  1  0.41899337  0.32026039  0.75358877  1
  O2-  O171  1  0.42941568  0.82235555  0.08790376  1
  O2-  O172  1  0.42985902  0.81582196  0.43159277  1
  O2-  O173  1  0.42431144  0.82085124  0.75503618  1
  O2-  O174  1  0.92605922  0.31966106  0.09822552  1
  O2-  O175  1  0.93059150  0.31901147  0.43215027  1
  O2-  O176  1  0.93226359  0.32062409  0.76419461  1
  O2-  O177  1  0.92811473  0.82357714  0.08919605  1
  O2-  O178  1  0.93298491  0.82515342  0.42533163  1
  O2-  O179  1  0.93457181  0.82974627  0.75528400  1
  O2-  O180  1  0.32424880  0.07564924  0.24803189  1
  O2-  O181  1  0.32137178  0.06976117  0.57520088  1
  O2-  O182  1  0.32420984  0.06959865  0.90060274  1
  O2-  O183  1  0.31949785  0.57102724  0.24449478  1
  O2-  O184  1  0.31471265  0.57327610  0.57364509  1
  O2-  O185  1  0.32189428  0.56832710  0.89947126  1
  O2-  O186  1  0.82020589  0.06802923  0.23501475  1
  O2-  O187  1  0.81906857  0.06904796  0.56845607  1
  O2-  O188  1  0.81682466  0.06995117  0.90038817  1
  O2-  O189  1  0.82495249  0.57239082  0.23527169  1
  O2-  O190  1  0.82367120  0.57121390  0.56887218  1
  O2-  O191  1  0.81828590  0.57349845  0.90012108  1
  O2-  O192  1  0.04867784  0.08093898  0.27741660  1
  O2-  O193  1  0.04896685  0.08003223  0.60490703  1
  O2-  O194  1  0.04406520  0.07766326  0.93508489  1
  O2-  O195  1  0.04950541  0.58609641  0.27334785  1
  O2-  O196  1  0.04818837  0.58827670  0.60135269  1
  O2-  O197  1  0.04584036  0.58381501  0.92905228  1
  O2-  O198  1  0.54399578  0.08877019  0.26961958  1
  O2-  O199  1  0.53677489  0.08454070  0.59570676  1
  O2-  O200  1  0.54903285  0.08148312  0.93755832  1
  O2-  O201  1  0.54259793  0.58328239  0.27287598  1
  O2-  O202  1  0.53765629  0.58401908  0.59342806  1
  O2-  O203  1  0.53730539  0.58509959  0.93253194  1
  O2-  O204  1  0.16871923  0.20066492  0.27421072  1
  O2-  O205  1  0.16659515  0.20061345  0.59987630  1
  O2-  O206  1  0.16889995  0.20400318  0.93470163  1
  O2-  O207  1  0.16071725  0.71270478  0.27279194  1
  O2-  O208  1  0.16130193  0.71291456  0.59977654  1
  O2-  O209  1  0.16695039  0.71371556  0.93068763  1
  O2-  O210  1  0.66141851  0.20883505  0.27043820  1
  O2-  O211  1  0.66520885  0.21038345  0.59802175  1
  O2-  O212  1  0.66445900  0.20390717  0.93805063  1
  O2-  O213  1  0.66712766  0.70160490  0.27146512  1
  O2-  O214  1  0.66880145  0.70979213  0.59553198  1
  O2-  O215  1  0.66626295  0.71234648  0.93115534  1
  O2-  O216  1  0.08064988  0.45919131  0.06713743  1
  O2-  O217  1  0.08926837  0.45795783  0.39813220  1
  O2-  O218  1  0.09050135  0.46042383  0.72596091  1
  O2-  O219  1  0.08111732  0.95430711  0.06983601  1
  O2-  O220  1  0.08726535  0.95881018  0.40840622  1
  O2-  O221  1  0.08853778  0.95350334  0.73089955  1
  O2-  O222  1  0.58244651  0.46167582  0.06821145  1
  O2-  O223  1  0.57844297  0.45469344  0.40517604  1
  O2-  O224  1  0.57493923  0.45484738  0.72986712  1
  O2-  O225  1  0.58333366  0.94932145  0.06187967  1
  O2-  O226  1  0.58166431  0.95483954  0.39470740  1
  O2-  O227  1  0.58088349  0.95194120  0.72540739  1
  O2-  O228  1  0.20647802  0.33126028  0.06854576  1
  O2-  O229  1  0.20817105  0.33629875  0.39815302  1
  O2-  O230  1  0.20249875  0.33354770  0.72387657  1
  O2-  O231  1  0.20961559  0.83190323  0.06879986  1
  O2-  O232  1  0.21488530  0.83279475  0.40582130  1
  O2-  O233  1  0.20935324  0.83644627  0.73009584  1
  O2-  O234  1  0.70162788  0.32978193  0.06872459  1
  O2-  O235  1  0.70809906  0.33133354  0.40190669  1
  O2-  O236  1  0.70549754  0.33165364  0.73471584  1
  O2-  O237  1  0.70352955  0.83423454  0.06448148  1
  O2-  O238  1  0.69854476  0.83366582  0.39354315  1
  O2-  O239  1  0.70283607  0.83449281  0.72563847  1
  O2-  O240  1  0.45290822  0.41482273  0.27378577  1
  O2-  O241  1  0.44421619  0.41731428  0.60272494  1
  O2-  O242  1  0.46039965  0.41540483  0.93222726  1
  O2-  O243  1  0.45501600  0.91753019  0.26434849  1
  O2-  O244  1  0.44961711  0.91429640  0.60193913  1
  O2-  O245  1  0.45351557  0.91711577  0.93656644  1
  O2-  O246  1  0.96220690  0.41622600  0.26662139  1
  O2-  O247  1  0.96641099  0.41490076  0.59580137  1
  O2-  O248  1  0.95611280  0.41930887  0.93137565  1
  O2-  O249  1  0.96423734  0.91314365  0.27338675  1
  O2-  O250  1  0.96537626  0.91344423  0.60073510  1
  O2-  O251  1  0.95775161  0.91472692  0.93643764  1
  O2-  O252  1  0.33475694  0.29311889  0.27083446  1
  O2-  O253  1  0.33224525  0.29228366  0.59939059  1
  O2-  O254  1  0.33304769  0.29179855  0.93343420  1
  O2-  O255  1  0.33281060  0.78606880  0.26560532  1
  O2-  O256  1  0.33423101  0.79065506  0.60279138  1
  O2-  O257  1  0.33454901  0.79868766  0.93638455  1
  O2-  O258  1  0.83255910  0.28742119  0.26680898  1
  O2-  O259  1  0.83360918  0.28863376  0.59894993  1
  O2-  O260  1  0.82770865  0.28954186  0.93290885  1
  O2-  O261  1  0.83514546  0.80434893  0.27345784  1
  O2-  O262  1  0.83790160  0.80399097  0.60231023  1
  O2-  O263  1  0.83283008  0.80298383  0.93714183  1
  O2-  O264  1  0.42167057  0.04512232  0.06877903  1
  O2-  O265  1  0.41819944  0.04529496  0.39762144  1
  O2-  O266  1  0.41296092  0.04138541  0.72751796  1
  O2-  O267  1  0.41796970  0.53985229  0.06914959  1
  O2-  O268  1  0.41103641  0.54349113  0.39807846  1
  O2-  O269  1  0.41326293  0.55011254  0.72268560  1
  O2-  O270  1  0.91395624  0.03781650  0.06875940  1
  O2-  O271  1  0.91547368  0.03841745  0.40416594  1
  O2-  O272  1  0.91649203  0.03822319  0.73406481  1
  O2-  O273  1  0.92332867  0.55172062  0.06175779  1
  O2-  O274  1  0.92331211  0.54417372  0.40089306  1
  O2-  O275  1  0.92374464  0.54374412  0.73059933  1
  O2-  O276  1  0.29626413  0.17035246  0.06866322  1
  O2-  O277  1  0.29838872  0.16599285  0.40145029  1
  O2-  O278  1  0.29610742  0.16347701  0.72607058  1
  O2-  O279  1  0.29572523  0.66967238  0.06511231  1
  O2-  O280  1  0.28813030  0.66017662  0.39842825  1
  O2-  O281  1  0.28512697  0.66054509  0.72715194  1
  O2-  O282  1  0.78690489  0.16490061  0.06991797  1
  O2-  O283  1  0.78497303  0.16425523  0.40130292  1
  O2-  O284  1  0.78669137  0.16655159  0.73410966  1
  O2-  O285  1  0.79268792  0.67158872  0.06551734  1
  O2-  O286  1  0.80027619  0.67405056  0.39857905  1
  O2-  O287  1  0.80334936  0.67648698  0.72868323  1
