# generated using pymatgen
data_Ca2Al2SiO7
_symmetry_space_group_name_H-M   'P 1'
_cell_length_a   15.46308453
_cell_length_b   15.46419133
_cell_length_c   15.28821444
_cell_angle_alpha   90.00349048
_cell_angle_beta   89.99822332
_cell_angle_gamma   90.01051575
_symmetry_Int_Tables_number   1
_chemical_formula_structural   Ca2Al2SiO7
_chemical_formula_sum   'Ca48 Al48 Si24 O168'
_cell_volume   3655.78041257
_cell_formula_units_Z   24
loop_
 _symmetry_equiv_pos_site_id
 _symmetry_equiv_pos_as_xyz
  1  'x, y, z'
loop_
 _atom_type_symbol
 _atom_type_oxidation_number
  Ca2+  2.0
  Al0+  0.0
  Si0+  0.0
  O2-  -2.0
loop_
 _atom_site_type_symbol
 _atom_site_label
 _atom_site_symmetry_multiplicity
 _atom_site_fract_x
 _atom_site_fract_y
 _atom_site_fract_z
 _atom_site_occupancy
  Ca2+  Ca0  1  0.17576285  0.07871644  0.16883097  1
  Ca2+  Ca1  1  0.17895842  0.08064727  0.50814307  1
  Ca2+  Ca2  1  0.17234263  0.07331421  0.83247880  1
  Ca2+  Ca3  1  0.17046742  0.58319684  0.16950610  1
  Ca2+  Ca4  1  0.16432454  0.57482182  0.50196340  1
  Ca2+  Ca5  1  0.17334823  0.58804584  0.84282424  1
  Ca2+  Ca6  1  0.67822790  0.07660087  0.17556825  1
  Ca2+  Ca7  1  0.67292346  0.07199739  0.50826852  1
  Ca2+  Ca8  1  0.67105039  0.07873948  0.83160759  1
  Ca2+  Ca9  1  0.66252751  0.57867324  0.17756856  1
  Ca2+  Ca10  1  0.64776760  0.57505688  0.50294614  1
  Ca2+  Ca11  1  0.65952523  0.57963891  0.82948772  1
  Ca2+  Ca12  1  0.08440424  0.33361457  0.16525858  1
  Ca2+  Ca13  1  0.08540642  0.32568515  0.49498416  1
  Ca2+  Ca14  1  0.07833791  0.32228410  0.82380447  1
  Ca2+  Ca15  1  0.07922135  0.83618342  0.16133493  1
  Ca2+  Ca16  1  0.07123797  0.84730523  0.50011081  1
  Ca2+  Ca17  1  0.08471653  0.83842404  0.82724873  1
  Ca2+  Ca18  1  0.57864341  0.33490947  0.16879564  1
  Ca2+  Ca19  1  0.58389434  0.32800842  0.49668515  1
  Ca2+  Ca20  1  0.58231754  0.32485952  0.82279695  1
  Ca2+  Ca21  1  0.58044458  0.83770412  0.17184243  1
  Ca2+  Ca22  1  0.58146744  0.83323878  0.49163379  1
  Ca2+  Ca23  1  0.57563879  0.82975061  0.81813744  1
  Ca2+  Ca24  1  0.33151065  0.42265180  0.17634116  1
  Ca2+  Ca25  1  0.33456812  0.41412013  0.49837236  1
  Ca2+  Ca26  1  0.33266720  0.42561634  0.83785818  1
  Ca2+  Ca27  1  0.33089651  0.92348223  0.17221195  1
  Ca2+  Ca28  1  0.33541852  0.92138213  0.50782400  1
  Ca2+  Ca29  1  0.33022013  0.92364818  0.83643906  1
  Ca2+  Ca30  1  0.82582215  0.42164530  0.17594476  1
  Ca2+  Ca31  1  0.82030653  0.42170842  0.50462538  1
  Ca2+  Ca32  1  0.82543860  0.41465525  0.83189254  1
  Ca2+  Ca33  1  0.83276786  0.92507733  0.17668717  1
  Ca2+  Ca34  1  0.82570536  0.91576484  0.50533779  1
  Ca2+  Ca35  1  0.83391379  0.92272033  0.83004290  1
  Ca2+  Ca36  1  0.40821282  0.16953497  0.16669338  1
  Ca2+  Ca37  1  0.42124445  0.16294559  0.49415352  1
  Ca2+  Ca38  1  0.41851492  0.16312123  0.82489714  1
  Ca2+  Ca39  1  0.41859733  0.67005876  0.16656145  1
  Ca2+  Ca40  1  0.42532932  0.68339751  0.49762018  1
  Ca2+  Ca41  1  0.41720961  0.67382697  0.82470834  1
  Ca2+  Ca42  1  0.91210480  0.16413533  0.16263807  1
  Ca2+  Ca43  1  0.92242894  0.15218356  0.49944846  1
  Ca2+  Ca44  1  0.91948671  0.15694197  0.82479236  1
  Ca2+  Ca45  1  0.92228129  0.67528231  0.16316485  1
  Ca2+  Ca46  1  0.91418188  0.68222613  0.49625695  1
  Ca2+  Ca47  1  0.92737619  0.67461251  0.82657790  1
  Al0+  Al48  1  -0.00100429  0.00160196  0.00612072  1
  Al0+  Al49  1  0.00391267  0.00059217  0.32797838  1
  Al0+  Al50  1  0.00203457  -0.00021234  0.66476857  1
  Al0+  Al51  1  -0.00271256  0.50079068  -0.00612395  1
  Al0+  Al52  1  0.00011412  0.49760539  0.33725440  1
  Al0+  Al53  1  -0.00167408  0.49876823  0.66735712  1
  Al0+  Al54  1  0.50086169  0.00134210  0.00285871  1
  Al0+  Al55  1  0.50267726  0.00039755  0.33283181  1
  Al0+  Al56  1  0.50162544  0.00186670  0.66665542  1
  Al0+  Al57  1  0.49778908  0.49949110  0.00276628  1
  Al0+  Al58  1  0.49830326  0.49894062  0.33061581  1
  Al0+  Al59  1  0.49778415  0.49933298  0.66953256  1
  Al0+  Al60  1  0.24772512  0.25106065  -0.00123957  1
  Al0+  Al61  1  0.25021667  0.24998853  0.33538097  1
  Al0+  Al62  1  0.24774722  0.25087970  0.66716495  1
  Al0+  Al63  1  0.25024797  0.74931615  0.00549214  1
  Al0+  Al64  1  0.25056011  0.74922901  0.33192247  1
  Al0+  Al65  1  0.25038706  0.74752723  0.66375682  1
  Al0+  Al66  1  0.74764246  0.25053438  0.00318204  1
  Al0+  Al67  1  0.75282495  0.25241749  0.33981468  1
  Al0+  Al68  1  0.74881390  0.25272809  0.66996565  1
  Al0+  Al69  1  0.74954515  0.74856221  -0.00219871  1
  Al0+  Al70  1  0.75295716  0.75047013  0.32492357  1
  Al0+  Al71  1  0.75185061  0.74533586  0.66501969  1
  Al0+  Al72  1  0.32340281  0.07296880  0.68055465  1
  Al0+  Al73  1  0.93166103  0.82196039  0.31745578  1
  Al0+  Al74  1  0.32297275  0.07312081  0.01585211  1
  Al0+  Al75  1  0.57198814  0.17934080  0.65376156  1
  Al0+  Al76  1  0.82078535  0.06972531  0.68067997  1
  Al0+  Al77  1  0.67785735  0.43127163  0.68146708  1
  Al0+  Al78  1  0.42923091  0.31787633  0.31993622  1
  Al0+  Al79  1  0.68173058  0.92781671  0.34742461  1
  Al0+  Al80  1  0.57073022  0.67747298  0.65363313  1
  Al0+  Al81  1  0.82474467  0.07215149  0.34919090  1
  Al0+  Al82  1  0.18044878  0.92762491  0.67925835  1
  Al0+  Al83  1  0.07132139  0.68035623  0.98699968  1
  Al0+  Al84  1  0.17941139  0.92896153  0.01598291  1
  Al0+  Al85  1  0.32068832  0.57043640  0.01493714  1
  Al0+  Al86  1  0.67711209  0.43151501  0.34762286  1
  Al0+  Al87  1  0.57012330  0.67967845  0.31717458  1
  Al0+  Al88  1  0.42871740  0.82299803  0.65361773  1
  Al0+  Al89  1  0.81848914  0.07033807  0.01355975  1
  Al0+  Al90  1  0.32090926  0.07016313  0.34679250  1
  Al0+  Al91  1  0.17912849  0.42946733  0.34682031  1
  Al0+  Al92  1  0.42762808  0.82471610  0.31577731  1
  Al0+  Al93  1  0.93113875  0.82000414  0.65423615  1
  Al0+  Al94  1  0.67839351  0.92436457  0.68108358  1
  Al0+  Al95  1  0.06954925  0.17961647  0.65223448  1
  Si0+  Si96  1  0.57081349  0.67591800  0.98393320  1
  Si0+  Si97  1  0.92933034  0.32214065  0.31800846  1
  Si0+  Si98  1  0.92567548  0.32114457  0.98467552  1
  Si0+  Si99  1  0.17541728  0.42808532  0.68341148  1
  Si0+  Si100  1  0.17520830  0.42906813  0.01429113  1
  Si0+  Si101  1  0.42761667  0.32175206  0.98486226  1
  Si0+  Si102  1  0.07385404  0.67486361  0.64910202  1
  Si0+  Si103  1  0.07155668  0.18074020  0.31585748  1
  Si0+  Si104  1  0.92838189  0.82388215  0.98205220  1
  Si0+  Si105  1  0.57106818  0.18092345  0.98601381  1
  Si0+  Si106  1  0.43087480  0.82121786  0.98607186  1
  Si0+  Si107  1  0.06954322  0.17968451  0.98443184  1
  Si0+  Si108  1  0.82169245  0.57112472  0.01430139  1
  Si0+  Si109  1  0.67906950  0.43073811  0.01594603  1
  Si0+  Si110  1  0.07099876  0.67380957  0.31780938  1
  Si0+  Si111  1  0.67724603  0.92489587  0.01620411  1
  Si0+  Si112  1  0.57586396  0.17915113  0.31633493  1
  Si0+  Si113  1  0.17960300  0.92607690  0.34951620  1
  Si0+  Si114  1  0.92704525  0.32348246  0.64813121  1
  Si0+  Si115  1  0.31777501  0.56785299  0.68093563  1
  Si0+  Si116  1  0.32217305  0.57275083  0.35263006  1
  Si0+  Si117  1  0.42713426  0.32180375  0.65176333  1
  Si0+  Si118  1  0.82552292  0.57173945  0.68602038  1
  Si0+  Si119  1  0.82274099  0.57202464  0.34883543  1
  O2-  O120  1  0.25254775  -0.00002773  0.06575941  1
  O2-  O121  1  0.25347550  -0.01098450  0.39245883  1
  O2-  O122  1  0.25491354  -0.00301992  0.72944699  1
  O2-  O123  1  0.24383578  0.49658422  0.05959956  1
  O2-  O124  1  0.25118713  0.50534258  0.39558540  1
  O2-  O125  1  0.24406209  0.50051844  0.72566351  1
  O2-  O126  1  0.74867189  -0.00857708  0.05922128  1
  O2-  O127  1  0.75265379  0.00044163  0.39750595  1
  O2-  O128  1  0.74894356  -0.00195067  0.73185131  1
  O2-  O129  1  0.74796843  0.50367695  0.05807553  1
  O2-  O130  1  0.74745782  0.51092713  0.39321607  1
  O2-  O131  1  0.75311827  0.50542439  0.72888840  1
  O2-  O132  1  -0.00322283  0.24876415  0.27378485  1
  O2-  O133  1  -0.00686843  0.25261909  0.60413909  1
  O2-  O134  1  -0.00351623  0.24991224  0.94304901  1
  O2-  O135  1  0.00733930  0.74651587  0.27275767  1
  O2-  O136  1  0.00678064  0.74533193  0.60676130  1
  O2-  O137  1  -0.00062795  0.75680267  0.93890285  1
  O2-  O138  1  0.50418303  0.24467824  0.27042845  1
  O2-  O139  1  0.49169418  0.24936570  0.60884823  1
  O2-  O140  1  0.49488121  0.24724949  0.94372841  1
  O2-  O141  1  0.49957256  0.75196355  0.26509914  1
  O2-  O142  1  0.50892670  0.75856077  0.60514278  1
  O2-  O143  1  0.50368401  0.75120496  0.94368338  1
  O2-  O144  1  0.07065087  0.18339878  0.08960126  1
  O2-  O145  1  0.07203673  0.18239137  0.42068415  1
  O2-  O146  1  0.06875696  0.18275758  0.76598690  1
  O2-  O147  1  0.06615173  0.67566632  0.09973693  1
  O2-  O148  1  0.06713312  0.66925950  0.42312295  1
  O2-  O149  1  0.07313931  0.67206987  0.75489895  1
  O2-  O150  1  0.57510233  0.18546385  0.09073480  1
  O2-  O151  1  0.57613915  0.18216442  0.42157111  1
  O2-  O152  1  0.57284258  0.18352584  0.76786219  1
  O2-  O153  1  0.57062511  0.67164073  0.08842516  1
  O2-  O154  1  0.56628745  0.67838030  0.43014765  1
  O2-  O155  1  0.56360832  0.67467842  0.76807630  1
  O2-  O156  1  0.17897768  0.43107888  0.23329587  1
  O2-  O157  1  0.17481862  0.42837625  0.57850363  1
  O2-  O158  1  0.17692883  0.42899590  0.90856414  1
  O2-  O159  1  0.17726745  0.92906005  0.24375428  1
  O2-  O160  1  0.17986679  0.93071974  0.56582602  1
  O2-  O161  1  0.17969510  0.93064033  0.90265932  1
  O2-  O162  1  0.68078858  0.43079572  0.23356086  1
  O2-  O163  1  0.67739618  0.43325094  0.56883626  1
  O2-  O164  1  0.67932401  0.43026533  0.91102505  1
  O2-  O165  1  0.68389549  0.93035785  0.23297535  1
  O2-  O166  1  0.68040481  0.92437060  0.56807466  1
  O2-  O167  1  0.67550945  0.92480747  0.91097113  1
  O2-  O168  1  0.42891626  0.32432916  0.08967785  1
  O2-  O169  1  0.42929149  0.31714085  0.43274420  1
  O2-  O170  1  0.42903426  0.32506231  0.75812269  1
  O2-  O171  1  0.43287647  0.82065302  0.09081959  1
  O2-  O172  1  0.42614031  0.82307691  0.42880533  1
  O2-  O173  1  0.42527081  0.81716074  0.76810879  1
  O2-  O174  1  0.92525261  0.32287045  0.08979492  1
  O2-  O175  1  0.93194084  0.32690136  0.42229850  1
  O2-  O176  1  0.93037832  0.32639352  0.75441995  1
  O2-  O177  1  0.92804665  0.82124183  0.08761010  1
  O2-  O178  1  0.93276316  0.82156045  0.43038364  1
  O2-  O179  1  0.93368507  0.81834540  0.76773975  1
  O2-  O180  1  0.31455919  0.07285640  0.23359161  1
  O2-  O181  1  0.31969434  0.07652906  0.56728071  1
  O2-  O182  1  0.32333730  0.07331007  0.90284961  1
  O2-  O183  1  0.32130589  0.57082069  0.24662216  1
  O2-  O184  1  0.31665846  0.56435750  0.57632211  1
  O2-  O185  1  0.32168980  0.56772091  0.90141274  1
  O2-  O186  1  0.82185142  0.07214925  0.23479407  1
  O2-  O187  1  0.82073830  0.06758143  0.56789769  1
  O2-  O188  1  0.81767654  0.07251158  0.90109355  1
  O2-  O189  1  0.82571719  0.56613901  0.24256996  1
  O2-  O190  1  0.83397717  0.56825483  0.58122396  1
  O2-  O191  1  0.82246124  0.56869628  0.90967396  1
  O2-  O192  1  0.04775527  0.08921306  0.26611214  1
  O2-  O193  1  0.04131458  0.08398027  0.59665377  1
  O2-  O194  1  0.04071959  0.08753141  0.93917229  1
  O2-  O195  1  0.04091986  0.58172123  0.26991258  1
  O2-  O196  1  0.04531195  0.58110930  0.60404814  1
  O2-  O197  1  0.03851762  0.58455799  0.93010512  1
  O2-  O198  1  0.55444510  0.08494335  0.27051605  1
  O2-  O199  1  0.54757983  0.08238528  0.59917934  1
  O2-  O200  1  0.54844366  0.08696949  0.94048961  1
  O2-  O201  1  0.53908331  0.58124700  0.26363183  1
  O2-  O202  1  0.53033330  0.58257427  0.60126638  1
  O2-  O203  1  0.53887922  0.58469460  0.93666990  1
  O2-  O204  1  0.16056169  0.21520781  0.26736406  1
  O2-  O205  1  0.16474139  0.21539695  0.59792298  1
  O2-  O206  1  0.16027324  0.20936493  0.93534807  1
  O2-  O207  1  0.16699262  0.69391904  0.27483289  1
  O2-  O208  1  0.16765554  0.69484498  0.60232325  1
  O2-  O209  1  0.17025297  0.70663778  0.93506874  1
  O2-  O210  1  0.66880675  0.21082174  0.27084857  1
  O2-  O211  1  0.66623589  0.21725116  0.60026616  1
  O2-  O212  1  0.66019307  0.21562789  0.93687625  1
  O2-  O213  1  0.67012995  0.70209314  0.26336336  1
  O2-  O214  1  0.67433133  0.68659286  0.60688424  1
  O2-  O215  1  0.66512351  0.69772497  0.93780411  1
  O2-  O216  1  0.08027593  0.45379249  0.05831291  1
  O2-  O217  1  0.08290261  0.45781842  0.40330779  1
  O2-  O218  1  0.08281192  0.45288886  0.73097953  1
  O2-  O219  1  0.08184473  0.95971891  0.06978421  1
  O2-  O220  1  0.08843948  0.96012068  0.39439823  1
  O2-  O221  1  0.08431216  0.96079634  0.73376464  1
  O2-  O222  1  0.58664043  0.45689512  0.06259199  1
  O2-  O223  1  0.57914821  0.45820603  0.40005880  1
  O2-  O224  1  0.58186085  0.46248890  0.73801127  1
  O2-  O225  1  0.58575925  0.95448795  0.06391761  1
  O2-  O226  1  0.58243128  0.95387219  0.39787077  1
  O2-  O227  1  0.58056395  0.95406040  0.73449000  1
  O2-  O228  1  0.19961456  0.33537684  0.06004961  1
  O2-  O229  1  0.21188399  0.33471878  0.40196683  1
  O2-  O230  1  0.20460770  0.33788604  0.73271567  1
  O2-  O231  1  0.20452123  0.83050103  0.06958103  1
  O2-  O232  1  0.19525701  0.82944082  0.39256407  1
  O2-  O233  1  0.20278180  0.82601837  0.72942838  1
  O2-  O234  1  0.70907675  0.34054628  0.06463258  1
  O2-  O235  1  0.71252615  0.33775375  0.40263450  1
  O2-  O236  1  0.71087477  0.33707294  0.73927950  1
  O2-  O237  1  0.69950748  0.82940935  0.06052320  1
  O2-  O238  1  0.71084445  0.82793128  0.39585954  1
  O2-  O239  1  0.70623813  0.82475016  0.73315470  1
  O2-  O240  1  0.45897644  0.41425161  0.26404153  1
  O2-  O241  1  0.45733095  0.41328042  0.60486479  1
  O2-  O242  1  0.45989518  0.41221942  0.93639006  1
  O2-  O243  1  0.45806022  0.92266819  0.26145418  1
  O2-  O244  1  0.44838020  0.92367313  0.60431642  1
  O2-  O245  1  0.45717849  0.91425046  0.93970966  1
  O2-  O246  1  0.96065475  0.41232546  0.26770670  1
  O2-  O247  1  0.95613078  0.41588929  0.60130593  1
  O2-  O248  1  0.95259706  0.41188866  0.93439968  1
  O2-  O249  1  0.96519694  0.91716512  0.26090876  1
  O2-  O250  1  0.96256674  0.91501846  0.59869431  1
  O2-  O251  1  0.95296355  0.91894186  0.93921463  1
  O2-  O252  1  0.33237654  0.28776413  0.26456201  1
  O2-  O253  1  0.33124267  0.30343175  0.60826050  1
  O2-  O254  1  0.33366680  0.30021962  0.93792389  1
  O2-  O255  1  0.32824054  0.79466851  0.26354885  1
  O2-  O256  1  0.33387834  0.78560061  0.59835141  1
  O2-  O257  1  0.33898744  0.79073749  0.94139185  1
  O2-  O258  1  0.83647133  0.29761369  0.27007495  1
  O2-  O259  1  0.83154247  0.30335595  0.60588285  1
  O2-  O260  1  0.83317596  0.29373615  0.93807154  1
  O2-  O261  1  0.83763123  0.79095454  0.25860587  1
  O2-  O262  1  0.83594192  0.78632871  0.59936209  1
  O2-  O263  1  0.83478348  0.79527770  0.93690140  1
  O2-  O264  1  0.42252275  0.04855913  0.06840624  1
  O2-  O265  1  0.42118794  0.04846551  0.39557848  1
  O2-  O266  1  0.42265921  0.05021878  0.73341984  1
  O2-  O267  1  0.41546082  0.53596081  0.07050964  1
  O2-  O268  1  0.41345944  0.54103693  0.39773411  1
  O2-  O269  1  0.40668116  0.53592046  0.73184614  1
  O2-  O270  1  0.91573876  0.04575549  0.06874077  1
  O2-  O271  1  0.92546995  0.04381187  0.39563694  1
  O2-  O272  1  0.91908627  0.03920600  0.73317690  1
  O2-  O273  1  0.91202828  0.53937085  0.06247946  1
  O2-  O274  1  0.91214293  0.53855746  0.39779106  1
  O2-  O275  1  0.91680751  0.54070708  0.73609001  1
  O2-  O276  1  0.29137061  0.17267912  0.06599040  1
  O2-  O277  1  0.28465188  0.16435528  0.40083861  1
  O2-  O278  1  0.29070217  0.17109968  0.73405030  1
  O2-  O279  1  0.29157574  0.66531214  0.07132360  1
  O2-  O280  1  0.29800009  0.66676878  0.39778562  1
  O2-  O281  1  0.29227634  0.65983456  0.72893729  1
  O2-  O282  1  0.78574297  0.16692826  0.06819119  1
  O2-  O283  1  0.80305996  0.17242068  0.39996849  1
  O2-  O284  1  0.79591744  0.17019641  0.73194354  1
  O2-  O285  1  0.79765578  0.66445659  0.06065408  1
  O2-  O286  1  0.80546280  0.66870256  0.38877292  1
  O2-  O287  1  0.80311305  0.66481012  0.73339408  1
