# generated using pymatgen
data_Ca2Al2SiO7
_symmetry_space_group_name_H-M   'P 1'
_cell_length_a   15.46621092
_cell_length_b   15.46648485
_cell_length_c   15.29115581
_cell_angle_alpha   89.98221426
_cell_angle_beta   90.00010771
_cell_angle_gamma   90.00264333
_symmetry_Int_Tables_number   1
_chemical_formula_structural   Ca2Al2SiO7
_chemical_formula_sum   'Ca48 Al48 Si24 O168'
_cell_volume   3657.76534959
_cell_formula_units_Z   24
loop_
 _symmetry_equiv_pos_site_id
 _symmetry_equiv_pos_as_xyz
  1  'x, y, z'
loop_
 _atom_type_symbol
 _atom_type_oxidation_number
  Ca2+  2.0
  Al0+  0.0
  Si0+  0.0
  O2-  -2.0
loop_
 _atom_site_type_symbol
 _atom_site_label
 _atom_site_symmetry_multiplicity
 _atom_site_fract_x
 _atom_site_fract_y
 _atom_site_fract_z
 _atom_site_occupancy
  Ca2+  Ca0  1  0.18257454  0.07875024  0.17088711  1
  Ca2+  Ca1  1  0.17969828  0.08025643  0.50565937  1
  Ca2+  Ca2  1  0.18046847  0.08209173  0.83737722  1
  Ca2+  Ca3  1  0.17293829  0.58467555  0.17197491  1
  Ca2+  Ca4  1  0.17731726  0.58068856  0.50159149  1
  Ca2+  Ca5  1  0.17261717  0.57494805  0.84211809  1
  Ca2+  Ca6  1  0.65996641  0.08467540  0.17182860  1
  Ca2+  Ca7  1  0.66232718  0.08301132  0.50110319  1
  Ca2+  Ca8  1  0.66578174  0.08264828  0.84117607  1
  Ca2+  Ca9  1  0.66758946  0.59093570  0.16604531  1
  Ca2+  Ca10  1  0.66228751  0.58210551  0.50988487  1
  Ca2+  Ca11  1  0.66554570  0.57457534  0.84107035  1
  Ca2+  Ca12  1  0.08757421  0.34206625  0.16178497  1
  Ca2+  Ca13  1  0.08064206  0.34779422  0.49874968  1
  Ca2+  Ca14  1  0.08222179  0.34120568  0.82552156  1
  Ca2+  Ca15  1  0.08712063  0.81879073  0.16354204  1
  Ca2+  Ca16  1  0.07871635  0.82901053  0.49656817  1
  Ca2+  Ca17  1  0.07933259  0.82448729  0.83100200  1
  Ca2+  Ca18  1  0.58406731  0.32326439  0.15982189  1
  Ca2+  Ca19  1  0.57239664  0.33385556  0.49959727  1
  Ca2+  Ca20  1  0.58065343  0.33448563  0.82684804  1
  Ca2+  Ca21  1  0.57130923  0.82060134  0.16455855  1
  Ca2+  Ca22  1  0.57781558  0.81801513  0.49444954  1
  Ca2+  Ca23  1  0.57711824  0.81843825  0.83498719  1
  Ca2+  Ca24  1  0.32380963  0.43040092  0.17059057  1
  Ca2+  Ca25  1  0.32898145  0.42647167  0.50901405  1
  Ca2+  Ca26  1  0.32932900  0.42503459  0.83447457  1
  Ca2+  Ca27  1  0.35127787  0.92335428  0.16966248  1
  Ca2+  Ca28  1  0.34766321  0.92714982  0.49912596  1
  Ca2+  Ca29  1  0.34830060  0.92848750  0.83776352  1
  Ca2+  Ca30  1  0.82581444  0.42263283  0.16155619  1
  Ca2+  Ca31  1  0.82442480  0.41708460  0.50761069  1
  Ca2+  Ca32  1  0.82218125  0.41660530  0.83868853  1
  Ca2+  Ca33  1  0.82909811  0.91779374  0.17068934  1
  Ca2+  Ca34  1  0.83306275  0.91619207  0.50842370  1
  Ca2+  Ca35  1  0.83388936  0.91378392  0.83617102  1
  Ca2+  Ca36  1  0.42252957  0.16280985  0.16027123  1
  Ca2+  Ca37  1  0.41191164  0.17262410  0.49608138  1
  Ca2+  Ca38  1  0.41553387  0.17266961  0.83044679  1
  Ca2+  Ca39  1  0.41507679  0.67056312  0.15704491  1
  Ca2+  Ca40  1  0.42219155  0.66238409  0.49213474  1
  Ca2+  Ca41  1  0.42402964  0.65219882  0.83051951  1
  Ca2+  Ca42  1  0.92258557  0.17100556  0.16119670  1
  Ca2+  Ca43  1  0.92023066  0.17575635  0.49878096  1
  Ca2+  Ca44  1  0.92251421  0.17650422  0.82529803  1
  Ca2+  Ca45  1  0.92851888  0.65692515  0.16055239  1
  Ca2+  Ca46  1  0.92377608  0.66929010  0.49622382  1
  Ca2+  Ca47  1  0.92193992  0.66055816  0.83186592  1
  Al0+  Al48  1  0.00165286  0.00191230  0.00039300  1
  Al0+  Al49  1  -0.00035697  0.00373665  0.33392547  1
  Al0+  Al50  1  0.00072036  0.00013834  0.66352315  1
  Al0+  Al51  1  -0.00415663  0.49956572  -0.00024144  1
  Al0+  Al52  1  -0.00456112  0.50163454  0.33272654  1
  Al0+  Al53  1  -0.00055812  0.50089070  0.66173602  1
  Al0+  Al54  1  0.50391243  -0.00024871  -0.00397470  1
  Al0+  Al55  1  0.50343517  -0.00057684  0.33361558  1
  Al0+  Al56  1  0.50384042  -0.00282724  0.67227510  1
  Al0+  Al57  1  0.49761153  0.49619745  0.00609598  1
  Al0+  Al58  1  0.50130232  0.49670002  0.33061704  1
  Al0+  Al59  1  0.50098672  0.49561208  0.66494023  1
  Al0+  Al60  1  0.25114071  0.24660238  0.00802480  1
  Al0+  Al61  1  0.24667267  0.24903977  0.33960151  1
  Al0+  Al62  1  0.25110484  0.24815891  0.66968026  1
  Al0+  Al63  1  0.24667057  0.75378928  -0.00959063  1
  Al0+  Al64  1  0.24793698  0.75287300  0.33126916  1
  Al0+  Al65  1  0.25205792  0.75325542  0.66910361  1
  Al0+  Al66  1  0.75196587  0.24875184  0.00037165  1
  Al0+  Al67  1  0.75183668  0.25094280  0.33030662  1
  Al0+  Al68  1  0.75318522  0.24845324  0.66545812  1
  Al0+  Al69  1  0.74824772  0.75172933  0.00251977  1
  Al0+  Al70  1  0.74876446  0.75246730  0.33194061  1
  Al0+  Al71  1  0.75027673  0.75091336  0.65995440  1
  Al0+  Al72  1  0.42908494  0.81980767  0.32082330  1
  Al0+  Al73  1  0.68042167  0.42740372  0.67809172  1
  Al0+  Al74  1  0.32285710  0.06896637  0.68165750  1
  Al0+  Al75  1  0.92964251  0.32208162  0.65210269  1
  Al0+  Al76  1  0.57148089  0.67447003  0.31788272  1
  Al0+  Al77  1  0.42767687  0.82087649  0.98335375  1
  Al0+  Al78  1  0.56938435  0.67546900  0.98454357  1
  Al0+  Al79  1  0.57216140  0.18045307  0.98527328  1
  Al0+  Al80  1  0.31951605  0.57437272  0.01395794  1
  Al0+  Al81  1  0.81796172  0.57265493  0.01404014  1
  Al0+  Al82  1  0.06803097  0.68053036  0.32047995  1
  Al0+  Al83  1  0.17752558  0.42867215  0.01351299  1
  Al0+  Al84  1  0.67666834  0.42613209  0.01578965  1
  Al0+  Al85  1  0.06927762  0.67773628  0.98473029  1
  Al0+  Al86  1  0.93015857  0.82058346  0.65394934  1
  Al0+  Al87  1  0.32262305  0.06663819  0.01463686  1
  Al0+  Al88  1  0.32307568  0.57301263  0.68057206  1
  Al0+  Al89  1  0.56799459  0.67777308  0.65441048  1
  Al0+  Al90  1  0.17599488  0.43073506  0.34903096  1
  Al0+  Al91  1  0.42867886  0.31811628  0.65387753  1
  Al0+  Al92  1  0.56941879  0.18211746  0.32175089  1
  Al0+  Al93  1  0.17753823  0.43080180  0.68082131  1
  Al0+  Al94  1  0.32267442  0.57331551  0.34729604  1
  Al0+  Al95  1  0.32294003  0.06838187  0.34754071  1
  Si0+  Si96  1  0.42573584  0.31926391  0.98489897  1
  Si0+  Si97  1  0.92974269  0.32049638  0.31564691  1
  Si0+  Si98  1  0.68213363  0.92781827  0.68350872  1
  Si0+  Si99  1  0.07431166  0.67783941  0.64895552  1
  Si0+  Si100  1  0.81751322  0.57223244  0.34890402  1
  Si0+  Si101  1  0.57368522  0.17537375  0.65143941  1
  Si0+  Si102  1  0.17510286  0.92905466  0.68443723  1
  Si0+  Si103  1  0.68098880  0.42574323  0.34805901  1
  Si0+  Si104  1  0.68073045  0.93048465  0.01704687  1
  Si0+  Si105  1  0.92773194  0.82484218  0.98577649  1
  Si0+  Si106  1  0.82328448  0.07111520  0.01552771  1
  Si0+  Si107  1  0.82282077  0.07021228  0.68207940  1
  Si0+  Si108  1  0.68199538  0.93082983  0.35072792  1
  Si0+  Si109  1  0.17414923  0.92910657  0.35074966  1
  Si0+  Si110  1  0.82263646  0.07317104  0.35006782  1
  Si0+  Si111  1  0.82059447  0.57395633  0.68010723  1
  Si0+  Si112  1  0.92720582  0.82568338  0.31646515  1
  Si0+  Si113  1  0.42322955  0.32118968  0.31574583  1
  Si0+  Si114  1  0.07123005  0.17801055  0.31709583  1
  Si0+  Si115  1  0.17391450  0.92961798  0.01664597  1
  Si0+  Si116  1  0.07233258  0.17832999  0.64923530  1
  Si0+  Si117  1  0.93025047  0.31951877  0.98437061  1
  Si0+  Si118  1  0.07240913  0.17853658  0.98542936  1
  Si0+  Si119  1  0.42906435  0.82499682  0.64991211  1
  O2-  O120  1  0.25062542  -0.01092111  0.06095502  1
  O2-  O121  1  0.24793086  -0.00685937  0.39394136  1
  O2-  O122  1  0.24918883  -0.00758286  0.72766500  1
  O2-  O123  1  0.24474726  0.50455401  0.06343519  1
  O2-  O124  1  0.25273170  0.49838580  0.39718228  1
  O2-  O125  1  0.24636024  0.50539268  0.73001123  1
  O2-  O126  1  0.75338260  0.00064238  0.05929188  1
  O2-  O127  1  0.75450502  0.00067363  0.39370645  1
  O2-  O128  1  0.75185436  0.00058162  0.72587692  1
  O2-  O129  1  0.74177343  0.50521632  0.06540301  1
  O2-  O130  1  0.74164618  0.50623632  0.39026844  1
  O2-  O131  1  0.75423744  0.50337672  0.72382441  1
  O2-  O132  1  0.00564971  0.25413098  0.27424660  1
  O2-  O133  1  0.00864190  0.25186671  0.60446214  1
  O2-  O134  1  0.00651369  0.25379513  0.94281322  1
  O2-  O135  1  -0.00511996  0.75737355  0.27241081  1
  O2-  O136  1  0.00538828  0.74800187  0.60607810  1
  O2-  O137  1  -0.00749383  0.75321993  0.94136886  1
  O2-  O138  1  0.49256936  0.25213837  0.27220830  1
  O2-  O139  1  0.50302643  0.24140734  0.60776885  1
  O2-  O140  1  0.50003934  0.25652644  0.93926131  1
  O2-  O141  1  0.49084908  0.73861041  0.27093637  1
  O2-  O142  1  0.48906963  0.74821392  0.60755553  1
  O2-  O143  1  0.49079251  0.74038764  0.93374695  1
  O2-  O144  1  0.06800861  0.17549728  0.09062788  1
  O2-  O145  1  0.06655025  0.17251436  0.42168095  1
  O2-  O146  1  0.06772379  0.17513988  0.75495253  1
  O2-  O147  1  0.06715457  0.67856970  0.09792963  1
  O2-  O148  1  0.06348093  0.68269137  0.43356946  1
  O2-  O149  1  0.07052193  0.67703868  0.75432987  1
  O2-  O150  1  0.57192320  0.17931728  0.09860390  1
  O2-  O151  1  0.57229632  0.18377818  0.43479016  1
  O2-  O152  1  0.57556154  0.17588813  0.75685267  1
  O2-  O153  1  0.57276267  0.68204356  0.09757183  1
  O2-  O154  1  0.57710452  0.67929362  0.43155620  1
  O2-  O155  1  0.57227836  0.67916765  0.76689685  1
  O2-  O156  1  0.17525631  0.43298474  0.23571951  1
  O2-  O157  1  0.17805927  0.43347532  0.56746753  1
  O2-  O158  1  0.17778278  0.42756882  0.90018875  1
  O2-  O159  1  0.16530956  0.93433278  0.24592363  1
  O2-  O160  1  0.16967766  0.93260353  0.57892345  1
  O2-  O161  1  0.16336616  0.93797209  0.91193180  1
  O2-  O162  1  0.68800154  0.41885509  0.24390378  1
  O2-  O163  1  0.68171953  0.42723070  0.56444759  1
  O2-  O164  1  0.68283256  0.42215164  0.90230118  1
  O2-  O165  1  0.68482929  0.93269952  0.24573133  1
  O2-  O166  1  0.68317598  0.92975288  0.57825397  1
  O2-  O167  1  0.68385949  0.93113442  0.91174828  1
  O2-  O168  1  0.42427709  0.31353033  0.09044749  1
  O2-  O169  1  0.42558436  0.31992603  0.42166012  1
  O2-  O170  1  0.43020365  0.31737793  0.76677815  1
  O2-  O171  1  0.43420864  0.82387273  0.09663179  1
  O2-  O172  1  0.43648869  0.82369548  0.43440973  1
  O2-  O173  1  0.43598846  0.83232375  0.75450339  1
  O2-  O174  1  0.92813799  0.31539319  0.08980732  1
  O2-  O175  1  0.92693171  0.31771611  0.42069264  1
  O2-  O176  1  0.92680477  0.31705322  0.76501563  1
  O2-  O177  1  0.93062981  0.83026040  0.09116741  1
  O2-  O178  1  0.92726530  0.82635748  0.42218229  1
  O2-  O179  1  0.93048246  0.82167660  0.76683313  1
  O2-  O180  1  0.32316944  0.06650885  0.23465542  1
  O2-  O181  1  0.32268742  0.06730065  0.56832346  1
  O2-  O182  1  0.31999953  0.06852523  0.90154961  1
  O2-  O183  1  0.31928113  0.57417205  0.23400347  1
  O2-  O184  1  0.32297682  0.57183717  0.56692983  1
  O2-  O185  1  0.31934491  0.56946821  0.90059113  1
  O2-  O186  1  0.82370919  0.07281953  0.24487198  1
  O2-  O187  1  0.82242444  0.07001598  0.57679306  1
  O2-  O188  1  0.82448898  0.07051117  0.91044445  1
  O2-  O189  1  0.82017254  0.57016621  0.24420030  1
  O2-  O190  1  0.81838212  0.57396523  0.57388930  1
  O2-  O191  1  0.82058003  0.56917209  0.90031838  1
  O2-  O192  1  0.03621468  0.08965185  0.26655082  1
  O2-  O193  1  0.03961873  0.08794017  0.60039567  1
  O2-  O194  1  0.03812058  0.08994996  0.93551591  1
  O2-  O195  1  0.03083719  0.58606021  0.26620450  1
  O2-  O196  1  0.04603716  0.58656739  0.60015467  1
  O2-  O197  1  0.03400436  0.58234433  0.93056057  1
  O2-  O198  1  0.54376896  0.08394818  0.26889139  1
  O2-  O199  1  0.55066762  0.07998780  0.60762394  1
  O2-  O200  1  0.54306466  0.08438384  0.93038230  1
  O2-  O201  1  0.55850991  0.57182653  0.26908275  1
  O2-  O202  1  0.54271832  0.58038403  0.60005326  1
  O2-  O203  1  0.54817324  0.57258805  0.93733268  1
  O2-  O204  1  0.16496227  0.19972523  0.27141123  1
  O2-  O205  1  0.16775465  0.19722787  0.60586193  1
  O2-  O206  1  0.16634680  0.20082219  0.94095332  1
  O2-  O207  1  0.16380120  0.71097893  0.26535852  1
  O2-  O208  1  0.16831302  0.70509273  0.60464872  1
  O2-  O209  1  0.16238031  0.70982497  0.92567424  1
  O2-  O210  1  0.66698488  0.21208037  0.26729779  1
  O2-  O211  1  0.66766381  0.19995491  0.60549769  1
  O2-  O212  1  0.67159712  0.20578590  0.93320525  1
  O2-  O213  1  0.66743316  0.71419205  0.26530092  1
  O2-  O214  1  0.66278265  0.71393825  0.59863053  1
  O2-  O215  1  0.66734038  0.71227724  0.93356799  1
  O2-  O216  1  0.07598741  0.45083589  0.06247732  1
  O2-  O217  1  0.07666110  0.46230253  0.39991733  1
  O2-  O218  1  0.07618687  0.45592211  0.73062323  1
  O2-  O219  1  0.08486258  0.96363540  0.06832928  1
  O2-  O220  1  0.08264704  0.96137741  0.39994476  1
  O2-  O221  1  0.08361665  0.96056818  0.73217957  1
  O2-  O222  1  0.57612825  0.44133898  0.06762881  1
  O2-  O223  1  0.58506351  0.44178461  0.39101447  1
  O2-  O224  1  0.58449505  0.45527684  0.73238251  1
  O2-  O225  1  0.59146831  0.96342776  0.06452883  1
  O2-  O226  1  0.59291231  0.96228373  0.40005932  1
  O2-  O227  1  0.59193033  0.95434794  0.73360837  1
  O2-  O228  1  0.20608946  0.33055408  0.06801992  1
  O2-  O229  1  0.19362389  0.32843083  0.39893351  1
  O2-  O230  1  0.20301828  0.33037415  0.73061946  1
  O2-  O231  1  0.19035210  0.83229521  0.05591816  1
  O2-  O232  1  0.19313023  0.83423296  0.39545340  1
  O2-  O233  1  0.19405536  0.83354837  0.72828067  1
  O2-  O234  1  0.71706074  0.33074263  0.06971644  1
  O2-  O235  1  0.72038611  0.33871471  0.39793654  1
  O2-  O236  1  0.71365118  0.33094062  0.73136938  1
  O2-  O237  1  0.70770698  0.84026966  0.06738356  1
  O2-  O238  1  0.70981907  0.83915729  0.39904985  1
  O2-  O239  1  0.71478680  0.83737929  0.73004256  1
  O2-  O240  1  0.44953052  0.41388747  0.26928242  1
  O2-  O241  1  0.46340945  0.41134910  0.59590459  1
  O2-  O242  1  0.44503042  0.41483944  0.94168366  1
  O2-  O243  1  0.47116977  0.91391090  0.26710637  1
  O2-  O244  1  0.46598716  0.91483189  0.60158780  1
  O2-  O245  1  0.47077493  0.91451027  0.92930305  1
  O2-  O246  1  0.95190903  0.41368277  0.26931279  1
  O2-  O247  1  0.95373469  0.41946168  0.59558240  1
  O2-  O248  1  0.95051121  0.41209663  0.93674835  1
  O2-  O249  1  0.95058550  0.92090572  0.27214300  1
  O2-  O250  1  0.95856839  0.91789661  0.59822375  1
  O2-  O251  1  0.95620856  0.91765305  0.93773733  1
  O2-  O252  1  0.32869838  0.29507175  0.27296484  1
  O2-  O253  1  0.33257993  0.28649393  0.59905454  1
  O2-  O254  1  0.33463150  0.28507015  0.93843783  1
  O2-  O255  1  0.32587799  0.81031472  0.27213379  1
  O2-  O256  1  0.33088147  0.81308028  0.60901074  1
  O2-  O257  1  0.32480676  0.81307866  0.93333116  1
  O2-  O258  1  0.84181815  0.28480341  0.26598779  1
  O2-  O259  1  0.83607635  0.28377397  0.59519982  1
  O2-  O260  1  0.84167558  0.28378166  0.93593802  1
  O2-  O261  1  0.83327496  0.80138841  0.27136219  1
  O2-  O262  1  0.83512817  0.79147459  0.59550252  1
  O2-  O263  1  0.83238796  0.80401810  0.94216228  1
  O2-  O264  1  0.42127065  0.03729864  0.06537238  1
  O2-  O265  1  0.41985030  0.03773413  0.40168071  1
  O2-  O266  1  0.42038315  0.03946326  0.73534630  1
  O2-  O267  1  0.41681039  0.54536935  0.06850876  1
  O2-  O268  1  0.42349539  0.54495532  0.39694104  1
  O2-  O269  1  0.41858494  0.53495526  0.73248588  1
  O2-  O270  1  0.91480437  0.04377922  0.06467002  1
  O2-  O271  1  0.91443440  0.04769794  0.39884983  1
  O2-  O272  1  0.91444865  0.04186480  0.72947403  1
  O2-  O273  1  0.91303008  0.53609461  0.06936327  1
  O2-  O274  1  0.90636160  0.53891274  0.39847215  1
  O2-  O275  1  0.91553709  0.55027810  0.72285690  1
  O2-  O276  1  0.28888237  0.16027978  0.07192440  1
  O2-  O277  1  0.28967559  0.16401660  0.40195090  1
  O2-  O278  1  0.29018345  0.16391524  0.73688255  1
  O2-  O279  1  0.29202347  0.67625709  0.05996980  1
  O2-  O280  1  0.29290230  0.67272202  0.39865830  1
  O2-  O281  1  0.30548237  0.67552144  0.72974077  1
  O2-  O282  1  0.79596755  0.16181958  0.06473233  1
  O2-  O283  1  0.79215707  0.16440290  0.39707008  1
  O2-  O284  1  0.79612924  0.16159212  0.73031992  1
  O2-  O285  1  0.79746417  0.67306744  0.06763911  1
  O2-  O286  1  0.79652098  0.66714137  0.39397910  1
  O2-  O287  1  0.79522158  0.66760166  0.72525115  1
