# generated using pymatgen
data_Ca2Al2SiO7
_symmetry_space_group_name_H-M   'P 1'
_cell_length_a   15.46916673
_cell_length_b   15.47008675
_cell_length_c   15.29296065
_cell_angle_alpha   90.00731625
_cell_angle_beta   90.00196760
_cell_angle_gamma   89.97559405
_symmetry_Int_Tables_number   1
_chemical_formula_structural   Ca2Al2SiO7
_chemical_formula_sum   'Ca48 Al48 Si24 O168'
_cell_volume   3659.74812637
_cell_formula_units_Z   24
loop_
 _symmetry_equiv_pos_site_id
 _symmetry_equiv_pos_as_xyz
  1  'x, y, z'
loop_
 _atom_type_symbol
 _atom_type_oxidation_number
  Ca2+  2.0
  Al0+  0.0
  Si0+  0.0
  O2-  -2.0
loop_
 _atom_site_type_symbol
 _atom_site_label
 _atom_site_symmetry_multiplicity
 _atom_site_fract_x
 _atom_site_fract_y
 _atom_site_fract_z
 _atom_site_occupancy
  Ca2+  Ca0  1  0.16049664  0.07334982  0.16747526  1
  Ca2+  Ca1  1  0.15965405  0.07590205  0.50427624  1
  Ca2+  Ca2  1  0.16152688  0.07644949  0.84121443  1
  Ca2+  Ca3  1  0.16243446  0.58597964  0.16716055  1
  Ca2+  Ca4  1  0.17200288  0.58789959  0.51199849  1
  Ca2+  Ca5  1  0.16568150  0.59167710  0.83636070  1
  Ca2+  Ca6  1  0.67747666  0.08209775  0.16618360  1
  Ca2+  Ca7  1  0.67359650  0.07632657  0.51349599  1
  Ca2+  Ca8  1  0.67763444  0.08163848  0.83240009  1
  Ca2+  Ca9  1  0.65984215  0.57447905  0.16745276  1
  Ca2+  Ca10  1  0.66816161  0.57649493  0.50333612  1
  Ca2+  Ca11  1  0.66816513  0.57663713  0.84339928  1
  Ca2+  Ca12  1  0.07839091  0.32087118  0.15560222  1
  Ca2+  Ca13  1  0.07952520  0.32032014  0.49796587  1
  Ca2+  Ca14  1  0.07214032  0.32083264  0.82672213  1
  Ca2+  Ca15  1  0.07837838  0.83517312  0.16012261  1
  Ca2+  Ca16  1  0.07326397  0.84458987  0.50044455  1
  Ca2+  Ca17  1  0.07719700  0.83699516  0.82992135  1
  Ca2+  Ca18  1  0.58623899  0.33747602  0.16132890  1
  Ca2+  Ca19  1  0.58806932  0.32653447  0.49968025  1
  Ca2+  Ca20  1  0.58526552  0.32687713  0.82923647  1
  Ca2+  Ca21  1  0.56978330  0.83090014  0.15602998  1
  Ca2+  Ca22  1  0.57533785  0.83838950  0.49352457  1
  Ca2+  Ca23  1  0.57610514  0.84192086  0.83134250  1
  Ca2+  Ca24  1  0.32989607  0.41967295  0.16953821  1
  Ca2+  Ca25  1  0.32982172  0.42690985  0.50819209  1
  Ca2+  Ca26  1  0.33276772  0.42483587  0.83509939  1
  Ca2+  Ca27  1  0.32282707  0.91170638  0.16715479  1
  Ca2+  Ca28  1  0.31924353  0.90982219  0.50437400  1
  Ca2+  Ca29  1  0.31967840  0.91960384  0.84229954  1
  Ca2+  Ca30  1  0.82608120  0.41444053  0.16673939  1
  Ca2+  Ca31  1  0.83199341  0.41352245  0.50468998  1
  Ca2+  Ca32  1  0.83252247  0.41051363  0.84217332  1
  Ca2+  Ca33  1  0.84718093  0.92111954  0.16672995  1
  Ca2+  Ca34  1  0.83179311  0.91860732  0.51195245  1
  Ca2+  Ca35  1  0.84119643  0.92502074  0.83686996  1
  Ca2+  Ca36  1  0.41765092  0.16520867  0.15895297  1
  Ca2+  Ca37  1  0.42647787  0.16053094  0.49917113  1
  Ca2+  Ca38  1  0.42307561  0.15787245  0.82922728  1
  Ca2+  Ca39  1  0.41978714  0.67883097  0.16001835  1
  Ca2+  Ca40  1  0.41515134  0.67180709  0.49730783  1
  Ca2+  Ca41  1  0.42020302  0.66951456  0.83427066  1
  Ca2+  Ca42  1  0.92757744  0.16622416  0.15777959  1
  Ca2+  Ca43  1  0.92577535  0.15984103  0.50448298  1
  Ca2+  Ca44  1  0.91816590  0.16846204  0.82982172  1
  Ca2+  Ca45  1  0.92133248  0.67968476  0.15739749  1
  Ca2+  Ca46  1  0.92124987  0.67938365  0.49929404  1
  Ca2+  Ca47  1  0.92824244  0.67731533  0.82864987  1
  Al0+  Al48  1  0.00103954  0.00055074  0.00289497  1
  Al0+  Al49  1  0.00157060  0.00096670  0.33051229  1
  Al0+  Al50  1  -0.00103405  0.00117671  0.66808670  1
  Al0+  Al51  1  -0.00176332  0.50035001  -0.00361504  1
  Al0+  Al52  1  -0.00127877  0.49893344  0.33587551  1
  Al0+  Al53  1  -0.00020830  0.49980789  0.65870487  1
  Al0+  Al54  1  0.50050586  0.00130632  -0.00064335  1
  Al0+  Al55  1  0.50027276  0.00133021  0.32619444  1
  Al0+  Al56  1  0.49978568  -0.00037602  0.66304380  1
  Al0+  Al57  1  0.49936800  0.49946542  0.00147412  1
  Al0+  Al58  1  0.50014579  0.49792316  0.33979420  1
  Al0+  Al59  1  0.49878275  0.50116814  0.67014399  1
  Al0+  Al60  1  0.25150661  0.25218454  -0.00088885  1
  Al0+  Al61  1  0.25285773  0.24953498  0.33094484  1
  Al0+  Al62  1  0.25086756  0.25302552  0.66252175  1
  Al0+  Al63  1  0.25284513  0.75047518  -0.00059360  1
  Al0+  Al64  1  0.25005702  0.75074714  0.33442357  1
  Al0+  Al65  1  0.25295353  0.75029789  0.67414806  1
  Al0+  Al66  1  0.74834111  0.24937810  0.00775190  1
  Al0+  Al67  1  0.75030406  0.24970450  0.33836701  1
  Al0+  Al68  1  0.74781515  0.24839118  0.66141610  1
  Al0+  Al69  1  0.74964095  0.74839928  -0.00566207  1
  Al0+  Al70  1  0.75013728  0.74832667  0.32903372  1
  Al0+  Al71  1  0.74684486  0.74648102  0.66746859  1
  Al0+  Al72  1  0.92619217  0.31928372  0.98786634  1
  Al0+  Al73  1  0.17955896  0.93184925  0.68069228  1
  Al0+  Al74  1  0.67582204  0.92490766  0.68048786  1
  Al0+  Al75  1  0.92655134  0.32109576  0.65021082  1
  Al0+  Al76  1  0.67968655  0.43018267  0.01302528  1
  Al0+  Al77  1  0.67980032  0.42940500  0.35057983  1
  Al0+  Al78  1  0.18042626  0.93053958  0.34903323  1
  Al0+  Al79  1  0.92899003  0.82343697  0.98430074  1
  Al0+  Al80  1  0.56831213  0.17899480  0.65314034  1
  Al0+  Al81  1  0.07147499  0.18067636  0.31765224  1
  Al0+  Al82  1  0.07306930  0.17804800  0.65140270  1
  Al0+  Al83  1  0.92869927  0.82045710  0.31991449  1
  Al0+  Al84  1  0.32300686  0.07375897  0.01452691  1
  Al0+  Al85  1  0.92770599  0.82116357  0.65246026  1
  Al0+  Al86  1  0.57004979  0.67688104  0.98514914  1
  Al0+  Al87  1  0.81959829  0.06975400  0.68159660  1
  Al0+  Al88  1  0.82005342  0.06895482  0.01503864  1
  Al0+  Al89  1  0.07212588  0.67832649  0.98685731  1
  Al0+  Al90  1  0.07422119  0.68134855  0.65143159  1
  Al0+  Al91  1  0.42820882  0.82088585  0.31972658  1
  Al0+  Al92  1  0.32032633  0.57108913  0.68294604  1
  Al0+  Al93  1  0.07282367  0.17929658  0.98476448  1
  Al0+  Al94  1  0.43040872  0.82316246  0.98201682  1
  Al0+  Al95  1  0.18000677  0.92908567  0.01692404  1
  Si0+  Si96  1  0.17641804  0.42771125  0.68333147  1
  Si0+  Si97  1  0.17841921  0.42613843  0.34753184  1
  Si0+  Si98  1  0.57283615  0.18007680  0.31608473  1
  Si0+  Si99  1  0.82246781  0.57060165  0.68175320  1
  Si0+  Si100  1  0.43127827  0.32170059  0.31824112  1
  Si0+  Si101  1  0.42852360  0.32268716  0.98539328  1
  Si0+  Si102  1  0.68040285  0.42957941  0.68169943  1
  Si0+  Si103  1  0.43137771  0.81989023  0.65131874  1
  Si0+  Si104  1  0.57058083  0.67558645  0.31844155  1
  Si0+  Si105  1  0.82055000  0.06841835  0.34881964  1
  Si0+  Si106  1  0.57048578  0.67457947  0.65045714  1
  Si0+  Si107  1  0.17735153  0.43002751  0.01404665  1
  Si0+  Si108  1  0.57081489  0.18027989  0.98674385  1
  Si0+  Si109  1  0.07218101  0.67563822  0.31926461  1
  Si0+  Si110  1  0.42922820  0.32558536  0.64920797  1
  Si0+  Si111  1  0.82301228  0.57369609  0.35164731  1
  Si0+  Si112  1  0.82347773  0.57335453  0.01665588  1
  Si0+  Si113  1  0.31857770  0.56958377  0.34789146  1
  Si0+  Si114  1  0.32505755  0.07376196  0.35067302  1
  Si0+  Si115  1  0.67679888  0.92850054  0.34432696  1
  Si0+  Si116  1  0.32124007  0.56959167  0.01725029  1
  Si0+  Si117  1  0.32264163  0.07447724  0.67928099  1
  Si0+  Si118  1  0.67751484  0.92587794  0.01674558  1
  Si0+  Si119  1  0.92679503  0.32307407  0.31576367  1
  O2-  O120  1  0.25158195  0.00288532  0.06654539  1
  O2-  O121  1  0.25667060  0.00537226  0.39476800  1
  O2-  O122  1  0.24896145  0.01325392  0.72409005  1
  O2-  O123  1  0.24547441  0.50330770  0.05912531  1
  O2-  O124  1  0.24424878  0.50208228  0.39026813  1
  O2-  O125  1  0.24238805  0.49894110  0.72831498  1
  O2-  O126  1  0.75044392  -0.01104828  0.06300534  1
  O2-  O127  1  0.75024872  -0.00470990  0.38875621  1
  O2-  O128  1  0.75206167  -0.00774852  0.73003496  1
  O2-  O129  1  0.75253892  0.50609750  0.06085756  1
  O2-  O130  1  0.75527631  0.50345705  0.39640852  1
  O2-  O131  1  0.75434397  0.49625200  0.72404487  1
  O2-  O132  1  -0.00173458  0.25777198  0.27228155  1
  O2-  O133  1  0.00020207  0.25000747  0.60149422  1
  O2-  O134  1  -0.00202184  0.24894960  0.93673859  1
  O2-  O135  1  0.00222291  0.74284330  0.27634216  1
  O2-  O136  1  0.00303638  0.75317177  0.60024198  1
  O2-  O137  1  0.00277508  0.75201216  0.93688231  1
  O2-  O138  1  0.50171380  0.25129486  0.27431003  1
  O2-  O139  1  0.49285815  0.25263560  0.60448070  1
  O2-  O140  1  0.49507255  0.24704992  0.94533331  1
  O2-  O141  1  0.50629080  0.74826457  0.27515291  1
  O2-  O142  1  0.50465049  0.75065587  0.60868342  1
  O2-  O143  1  0.50489899  0.75316656  0.93217873  1
  O2-  O144  1  0.07236037  0.18216330  0.09889253  1
  O2-  O145  1  0.06991299  0.18084191  0.43048971  1
  O2-  O146  1  0.07499872  0.18068280  0.76406873  1
  O2-  O147  1  0.06895935  0.67651584  0.10121428  1
  O2-  O148  1  0.07317467  0.67396874  0.42437454  1
  O2-  O149  1  0.07208236  0.68189207  0.76429080  1
  O2-  O150  1  0.57130402  0.18299938  0.09237674  1
  O2-  O151  1  0.57154669  0.17938468  0.42106686  1
  O2-  O152  1  0.56798443  0.18189523  0.76620740  1
  O2-  O153  1  0.56365661  0.67469847  0.09933361  1
  O2-  O154  1  0.56861396  0.67430673  0.42435112  1
  O2-  O155  1  0.56716569  0.66709749  0.75431635  1
  O2-  O156  1  0.18159237  0.42631111  0.24231664  1
  O2-  O157  1  0.18150571  0.42767736  0.57709803  1
  O2-  O158  1  0.18131506  0.42939689  0.90951146  1
  O2-  O159  1  0.18078098  0.92854193  0.23676496  1
  O2-  O160  1  0.18173069  0.93032431  0.56694865  1
  O2-  O161  1  0.18051831  0.92960949  0.90356372  1
  O2-  O162  1  0.67700402  0.43115291  0.23782161  1
  O2-  O163  1  0.67868373  0.43262373  0.57627115  1
  O2-  O164  1  0.67830629  0.42904981  0.89995451  1
  O2-  O165  1  0.67408730  0.93243772  0.23968232  1
  O2-  O166  1  0.67306401  0.92860130  0.56577692  1
  O2-  O167  1  0.67436004  0.93163538  0.91184189  1
  O2-  O168  1  0.43008741  0.32624014  0.09094715  1
  O2-  O169  1  0.43173514  0.32277627  0.42306322  1
  O2-  O170  1  0.43224894  0.32885935  0.75457365  1
  O2-  O171  1  0.43005453  0.81965969  0.09615501  1
  O2-  O172  1  0.42890912  0.81802419  0.43328143  1
  O2-  O173  1  0.43276616  0.82042908  0.75564732  1
  O2-  O174  1  0.92812674  0.31855996  0.10195526  1
  O2-  O175  1  0.92716778  0.32310259  0.42102436  1
  O2-  O176  1  0.92522881  0.32053740  0.76340744  1
  O2-  O177  1  0.93108668  0.82074231  0.09856222  1
  O2-  O178  1  0.92639905  0.82119517  0.43263770  1
  O2-  O179  1  0.92798172  0.81958962  0.76508708  1
  O2-  O180  1  0.32664045  0.07564000  0.24580076  1
  O2-  O181  1  0.32607326  0.06995355  0.57347040  1
  O2-  O182  1  0.32437429  0.07268894  0.90086832  1
  O2-  O183  1  0.32053179  0.56689945  0.24284038  1
  O2-  O184  1  0.32261259  0.56868845  0.56890887  1
  O2-  O185  1  0.32509157  0.56537718  0.91263379  1
  O2-  O186  1  0.81869146  0.06996996  0.24366346  1
  O2-  O187  1  0.81679400  0.06927536  0.56705366  1
  O2-  O188  1  0.81583292  0.07349382  0.90286033  1
  O2-  O189  1  0.82322250  0.57382967  0.24652128  1
  O2-  O190  1  0.81773644  0.57140451  0.57629250  1
  O2-  O191  1  0.82365966  0.57025149  0.91123401  1
  O2-  O192  1  0.03698552  0.08596148  0.26373119  1
  O2-  O193  1  0.04144593  0.08111659  0.59751922  1
  O2-  O194  1  0.04521400  0.08063401  0.93613525  1
  O2-  O195  1  0.04952633  0.58033176  0.27388232  1
  O2-  O196  1  0.04772660  0.58231237  0.59804898  1
  O2-  O197  1  0.04382987  0.58070084  0.93237547  1
  O2-  O198  1  0.54613180  0.08939195  0.26642093  1
  O2-  O199  1  0.53708034  0.08375414  0.59492334  1
  O2-  O200  1  0.54751968  0.08846561  0.93864320  1
  O2-  O201  1  0.53866546  0.58307047  0.27363738  1
  O2-  O202  1  0.53586681  0.58572257  0.59985206  1
  O2-  O203  1  0.53471941  0.58033965  0.93176950  1
  O2-  O204  1  0.16996682  0.20976251  0.26644161  1
  O2-  O205  1  0.17173523  0.20716963  0.59671958  1
  O2-  O206  1  0.17088024  0.21026428  0.93341478  1
  O2-  O207  1  0.16599339  0.70096752  0.27386923  1
  O2-  O208  1  0.17580019  0.70653292  0.60292853  1
  O2-  O209  1  0.17353570  0.69897070  0.93872215  1
  O2-  O210  1  0.66486379  0.20973779  0.27049358  1
  O2-  O211  1  0.66157434  0.21213239  0.59477616  1
  O2-  O212  1  0.65967726  0.21483975  0.93995313  1
  O2-  O213  1  0.66551289  0.69394440  0.27330321  1
  O2-  O214  1  0.66345791  0.69525230  0.60267043  1
  O2-  O215  1  0.67122624  0.69312219  0.93518864  1
  O2-  O216  1  0.08506946  0.45540056  0.06211183  1
  O2-  O217  1  0.08437083  0.44704034  0.39336767  1
  O2-  O218  1  0.08081067  0.44975139  0.72509272  1
  O2-  O219  1  0.08223473  0.95762165  0.07106806  1
  O2-  O220  1  0.08389035  0.96520331  0.40127035  1
  O2-  O221  1  0.08195042  0.95776083  0.73295420  1
  O2-  O222  1  0.58275328  0.46131555  0.06874310  1
  O2-  O223  1  0.58333162  0.45988016  0.40647301  1
  O2-  O224  1  0.58918906  0.45994164  0.72833080  1
  O2-  O225  1  0.58620312  0.95810608  0.06467745  1
  O2-  O226  1  0.58579007  0.95994732  0.39229202  1
  O2-  O227  1  0.57950884  0.96156597  0.73282522  1
  O2-  O228  1  0.21008133  0.34069457  0.06401755  1
  O2-  O229  1  0.21342145  0.33727522  0.39617975  1
  O2-  O230  1  0.20646364  0.33555802  0.72994569  1
  O2-  O231  1  0.21149262  0.83022153  0.06935246  1
  O2-  O232  1  0.21221214  0.83331484  0.40257689  1
  O2-  O233  1  0.21731792  0.83857889  0.73508795  1
  O2-  O234  1  0.70915021  0.33575753  0.07222296  1
  O2-  O235  1  0.70913242  0.33205987  0.40459152  1
  O2-  O236  1  0.70320150  0.33573799  0.72585902  1
  O2-  O237  1  0.69465776  0.82865453  0.05869079  1
  O2-  O238  1  0.69775043  0.83332860  0.38816597  1
  O2-  O239  1  0.69160395  0.82265905  0.72954229  1
  O2-  O240  1  0.45971981  0.41377156  0.27108258  1
  O2-  O241  1  0.46097232  0.41674796  0.60083575  1
  O2-  O242  1  0.46178014  0.41134150  0.93610331  1
  O2-  O243  1  0.45718683  0.91732908  0.26501073  1
  O2-  O244  1  0.45684299  0.91100583  0.60114998  1
  O2-  O245  1  0.45852369  0.92209940  0.93029943  1
  O2-  O246  1  0.94781047  0.41891416  0.27197020  1
  O2-  O247  1  0.95328774  0.41905828  0.59451270  1
  O2-  O248  1  0.95177322  0.41795644  0.93573983  1
  O2-  O249  1  0.96270418  0.91561619  0.26642469  1
  O2-  O250  1  0.95378664  0.92043199  0.60039227  1
  O2-  O251  1  0.95726743  0.92185364  0.93406227  1
  O2-  O252  1  0.33980087  0.29601545  0.26916341  1
  O2-  O253  1  0.33431312  0.30708652  0.60330237  1
  O2-  O254  1  0.33622381  0.30217653  0.93689780  1
  O2-  O255  1  0.33360888  0.78514814  0.26556831  1
  O2-  O256  1  0.34110025  0.78679969  0.60477016  1
  O2-  O257  1  0.33374937  0.79064953  0.93036088  1
  O2-  O258  1  0.83263948  0.29444881  0.27259999  1
  O2-  O259  1  0.82875520  0.29258252  0.59577227  1
  O2-  O260  1  0.82671583  0.29084360  0.93790573  1
  O2-  O261  1  0.83134270  0.79290743  0.26477265  1
  O2-  O262  1  0.82833784  0.78925160  0.60106080  1
  O2-  O263  1  0.82949041  0.79838142  0.93333073  1
  O2-  O264  1  0.42299700  0.04771013  0.06716792  1
  O2-  O265  1  0.42022113  0.04773550  0.39457517  1
  O2-  O266  1  0.41426512  0.04338985  0.72579209  1
  O2-  O267  1  0.40935715  0.53413518  0.06732313  1
  O2-  O268  1  0.40847413  0.53781249  0.39740370  1
  O2-  O269  1  0.41493668  0.53452910  0.73798874  1
  O2-  O270  1  0.91679251  0.04172787  0.07067390  1
  O2-  O271  1  0.91249311  0.04105154  0.39464414  1
  O2-  O272  1  0.91873460  0.04787080  0.73390255  1
  O2-  O273  1  0.91562407  0.54520087  0.06517739  1
  O2-  O274  1  0.91675632  0.54886906  0.39883426  1
  O2-  O275  1  0.91624547  0.54580607  0.72539998  1
  O2-  O276  1  0.30072262  0.17544706  0.06573163  1
  O2-  O277  1  0.30250456  0.16878934  0.39639254  1
  O2-  O278  1  0.30838972  0.17246909  0.72042739  1
  O2-  O279  1  0.29864618  0.66238673  0.06439156  1
  O2-  O280  1  0.29422475  0.66168000  0.39594577  1
  O2-  O281  1  0.29552670  0.66686046  0.73956221  1
  O2-  O282  1  0.78234407  0.16193546  0.07309415  1
  O2-  O283  1  0.79090141  0.15951955  0.39620582  1
  O2-  O284  1  0.78264483  0.16694720  0.73183535  1
  O2-  O285  1  0.79920566  0.66766594  0.06230455  1
  O2-  O286  1  0.79424128  0.66658014  0.39844788  1
  O2-  O287  1  0.79096076  0.65981318  0.73089247  1
