# generated using pymatgen
data_Ca2Al2SiO7
_symmetry_space_group_name_H-M   'P 1'
_cell_length_a   15.46160674
_cell_length_b   15.46179098
_cell_length_c   15.28673914
_cell_angle_alpha   90.00921379
_cell_angle_beta   90.01014980
_cell_angle_gamma   89.98805182
_symmetry_Int_Tables_number   1
_chemical_formula_structural   Ca2Al2SiO7
_chemical_formula_sum   'Ca48 Al48 Si24 O168'
_cell_volume   3654.51083421
_cell_formula_units_Z   24
loop_
 _symmetry_equiv_pos_site_id
 _symmetry_equiv_pos_as_xyz
  1  'x, y, z'
loop_
 _atom_type_symbol
 _atom_type_oxidation_number
  Ca2+  2.0
  Al0+  0.0
  Si0+  0.0
  O2-  -2.0
loop_
 _atom_site_type_symbol
 _atom_site_label
 _atom_site_symmetry_multiplicity
 _atom_site_fract_x
 _atom_site_fract_y
 _atom_site_fract_z
 _atom_site_occupancy
  Ca2+  Ca0  1  0.17084675  0.08212775  0.17764401  1
  Ca2+  Ca1  1  0.17830029  0.07274693  0.50399149  1
  Ca2+  Ca2  1  0.17259149  0.08821804  0.83640008  1
  Ca2+  Ca3  1  0.16684195  0.57354844  0.17728946  1
  Ca2+  Ca4  1  0.16639926  0.58480694  0.49778617  1
  Ca2+  Ca5  1  0.16607402  0.57890625  0.83724574  1
  Ca2+  Ca6  1  0.66232512  0.08333909  0.16871532  1
  Ca2+  Ca7  1  0.66259947  0.08168887  0.50511254  1
  Ca2+  Ca8  1  0.65916776  0.07680446  0.83830913  1
  Ca2+  Ca9  1  0.66632146  0.57778183  0.17200708  1
  Ca2+  Ca10  1  0.66557710  0.58517974  0.50111847  1
  Ca2+  Ca11  1  0.66992891  0.57320978  0.84378504  1
  Ca2+  Ca12  1  0.07959706  0.33641447  0.15986688  1
  Ca2+  Ca13  1  0.07847701  0.33426925  0.49065772  1
  Ca2+  Ca14  1  0.08514415  0.33199682  0.83707714  1
  Ca2+  Ca15  1  0.07618528  0.83656993  0.16413376  1
  Ca2+  Ca16  1  0.08904906  0.82808454  0.49058280  1
  Ca2+  Ca17  1  0.07974081  0.83046744  0.82509775  1
  Ca2+  Ca18  1  0.57897660  0.32261939  0.16256970  1
  Ca2+  Ca19  1  0.56862794  0.32137931  0.49235319  1
  Ca2+  Ca20  1  0.58263311  0.32326020  0.82631101  1
  Ca2+  Ca21  1  0.57796857  0.83124792  0.16635853  1
  Ca2+  Ca22  1  0.57753317  0.83128672  0.48992356  1
  Ca2+  Ca23  1  0.58639500  0.83807771  0.83019440  1
  Ca2+  Ca24  1  0.32208050  0.41744600  0.17880861  1
  Ca2+  Ca25  1  0.33669400  0.41624732  0.49730393  1
  Ca2+  Ca26  1  0.33120551  0.41561100  0.83861111  1
  Ca2+  Ca27  1  0.32734041  0.92283877  0.17998175  1
  Ca2+  Ca28  1  0.33248938  0.92416190  0.50123103  1
  Ca2+  Ca29  1  0.32862837  0.92406877  0.83166454  1
  Ca2+  Ca30  1  0.82968283  0.40482441  0.17019939  1
  Ca2+  Ca31  1  0.83433148  0.41707846  0.50035428  1
  Ca2+  Ca32  1  0.82929666  0.41637653  0.84388849  1
  Ca2+  Ca33  1  0.83206697  0.91171488  0.16963235  1
  Ca2+  Ca34  1  0.82735329  0.91331890  0.50279387  1
  Ca2+  Ca35  1  0.82250948  0.91534213  0.84121232  1
  Ca2+  Ca36  1  0.42091793  0.16556638  0.16673622  1
  Ca2+  Ca37  1  0.42063600  0.16406979  0.49463907  1
  Ca2+  Ca38  1  0.42496141  0.17071012  0.82430980  1
  Ca2+  Ca39  1  0.41165306  0.66846709  0.17365747  1
  Ca2+  Ca40  1  0.41969604  0.67299597  0.48618778  1
  Ca2+  Ca41  1  0.41829092  0.66914421  0.82938603  1
  Ca2+  Ca42  1  0.92665577  0.17629714  0.16107698  1
  Ca2+  Ca43  1  0.91810186  0.17217517  0.49243590  1
  Ca2+  Ca44  1  0.92085427  0.17043965  0.83781767  1
  Ca2+  Ca45  1  0.92173717  0.67707064  0.16885289  1
  Ca2+  Ca46  1  0.92981048  0.67442193  0.49146399  1
  Ca2+  Ca47  1  0.92238198  0.67166672  0.83030550  1
  Al0+  Al48  1  -0.00126415  -0.00013682  -0.01001711  1
  Al0+  Al49  1  -0.00309195  0.00135558  0.33549975  1
  Al0+  Al50  1  -0.00277689  0.00078930  0.66961879  1
  Al0+  Al51  1  0.00047447  0.50284778  0.00002223  1
  Al0+  Al52  1  -0.00361144  0.50184547  0.33009297  1
  Al0+  Al53  1  0.00069132  0.50278125  0.66434183  1
  Al0+  Al54  1  0.49916027  -0.00081846  0.00029260  1
  Al0+  Al55  1  0.50091243  -0.00230992  0.32951867  1
  Al0+  Al56  1  0.49986027  -0.00055223  0.67172094  1
  Al0+  Al57  1  0.50137603  0.50197519  0.00521225  1
  Al0+  Al58  1  0.49947943  0.49687243  0.33035557  1
  Al0+  Al59  1  0.50004690  0.49928903  0.66574382  1
  Al0+  Al60  1  0.25138558  0.25162493  0.00117553  1
  Al0+  Al61  1  0.25055170  0.24913692  0.34056896  1
  Al0+  Al62  1  0.24819481  0.25223832  0.66718509  1
  Al0+  Al63  1  0.25139603  0.75237079  -0.00168943  1
  Al0+  Al64  1  0.25050097  0.74674295  0.33055142  1
  Al0+  Al65  1  0.25077932  0.74827445  0.66822963  1
  Al0+  Al66  1  0.75073891  0.24795802  -0.00374784  1
  Al0+  Al67  1  0.75002544  0.24825923  0.32904252  1
  Al0+  Al68  1  0.74985841  0.24981383  0.66369691  1
  Al0+  Al69  1  0.74886352  0.74961909  0.00052354  1
  Al0+  Al70  1  0.75091410  0.74785586  0.32797802  1
  Al0+  Al71  1  0.75226138  0.74920712  0.67228159  1
  Al0+  Al72  1  0.07446698  0.17950617  0.98550141  1
  Al0+  Al73  1  0.42587326  0.31947929  0.31660899  1
  Al0+  Al74  1  0.92757859  0.82046629  0.98353581  1
  Al0+  Al75  1  0.07259827  0.67946581  0.31720864  1
  Al0+  Al76  1  0.32191471  0.56912046  0.34936877  1
  Al0+  Al77  1  0.17525419  0.42905921  0.35020556  1
  Al0+  Al78  1  0.57079671  0.17733486  0.31708157  1
  Al0+  Al79  1  0.18077942  0.43093427  0.01287018  1
  Al0+  Al80  1  0.92986268  0.32311429  0.98445767  1
  Al0+  Al81  1  0.17571679  0.92844181  0.34528619  1
  Al0+  Al82  1  0.32379364  0.07058990  0.34817677  1
  Al0+  Al83  1  0.67847616  0.92936329  0.01702709  1
  Al0+  Al84  1  0.92977727  0.32149024  0.32107613  1
  Al0+  Al85  1  0.68049785  0.42630847  0.01439858  1
  Al0+  Al86  1  0.68085598  0.92952496  0.67904569  1
  Al0+  Al87  1  0.56946277  0.17834113  0.98456678  1
  Al0+  Al88  1  0.57252870  0.67671500  0.31831664  1
  Al0+  Al89  1  0.07143121  0.68050000  0.65224717  1
  Al0+  Al90  1  0.17830319  0.92683254  0.68242924  1
  Al0+  Al91  1  0.92938216  0.82392211  0.31964777  1
  Al0+  Al92  1  0.57028395  0.17705426  0.65107955  1
  Al0+  Al93  1  0.31982405  0.07264642  0.68379372  1
  Al0+  Al94  1  0.42669724  0.32297236  0.65174797  1
  Al0+  Al95  1  0.42829502  0.82057386  0.31858877  1
  Si0+  Si96  1  0.31966617  0.07041221  0.01445172  1
  Si0+  Si97  1  0.32337429  0.57553192  0.01699893  1
  Si0+  Si98  1  0.68086278  0.92708746  0.34642364  1
  Si0+  Si99  1  0.82223586  0.56960460  0.68246470  1
  Si0+  Si100  1  0.07076432  0.17828230  0.65084279  1
  Si0+  Si101  1  0.82367661  0.07040379  0.01751972  1
  Si0+  Si102  1  0.82247331  0.07629634  0.68537454  1
  Si0+  Si103  1  0.92670341  0.82214893  0.65087022  1
  Si0+  Si104  1  0.81832052  0.57197426  0.34965842  1
  Si0+  Si105  1  0.67970878  0.42988075  0.67995105  1
  Si0+  Si106  1  0.67965965  0.42607434  0.34926283  1
  Si0+  Si107  1  0.32276650  0.57016510  0.68198807  1
  Si0+  Si108  1  0.57034071  0.67866534  0.98372346  1
  Si0+  Si109  1  0.82175612  0.57217134  0.01824373  1
  Si0+  Si110  1  0.43075592  0.81902789  0.65405225  1
  Si0+  Si111  1  0.17591687  0.43071550  0.68233254  1
  Si0+  Si112  1  0.92977456  0.32184360  0.65226248  1
  Si0+  Si113  1  0.07139429  0.17861656  0.32163845  1
  Si0+  Si114  1  0.42946661  0.32404491  0.98450736  1
  Si0+  Si115  1  0.17753134  0.92917128  0.01264224  1
  Si0+  Si116  1  0.57331361  0.67815607  0.65519425  1
  Si0+  Si117  1  0.81926843  0.07231273  0.34785612  1
  Si0+  Si118  1  0.07380094  0.68066652  0.98234325  1
  Si0+  Si119  1  0.42884385  0.82106621  0.98224821  1
  O2-  O120  1  0.24388008  0.00378403  0.05492541  1
  O2-  O121  1  0.25079835  -0.00259984  0.39525681  1
  O2-  O122  1  0.24514524  0.00289037  0.73469879  1
  O2-  O123  1  0.25510955  0.50583141  0.05842329  1
  O2-  O124  1  0.24892753  0.49906561  0.40166798  1
  O2-  O125  1  0.25197681  0.49807460  0.72287611  1
  O2-  O126  1  0.75450367  0.00276486  0.06317629  1
  O2-  O127  1  0.74955619  -0.00039520  0.38950192  1
  O2-  O128  1  0.75364384  0.00602903  0.72677024  1
  O2-  O129  1  0.75855012  0.49788213  0.06172500  1
  O2-  O130  1  0.74744843  0.50047817  0.39260361  1
  O2-  O131  1  0.75095470  0.49929131  0.72491346  1
  O2-  O132  1  0.01036548  0.25329954  0.27616487  1
  O2-  O133  1  -0.00131384  0.24931304  0.60978701  1
  O2-  O134  1  0.00355574  0.25299936  0.93421454  1
  O2-  O135  1  0.00640804  0.75791895  0.26908842  1
  O2-  O136  1  0.00195323  0.76103208  0.60733814  1
  O2-  O137  1  0.00510295  0.74864956  0.93687764  1
  O2-  O138  1  0.49688002  0.24678984  0.26680538  1
  O2-  O139  1  0.49487367  0.24642821  0.60333602  1
  O2-  O140  1  0.49939751  0.25779268  0.93864615  1
  O2-  O141  1  0.49910277  0.74694911  0.26824044  1
  O2-  O142  1  0.50498322  0.75064718  0.61300213  1
  O2-  O143  1  0.49950780  0.74904525  0.94001697  1
  O2-  O144  1  0.07420410  0.17847123  0.09894927  1
  O2-  O145  1  0.06474866  0.17723946  0.42748356  1
  O2-  O146  1  0.07094859  0.18059944  0.75587560  1
  O2-  O147  1  0.07529549  0.68250708  0.08709416  1
  O2-  O148  1  0.06772781  0.67862639  0.43116699  1
  O2-  O149  1  0.06709773  0.67702153  0.76567958  1
  O2-  O150  1  0.56600408  0.17705124  0.09700817  1
  O2-  O151  1  0.57392593  0.17853818  0.43058051  1
  O2-  O152  1  0.57165905  0.18029954  0.76487972  1
  O2-  O153  1  0.57054663  0.67805733  0.08799574  1
  O2-  O154  1  0.57557529  0.68194240  0.43298134  1
  O2-  O155  1  0.57137269  0.67617086  0.76053878  1
  O2-  O156  1  0.17442870  0.43058990  0.23650323  1
  O2-  O157  1  0.16932059  0.43284113  0.57824453  1
  O2-  O158  1  0.18317006  0.43290436  0.89876778  1
  O2-  O159  1  0.17384688  0.93477491  0.23092571  1
  O2-  O160  1  0.18208631  0.92611784  0.56944545  1
  O2-  O161  1  0.18176526  0.92611326  0.90772838  1
  O2-  O162  1  0.68354427  0.42547639  0.24426548  1
  O2-  O163  1  0.68167372  0.43272160  0.57505944  1
  O2-  O164  1  0.67981487  0.43091818  0.90028799  1
  O2-  O165  1  0.68241641  0.92660007  0.24152946  1
  O2-  O166  1  0.68316047  0.92536068  0.56595001  1
  O2-  O167  1  0.67906306  0.93015566  0.90351087  1
  O2-  O168  1  0.42881704  0.32194483  0.08939740  1
  O2-  O169  1  0.43030495  0.32004578  0.43011057  1
  O2-  O170  1  0.43205500  0.32692343  0.76588962  1
  O2-  O171  1  0.42720856  0.82086009  0.08656559  1
  O2-  O172  1  0.43314996  0.82199665  0.43287556  1
  O2-  O173  1  0.43098628  0.81600905  0.75977672  1
  O2-  O174  1  0.93102842  0.32006865  0.09760175  1
  O2-  O175  1  0.92702633  0.31825745  0.43507045  1
  O2-  O176  1  0.92992718  0.32377362  0.75696515  1
  O2-  O177  1  0.92903419  0.81949375  0.09619609  1
  O2-  O178  1  0.92421696  0.81998401  0.43327478  1
  O2-  O179  1  0.92342391  0.81626177  0.75638083  1
  O2-  O180  1  0.32160335  0.06938467  0.23379559  1
  O2-  O181  1  0.32090658  0.06888590  0.57093570  1
  O2-  O182  1  0.32035251  0.06892719  0.90933872  1
  O2-  O183  1  0.32052916  0.56672293  0.23559276  1
  O2-  O184  1  0.32571811  0.57255330  0.57796262  1
  O2-  O185  1  0.32412535  0.57650685  0.91054616  1
  O2-  O186  1  0.81999727  0.07409501  0.24323875  1
  O2-  O187  1  0.82373633  0.07835032  0.57961381  1
  O2-  O188  1  0.82298377  0.06886666  0.91162392  1
  O2-  O189  1  0.81716486  0.57347114  0.24494466  1
  O2-  O190  1  0.82151047  0.56987440  0.57757289  1
  O2-  O191  1  0.81820208  0.57252641  0.91167045  1
  O2-  O192  1  0.03829883  0.08880813  0.27294777  1
  O2-  O193  1  0.04242929  0.08595508  0.60484424  1
  O2-  O194  1  0.04478962  0.08309936  0.92844845  1
  O2-  O195  1  0.03348107  0.58531112  0.26295263  1
  O2-  O196  1  0.03466241  0.58635230  0.59714254  1
  O2-  O197  1  0.04722594  0.58732995  0.93587577  1
  O2-  O198  1  0.54715563  0.07811759  0.26496515  1
  O2-  O199  1  0.54487628  0.07645231  0.60166649  1
  O2-  O200  1  0.53446403  0.08225565  0.93135148  1
  O2-  O201  1  0.54830669  0.57743468  0.26674268  1
  O2-  O202  1  0.54541812  0.58733299  0.60685692  1
  O2-  O203  1  0.54248218  0.58657798  0.93520081  1
  O2-  O204  1  0.16764658  0.19533675  0.28007540  1
  O2-  O205  1  0.16172200  0.20706231  0.60371879  1
  O2-  O206  1  0.17222216  0.21018513  0.93087354  1
  O2-  O207  1  0.17254979  0.69593666  0.26505338  1
  O2-  O208  1  0.17061335  0.70485464  0.60123185  1
  O2-  O209  1  0.16758764  0.70638015  0.93505039  1
  O2-  O210  1  0.66762098  0.20940419  0.26320380  1
  O2-  O211  1  0.66910123  0.20685742  0.59890763  1
  O2-  O212  1  0.66784502  0.20356773  0.93191217  1
  O2-  O213  1  0.66886619  0.70632444  0.26284538  1
  O2-  O214  1  0.66700045  0.70290407  0.61025446  1
  O2-  O215  1  0.66185514  0.70592284  0.93537620  1
  O2-  O216  1  0.08295843  0.46059960  0.06471454  1
  O2-  O217  1  0.07539785  0.45956762  0.40091633  1
  O2-  O218  1  0.08644554  0.46455811  0.73201439  1
  O2-  O219  1  0.08264804  0.95217129  0.05475710  1
  O2-  O220  1  0.07806329  0.95782405  0.40076045  1
  O2-  O221  1  0.07614952  0.94940182  0.73111701  1
  O2-  O222  1  0.58529760  0.46089786  0.06864695  1
  O2-  O223  1  0.58727281  0.45154603  0.39553404  1
  O2-  O224  1  0.58886116  0.45911721  0.72861760  1
  O2-  O225  1  0.58093845  0.95982022  0.06885637  1
  O2-  O226  1  0.58855333  0.95258832  0.39315082  1
  O2-  O227  1  0.58423167  0.95588105  0.73537094  1
  O2-  O228  1  0.20987872  0.33408154  0.06680974  1
  O2-  O229  1  0.19997645  0.32984649  0.40317084  1
  O2-  O230  1  0.19916136  0.33798862  0.72973531  1
  O2-  O231  1  0.20930037  0.83872553  0.06047719  1
  O2-  O232  1  0.20065321  0.82765660  0.39287806  1
  O2-  O233  1  0.21126488  0.82950567  0.73698392  1
  O2-  O234  1  0.70932429  0.32861064  0.06648320  1
  O2-  O235  1  0.71346748  0.33625881  0.39711214  1
  O2-  O236  1  0.70772729  0.33762186  0.72623759  1
  O2-  O237  1  0.70764541  0.83106075  0.06786238  1
  O2-  O238  1  0.71071462  0.83558418  0.39382739  1
  O2-  O239  1  0.71223615  0.83310619  0.73623217  1
  O2-  O240  1  0.45511152  0.41698726  0.26357049  1
  O2-  O241  1  0.46064337  0.41982850  0.59800986  1
  O2-  O242  1  0.45221438  0.42011144  0.94125532  1
  O2-  O243  1  0.45976076  0.91594294  0.26214841  1
  O2-  O244  1  0.45682242  0.91140218  0.60880613  1
  O2-  O245  1  0.45893911  0.91150559  0.93392456  1
  O2-  O246  1  0.94990677  0.41950929  0.26722561  1
  O2-  O247  1  0.95866248  0.41329369  0.60468634  1
  O2-  O248  1  0.95464265  0.42359451  0.93256215  1
  O2-  O249  1  0.94991413  0.92434459  0.26722633  1
  O2-  O250  1  0.94073670  0.91990900  0.60993069  1
  O2-  O251  1  0.95368284  0.91659207  0.92691358  1
  O2-  O252  1  0.32558247  0.29300500  0.26694160  1
  O2-  O253  1  0.32487121  0.30369110  0.60326980  1
  O2-  O254  1  0.33678856  0.29673589  0.93757100  1
  O2-  O255  1  0.33096796  0.79334483  0.26363470  1
  O2-  O256  1  0.34066420  0.78772326  0.60722090  1
  O2-  O257  1  0.33762409  0.79298967  0.93246632  1
  O2-  O258  1  0.83673955  0.28395387  0.26579790  1
  O2-  O259  1  0.83752460  0.29635023  0.60429488  1
  O2-  O260  1  0.83278720  0.29182053  0.92974845  1
  O2-  O261  1  0.83473081  0.78776618  0.26412764  1
  O2-  O262  1  0.83570147  0.78787968  0.60394250  1
  O2-  O263  1  0.83123599  0.78547970  0.93039502  1
  O2-  O264  1  0.40886620  0.03619137  0.06184829  1
  O2-  O265  1  0.42214384  0.03852520  0.40015468  1
  O2-  O266  1  0.41683856  0.04037235  0.73816263  1
  O2-  O267  1  0.41744932  0.55363432  0.06258870  1
  O2-  O268  1  0.42220666  0.54192219  0.40143964  1
  O2-  O269  1  0.41465850  0.54306174  0.73186758  1
  O2-  O270  1  0.91813607  0.04371242  0.06132365  1
  O2-  O271  1  0.90986363  0.04645216  0.39905636  1
  O2-  O272  1  0.91582340  0.05229451  0.73261844  1
  O2-  O273  1  0.91790742  0.55507980  0.06093360  1
  O2-  O274  1  0.90895892  0.54288805  0.39832060  1
  O2-  O275  1  0.91313734  0.54009063  0.73087252  1
  O2-  O276  1  0.29706409  0.16361913  0.06077751  1
  O2-  O277  1  0.29736827  0.16750965  0.40395086  1
  O2-  O278  1  0.29201204  0.17258497  0.73557229  1
  O2-  O279  1  0.29688969  0.66960226  0.06149623  1
  O2-  O280  1  0.29725698  0.66919665  0.40102061  1
  O2-  O281  1  0.29418257  0.66038391  0.73274989  1
  O2-  O282  1  0.79923849  0.16481609  0.06144169  1
  O2-  O283  1  0.78921295  0.16264777  0.39803020  1
  O2-  O284  1  0.79669134  0.17000476  0.73184785  1
  O2-  O285  1  0.78858247  0.66273005  0.06478140  1
  O2-  O286  1  0.78891854  0.66276373  0.39918105  1
  O2-  O287  1  0.79500245  0.66032510  0.73268237  1
