# generated using pymatgen
data_Ca2Al2SiO7
_symmetry_space_group_name_H-M   'P 1'
_cell_length_a   15.46837752
_cell_length_b   15.47144771
_cell_length_c   15.29324665
_cell_angle_alpha   89.98729545
_cell_angle_beta   89.98143122
_cell_angle_gamma   90.01122176
_symmetry_Int_Tables_number   1
_chemical_formula_structural   Ca2Al2SiO7
_chemical_formula_sum   'Ca48 Al48 Si24 O168'
_cell_volume   3659.95181749
_cell_formula_units_Z   24
loop_
 _symmetry_equiv_pos_site_id
 _symmetry_equiv_pos_as_xyz
  1  'x, y, z'
loop_
 _atom_type_symbol
 _atom_type_oxidation_number
  Ca2+  2.0
  Al0+  0.0
  Si0+  0.0
  O2-  -2.0
loop_
 _atom_site_type_symbol
 _atom_site_label
 _atom_site_symmetry_multiplicity
 _atom_site_fract_x
 _atom_site_fract_y
 _atom_site_fract_z
 _atom_site_occupancy
  Ca2+  Ca0  1  0.17491617  0.08198123  0.17425221  1
  Ca2+  Ca1  1  0.16425827  0.08971469  0.49858483  1
  Ca2+  Ca2  1  0.17104813  0.08501210  0.84053438  1
  Ca2+  Ca3  1  0.17068605  0.57134644  0.17105718  1
  Ca2+  Ca4  1  0.17966952  0.57760817  0.50475728  1
  Ca2+  Ca5  1  0.17225510  0.57204549  0.83642046  1
  Ca2+  Ca6  1  0.67804683  0.09752647  0.17148849  1
  Ca2+  Ca7  1  0.67251372  0.09000643  0.50711145  1
  Ca2+  Ca8  1  0.67862594  0.10039612  0.83210587  1
  Ca2+  Ca9  1  0.66565406  0.57189539  0.16801070  1
  Ca2+  Ca10  1  0.67111525  0.57903784  0.51108871  1
  Ca2+  Ca11  1  0.66969951  0.57682188  0.83356888  1
  Ca2+  Ca12  1  0.07523810  0.33059988  0.16182263  1
  Ca2+  Ca13  1  0.07152694  0.32111346  0.49777035  1
  Ca2+  Ca14  1  0.07635614  0.32927383  0.82791525  1
  Ca2+  Ca15  1  0.09479953  0.83534642  0.16397137  1
  Ca2+  Ca16  1  0.08585610  0.83318065  0.49280458  1
  Ca2+  Ca17  1  0.08566605  0.83387665  0.83001271  1
  Ca2+  Ca18  1  0.57279487  0.32981199  0.16633843  1
  Ca2+  Ca19  1  0.57732753  0.32223749  0.49927435  1
  Ca2+  Ca20  1  0.57347515  0.33310654  0.83002627  1
  Ca2+  Ca21  1  0.58230721  0.82881707  0.16291410  1
  Ca2+  Ca22  1  0.59475057  0.82659059  0.50181047  1
  Ca2+  Ca23  1  0.58913213  0.82684306  0.82331334  1
  Ca2+  Ca24  1  0.33231592  0.41326332  0.17195835  1
  Ca2+  Ca25  1  0.34594541  0.42124860  0.50379951  1
  Ca2+  Ca26  1  0.33523712  0.41620419  0.83926790  1
  Ca2+  Ca27  1  0.32597849  0.93030911  0.17073654  1
  Ca2+  Ca28  1  0.32923268  0.92492497  0.49739880  1
  Ca2+  Ca29  1  0.32819693  0.92763423  0.84135544  1
  Ca2+  Ca30  1  0.82831935  0.40328022  0.16827479  1
  Ca2+  Ca31  1  0.83748843  0.41621282  0.50779340  1
  Ca2+  Ca32  1  0.83039872  0.41201804  0.84005916  1
  Ca2+  Ca33  1  0.83428469  0.93286247  0.17064703  1
  Ca2+  Ca34  1  0.82834405  0.93293255  0.50615844  1
  Ca2+  Ca35  1  0.82634012  0.93160112  0.83245696  1
  Ca2+  Ca36  1  0.41567879  0.16793485  0.16126444  1
  Ca2+  Ca37  1  0.42590998  0.17174638  0.49023256  1
  Ca2+  Ca38  1  0.41670268  0.17728936  0.82459769  1
  Ca2+  Ca39  1  0.41090282  0.66636118  0.16580721  1
  Ca2+  Ca40  1  0.41756355  0.66289752  0.49785301  1
  Ca2+  Ca41  1  0.42245180  0.66847893  0.82268698  1
  Ca2+  Ca42  1  0.91856699  0.16938218  0.16520957  1
  Ca2+  Ca43  1  0.91975400  0.16721374  0.49318540  1
  Ca2+  Ca44  1  0.91845476  0.17324115  0.82523155  1
  Ca2+  Ca45  1  0.91973275  0.67338278  0.16097385  1
  Ca2+  Ca46  1  0.91405164  0.66874530  0.49773233  1
  Ca2+  Ca47  1  0.91506737  0.66797167  0.82557956  1
  Al0+  Al48  1  -0.00183597  -0.00258428  0.00499034  1
  Al0+  Al49  1  -0.00289508  -0.00091424  0.33659305  1
  Al0+  Al50  1  -0.00161709  -0.00194232  0.66756432  1
  Al0+  Al51  1  0.00170477  0.50259126  0.00014715  1
  Al0+  Al52  1  0.00050567  0.50251599  0.32956891  1
  Al0+  Al53  1  0.00290457  0.50221048  0.66660682  1
  Al0+  Al54  1  0.50237329  -0.00199907  0.00079936  1
  Al0+  Al55  1  0.50044252  -0.00486369  0.33189028  1
  Al0+  Al56  1  0.49669080  -0.00270815  0.66738864  1
  Al0+  Al57  1  0.50337022  0.50024070  0.00051557  1
  Al0+  Al58  1  0.50295449  0.49906397  0.33381939  1
  Al0+  Al59  1  0.50197255  0.50429201  0.66473978  1
  Al0+  Al60  1  0.24924921  0.25217161  0.00374824  1
  Al0+  Al61  1  0.24724152  0.25068443  0.33303629  1
  Al0+  Al62  1  0.24589422  0.25193594  0.65849317  1
  Al0+  Al63  1  0.25162724  0.74982453  -0.00104562  1
  Al0+  Al64  1  0.25112515  0.74785444  0.33919216  1
  Al0+  Al65  1  0.25138436  0.74819208  0.67050137  1
  Al0+  Al66  1  0.74944883  0.25255740  0.00564158  1
  Al0+  Al67  1  0.74732007  0.25137998  0.33385589  1
  Al0+  Al68  1  0.74719599  0.25343442  0.66593257  1
  Al0+  Al69  1  0.75209053  0.75046552  -0.00081392  1
  Al0+  Al70  1  0.75094646  0.74879235  0.32871652  1
  Al0+  Al71  1  0.75084516  0.74967001  0.66949919  1
  Al0+  Al72  1  0.32261402  0.56930627  0.68203726  1
  Al0+  Al73  1  0.81968576  0.07430282  0.68202335  1
  Al0+  Al74  1  0.42758228  0.32279830  0.65273536  1
  Al0+  Al75  1  0.42931313  0.32154387  0.31861511  1
  Al0+  Al76  1  0.67967692  0.43065707  0.01522421  1
  Al0+  Al77  1  0.42778044  0.32044999  0.98711665  1
  Al0+  Al78  1  0.32116470  0.56653619  0.34679163  1
  Al0+  Al79  1  0.81642394  0.07172818  0.34767627  1
  Al0+  Al80  1  0.56959762  0.17517714  0.31798941  1
  Al0+  Al81  1  0.32257273  0.07392530  0.34969252  1
  Al0+  Al82  1  0.92784971  0.32297179  0.65478690  1
  Al0+  Al83  1  0.17927003  0.92781075  0.01296948  1
  Al0+  Al84  1  0.81855271  0.07171939  0.01443929  1
  Al0+  Al85  1  0.06889965  0.17517271  0.65258326  1
  Al0+  Al86  1  0.67667555  0.92968485  0.68038535  1
  Al0+  Al87  1  0.06927667  0.17618718  0.31585381  1
  Al0+  Al88  1  0.92898528  0.32069492  0.98607604  1
  Al0+  Al89  1  0.32248627  0.07321831  0.01252514  1
  Al0+  Al90  1  0.17917509  0.93004400  0.34937879  1
  Al0+  Al91  1  0.57157135  0.68249606  0.65277369  1
  Al0+  Al92  1  0.82333909  0.57013312  0.67925115  1
  Al0+  Al93  1  0.56908476  0.17649949  0.65394365  1
  Al0+  Al94  1  0.17777493  0.42957420  0.01355489  1
  Al0+  Al95  1  0.92887997  0.32306106  0.31748570  1
  Si0+  Si96  1  0.92825161  0.82139403  0.98228071  1
  Si0+  Si97  1  0.42434798  0.82127181  0.64841783  1
  Si0+  Si98  1  0.82292272  0.57386398  0.01759268  1
  Si0+  Si99  1  0.92994736  0.81888344  0.65111732  1
  Si0+  Si100  1  0.68103600  0.43121897  0.35068406  1
  Si0+  Si101  1  0.67931480  0.92393176  0.01765867  1
  Si0+  Si102  1  0.92874293  0.81923747  0.31753795  1
  Si0+  Si103  1  0.07332442  0.68085517  0.31746008  1
  Si0+  Si104  1  0.42990326  0.82038974  0.98437428  1
  Si0+  Si105  1  0.31885723  0.07326923  0.67919039  1
  Si0+  Si106  1  0.82179220  0.57345869  0.34640516  1
  Si0+  Si107  1  0.17392641  0.42764664  0.35179244  1
  Si0+  Si108  1  0.32330889  0.57061483  0.01515276  1
  Si0+  Si109  1  0.17852259  0.42804640  0.68305478  1
  Si0+  Si110  1  0.07236809  0.68042058  0.98334450  1
  Si0+  Si111  1  0.07078725  0.17628253  0.98559013  1
  Si0+  Si112  1  0.57260245  0.67882033  0.31665919  1
  Si0+  Si113  1  0.67828664  0.42978002  0.68399324  1
  Si0+  Si114  1  0.42686422  0.81776178  0.31715747  1
  Si0+  Si115  1  0.07373559  0.68022846  0.65083593  1
  Si0+  Si116  1  0.57177662  0.17729848  0.98450168  1
  Si0+  Si117  1  0.57270421  0.67965562  0.98447006  1
  Si0+  Si118  1  0.17896380  0.92762268  0.68089065  1
  Si0+  Si119  1  0.67806876  0.92243473  0.34817490  1
  O2-  O120  1  0.24762609  0.00305883  0.06154921  1
  O2-  O121  1  0.24640219  0.00550000  0.40036972  1
  O2-  O122  1  0.24622935  0.00268745  0.72132436  1
  O2-  O123  1  0.25717706  0.50041418  0.05952662  1
  O2-  O124  1  0.25075575  0.48862281  0.39476307  1
  O2-  O125  1  0.25305828  0.49051243  0.72818769  1
  O2-  O126  1  0.74187705  -0.00225108  0.06102446  1
  O2-  O127  1  0.73781988  -0.00124330  0.39093718  1
  O2-  O128  1  0.74121968  0.00773941  0.73157531  1
  O2-  O129  1  0.75800071  0.50270512  0.06250991  1
  O2-  O130  1  0.75699880  0.49871108  0.39005012  1
  O2-  O131  1  0.75372697  0.49228107  0.72733871  1
  O2-  O132  1  0.00005093  0.25119928  0.26620200  1
  O2-  O133  1  -0.00819730  0.24376005  0.60538547  1
  O2-  O134  1  0.00247052  0.24476349  0.94017848  1
  O2-  O135  1  0.00346311  0.75247316  0.27427577  1
  O2-  O136  1  0.00258959  0.75010688  0.60745164  1
  O2-  O137  1  0.00164784  0.75188942  0.94084345  1
  O2-  O138  1  0.49151429  0.24102481  0.26788132  1
  O2-  O139  1  0.49438594  0.24555813  0.60412973  1
  O2-  O140  1  0.49744326  0.24037888  0.94133600  1
  O2-  O141  1  0.50062829  0.74868743  0.27469133  1
  O2-  O142  1  0.49827791  0.75768323  0.60450232  1
  O2-  O143  1  0.50261381  0.75121053  0.94214421  1
  O2-  O144  1  0.06935417  0.17628872  0.09069246  1
  O2-  O145  1  0.06361790  0.17577981  0.42929620  1
  O2-  O146  1  0.07199700  0.17547243  0.76670593  1
  O2-  O147  1  0.07200936  0.68124823  0.08860658  1
  O2-  O148  1  0.07188014  0.68069477  0.42257275  1
  O2-  O149  1  0.07426023  0.68257541  0.75607917  1
  O2-  O150  1  0.57198869  0.17893745  0.08993460  1
  O2-  O151  1  0.57159908  0.17864123  0.43130399  1
  O2-  O152  1  0.56769046  0.18019074  0.76796972  1
  O2-  O153  1  0.57304479  0.68092651  0.08994672  1
  O2-  O154  1  0.57672832  0.68041372  0.42125087  1
  O2-  O155  1  0.57060286  0.68256836  0.76622890  1
  O2-  O156  1  0.17020156  0.43460332  0.24611180  1
  O2-  O157  1  0.17447763  0.43377070  0.57801306  1
  O2-  O158  1  0.17615011  0.43319839  0.90061239  1
  O2-  O159  1  0.18457537  0.92627904  0.23624791  1
  O2-  O160  1  0.18074639  0.92265783  0.57641167  1
  O2-  O161  1  0.18210676  0.92578096  0.89896505  1
  O2-  O162  1  0.67909669  0.43467661  0.24541304  1
  O2-  O163  1  0.67650610  0.43358984  0.57835148  1
  O2-  O164  1  0.67818609  0.43420038  0.90242221  1
  O2-  O165  1  0.68430034  0.91300346  0.24301111  1
  O2-  O166  1  0.68422434  0.92519726  0.56708561  1
  O2-  O167  1  0.68276458  0.91590584  0.91297048  1
  O2-  O168  1  0.43074429  0.32388866  0.09961729  1
  O2-  O169  1  0.43847071  0.32666642  0.43146358  1
  O2-  O170  1  0.42856373  0.32234129  0.76686899  1
  O2-  O171  1  0.42964761  0.81706002  0.08953960  1
  O2-  O172  1  0.42472874  0.81527887  0.42186709  1
  O2-  O173  1  0.42081075  0.81742157  0.75422717  1
  O2-  O174  1  0.93013830  0.31925221  0.09871905  1
  O2-  O175  1  0.93019810  0.32628635  0.43077467  1
  O2-  O176  1  0.93205455  0.32397056  0.76863209  1
  O2-  O177  1  0.92439850  0.81781209  0.08734465  1
  O2-  O178  1  0.92566264  0.81385627  0.42245647  1
  O2-  O179  1  0.93245822  0.81781848  0.75641976  1
  O2-  O180  1  0.32420122  0.06854006  0.23620143  1
  O2-  O181  1  0.32000127  0.07085464  0.57467102  1
  O2-  O182  1  0.32136825  0.07097010  0.89814257  1
  O2-  O183  1  0.31804105  0.56963385  0.23337114  1
  O2-  O184  1  0.31990070  0.57181653  0.56907733  1
  O2-  O185  1  0.32213256  0.57232355  0.90971017  1
  O2-  O186  1  0.81726549  0.06893635  0.23431969  1
  O2-  O187  1  0.82192229  0.07028665  0.56885732  1
  O2-  O188  1  0.81866220  0.07118863  0.90162023  1
  O2-  O189  1  0.81813990  0.57930126  0.24157658  1
  O2-  O190  1  0.82077545  0.57199125  0.56572724  1
  O2-  O191  1  0.82073208  0.57717172  0.91225479  1
  O2-  O192  1  0.03873923  0.07689089  0.26508764  1
  O2-  O193  1  0.04582676  0.07480950  0.60084782  1
  O2-  O194  1  0.04628380  0.08101556  0.94164344  1
  O2-  O195  1  0.04378164  0.59101970  0.26737606  1
  O2-  O196  1  0.04724888  0.58922312  0.60240962  1
  O2-  O197  1  0.04373519  0.58995630  0.93443679  1
  O2-  O198  1  0.55426336  0.07202705  0.26828076  1
  O2-  O199  1  0.54621173  0.07570091  0.60354698  1
  O2-  O200  1  0.55682358  0.07998149  0.94164084  1
  O2-  O201  1  0.54423819  0.58778021  0.26894503  1
  O2-  O202  1  0.54119931  0.58761421  0.59657383  1
  O2-  O203  1  0.54494190  0.58864624  0.93692229  1
  O2-  O204  1  0.16999172  0.20044025  0.26643608  1
  O2-  O205  1  0.16397528  0.20748546  0.59529476  1
  O2-  O206  1  0.16464402  0.20283486  0.94065845  1
  O2-  O207  1  0.16504171  0.70879906  0.27008360  1
  O2-  O208  1  0.16490344  0.71004438  0.60336771  1
  O2-  O209  1  0.16426844  0.70784322  0.93514792  1
  O2-  O210  1  0.66446196  0.21443077  0.26498952  1
  O2-  O211  1  0.66636680  0.20835222  0.60090131  1
  O2-  O212  1  0.66295342  0.21208768  0.93963199  1
  O2-  O213  1  0.66294722  0.70797445  0.26583707  1
  O2-  O214  1  0.66866694  0.71291943  0.59837201  1
  O2-  O215  1  0.66522084  0.70720163  0.93802474  1
  O2-  O216  1  0.08455705  0.46826847  0.06979935  1
  O2-  O217  1  0.08435230  0.46546891  0.39879808  1
  O2-  O218  1  0.08907541  0.46305709  0.73235203  1
  O2-  O219  1  0.07837559  0.94515753  0.06417530  1
  O2-  O220  1  0.07774982  0.94926733  0.39962004  1
  O2-  O221  1  0.08533463  0.94891320  0.72753803  1
  O2-  O222  1  0.58612838  0.46807640  0.07172077  1
  O2-  O223  1  0.59282073  0.46652099  0.39923854  1
  O2-  O224  1  0.58858676  0.46560000  0.73140993  1
  O2-  O225  1  0.58298148  0.94175692  0.06069112  1
  O2-  O226  1  0.58069756  0.93451042  0.38951771  1
  O2-  O227  1  0.57342841  0.94205252  0.72983403  1
  O2-  O228  1  0.20299175  0.33338411  0.06907849  1
  O2-  O229  1  0.18841151  0.33124297  0.39368336  1
  O2-  O230  1  0.19667542  0.33200995  0.72657909  1
  O2-  O231  1  0.21186348  0.83001663  0.06608850  1
  O2-  O232  1  0.21148481  0.83222577  0.40299605  1
  O2-  O233  1  0.21016782  0.83759284  0.73057929  1
  O2-  O234  1  0.70816057  0.33567116  0.07223492  1
  O2-  O235  1  0.70495343  0.33942899  0.39825546  1
  O2-  O236  1  0.69588174  0.33538847  0.73067786  1
  O2-  O237  1  0.70998825  0.83245933  0.06683121  1
  O2-  O238  1  0.71330100  0.83197539  0.39659268  1
  O2-  O239  1  0.71450430  0.83444840  0.73534429  1
  O2-  O240  1  0.46740365  0.41759638  0.26438535  1
  O2-  O241  1  0.46182370  0.42004322  0.60180397  1
  O2-  O242  1  0.46390002  0.41709582  0.93442264  1
  O2-  O243  1  0.45282773  0.90864470  0.26762390  1
  O2-  O244  1  0.44260197  0.91652966  0.60416673  1
  O2-  O245  1  0.45515895  0.91271250  0.93658435  1
  O2-  O246  1  0.95452414  0.42348664  0.26460971  1
  O2-  O247  1  0.96185336  0.42025595  0.60145864  1
  O2-  O248  1  0.95772343  0.42033090  0.93627866  1
  O2-  O249  1  0.95219721  0.91170613  0.27123161  1
  O2-  O250  1  0.95611044  0.91038836  0.60331562  1
  O2-  O251  1  0.95433869  0.91341679  0.93504840  1
  O2-  O252  1  0.32520065  0.30780073  0.27365858  1
  O2-  O253  1  0.32732356  0.30378164  0.60102841  1
  O2-  O254  1  0.32880680  0.29644858  0.93407203  1
  O2-  O255  1  0.33734781  0.78350623  0.26886776  1
  O2-  O256  1  0.33374823  0.78766705  0.60103122  1
  O2-  O257  1  0.33924749  0.79061587  0.93538774  1
  O2-  O258  1  0.82911889  0.29471282  0.26837574  1
  O2-  O259  1  0.82601015  0.30686142  0.60566725  1
  O2-  O260  1  0.83020396  0.29211550  0.93538895  1
  O2-  O261  1  0.84029876  0.78541880  0.26613579  1
  O2-  O262  1  0.84025705  0.78654902  0.60363039  1
  O2-  O263  1  0.83812956  0.78943712  0.93347559  1
  O2-  O264  1  0.42070867  0.04102862  0.06455038  1
  O2-  O265  1  0.42014949  0.03663405  0.40088742  1
  O2-  O266  1  0.40915290  0.04435154  0.72884200  1
  O2-  O267  1  0.41815135  0.55036963  0.06013125  1
  O2-  O268  1  0.42048652  0.54197936  0.39890538  1
  O2-  O269  1  0.42130958  0.54570867  0.73473540  1
  O2-  O270  1  0.91323501  0.03648522  0.06899810  1
  O2-  O271  1  0.91056729  0.03483007  0.40176980  1
  O2-  O272  1  0.91600531  0.03699063  0.73521070  1
  O2-  O273  1  0.91850504  0.55500099  0.06130318  1
  O2-  O274  1  0.91655734  0.55351851  0.39105430  1
  O2-  O275  1  0.92279955  0.54924993  0.73229115  1
  O2-  O276  1  0.29711561  0.17097299  0.06607635  1
  O2-  O277  1  0.29864719  0.17417917  0.40052679  1
  O2-  O278  1  0.29032169  0.16589992  0.72451510  1
  O2-  O279  1  0.29441827  0.66350412  0.06101923  1
  O2-  O280  1  0.28724995  0.66114541  0.40253245  1
  O2-  O281  1  0.28712160  0.66431396  0.73751786  1
  O2-  O282  1  0.78813028  0.16698320  0.07001763  1
  O2-  O283  1  0.78751034  0.16864363  0.40099528  1
  O2-  O284  1  0.79392094  0.17429057  0.73393545  1
  O2-  O285  1  0.79334146  0.66631548  0.06507753  1
  O2-  O286  1  0.78923018  0.66336454  0.39529452  1
  O2-  O287  1  0.78892701  0.66453178  0.73538787  1
