# generated using pymatgen
data_Ca2Al2SiO7
_symmetry_space_group_name_H-M   'P 1'
_cell_length_a   15.45825382
_cell_length_b   15.45911753
_cell_length_c   15.28335339
_cell_angle_alpha   90.02143696
_cell_angle_beta   89.99171611
_cell_angle_gamma   89.98891620
_symmetry_Int_Tables_number   1
_chemical_formula_structural   Ca2Al2SiO7
_chemical_formula_sum   'Ca48 Al48 Si24 O168'
_cell_volume   3652.27730868
_cell_formula_units_Z   24
loop_
 _symmetry_equiv_pos_site_id
 _symmetry_equiv_pos_as_xyz
  1  'x, y, z'
loop_
 _atom_type_symbol
 _atom_type_oxidation_number
  Ca2+  2.0
  Al0+  0.0
  Si0+  0.0
  O2-  -2.0
loop_
 _atom_site_type_symbol
 _atom_site_label
 _atom_site_symmetry_multiplicity
 _atom_site_fract_x
 _atom_site_fract_y
 _atom_site_fract_z
 _atom_site_occupancy
  Ca2+  Ca0  1  0.15787109  0.07658437  0.17065761  1
  Ca2+  Ca1  1  0.16883650  0.07512732  0.50329340  1
  Ca2+  Ca2  1  0.16848960  0.07501040  0.83502255  1
  Ca2+  Ca3  1  0.17305181  0.57592191  0.17623199  1
  Ca2+  Ca4  1  0.17132646  0.58042597  0.49737891  1
  Ca2+  Ca5  1  0.16777456  0.58267782  0.83649549  1
  Ca2+  Ca6  1  0.66885092  0.07608602  0.16642341  1
  Ca2+  Ca7  1  0.66949646  0.08169851  0.50228538  1
  Ca2+  Ca8  1  0.66960977  0.07713494  0.84059402  1
  Ca2+  Ca9  1  0.66961018  0.57802668  0.17081706  1
  Ca2+  Ca10  1  0.66742315  0.58374854  0.50026336  1
  Ca2+  Ca11  1  0.67964301  0.57829383  0.84153511  1
  Ca2+  Ca12  1  0.08803439  0.32220955  0.16004040  1
  Ca2+  Ca13  1  0.08195657  0.32851665  0.49202221  1
  Ca2+  Ca14  1  0.07284691  0.33032322  0.83024609  1
  Ca2+  Ca15  1  0.07568608  0.83956336  0.16162141  1
  Ca2+  Ca16  1  0.07631965  0.84298954  0.49492260  1
  Ca2+  Ca17  1  0.07558943  0.83962028  0.83114460  1
  Ca2+  Ca18  1  0.58168884  0.34415580  0.16674212  1
  Ca2+  Ca19  1  0.57365521  0.33737343  0.49314126  1
  Ca2+  Ca20  1  0.58143161  0.33436874  0.82977993  1
  Ca2+  Ca21  1  0.57329031  0.82912647  0.16152717  1
  Ca2+  Ca22  1  0.56951714  0.82675258  0.49121445  1
  Ca2+  Ca23  1  0.57277267  0.84103945  0.83019625  1
  Ca2+  Ca24  1  0.33088378  0.42314888  0.18159686  1
  Ca2+  Ca25  1  0.33483223  0.41631269  0.49875916  1
  Ca2+  Ca26  1  0.33529261  0.41667456  0.83554740  1
  Ca2+  Ca27  1  0.32248230  0.91042422  0.17270376  1
  Ca2+  Ca28  1  0.32423489  0.91530696  0.50890333  1
  Ca2+  Ca29  1  0.32527407  0.91423291  0.83918746  1
  Ca2+  Ca30  1  0.82726026  0.41689804  0.16927936  1
  Ca2+  Ca31  1  0.82831301  0.42164335  0.50957245  1
  Ca2+  Ca32  1  0.83739411  0.42434887  0.84282567  1
  Ca2+  Ca33  1  0.83177367  0.90833398  0.16961303  1
  Ca2+  Ca34  1  0.83630958  0.91286829  0.50449420  1
  Ca2+  Ca35  1  0.82898083  0.91010840  0.84228257  1
  Ca2+  Ca36  1  0.41484883  0.17424762  0.16645084  1
  Ca2+  Ca37  1  0.40672245  0.17547787  0.49920685  1
  Ca2+  Ca38  1  0.41660624  0.16936747  0.82478096  1
  Ca2+  Ca39  1  0.41664168  0.67175222  0.16773913  1
  Ca2+  Ca40  1  0.41744444  0.67438057  0.48899513  1
  Ca2+  Ca41  1  0.41826995  0.68024688  0.82955789  1
  Ca2+  Ca42  1  0.92967411  0.17296439  0.15934152  1
  Ca2+  Ca43  1  0.92388182  0.17205003  0.49344024  1
  Ca2+  Ca44  1  0.91948712  0.17620888  0.83228086  1
  Ca2+  Ca45  1  0.91498699  0.67356778  0.16250883  1
  Ca2+  Ca46  1  0.91460973  0.67545342  0.49944390  1
  Ca2+  Ca47  1  0.91063149  0.67168647  0.82962118  1
  Al0+  Al48  1  0.00136458  0.00034489  -0.00579193  1
  Al0+  Al49  1  -0.00082415  0.00257477  0.32981576  1
  Al0+  Al50  1  -0.00033845  0.00091296  0.66785204  1
  Al0+  Al51  1  0.00213660  0.50059651  0.00308212  1
  Al0+  Al52  1  -0.00185230  0.50168248  0.33805302  1
  Al0+  Al53  1  -0.00046884  0.50097515  0.66596873  1
  Al0+  Al54  1  0.49987523  0.00224797  0.00151696  1
  Al0+  Al55  1  0.49989923  0.00143377  0.33066446  1
  Al0+  Al56  1  0.50006712  0.00089384  0.66411590  1
  Al0+  Al57  1  0.50129981  0.50219185  0.00080232  1
  Al0+  Al58  1  0.50172619  0.50087315  0.33407040  1
  Al0+  Al59  1  0.50026984  0.49891000  0.66511316  1
  Al0+  Al60  1  0.25161693  0.24834346  -0.00635119  1
  Al0+  Al61  1  0.24984082  0.24825916  0.32763735  1
  Al0+  Al62  1  0.25029934  0.24892220  0.66783274  1
  Al0+  Al63  1  0.25021762  0.75109958  0.00001506  1
  Al0+  Al64  1  0.24662485  0.74930509  0.33888658  1
  Al0+  Al65  1  0.24822284  0.74773173  0.66830696  1
  Al0+  Al66  1  0.74885144  0.25010664  0.00062377  1
  Al0+  Al67  1  0.74976094  0.24924899  0.33821983  1
  Al0+  Al68  1  0.74958002  0.24935975  0.66332668  1
  Al0+  Al69  1  0.74885907  0.74793425  0.00529094  1
  Al0+  Al70  1  0.74794375  0.74983412  0.32770645  1
  Al0+  Al71  1  0.75057140  0.74850486  0.66683263  1
  Al0+  Al72  1  0.42738961  0.82150238  0.65311355  1
  Al0+  Al73  1  0.32112372  0.57062811  0.34914997  1
  Al0+  Al74  1  0.17958655  0.93051551  0.01512106  1
  Al0+  Al75  1  0.92818653  0.81819364  0.98655167  1
  Al0+  Al76  1  0.42495829  0.82265483  0.31844694  1
  Al0+  Al77  1  0.42905242  0.82169653  0.98601519  1
  Al0+  Al78  1  0.82432160  0.57096388  0.01805186  1
  Al0+  Al79  1  0.07022476  0.18153813  0.32011159  1
  Al0+  Al80  1  0.43147441  0.31883848  0.31953514  1
  Al0+  Al81  1  0.67786490  0.92885801  0.01397813  1
  Al0+  Al82  1  0.68089905  0.42874945  0.34996749  1
  Al0+  Al83  1  0.57041177  0.67865529  0.31662022  1
  Al0+  Al84  1  0.92879040  0.32194327  0.98703274  1
  Al0+  Al85  1  0.92983677  0.82073719  0.65419616  1
  Al0+  Al86  1  0.07367336  0.17749723  0.98042106  1
  Al0+  Al87  1  0.82060803  0.57025811  0.68065138  1
  Al0+  Al88  1  0.17778632  0.92685316  0.68367158  1
  Al0+  Al89  1  0.17799029  0.42541446  0.34760744  1
  Al0+  Al90  1  0.93082892  0.82071720  0.31984344  1
  Al0+  Al91  1  0.17757899  0.93052700  0.34638773  1
  Al0+  Al92  1  0.92866347  0.32270249  0.65197140  1
  Al0+  Al93  1  0.42925786  0.32073548  0.65302748  1
  Al0+  Al94  1  0.32153397  0.07101724  0.68178622  1
  Al0+  Al95  1  0.67852868  0.42798046  0.01517769  1
  Si0+  Si96  1  0.57310330  0.17688859  0.64894890  1
  Si0+  Si97  1  0.68061064  0.92932069  0.67927332  1
  Si0+  Si98  1  0.43053349  0.32301948  0.98538033  1
  Si0+  Si99  1  0.82032743  0.06922761  0.34834451  1
  Si0+  Si100  1  0.18130603  0.42739271  0.01257655  1
  Si0+  Si101  1  0.07292014  0.67609040  0.64901429  1
  Si0+  Si102  1  0.32292027  0.07386973  0.01821485  1
  Si0+  Si103  1  0.67799163  0.92813763  0.34857044  1
  Si0+  Si104  1  0.07379228  0.67761531  0.98442258  1
  Si0+  Si105  1  0.32384204  0.07162403  0.34855778  1
  Si0+  Si106  1  0.67764980  0.42692897  0.68346013  1
  Si0+  Si107  1  0.32305640  0.57004741  0.68320819  1
  Si0+  Si108  1  0.57617583  0.17714806  0.31478256  1
  Si0+  Si109  1  0.57123610  0.67911282  0.65160945  1
  Si0+  Si110  1  0.07134137  0.67566678  0.31714490  1
  Si0+  Si111  1  0.82103685  0.07283707  0.68167324  1
  Si0+  Si112  1  0.32091608  0.57091797  0.01353052  1
  Si0+  Si113  1  0.07070970  0.17959989  0.64877150  1
  Si0+  Si114  1  0.57095811  0.67762413  0.98153669  1
  Si0+  Si115  1  0.82130965  0.57492813  0.35250151  1
  Si0+  Si116  1  0.92612724  0.32388708  0.31881052  1
  Si0+  Si117  1  0.82214892  0.07167353  0.01578008  1
  Si0+  Si118  1  0.57077586  0.17885448  0.98537818  1
  Si0+  Si119  1  0.17946729  0.42876999  0.68201111  1
  O2-  O120  1  0.25380064  0.00597399  0.06197643  1
  O2-  O121  1  0.25949166  -0.00159508  0.39164945  1
  O2-  O122  1  0.25400859  -0.00445917  0.73275523  1
  O2-  O123  1  0.25231325  0.49764597  0.05524910  1
  O2-  O124  1  0.25024721  0.49659084  0.39910458  1
  O2-  O125  1  0.25178723  0.49872510  0.72529485  1
  O2-  O126  1  0.75752681  -0.00099189  0.06067761  1
  O2-  O127  1  0.74930847  -0.00162179  0.39193505  1
  O2-  O128  1  0.75157018  -0.00010368  0.72291563  1
  O2-  O129  1  0.75334304  0.49647966  0.06547024  1
  O2-  O130  1  0.75669067  0.50217023  0.39671641  1
  O2-  O131  1  0.74912882  0.49212885  0.72732021  1
  O2-  O132  1  0.00083819  0.26228975  0.27475601  1
  O2-  O133  1  0.00250727  0.24842749  0.60382855  1
  O2-  O134  1  0.00048635  0.25081253  0.93442893  1
  O2-  O135  1  0.00453526  0.74569316  0.27269033  1
  O2-  O136  1  0.00779778  0.74970885  0.60722955  1
  O2-  O137  1  0.00218241  0.74292700  0.93966862  1
  O2-  O138  1  0.50769287  0.24631078  0.27116850  1
  O2-  O139  1  0.50363759  0.24556312  0.60671577  1
  O2-  O140  1  0.50193915  0.25235490  0.94376490  1
  O2-  O141  1  0.49716533  0.75075676  0.26837456  1
  O2-  O142  1  0.50022887  0.74498557  0.60703537  1
  O2-  O143  1  0.50629299  0.75017432  0.93719403  1
  O2-  O144  1  0.07365860  0.18021321  0.09422626  1
  O2-  O145  1  0.06636550  0.17984609  0.43335735  1
  O2-  O146  1  0.06890192  0.18138397  0.75414480  1
  O2-  O147  1  0.07669551  0.67794176  0.08974607  1
  O2-  O148  1  0.06964527  0.67403562  0.42271306  1
  O2-  O149  1  0.07265237  0.67198961  0.75465998  1
  O2-  O150  1  0.56939589  0.17610905  0.09015186  1
  O2-  O151  1  0.57803633  0.17608386  0.42029616  1
  O2-  O152  1  0.57595869  0.17676701  0.75475476  1
  O2-  O153  1  0.56639297  0.67518434  0.08660024  1
  O2-  O154  1  0.57200466  0.68289730  0.43093933  1
  O2-  O155  1  0.57054411  0.68025929  0.75728350  1
  O2-  O156  1  0.18115926  0.42661751  0.23342221  1
  O2-  O157  1  0.17985549  0.42897161  0.57728882  1
  O2-  O158  1  0.18302696  0.42927214  0.90696171  1
  O2-  O159  1  0.17513650  0.93360723  0.23328439  1
  O2-  O160  1  0.17579677  0.93076490  0.56995115  1
  O2-  O161  1  0.18136200  0.92912069  0.90230892  1
  O2-  O162  1  0.68377954  0.42776419  0.23719443  1
  O2-  O163  1  0.67677025  0.42829660  0.57800414  1
  O2-  O164  1  0.67486051  0.43036849  0.90135645  1
  O2-  O165  1  0.67869190  0.93028629  0.24357837  1
  O2-  O166  1  0.68206968  0.93047962  0.57396421  1
  O2-  O167  1  0.67676764  0.93306508  0.90011161  1
  O2-  O168  1  0.42900455  0.32306166  0.09016047  1
  O2-  O169  1  0.43113782  0.31617731  0.43261032  1
  O2-  O170  1  0.43238503  0.32170901  0.76677361  1
  O2-  O171  1  0.42746252  0.81816149  0.09848463  1
  O2-  O172  1  0.42803804  0.82253918  0.43243913  1
  O2-  O173  1  0.43026101  0.82089052  0.76662158  1
  O2-  O174  1  0.93024600  0.31942057  0.10068257  1
  O2-  O175  1  0.92485869  0.31918446  0.42466580  1
  O2-  O176  1  0.92984513  0.32144449  0.76492216  1
  O2-  O177  1  0.93058668  0.81855640  0.09956946  1
  O2-  O178  1  0.93065536  0.82095979  0.43326811  1
  O2-  O179  1  0.92656158  0.81861994  0.76698417  1
  O2-  O180  1  0.32387134  0.07360361  0.24297062  1
  O2-  O181  1  0.31811606  0.07287312  0.56827304  1
  O2-  O182  1  0.32460276  0.07461716  0.91273755  1
  O2-  O183  1  0.31882768  0.56901462  0.23480064  1
  O2-  O184  1  0.32410101  0.56990660  0.57877415  1
  O2-  O185  1  0.32058437  0.56910201  0.90782879  1
  O2-  O186  1  0.81897170  0.06954711  0.24346702  1
  O2-  O187  1  0.81975806  0.07340734  0.57628308  1
  O2-  O188  1  0.81733261  0.07321010  0.90977089  1
  O2-  O189  1  0.82131799  0.57516050  0.24727422  1
  O2-  O190  1  0.81717842  0.57167918  0.56768479  1
  O2-  O191  1  0.82204141  0.57084374  0.90394181  1
  O2-  O192  1  0.03125607  0.08926455  0.26350701  1
  O2-  O193  1  0.04300253  0.08633325  0.60359543  1
  O2-  O194  1  0.04371736  0.08083570  0.92620252  1
  O2-  O195  1  0.04507850  0.58205035  0.26992124  1
  O2-  O196  1  0.04311810  0.58509143  0.60023810  1
  O2-  O197  1  0.05279621  0.58247057  0.93887709  1
  O2-  O198  1  0.55007951  0.08407462  0.26777018  1
  O2-  O199  1  0.54965869  0.08377264  0.60095271  1
  O2-  O200  1  0.54096022  0.08911088  0.93469117  1
  O2-  O201  1  0.54406079  0.58017966  0.26420141  1
  O2-  O202  1  0.54817584  0.58439107  0.60678519  1
  O2-  O203  1  0.54082013  0.58605820  0.93256997  1
  O2-  O204  1  0.16649365  0.20589566  0.26282070  1
  O2-  O205  1  0.16443715  0.20577169  0.60431626  1
  O2-  O206  1  0.17173679  0.20678110  0.92664106  1
  O2-  O207  1  0.16577508  0.69843253  0.27265669  1
  O2-  O208  1  0.16800562  0.69609153  0.60408406  1
  O2-  O209  1  0.16576030  0.70538838  0.93544481  1
  O2-  O210  1  0.67013758  0.20208746  0.26918630  1
  O2-  O211  1  0.66594811  0.20199668  0.60068793  1
  O2-  O212  1  0.66263500  0.20380124  0.93644739  1
  O2-  O213  1  0.66695985  0.70868051  0.26142981  1
  O2-  O214  1  0.66320244  0.70750621  0.60428220  1
  O2-  O215  1  0.66633336  0.69979994  0.93898158  1
  O2-  O216  1  0.09053253  0.45334658  0.06161983  1
  O2-  O217  1  0.07893640  0.45329426  0.40062268  1
  O2-  O218  1  0.08863321  0.45943608  0.72978737  1
  O2-  O219  1  0.08139392  0.96152180  0.06611429  1
  O2-  O220  1  0.08271618  0.96906557  0.40004508  1
  O2-  O221  1  0.07980768  0.96010171  0.73603827  1
  O2-  O222  1  0.58061345  0.46060243  0.06824432  1
  O2-  O223  1  0.58457142  0.46050424  0.40332662  1
  O2-  O224  1  0.58445341  0.45459496  0.72997056  1
  O2-  O225  1  0.58394834  0.96603449  0.06943119  1
  O2-  O226  1  0.58644144  0.95794305  0.39611579  1
  O2-  O227  1  0.58895789  0.95838491  0.72642053  1
  O2-  O228  1  0.21001283  0.33483171  0.05739995  1
  O2-  O229  1  0.20729729  0.32662061  0.39898121  1
  O2-  O230  1  0.20686230  0.33751490  0.73032739  1
  O2-  O231  1  0.21093431  0.83314764  0.06787123  1
  O2-  O232  1  0.19836627  0.83200482  0.40042965  1
  O2-  O233  1  0.20063949  0.82592485  0.73459029  1
  O2-  O234  1  0.70040909  0.32747103  0.06712385  1
  O2-  O235  1  0.70797193  0.33074776  0.40460933  1
  O2-  O236  1  0.69921651  0.33086471  0.72648119  1
  O2-  O237  1  0.70300935  0.83163813  0.06783445  1
  O2-  O238  1  0.70585512  0.83627612  0.39506216  1
  O2-  O239  1  0.70763179  0.83803680  0.72738015  1
  O2-  O240  1  0.46116294  0.41593219  0.26707567  1
  O2-  O241  1  0.45960714  0.41720756  0.59848882  1
  O2-  O242  1  0.45764415  0.41503839  0.93737025  1
  O2-  O243  1  0.45377345  0.92157695  0.26665530  1
  O2-  O244  1  0.45926659  0.91757408  0.59940677  1
  O2-  O245  1  0.45945776  0.91981174  0.93444039  1
  O2-  O246  1  0.94251589  0.42111979  0.27803798  1
  O2-  O247  1  0.95892218  0.41912486  0.59832534  1
  O2-  O248  1  0.95974811  0.42049141  0.93498054  1
  O2-  O249  1  0.95997975  0.91721431  0.26564302  1
  O2-  O250  1  0.95547451  0.91971797  0.60134985  1
  O2-  O251  1  0.95646598  0.91543687  0.93276213  1
  O2-  O252  1  0.33634094  0.28736142  0.26305434  1
  O2-  O253  1  0.33196234  0.29050314  0.60018954  1
  O2-  O254  1  0.34005366  0.29506448  0.93539299  1
  O2-  O255  1  0.32539434  0.79280315  0.26908940  1
  O2-  O256  1  0.32970347  0.79078549  0.60255716  1
  O2-  O257  1  0.33415156  0.78612405  0.93115096  1
  O2-  O258  1  0.83502106  0.28999822  0.27301139  1
  O2-  O259  1  0.83160016  0.29183610  0.59877603  1
  O2-  O260  1  0.82965402  0.29354426  0.93432742  1
  O2-  O261  1  0.83366666  0.79177183  0.26687658  1
  O2-  O262  1  0.83365727  0.78757684  0.59939304  1
  O2-  O263  1  0.82933320  0.78937060  0.93513267  1
  O2-  O264  1  0.41661827  0.05059905  0.06464651  1
  O2-  O265  1  0.41988884  0.05409597  0.39399231  1
  O2-  O266  1  0.42364680  0.04952335  0.73157490  1
  O2-  O267  1  0.41274179  0.54449597  0.06044195  1
  O2-  O268  1  0.41966721  0.54355611  0.40136035  1
  O2-  O269  1  0.41449285  0.54099331  0.73166507  1
  O2-  O270  1  0.91761270  0.05013295  0.05810838  1
  O2-  O271  1  0.91079479  0.04045764  0.39720133  1
  O2-  O272  1  0.91299390  0.04843100  0.72897045  1
  O2-  O273  1  0.92402127  0.54630590  0.07068664  1
  O2-  O274  1  0.91621607  0.55521889  0.39847400  1
  O2-  O275  1  0.91861975  0.54281489  0.73374255  1
  O2-  O276  1  0.29793956  0.16906144  0.06247082  1
  O2-  O277  1  0.29207958  0.16339442  0.39459018  1
  O2-  O278  1  0.29176904  0.16910903  0.73653404  1
  O2-  O279  1  0.29109438  0.66129313  0.06125225  1
  O2-  O280  1  0.28968574  0.66694006  0.40492326  1
  O2-  O281  1  0.29391318  0.66065941  0.73252282  1
  O2-  O282  1  0.79149599  0.16277666  0.06389907  1
  O2-  O283  1  0.79232535  0.15985279  0.39898961  1
  O2-  O284  1  0.79005104  0.16361797  0.73012193  1
  O2-  O285  1  0.79266492  0.66756439  0.07197240  1
  O2-  O286  1  0.78948394  0.66749147  0.39802364  1
  O2-  O287  1  0.78649045  0.66576355  0.73576198  1
