# generated using pymatgen
data_Ca2Al2SiO7
_symmetry_space_group_name_H-M   'P 1'
_cell_length_a   15.45665822
_cell_length_b   15.45645178
_cell_length_c   15.28284282
_cell_angle_alpha   89.99330138
_cell_angle_beta   90.00017327
_cell_angle_gamma   89.99911799
_symmetry_Int_Tables_number   1
_chemical_formula_structural   Ca2Al2SiO7
_chemical_formula_sum   'Ca48 Al48 Si24 O168'
_cell_volume   3651.14895331
_cell_formula_units_Z   24
loop_
 _symmetry_equiv_pos_site_id
 _symmetry_equiv_pos_as_xyz
  1  'x, y, z'
loop_
 _atom_type_symbol
 _atom_type_oxidation_number
  Ca2+  2.0
  Al0+  0.0
  Si0+  0.0
  O2-  -2.0
loop_
 _atom_site_type_symbol
 _atom_site_label
 _atom_site_symmetry_multiplicity
 _atom_site_fract_x
 _atom_site_fract_y
 _atom_site_fract_z
 _atom_site_occupancy
  Ca2+  Ca0  1  0.16786140  0.08284865  0.16614847  1
  Ca2+  Ca1  1  0.16143061  0.07559642  0.50552989  1
  Ca2+  Ca2  1  0.16875699  0.07162017  0.84403379  1
  Ca2+  Ca3  1  0.16449246  0.57399501  0.17090413  1
  Ca2+  Ca4  1  0.17204915  0.58669819  0.50296590  1
  Ca2+  Ca5  1  0.16144074  0.57937552  0.84069219  1
  Ca2+  Ca6  1  0.66809948  0.07893415  0.17063742  1
  Ca2+  Ca7  1  0.67161135  0.08159694  0.51106063  1
  Ca2+  Ca8  1  0.67206935  0.09227817  0.83159787  1
  Ca2+  Ca9  1  0.67414128  0.58577003  0.17229656  1
  Ca2+  Ca10  1  0.67661605  0.57864059  0.50905919  1
  Ca2+  Ca11  1  0.67438497  0.58920084  0.83616839  1
  Ca2+  Ca12  1  0.09635623  0.32678955  0.16211115  1
  Ca2+  Ca13  1  0.07673905  0.33082276  0.49420704  1
  Ca2+  Ca14  1  0.08027140  0.33028326  0.82938011  1
  Ca2+  Ca15  1  0.07830079  0.82566392  0.15967508  1
  Ca2+  Ca16  1  0.07986520  0.82889245  0.49799494  1
  Ca2+  Ca17  1  0.09254090  0.82401660  0.83031039  1
  Ca2+  Ca18  1  0.58414111  0.33748286  0.16671731  1
  Ca2+  Ca19  1  0.58795673  0.33582509  0.50226090  1
  Ca2+  Ca20  1  0.57611087  0.33178747  0.81836749  1
  Ca2+  Ca21  1  0.57083529  0.82592303  0.15814118  1
  Ca2+  Ca22  1  0.58055024  0.82515102  0.49434144  1
  Ca2+  Ca23  1  0.57907640  0.82349189  0.83228658  1
  Ca2+  Ca24  1  0.32340936  0.42493067  0.17288145  1
  Ca2+  Ca25  1  0.32903052  0.41769832  0.49978054  1
  Ca2+  Ca26  1  0.32899118  0.41466718  0.83816338  1
  Ca2+  Ca27  1  0.33254149  0.91392064  0.16621215  1
  Ca2+  Ca28  1  0.32821422  0.91426251  0.50588309  1
  Ca2+  Ca29  1  0.32558221  0.91961089  0.84202678  1
  Ca2+  Ca30  1  0.82853953  0.43135502  0.17350509  1
  Ca2+  Ca31  1  0.82639052  0.42274559  0.50861319  1
  Ca2+  Ca32  1  0.83268240  0.42446976  0.83269666  1
  Ca2+  Ca33  1  0.83515185  0.91405822  0.17166180  1
  Ca2+  Ca34  1  0.84083588  0.92387809  0.50527194  1
  Ca2+  Ca35  1  0.83364123  0.92357489  0.83379746  1
  Ca2+  Ca36  1  0.41408249  0.16769318  0.15981583  1
  Ca2+  Ca37  1  0.42024959  0.17381346  0.50169877  1
  Ca2+  Ca38  1  0.41839579  0.17106408  0.82708644  1
  Ca2+  Ca39  1  0.41485787  0.67349678  0.16081377  1
  Ca2+  Ca40  1  0.42124861  0.66699392  0.49423778  1
  Ca2+  Ca41  1  0.42820125  0.66614520  0.82822574  1
  Ca2+  Ca42  1  0.93263769  0.17121836  0.16182497  1
  Ca2+  Ca43  1  0.91617412  0.17363505  0.49762996  1
  Ca2+  Ca44  1  0.91976136  0.17301376  0.82561586  1
  Ca2+  Ca45  1  0.91422101  0.66685807  0.16146886  1
  Ca2+  Ca46  1  0.91801536  0.66439362  0.49775772  1
  Ca2+  Ca47  1  0.92601843  0.65774212  0.82921956  1
  Al0+  Al48  1  0.00086811  0.00086547  0.00039239  1
  Al0+  Al49  1  0.00091033  -0.00010031  0.32446264  1
  Al0+  Al50  1  0.00030746  -0.00182844  0.67803246  1
  Al0+  Al51  1  -0.00274682  0.49964273  0.00660854  1
  Al0+  Al52  1  -0.00103539  0.49858835  0.34009832  1
  Al0+  Al53  1  0.00086975  0.49925969  0.65988385  1
  Al0+  Al54  1  0.50058637  0.00102262  -0.00123958  1
  Al0+  Al55  1  0.49948176  -0.00021373  0.33059546  1
  Al0+  Al56  1  0.49900257  0.00076191  0.66387970  1
  Al0+  Al57  1  0.50043889  0.49886637  -0.00349884  1
  Al0+  Al58  1  0.49996000  0.49819224  0.33793122  1
  Al0+  Al59  1  0.49852838  0.50089689  0.66051698  1
  Al0+  Al60  1  0.25051942  0.24794574  0.00120622  1
  Al0+  Al61  1  0.25226380  0.24871975  0.33456868  1
  Al0+  Al62  1  0.25094495  0.24893501  0.66180832  1
  Al0+  Al63  1  0.24826201  0.75123363  -0.00327507  1
  Al0+  Al64  1  0.24902627  0.75090998  0.33254400  1
  Al0+  Al65  1  0.24913041  0.74849275  0.66718608  1
  Al0+  Al66  1  0.75086061  0.25116199  0.00294134  1
  Al0+  Al67  1  0.75160936  0.24924612  0.33265435  1
  Al0+  Al68  1  0.75043811  0.25018865  0.66749721  1
  Al0+  Al69  1  0.74959566  0.75213203  0.00011878  1
  Al0+  Al70  1  0.74953649  0.75155698  0.33351261  1
  Al0+  Al71  1  0.75094939  0.75182281  0.66684666  1
  Al0+  Al72  1  0.92919573  0.82024876  0.32058267  1
  Al0+  Al73  1  0.18005462  0.92799625  0.68044110  1
  Al0+  Al74  1  0.82037282  0.57465554  0.35063865  1
  Al0+  Al75  1  0.57170444  0.67777886  0.98540402  1
  Al0+  Al76  1  0.42634560  0.32291363  0.64923776  1
  Al0+  Al77  1  0.82272399  0.57235300  0.68356445  1
  Al0+  Al78  1  0.17905450  0.42961106  0.01096916  1
  Al0+  Al79  1  0.07106852  0.67864240  0.65225958  1
  Al0+  Al80  1  0.93017895  0.32049537  0.65340922  1
  Al0+  Al81  1  0.17930893  0.42619410  0.35064311  1
  Al0+  Al82  1  0.07235970  0.17994428  0.98422980  1
  Al0+  Al83  1  0.82013588  0.07137575  0.68022658  1
  Al0+  Al84  1  0.07174078  0.18034886  0.31965969  1
  Al0+  Al85  1  0.57319851  0.68027618  0.65095484  1
  Al0+  Al86  1  0.67765012  0.43046751  0.68320830  1
  Al0+  Al87  1  0.81909104  0.57151806  0.01386778  1
  Al0+  Al88  1  0.17776346  0.92633192  0.01876713  1
  Al0+  Al89  1  0.57143397  0.17899423  0.65147644  1
  Al0+  Al90  1  0.06789706  0.67777186  0.98864102  1
  Al0+  Al91  1  0.42792704  0.82121991  0.31948045  1
  Al0+  Al92  1  0.31917689  0.57357702  0.34788294  1
  Al0+  Al93  1  0.42743112  0.82221490  0.98296552  1
  Al0+  Al94  1  0.32173842  0.06947111  0.01544342  1
  Al0+  Al95  1  0.67954955  0.42683031  0.34941624  1
  Si0+  Si96  1  0.92684218  0.82350908  0.98177987  1
  Si0+  Si97  1  0.57365030  0.17929536  0.98640320  1
  Si0+  Si98  1  0.82158044  0.07343984  0.01751437  1
  Si0+  Si99  1  0.57222472  0.17851510  0.31721040  1
  Si0+  Si100  1  0.42782445  0.82048563  0.65042181  1
  Si0+  Si101  1  0.17823949  0.93111261  0.34735211  1
  Si0+  Si102  1  0.57094793  0.67722425  0.31761340  1
  Si0+  Si103  1  0.67591064  0.42674303  0.01603982  1
  Si0+  Si104  1  0.67502472  0.92797923  0.68346294  1
  Si0+  Si105  1  0.42980797  0.31967735  0.98710828  1
  Si0+  Si106  1  0.32413711  0.57167898  0.01299641  1
  Si0+  Si107  1  0.42974693  0.32038768  0.31625143  1
  Si0+  Si108  1  0.32010385  0.57080434  0.68225957  1
  Si0+  Si109  1  0.32227759  0.07256829  0.68203884  1
  Si0+  Si110  1  0.68026590  0.93088766  0.01530608  1
  Si0+  Si111  1  0.07096186  0.17538507  0.65223075  1
  Si0+  Si112  1  0.67702207  0.93113084  0.34731894  1
  Si0+  Si113  1  0.32356252  0.07061428  0.35036088  1
  Si0+  Si114  1  0.17935256  0.42744282  0.68029075  1
  Si0+  Si115  1  0.07125278  0.67659244  0.31726315  1
  Si0+  Si116  1  0.92702927  0.32124866  0.98414833  1
  Si0+  Si117  1  0.82217565  0.06822156  0.34582852  1
  Si0+  Si118  1  0.92919946  0.82405525  0.65283038  1
  Si0+  Si119  1  0.92745006  0.32254663  0.31526990  1
  O2-  O120  1  0.25156383  -0.00271853  0.06839674  1
  O2-  O121  1  0.25127568  -0.00000756  0.39086135  1
  O2-  O122  1  0.25409946  0.00401075  0.72559968  1
  O2-  O123  1  0.25198446  0.50664817  0.05698850  1
  O2-  O124  1  0.24686274  0.50271412  0.40030277  1
  O2-  O125  1  0.25115292  0.49714454  0.72347412  1
  O2-  O126  1  0.75204632  0.00081054  0.05944357  1
  O2-  O127  1  0.75047935  -0.00085985  0.39002961  1
  O2-  O128  1  0.74250810  -0.00113585  0.72693954  1
  O2-  O129  1  0.74076609  0.49921461  0.05888448  1
  O2-  O130  1  0.74950198  0.50062796  0.39870928  1
  O2-  O131  1  0.74748842  0.50374507  0.73441018  1
  O2-  O132  1  0.00220080  0.25989982  0.27155596  1
  O2-  O133  1  0.00406391  0.24422878  0.60655810  1
  O2-  O134  1  -0.00376973  0.25339691  0.93903078  1
  O2-  O135  1  -0.00205276  0.74071110  0.27358287  1
  O2-  O136  1  -0.00603141  0.75236835  0.60800618  1
  O2-  O137  1  -0.00398706  0.75489811  0.93952267  1
  O2-  O138  1  0.50339654  0.25114964  0.27408982  1
  O2-  O139  1  0.50175156  0.25267681  0.60062974  1
  O2-  O140  1  0.50400335  0.25156753  0.94577177  1
  O2-  O141  1  0.49913730  0.74286972  0.27341207  1
  O2-  O142  1  0.49926745  0.75628837  0.60445103  1
  O2-  O143  1  0.49644404  0.74644276  0.93482949  1
  O2-  O144  1  0.07172692  0.18215303  0.09764256  1
  O2-  O145  1  0.06625498  0.17582396  0.43282139  1
  O2-  O146  1  0.07063228  0.17772389  0.75769248  1
  O2-  O147  1  0.06471571  0.67667415  0.10179090  1
  O2-  O148  1  0.07390261  0.68171214  0.42286333  1
  O2-  O149  1  0.07241769  0.67789400  0.76539196  1
  O2-  O150  1  0.57520986  0.17936157  0.09197103  1
  O2-  O151  1  0.57160100  0.17518526  0.42158129  1
  O2-  O152  1  0.56822047  0.17904307  0.76562548  1
  O2-  O153  1  0.57173228  0.67984019  0.09928249  1
  O2-  O154  1  0.57157618  0.68160311  0.42312662  1
  O2-  O155  1  0.57118512  0.68175491  0.76398688  1
  O2-  O156  1  0.18408380  0.42551282  0.23670762  1
  O2-  O157  1  0.18096488  0.42728136  0.57553626  1
  O2-  O158  1  0.18054970  0.42938638  0.89740605  1
  O2-  O159  1  0.17805087  0.93230286  0.24287340  1
  O2-  O160  1  0.17970643  0.93013636  0.56628226  1
  O2-  O161  1  0.17851352  0.92867449  0.90514208  1
  O2-  O162  1  0.68115531  0.42646093  0.23504540  1
  O2-  O163  1  0.68154852  0.43121009  0.56985662  1
  O2-  O164  1  0.67616197  0.42120297  0.91138103  1
  O2-  O165  1  0.67619144  0.93444799  0.24201196  1
  O2-  O166  1  0.67530688  0.92889458  0.57746160  1
  O2-  O167  1  0.68144994  0.93256594  0.91040207  1
  O2-  O168  1  0.43102108  0.31991965  0.09245981  1
  O2-  O169  1  0.42749679  0.31705932  0.42071987  1
  O2-  O170  1  0.42285445  0.31926638  0.76349434  1
  O2-  O171  1  0.43136138  0.82165564  0.09695515  1
  O2-  O172  1  0.43179510  0.82439081  0.43260995  1
  O2-  O173  1  0.42834728  0.81849196  0.75563565  1
  O2-  O174  1  0.92372118  0.31750312  0.08961732  1
  O2-  O175  1  0.92447877  0.31657774  0.42067182  1
  O2-  O176  1  0.93367509  0.32026556  0.76686627  1
  O2-  O177  1  0.92544870  0.82257466  0.08777930  1
  O2-  O178  1  0.93426203  0.82747502  0.43324650  1
  O2-  O179  1  0.93047012  0.82690008  0.75811007  1
  O2-  O180  1  0.32584605  0.07139591  0.24561764  1
  O2-  O181  1  0.32217819  0.07150309  0.57600012  1
  O2-  O182  1  0.32130419  0.07097520  0.90187751  1
  O2-  O183  1  0.31865005  0.57238252  0.23373805  1
  O2-  O184  1  0.31773293  0.57428558  0.57731440  1
  O2-  O185  1  0.32724998  0.56655555  0.90733164  1
  O2-  O186  1  0.81942616  0.06722288  0.24049893  1
  O2-  O187  1  0.82259698  0.06774266  0.56649939  1
  O2-  O188  1  0.81913767  0.07557368  0.91261221  1
  O2-  O189  1  0.81727475  0.57553098  0.23652195  1
  O2-  O190  1  0.82218135  0.57156953  0.57035011  1
  O2-  O191  1  0.82136762  0.56918980  0.90131692  1
  O2-  O192  1  0.03627130  0.08723849  0.26149874  1
  O2-  O193  1  0.04301267  0.08106485  0.60912593  1
  O2-  O194  1  0.04059129  0.08273356  0.93264003  1
  O2-  O195  1  0.05080398  0.57978459  0.27582124  1
  O2-  O196  1  0.04397603  0.58308020  0.59559216  1
  O2-  O197  1  0.03504918  0.58094397  0.93528727  1
  O2-  O198  1  0.54186307  0.08799164  0.26790279  1
  O2-  O199  1  0.54278081  0.08041361  0.59679241  1
  O2-  O200  1  0.54697280  0.08843509  0.93800913  1
  O2-  O201  1  0.54994260  0.58147105  0.27445754  1
  O2-  O202  1  0.54023470  0.58551858  0.59638626  1
  O2-  O203  1  0.54741391  0.57814020  0.93224671  1
  O2-  O204  1  0.17092311  0.20639236  0.26761428  1
  O2-  O205  1  0.16509330  0.19741473  0.60575040  1
  O2-  O206  1  0.16881689  0.21054189  0.93056291  1
  O2-  O207  1  0.16266529  0.70699881  0.26986245  1
  O2-  O208  1  0.16651331  0.71316774  0.59737070  1
  O2-  O209  1  0.16568680  0.70352072  0.93424524  1
  O2-  O210  1  0.66503265  0.20335570  0.26893848  1
  O2-  O211  1  0.67097599  0.20305829  0.59964556  1
  O2-  O212  1  0.66635354  0.20592485  0.93986397  1
  O2-  O213  1  0.66281969  0.70813091  0.27105868  1
  O2-  O214  1  0.66967869  0.71247709  0.59723838  1
  O2-  O215  1  0.66814914  0.71316063  0.93239387  1
  O2-  O216  1  0.08316869  0.45654668  0.06806617  1
  O2-  O217  1  0.07826468  0.44605155  0.40025426  1
  O2-  O218  1  0.08796218  0.45640056  0.72647482  1
  O2-  O219  1  0.07848300  0.95665367  0.06977189  1
  O2-  O220  1  0.08719837  0.96350715  0.39393441  1
  O2-  O221  1  0.08556291  0.95641636  0.73868968  1
  O2-  O222  1  0.58082788  0.44866253  0.06172272  1
  O2-  O223  1  0.57892703  0.44763223  0.39971758  1
  O2-  O224  1  0.57539856  0.45452664  0.73051112  1
  O2-  O225  1  0.58967743  0.96147308  0.06365614  1
  O2-  O226  1  0.58699178  0.96234232  0.39616731  1
  O2-  O227  1  0.58067044  0.95218323  0.72881674  1
  O2-  O228  1  0.21450648  0.33491111  0.06525696  1
  O2-  O229  1  0.21276839  0.32891089  0.40363687  1
  O2-  O230  1  0.20615966  0.33403269  0.72623092  1
  O2-  O231  1  0.20371868  0.82644696  0.07048406  1
  O2-  O232  1  0.20354106  0.83876781  0.39449487  1
  O2-  O233  1  0.21298475  0.83213580  0.73431151  1
  O2-  O234  1  0.70450462  0.33452974  0.06555372  1
  O2-  O235  1  0.70858209  0.32704751  0.40039785  1
  O2-  O236  1  0.70566987  0.33111299  0.73421024  1
  O2-  O237  1  0.70707127  0.83994974  0.06481575  1
  O2-  O238  1  0.70141781  0.83864633  0.39370757  1
  O2-  O239  1  0.70359724  0.83646333  0.73124747  1
  O2-  O240  1  0.45552130  0.41304913  0.26903045  1
  O2-  O241  1  0.44963094  0.42137956  0.59560846  1
  O2-  O242  1  0.45342306  0.41141620  0.93756797  1
  O2-  O243  1  0.46254391  0.91659696  0.26427401  1
  O2-  O244  1  0.44761532  0.91625836  0.60585874  1
  O2-  O245  1  0.46167884  0.91966910  0.93081772  1
  O2-  O246  1  0.94662788  0.41920789  0.27341350  1
  O2-  O247  1  0.96253435  0.41372546  0.59509285  1
  O2-  O248  1  0.95286493  0.41498780  0.94051297  1
  O2-  O249  1  0.96236646  0.91386091  0.26132385  1
  O2-  O250  1  0.96017818  0.91663724  0.60623511  1
  O2-  O251  1  0.95031999  0.91851857  0.93786499  1
  O2-  O252  1  0.33981017  0.28836678  0.26781027  1
  O2-  O253  1  0.33034975  0.28902698  0.59263578  1
  O2-  O254  1  0.34016804  0.28837763  0.93843697  1
  O2-  O255  1  0.33006935  0.79443943  0.26594958  1
  O2-  O256  1  0.33583192  0.79065783  0.60357005  1
  O2-  O257  1  0.32759073  0.79993952  0.93189551  1
  O2-  O258  1  0.83664947  0.28999750  0.26649893  1
  O2-  O259  1  0.83470200  0.28779821  0.59947819  1
  O2-  O260  1  0.83383977  0.29316482  0.93742006  1
  O2-  O261  1  0.82986291  0.79677034  0.26676879  1
  O2-  O262  1  0.83391363  0.80600457  0.60720321  1
  O2-  O263  1  0.83263231  0.80053122  0.93640275  1
  O2-  O264  1  0.42237559  0.04525185  0.06794410  1
  O2-  O265  1  0.41502885  0.04106831  0.39789327  1
  O2-  O266  1  0.41656213  0.04861487  0.72776447  1
  O2-  O267  1  0.41604881  0.54244239  0.06154747  1
  O2-  O268  1  0.41766264  0.54453545  0.39989252  1
  O2-  O269  1  0.41261944  0.54445807  0.72806815  1
  O2-  O270  1  0.91354401  0.04630342  0.06409508  1
  O2-  O271  1  0.91347644  0.03776029  0.39193427  1
  O2-  O272  1  0.91357256  0.03858147  0.73947837  1
  O2-  O273  1  0.91214282  0.53745000  0.07257669  1
  O2-  O274  1  0.91989646  0.54941123  0.40144212  1
  O2-  O275  1  0.92182920  0.53804393  0.73256251  1
  O2-  O276  1  0.29189839  0.16715013  0.06996811  1
  O2-  O277  1  0.29685662  0.16201885  0.39807475  1
  O2-  O278  1  0.29730786  0.16673729  0.72721522  1
  O2-  O279  1  0.30231669  0.66708771  0.05520453  1
  O2-  O280  1  0.29179632  0.67238872  0.40221855  1
  O2-  O281  1  0.29023726  0.66097109  0.73123756  1
  O2-  O282  1  0.79144763  0.16385650  0.06712920  1
  O2-  O283  1  0.79559071  0.16045194  0.39208067  1
  O2-  O284  1  0.79040743  0.16661679  0.73695308  1
  O2-  O285  1  0.79076547  0.66998712  0.06648803  1
  O2-  O286  1  0.79240438  0.67393413  0.40282771  1
  O2-  O287  1  0.79874986  0.67364061  0.73336999  1
