# generated using pymatgen
data_Ca2Al2SiO7
_symmetry_space_group_name_H-M   'P 1'
_cell_length_a   15.46036016
_cell_length_b   15.46069017
_cell_length_c   15.28546399
_cell_angle_alpha   90.01056671
_cell_angle_beta   89.99777337
_cell_angle_gamma   89.97831908
_symmetry_Int_Tables_number   1
_chemical_formula_structural   Ca2Al2SiO7
_chemical_formula_sum   'Ca48 Al48 Si24 O168'
_cell_volume   3653.65109043
_cell_formula_units_Z   24
loop_
 _symmetry_equiv_pos_site_id
 _symmetry_equiv_pos_as_xyz
  1  'x, y, z'
loop_
 _atom_type_symbol
 _atom_type_oxidation_number
  Ca2+  2.0
  Al0+  0.0
  Si0+  0.0
  O2-  -2.0
loop_
 _atom_site_type_symbol
 _atom_site_label
 _atom_site_symmetry_multiplicity
 _atom_site_fract_x
 _atom_site_fract_y
 _atom_site_fract_z
 _atom_site_occupancy
  Ca2+  Ca0  1  0.17525996  0.08388735  0.16822208  1
  Ca2+  Ca1  1  0.16685527  0.08485567  0.50476770  1
  Ca2+  Ca2  1  0.17248587  0.09077841  0.83929501  1
  Ca2+  Ca3  1  0.16564601  0.58296872  0.17285384  1
  Ca2+  Ca4  1  0.17276009  0.58295964  0.50281631  1
  Ca2+  Ca5  1  0.16309162  0.57155175  0.83955693  1
  Ca2+  Ca6  1  0.67636340  0.07436495  0.17578572  1
  Ca2+  Ca7  1  0.66458623  0.08399993  0.49861960  1
  Ca2+  Ca8  1  0.67266924  0.08053998  0.84296958  1
  Ca2+  Ca9  1  0.65889298  0.57815991  0.17018533  1
  Ca2+  Ca10  1  0.66283773  0.57863294  0.50500036  1
  Ca2+  Ca11  1  0.66773848  0.56915547  0.83714780  1
  Ca2+  Ca12  1  0.08220608  0.33527564  0.16049700  1
  Ca2+  Ca13  1  0.08353747  0.33307146  0.50426185  1
  Ca2+  Ca14  1  0.08090111  0.33164685  0.82468340  1
  Ca2+  Ca15  1  0.07558296  0.82286526  0.16112165  1
  Ca2+  Ca16  1  0.07197248  0.82935227  0.49058673  1
  Ca2+  Ca17  1  0.07085508  0.83163930  0.83025601  1
  Ca2+  Ca18  1  0.57256582  0.33198234  0.16207441  1
  Ca2+  Ca19  1  0.57960711  0.32789252  0.49447318  1
  Ca2+  Ca20  1  0.57558004  0.33191892  0.82436090  1
  Ca2+  Ca21  1  0.58986058  0.83339014  0.16770324  1
  Ca2+  Ca22  1  0.57889580  0.82705971  0.48678705  1
  Ca2+  Ca23  1  0.58775355  0.83497550  0.83282294  1
  Ca2+  Ca24  1  0.33150551  0.41781107  0.17116648  1
  Ca2+  Ca25  1  0.33616319  0.41828448  0.50372350  1
  Ca2+  Ca26  1  0.32380929  0.40551337  0.83773683  1
  Ca2+  Ca27  1  0.33738285  0.92065630  0.17299699  1
  Ca2+  Ca28  1  0.33440207  0.91456974  0.50185194  1
  Ca2+  Ca29  1  0.33026397  0.92875064  0.84223226  1
  Ca2+  Ca30  1  0.82438100  0.41658607  0.16951344  1
  Ca2+  Ca31  1  0.82773042  0.41761109  0.50938718  1
  Ca2+  Ca32  1  0.82027666  0.40480743  0.83644800  1
  Ca2+  Ca33  1  0.83236093  0.92069413  0.17341310  1
  Ca2+  Ca34  1  0.83351387  0.91607971  0.49973122  1
  Ca2+  Ca35  1  0.83271666  0.92085228  0.84294119  1
  Ca2+  Ca36  1  0.42031042  0.17329720  0.16140609  1
  Ca2+  Ca37  1  0.42930090  0.17837598  0.49490612  1
  Ca2+  Ca38  1  0.42118246  0.17457623  0.82764829  1
  Ca2+  Ca39  1  0.41708125  0.66871343  0.17177157  1
  Ca2+  Ca40  1  0.42083761  0.66806752  0.48692787  1
  Ca2+  Ca41  1  0.41816705  0.66884989  0.83314490  1
  Ca2+  Ca42  1  0.91363897  0.15984312  0.16522505  1
  Ca2+  Ca43  1  0.91719946  0.17044363  0.49966204  1
  Ca2+  Ca44  1  0.92119188  0.16894139  0.82588593  1
  Ca2+  Ca45  1  0.92331443  0.67549395  0.16013959  1
  Ca2+  Ca46  1  0.91963802  0.67785444  0.49074314  1
  Ca2+  Ca47  1  0.91566852  0.67669973  0.83273137  1
  Al0+  Al48  1  0.00208068  -0.00052664  -0.00039249  1
  Al0+  Al49  1  0.00051467  0.00209046  0.33419312  1
  Al0+  Al50  1  -0.00032487  -0.00137953  0.65963140  1
  Al0+  Al51  1  -0.00065911  0.49868020  -0.00070868  1
  Al0+  Al52  1  -0.00103192  0.49759529  0.33215832  1
  Al0+  Al53  1  0.00152401  0.50269197  0.66796909  1
  Al0+  Al54  1  0.50081755  0.00073675  0.00699658  1
  Al0+  Al55  1  0.50163364  0.00170448  0.33241205  1
  Al0+  Al56  1  0.50000147  -0.00009027  0.66530169  1
  Al0+  Al57  1  0.49714678  0.50020699  -0.00197278  1
  Al0+  Al58  1  0.49658315  0.50007682  0.33092183  1
  Al0+  Al59  1  0.50059716  0.50211127  0.66975207  1
  Al0+  Al60  1  0.25015918  0.25157903  0.00633151  1
  Al0+  Al61  1  0.24815159  0.24996512  0.33231610  1
  Al0+  Al62  1  0.25155210  0.25110530  0.66187698  1
  Al0+  Al63  1  0.25086021  0.74828604  -0.00703906  1
  Al0+  Al64  1  0.25045510  0.74848483  0.33153840  1
  Al0+  Al65  1  0.24948251  0.75161099  0.67150523  1
  Al0+  Al66  1  0.74857290  0.24851078  0.01007145  1
  Al0+  Al67  1  0.75058469  0.24889179  0.33427488  1
  Al0+  Al68  1  0.75092097  0.24820514  0.66463982  1
  Al0+  Al69  1  0.74962572  0.74837854  -0.00279215  1
  Al0+  Al70  1  0.74964363  0.74971903  0.32913658  1
  Al0+  Al71  1  0.74968068  0.75048039  0.66410892  1
  Al0+  Al72  1  0.42977628  0.32327561  0.65136147  1
  Al0+  Al73  1  0.82290445  0.07147995  0.35407434  1
  Al0+  Al74  1  0.42866872  0.32066448  0.98449410  1
  Al0+  Al75  1  0.67928031  0.92654791  0.01504792  1
  Al0+  Al76  1  0.82386033  0.07037529  0.01423811  1
  Al0+  Al77  1  0.57350289  0.17959831  0.31513705  1
  Al0+  Al78  1  0.07097004  0.67691191  0.31945563  1
  Al0+  Al79  1  0.42772369  0.32071419  0.31664968  1
  Al0+  Al80  1  0.42841860  0.82230704  0.31925555  1
  Al0+  Al81  1  0.07246338  0.67603109  0.98170509  1
  Al0+  Al82  1  0.31864741  0.56962040  0.34662211  1
  Al0+  Al83  1  0.67611174  0.42883589  0.01454037  1
  Al0+  Al84  1  0.92904563  0.82259837  0.31638930  1
  Al0+  Al85  1  0.07209903  0.17933925  0.65233049  1
  Al0+  Al86  1  0.18069970  0.42994449  0.68003503  1
  Al0+  Al87  1  0.57153860  0.67791526  0.31835608  1
  Al0+  Al88  1  0.17841734  0.43050709  0.01424751  1
  Al0+  Al89  1  0.92816170  0.32323882  0.65356836  1
  Al0+  Al90  1  0.68031867  0.42787665  0.67915714  1
  Al0+  Al91  1  0.57259218  0.17669466  0.65299843  1
  Al0+  Al92  1  0.92886485  0.82161510  0.98378021  1
  Al0+  Al93  1  0.67933536  0.92780693  0.35135676  1
  Al0+  Al94  1  0.92849598  0.81962523  0.65078509  1
  Al0+  Al95  1  0.32007747  0.07161530  0.01391952  1
  Si0+  Si96  1  0.56939981  0.68076469  0.65391527  1
  Si0+  Si97  1  0.17731884  0.92895311  0.68190446  1
  Si0+  Si98  1  0.17961663  0.92646202  0.01551769  1
  Si0+  Si99  1  0.57041523  0.67826917  0.98270129  1
  Si0+  Si100  1  0.18113406  0.92978171  0.34756732  1
  Si0+  Si101  1  0.92638042  0.31979165  0.98761683  1
  Si0+  Si102  1  0.92860176  0.32085113  0.31773638  1
  Si0+  Si103  1  0.82149830  0.57444181  0.68259616  1
  Si0+  Si104  1  0.82241448  0.06920394  0.68120892  1
  Si0+  Si105  1  0.82043272  0.57024631  0.01603243  1
  Si0+  Si106  1  0.82240266  0.56992454  0.34681838  1
  Si0+  Si107  1  0.42800811  0.82164419  0.65467177  1
  Si0+  Si108  1  0.42960245  0.82387251  0.98402280  1
  Si0+  Si109  1  0.32300863  0.57471660  0.68584141  1
  Si0+  Si110  1  0.32179196  0.57448494  0.01707488  1
  Si0+  Si111  1  0.32065167  0.06952174  0.67966605  1
  Si0+  Si112  1  0.57179109  0.17832640  0.98453367  1
  Si0+  Si113  1  0.67858807  0.92820065  0.68107544  1
  Si0+  Si114  1  0.32143266  0.07301041  0.35033736  1
  Si0+  Si115  1  0.67852602  0.43072228  0.34790493  1
  Si0+  Si116  1  0.07105218  0.17948235  0.31668991  1
  Si0+  Si117  1  0.07139870  0.18040376  0.98809220  1
  Si0+  Si118  1  0.17526242  0.42610434  0.35236544  1
  Si0+  Si119  1  0.07421771  0.67890076  0.64972158  1
  O2-  O120  1  0.24942477  -0.00702746  0.06107839  1
  O2-  O121  1  0.25386214  -0.00174509  0.39254848  1
  O2-  O122  1  0.24687966  0.00170521  0.72376874  1
  O2-  O123  1  0.24981369  0.50855399  0.05941578  1
  O2-  O124  1  0.24423626  0.49523202  0.39457304  1
  O2-  O125  1  0.25580315  0.50405871  0.72854471  1
  O2-  O126  1  0.75432226  -0.00419772  0.06321261  1
  O2-  O127  1  0.75117586  -0.00112388  0.40393646  1
  O2-  O128  1  0.74909251  -0.00014353  0.72271251  1
  O2-  O129  1  0.75084738  0.50334297  0.06176760  1
  O2-  O130  1  0.74835557  0.50281991  0.39057073  1
  O2-  O131  1  0.75931006  0.49916780  0.72645011  1
  O2-  O132  1  -0.00049329  0.24989890  0.27516616  1
  O2-  O133  1  0.00096944  0.25245634  0.60226319  1
  O2-  O134  1  -0.00343985  0.24734981  0.94658786  1
  O2-  O135  1  -0.00075149  0.74801021  0.26859077  1
  O2-  O136  1  0.00364862  0.74493597  0.60531728  1
  O2-  O137  1  0.00105694  0.74956236  0.93301182  1
  O2-  O138  1  0.49903620  0.24902666  0.26555731  1
  O2-  O139  1  0.50569852  0.25419690  0.60398086  1
  O2-  O140  1  0.50540328  0.24785661  0.93788115  1
  O2-  O141  1  0.50344741  0.75399923  0.26846438  1
  O2-  O142  1  0.49577613  0.74869154  0.61246042  1
  O2-  O143  1  0.50209815  0.75362745  0.94166589  1
  O2-  O144  1  0.07258749  0.18177441  0.09328900  1
  O2-  O145  1  0.07372389  0.18014415  0.42154480  1
  O2-  O146  1  0.07153476  0.17831918  0.76646469  1
  O2-  O147  1  0.07146962  0.67748750  0.09508187  1
  O2-  O148  1  0.06919396  0.67879363  0.43353525  1
  O2-  O149  1  0.07505344  0.68170728  0.75504664  1
  O2-  O150  1  0.56927442  0.18022317  0.08949734  1
  O2-  O151  1  0.57237354  0.18352232  0.42910101  1
  O2-  O152  1  0.56931688  0.17260092  0.76684337  1
  O2-  O153  1  0.56907726  0.67557833  0.08702064  1
  O2-  O154  1  0.56857383  0.67574154  0.43270043  1
  O2-  O155  1  0.56996629  0.68235836  0.75934517  1
  O2-  O156  1  0.17367135  0.42522151  0.24679039  1
  O2-  O157  1  0.18146535  0.43267234  0.56717771  1
  O2-  O158  1  0.17959612  0.42703464  0.90108419  1
  O2-  O159  1  0.18206113  0.93306328  0.24251304  1
  O2-  O160  1  0.18074194  0.92584457  0.57684684  1
  O2-  O161  1  0.18071579  0.93008263  0.90933973  1
  O2-  O162  1  0.68050428  0.43193579  0.24261616  1
  O2-  O163  1  0.67924446  0.43305960  0.56594957  1
  O2-  O164  1  0.67782725  0.42852885  0.90108956  1
  O2-  O165  1  0.68177633  0.92854912  0.23820135  1
  O2-  O166  1  0.67703067  0.92518471  0.57689215  1
  O2-  O167  1  0.67828952  0.92983827  0.90014679  1
  O2-  O168  1  0.42833171  0.31974441  0.09706822  1
  O2-  O169  1  0.42930665  0.32053483  0.43029512  1
  O2-  O170  1  0.42833913  0.31882868  0.76515506  1
  O2-  O171  1  0.42658158  0.82306971  0.08819122  1
  O2-  O172  1  0.42671289  0.81816156  0.43378693  1
  O2-  O173  1  0.42948598  0.82317404  0.76004516  1
  O2-  O174  1  0.92804207  0.32145995  0.09289622  1
  O2-  O175  1  0.92946819  0.32323173  0.42261253  1
  O2-  O176  1  0.92674341  0.31796517  0.76756374  1
  O2-  O177  1  0.93119574  0.82064973  0.09659088  1
  O2-  O178  1  0.93178378  0.82064922  0.43051679  1
  O2-  O179  1  0.92801014  0.82010520  0.76368665  1
  O2-  O180  1  0.31678175  0.07440689  0.24520183  1
  O2-  O181  1  0.32095050  0.06466140  0.57475101  1
  O2-  O182  1  0.31803998  0.07117856  0.89997595  1
  O2-  O183  1  0.31758813  0.56924929  0.23376232  1
  O2-  O184  1  0.32242022  0.57933181  0.58058841  1
  O2-  O185  1  0.32349179  0.57515698  0.91118519  1
  O2-  O186  1  0.82439439  0.07049257  0.24077280  1
  O2-  O187  1  0.82451689  0.06773614  0.57678450  1
  O2-  O188  1  0.82304984  0.07250675  0.89981391  1
  O2-  O189  1  0.82494345  0.56439011  0.24193666  1
  O2-  O190  1  0.81645033  0.57730123  0.57690702  1
  O2-  O191  1  0.81802521  0.56941564  0.91010447  1
  O2-  O192  1  0.04486853  0.08792632  0.26875085  1
  O2-  O193  1  0.04457896  0.08158146  0.59772586  1
  O2-  O194  1  0.05065749  0.08714840  0.94021636  1
  O2-  O195  1  0.04322639  0.57766407  0.26776119  1
  O2-  O196  1  0.05325561  0.58429837  0.60505598  1
  O2-  O197  1  0.04045450  0.57783849  0.92944473  1
  O2-  O198  1  0.54713796  0.08034386  0.26522323  1
  O2-  O199  1  0.53817006  0.08052448  0.59799093  1
  O2-  O200  1  0.54516338  0.08403644  0.93993818  1
  O2-  O201  1  0.53734604  0.58234066  0.26372816  1
  O2-  O202  1  0.54425482  0.58873567  0.60658670  1
  O2-  O203  1  0.53727486  0.58918383  0.93246168  1
  O2-  O204  1  0.16191447  0.20766149  0.26768489  1
  O2-  O205  1  0.16967424  0.20606420  0.59726500  1
  O2-  O206  1  0.16138779  0.21276457  0.94029563  1
  O2-  O207  1  0.16825405  0.70599483  0.26654630  1
  O2-  O208  1  0.16795080  0.70811832  0.60504934  1
  O2-  O209  1  0.17165369  0.70170586  0.92791419  1
  O2-  O210  1  0.67200521  0.20933883  0.26401967  1
  O2-  O211  1  0.67198765  0.19882784  0.60123936  1
  O2-  O212  1  0.66735066  0.20269139  0.94168386  1
  O2-  O213  1  0.67073883  0.69908540  0.26470729  1
  O2-  O214  1  0.65966473  0.70972301  0.60511419  1
  O2-  O215  1  0.66250164  0.70184696  0.93354976  1
  O2-  O216  1  0.08000464  0.45670012  0.06772468  1
  O2-  O217  1  0.08110360  0.45112309  0.39812328  1
  O2-  O218  1  0.08297625  0.45896999  0.73478221  1
  O2-  O219  1  0.08757356  0.95385095  0.06242244  1
  O2-  O220  1  0.09096469  0.96126662  0.39619447  1
  O2-  O221  1  0.08465048  0.95582292  0.72750884  1
  O2-  O222  1  0.58008255  0.46321707  0.06665260  1
  O2-  O223  1  0.58631820  0.45818330  0.39382552  1
  O2-  O224  1  0.58557851  0.46372787  0.73509149  1
  O2-  O225  1  0.58147970  0.95360703  0.06864573  1
  O2-  O226  1  0.57892097  0.95566658  0.40281048  1
  O2-  O227  1  0.58583584  0.95452461  0.72872765  1
  O2-  O228  1  0.21075194  0.33627774  0.07143846  1
  O2-  O229  1  0.20105014  0.33199231  0.39755647  1
  O2-  O230  1  0.21049584  0.33144733  0.73241420  1
  O2-  O231  1  0.20450846  0.83136610  0.05755394  1
  O2-  O232  1  0.20683483  0.83762436  0.39530345  1
  O2-  O233  1  0.20650447  0.83902166  0.73299118  1
  O2-  O234  1  0.70708508  0.33448583  0.07149622  1
  O2-  O235  1  0.70925669  0.33978848  0.39437834  1
  O2-  O236  1  0.70842402  0.33010919  0.73320720  1
  O2-  O237  1  0.70150520  0.82500050  0.06344476  1
  O2-  O238  1  0.70488389  0.82624522  0.40136437  1
  O2-  O239  1  0.70717448  0.83643815  0.72922858  1
  O2-  O240  1  0.45588412  0.41845483  0.26392976  1
  O2-  O241  1  0.45492859  0.42440517  0.60273039  1
  O2-  O242  1  0.45565726  0.41854691  0.93108202  1
  O2-  O243  1  0.44992402  0.92283023  0.26945148  1
  O2-  O244  1  0.45635342  0.91169390  0.60535478  1
  O2-  O245  1  0.45705913  0.91629242  0.93665853  1
  O2-  O246  1  0.95631250  0.41140218  0.26783842  1
  O2-  O247  1  0.95349301  0.42361780  0.60250686  1
  O2-  O248  1  0.95326553  0.41060947  0.93890492  1
  O2-  O249  1  0.96161608  0.92085267  0.26680633  1
  O2-  O250  1  0.96063181  0.91430644  0.59537543  1
  O2-  O251  1  0.96021632  0.91998040  0.93032572  1
  O2-  O252  1  0.32782924  0.29255986  0.26643210  1
  O2-  O253  1  0.33378787  0.29260056  0.59647581  1
  O2-  O254  1  0.33168173  0.28493827  0.93369399  1
  O2-  O255  1  0.33172304  0.79153158  0.26467661  1
  O2-  O256  1  0.33429139  0.79744075  0.60939431  1
  O2-  O257  1  0.33920537  0.79561298  0.93275177  1
  O2-  O258  1  0.83714909  0.29376025  0.27019578  1
  O2-  O259  1  0.83133688  0.29414743  0.59858069  1
  O2-  O260  1  0.83362943  0.29137590  0.94224684  1
  O2-  O261  1  0.83083510  0.79533255  0.26520151  1
  O2-  O262  1  0.83203738  0.78793996  0.59705726  1
  O2-  O263  1  0.83029744  0.79175988  0.93014681  1
  O2-  O264  1  0.41587540  0.04298214  0.06887793  1
  O2-  O265  1  0.41423846  0.04937366  0.39652329  1
  O2-  O266  1  0.41056465  0.03757588  0.72933853  1
  O2-  O267  1  0.41409925  0.54605436  0.06302847  1
  O2-  O268  1  0.41537660  0.53892539  0.40201887  1
  O2-  O269  1  0.41751852  0.55294668  0.73188394  1
  O2-  O270  1  0.92417364  0.04598460  0.06594810  1
  O2-  O271  1  0.92355492  0.04560156  0.40509690  1
  O2-  O272  1  0.91432189  0.03883744  0.72783346  1
  O2-  O273  1  0.91314349  0.54268315  0.06197739  1
  O2-  O274  1  0.91211859  0.53837785  0.39720052  1
  O2-  O275  1  0.91808994  0.55885017  0.72536162  1
  O2-  O276  1  0.28373350  0.16403485  0.07137279  1
  O2-  O277  1  0.28695947  0.16267578  0.39819606  1
  O2-  O278  1  0.29494713  0.16226210  0.72539922  1
  O2-  O279  1  0.30025342  0.67012714  0.06081490  1
  O2-  O280  1  0.28943742  0.66675800  0.40235854  1
  O2-  O281  1  0.29629182  0.66808871  0.73409288  1
  O2-  O282  1  0.79557970  0.16686177  0.07099807  1
  O2-  O283  1  0.79430547  0.17158287  0.40482341  1
  O2-  O284  1  0.79792022  0.16182454  0.72845188  1
  O2-  O285  1  0.79598576  0.66421524  0.06064130  1
  O2-  O286  1  0.79865491  0.66328850  0.39221923  1
  O2-  O287  1  0.78694133  0.66463848  0.73151667  1
