# generated using pymatgen
data_Ca2Al2SiO7
_symmetry_space_group_name_H-M   'P 1'
_cell_length_a   15.46128378
_cell_length_b   15.46136388
_cell_length_c   15.28700824
_cell_angle_alpha   90.00506125
_cell_angle_beta   90.00299381
_cell_angle_gamma   90.00678906
_symmetry_Int_Tables_number   1
_chemical_formula_structural   Ca2Al2SiO7
_chemical_formula_sum   'Ca48 Al48 Si24 O168'
_cell_volume   3654.39802015
_cell_formula_units_Z   24
loop_
 _symmetry_equiv_pos_site_id
 _symmetry_equiv_pos_as_xyz
  1  'x, y, z'
loop_
 _atom_type_symbol
 _atom_type_oxidation_number
  Ca2+  2.0
  Al0+  0.0
  Si0+  0.0
  O2-  -2.0
loop_
 _atom_site_type_symbol
 _atom_site_label
 _atom_site_symmetry_multiplicity
 _atom_site_fract_x
 _atom_site_fract_y
 _atom_site_fract_z
 _atom_site_occupancy
  Ca2+  Ca0  1  0.16511715  0.07732632  0.17079475  1
  Ca2+  Ca1  1  0.17342813  0.09208536  0.50032035  1
  Ca2+  Ca2  1  0.16801256  0.08879513  0.83915014  1
  Ca2+  Ca3  1  0.16932574  0.57723405  0.16377680  1
  Ca2+  Ca4  1  0.16827516  0.57454275  0.50663357  1
  Ca2+  Ca5  1  0.17242759  0.56656513  0.84278916  1
  Ca2+  Ca6  1  0.66982786  0.08704168  0.16401367  1
  Ca2+  Ca7  1  0.66741386  0.07653362  0.50755460  1
  Ca2+  Ca8  1  0.67168379  0.07565334  0.84482683  1
  Ca2+  Ca9  1  0.67341892  0.58297900  0.16163101  1
  Ca2+  Ca10  1  0.67415503  0.58239418  0.50062769  1
  Ca2+  Ca11  1  0.66959194  0.57618292  0.84777654  1
  Ca2+  Ca12  1  0.08325479  0.32156668  0.16089238  1
  Ca2+  Ca13  1  0.08024102  0.32535372  0.49874297  1
  Ca2+  Ca14  1  0.08524329  0.32607724  0.82683564  1
  Ca2+  Ca15  1  0.08157232  0.83744323  0.15496131  1
  Ca2+  Ca16  1  0.08617637  0.83148970  0.49300012  1
  Ca2+  Ca17  1  0.07916407  0.83659381  0.83760197  1
  Ca2+  Ca18  1  0.57752727  0.32987156  0.15242814  1
  Ca2+  Ca19  1  0.57401274  0.33248767  0.49848883  1
  Ca2+  Ca20  1  0.57507555  0.33451689  0.83485037  1
  Ca2+  Ca21  1  0.57869846  0.82974250  0.15771980  1
  Ca2+  Ca22  1  0.57693728  0.83761523  0.49488333  1
  Ca2+  Ca23  1  0.59448819  0.82882578  0.83315860  1
  Ca2+  Ca24  1  0.33227823  0.41525635  0.16077709  1
  Ca2+  Ca25  1  0.32518031  0.41149439  0.50992074  1
  Ca2+  Ca26  1  0.32749831  0.41197725  0.84189209  1
  Ca2+  Ca27  1  0.32321275  0.92009102  0.17620949  1
  Ca2+  Ca28  1  0.33131855  0.92763922  0.50034962  1
  Ca2+  Ca29  1  0.32578900  0.92662326  0.83905564  1
  Ca2+  Ca30  1  0.83229247  0.42219896  0.17111899  1
  Ca2+  Ca31  1  0.84512745  0.41798396  0.50126409  1
  Ca2+  Ca32  1  0.83043760  0.41960354  0.84496016  1
  Ca2+  Ca33  1  0.83221812  0.92024237  0.15898797  1
  Ca2+  Ca34  1  0.82595229  0.91967467  0.50624617  1
  Ca2+  Ca35  1  0.82698308  0.92152930  0.84545191  1
  Ca2+  Ca36  1  0.42062095  0.16927408  0.15827683  1
  Ca2+  Ca37  1  0.40943552  0.16558484  0.49993936  1
  Ca2+  Ca38  1  0.41467441  0.17660161  0.83163488  1
  Ca2+  Ca39  1  0.41783906  0.67210439  0.15560085  1
  Ca2+  Ca40  1  0.41867996  0.67680492  0.49132857  1
  Ca2+  Ca41  1  0.42040433  0.66173086  0.83633950  1
  Ca2+  Ca42  1  0.92655563  0.16410005  0.15855715  1
  Ca2+  Ca43  1  0.92804345  0.17706756  0.49246976  1
  Ca2+  Ca44  1  0.92745116  0.16678295  0.82957429  1
  Ca2+  Ca45  1  0.91036388  0.67080739  0.15999347  1
  Ca2+  Ca46  1  0.91801736  0.66658009  0.49411880  1
  Ca2+  Ca47  1  0.90696070  0.67314328  0.83594481  1
  Al0+  Al48  1  -0.00077267  -0.00063732  -0.00325419  1
  Al0+  Al49  1  -0.00219709  -0.00129017  0.33581302  1
  Al0+  Al50  1  0.00033473  -0.00172190  0.65937199  1
  Al0+  Al51  1  0.00247244  0.50039836  0.00883482  1
  Al0+  Al52  1  -0.00074237  0.50181238  0.33423765  1
  Al0+  Al53  1  0.00157642  0.50229352  0.66930436  1
  Al0+  Al54  1  0.49963250  -0.00050164  -0.00089380  1
  Al0+  Al55  1  0.49787378  -0.00059886  0.33202662  1
  Al0+  Al56  1  0.49874350  -0.00171950  0.67636368  1
  Al0+  Al57  1  0.49975923  0.50227561  -0.00004182  1
  Al0+  Al58  1  0.50238813  0.50009650  0.33405907  1
  Al0+  Al59  1  0.50278827  0.50152893  0.65895201  1
  Al0+  Al60  1  0.24950464  0.24962936  -0.00185077  1
  Al0+  Al61  1  0.24963964  0.25007558  0.33230013  1
  Al0+  Al62  1  0.25065596  0.24997062  0.66710981  1
  Al0+  Al63  1  0.24882992  0.74952520  0.00301424  1
  Al0+  Al64  1  0.25005915  0.74959302  0.33306586  1
  Al0+  Al65  1  0.25130778  0.75112074  0.66578135  1
  Al0+  Al66  1  0.75078186  0.24913070  0.00398507  1
  Al0+  Al67  1  0.74793502  0.25154701  0.33366302  1
  Al0+  Al68  1  0.74952579  0.25088859  0.66223987  1
  Al0+  Al69  1  0.74854593  0.75136750  -0.00092216  1
  Al0+  Al70  1  0.75060635  0.74730986  0.33883920  1
  Al0+  Al71  1  0.74962706  0.74890643  0.66620208  1
  Al0+  Al72  1  0.07197777  0.17750213  0.65017973  1
  Al0+  Al73  1  0.81989341  0.56912461  0.34957563  1
  Al0+  Al74  1  0.42927260  0.82055694  0.31912266  1
  Al0+  Al75  1  0.56928551  0.68218161  0.98618580  1
  Al0+  Al76  1  0.17943573  0.93088588  0.01098281  1
  Al0+  Al77  1  0.82176413  0.57162548  0.01413355  1
  Al0+  Al78  1  0.17892962  0.42501933  0.01729108  1
  Al0+  Al79  1  0.92840616  0.32296373  0.31612400  1
  Al0+  Al80  1  0.92749798  0.32376281  0.65372576  1
  Al0+  Al81  1  0.31835195  0.07044125  0.68288830  1
  Al0+  Al82  1  0.17615945  0.92749553  0.34907587  1
  Al0+  Al83  1  0.82192067  0.07157318  0.01379825  1
  Al0+  Al84  1  0.06911639  0.17898855  0.98574598  1
  Al0+  Al85  1  0.18040013  0.43070163  0.67955760  1
  Al0+  Al86  1  0.93016017  0.81834194  0.98673670  1
  Al0+  Al87  1  0.68021647  0.92917210  0.68041674  1
  Al0+  Al88  1  0.67699420  0.92895400  0.01646776  1
  Al0+  Al89  1  0.32086649  0.07153817  0.34794891  1
  Al0+  Al90  1  0.32157121  0.57069123  0.01413778  1
  Al0+  Al91  1  0.57442588  0.17627328  0.98455866  1
  Al0+  Al92  1  0.43013448  0.32056966  0.98550170  1
  Al0+  Al93  1  0.07059275  0.17858046  0.31573579  1
  Al0+  Al94  1  0.43080667  0.32056620  0.65239550  1
  Al0+  Al95  1  0.67862884  0.42752039  0.01380525  1
  Si0+  Si96  1  0.57254129  0.68005751  0.64853736  1
  Si0+  Si97  1  0.07124861  0.67963990  0.31855176  1
  Si0+  Si98  1  0.57094612  0.17548479  0.65074955  1
  Si0+  Si99  1  0.67701815  0.42913514  0.67994764  1
  Si0+  Si100  1  0.67987851  0.92956542  0.34741589  1
  Si0+  Si101  1  0.42897338  0.32240858  0.31899532  1
  Si0+  Si102  1  0.82040298  0.07326843  0.34978221  1
  Si0+  Si103  1  0.82070891  0.56993900  0.68168129  1
  Si0+  Si104  1  0.92856285  0.32472781  0.98627506  1
  Si0+  Si105  1  0.32177984  0.07242465  0.01622366  1
  Si0+  Si106  1  0.42861689  0.82170280  0.65185943  1
  Si0+  Si107  1  0.67643881  0.42608693  0.35358021  1
  Si0+  Si108  1  0.17616924  0.92461809  0.68377878  1
  Si0+  Si109  1  0.57303278  0.67832034  0.31613395  1
  Si0+  Si110  1  0.42422110  0.82269584  0.98129073  1
  Si0+  Si111  1  0.18090841  0.43075397  0.34898505  1
  Si0+  Si112  1  0.57033210  0.17810133  0.32056153  1
  Si0+  Si113  1  0.82305963  0.07265179  0.68038011  1
  Si0+  Si114  1  0.92699354  0.82002083  0.31975901  1
  Si0+  Si115  1  0.32350577  0.57126066  0.34876343  1
  Si0+  Si116  1  0.92737122  0.81871355  0.64991457  1
  Si0+  Si117  1  0.07192814  0.68043722  0.65255276  1
  Si0+  Si118  1  0.07426914  0.67587726  0.98275713  1
  Si0+  Si119  1  0.32483226  0.57405748  0.68041540  1
  O2-  O120  1  0.25599082  0.00129940  0.05996294  1
  O2-  O121  1  0.24619255  0.00166998  0.39860813  1
  O2-  O122  1  0.23908667  -0.00132623  0.72659048  1
  O2-  O123  1  0.25088519  0.49849359  0.06581153  1
  O2-  O124  1  0.25478688  0.49918243  0.39245393  1
  O2-  O125  1  0.25907476  0.50297636  0.72346449  1
  O2-  O126  1  0.74509672  0.00483110  0.06564018  1
  O2-  O127  1  0.74901774  0.00152057  0.39144372  1
  O2-  O128  1  0.75386360  0.00501791  0.72497495  1
  O2-  O129  1  0.75421350  0.49578031  0.06427889  1
  O2-  O130  1  0.74858858  0.49176981  0.39775354  1
  O2-  O131  1  0.75415076  0.49414105  0.72091034  1
  O2-  O132  1  -0.00336487  0.24844217  0.26552120  1
  O2-  O133  1  -0.00283017  0.24925609  0.60366802  1
  O2-  O134  1  -0.00342520  0.25671037  0.94050777  1
  O2-  O135  1  0.00436583  0.75553741  0.27873076  1
  O2-  O136  1  0.00235524  0.75196413  0.60766951  1
  O2-  O137  1  0.00224441  0.74127877  0.93832902  1
  O2-  O138  1  0.50027409  0.25073465  0.27983522  1
  O2-  O139  1  0.50362552  0.24440485  0.60395236  1
  O2-  O140  1  0.50284243  0.24903716  0.93518634  1
  O2-  O141  1  0.50186622  0.74404765  0.27285148  1
  O2-  O142  1  0.50009101  0.75067639  0.60850795  1
  O2-  O143  1  0.49581137  0.75702927  0.93633692  1
  O2-  O144  1  0.06908297  0.17710704  0.09860004  1
  O2-  O145  1  0.07142386  0.18233899  0.42938877  1
  O2-  O146  1  0.06999994  0.17730356  0.76363477  1
  O2-  O147  1  0.07607097  0.67897456  0.08852864  1
  O2-  O148  1  0.06999582  0.67838976  0.42452988  1
  O2-  O149  1  0.07146862  0.68082834  0.75685678  1
  O2-  O150  1  0.56995966  0.17726588  0.09907562  1
  O2-  O151  1  0.57096249  0.17759510  0.42609525  1
  O2-  O152  1  0.57165587  0.17703551  0.75534035  1
  O2-  O153  1  0.56888578  0.68403555  0.09937819  1
  O2-  O154  1  0.57249755  0.67981509  0.42258208  1
  O2-  O155  1  0.57492503  0.67852258  0.75293035  1
  O2-  O156  1  0.18217109  0.43194003  0.24453689  1
  O2-  O157  1  0.18084603  0.43454451  0.56555960  1
  O2-  O158  1  0.17919584  0.42611825  0.90349775  1
  O2-  O159  1  0.17779164  0.92604545  0.23583831  1
  O2-  O160  1  0.18019183  0.91765554  0.57866383  1
  O2-  O161  1  0.18028624  0.93163944  0.89752501  1
  O2-  O162  1  0.67221508  0.42711753  0.24897005  1
  O2-  O163  1  0.67273092  0.43366495  0.57486314  1
  O2-  O164  1  0.67917158  0.43058731  0.89933222  1
  O2-  O165  1  0.68106612  0.92813591  0.24329961  1
  O2-  O166  1  0.68100724  0.92925458  0.56608173  1
  O2-  O167  1  0.68306414  0.92704906  0.90275202  1
  O2-  O168  1  0.43034350  0.31828210  0.09983823  1
  O2-  O169  1  0.42971844  0.32430014  0.42445417  1
  O2-  O170  1  0.43320698  0.32375509  0.76432148  1
  O2-  O171  1  0.42400292  0.81992243  0.08699055  1
  O2-  O172  1  0.43309281  0.82008504  0.43317961  1
  O2-  O173  1  0.42575807  0.81896365  0.75619077  1
  O2-  O174  1  0.93071702  0.32391717  0.09171536  1
  O2-  O175  1  0.93301315  0.32217662  0.43005366  1
  O2-  O176  1  0.92698526  0.32579026  0.76688146  1
  O2-  O177  1  0.93164659  0.81821124  0.10021472  1
  O2-  O178  1  0.92431257  0.81626029  0.42553319  1
  O2-  O179  1  0.92439103  0.81703008  0.75436506  1
  O2-  O180  1  0.32462003  0.06954816  0.23503796  1
  O2-  O181  1  0.32090615  0.06748584  0.56980966  1
  O2-  O182  1  0.31941583  0.07231287  0.91035756  1
  O2-  O183  1  0.32357276  0.57117540  0.24448431  1
  O2-  O184  1  0.32219160  0.57616312  0.57413527  1
  O2-  O185  1  0.31909486  0.57085487  0.90006712  1
  O2-  O186  1  0.82015362  0.07269393  0.24535609  1
  O2-  O187  1  0.82018712  0.06903461  0.57410975  1
  O2-  O188  1  0.82419055  0.06760214  0.89986835  1
  O2-  O189  1  0.81625195  0.57394471  0.23777197  1
  O2-  O190  1  0.81923618  0.57338017  0.57632034  1
  O2-  O191  1  0.81871919  0.57093889  0.89975421  1
  O2-  O192  1  0.04207702  0.07742880  0.26838097  1
  O2-  O193  1  0.04782240  0.07778393  0.59593166  1
  O2-  O194  1  0.03616457  0.08444765  0.92949848  1
  O2-  O195  1  0.03913477  0.59017903  0.27067122  1
  O2-  O196  1  0.04222342  0.59009278  0.60292631  1
  O2-  O197  1  0.05163095  0.58029061  0.93990067  1
  O2-  O198  1  0.54269284  0.08719975  0.27241029  1
  O2-  O199  1  0.54313970  0.08096254  0.60661082  1
  O2-  O200  1  0.54767307  0.07685621  0.93237693  1
  O2-  O201  1  0.55109666  0.58296004  0.27302936  1
  O2-  O202  1  0.54628665  0.58977017  0.59685513  1
  O2-  O203  1  0.53829604  0.58647867  0.93030328  1
  O2-  O204  1  0.16957807  0.20844828  0.26470551  1
  O2-  O205  1  0.16912230  0.21040446  0.59782841  1
  O2-  O206  1  0.16594905  0.20885069  0.93261895  1
  O2-  O207  1  0.16459138  0.70125457  0.27224123  1
  O2-  O208  1  0.16437971  0.70624941  0.60352220  1
  O2-  O209  1  0.16578698  0.70534979  0.93451596  1
  O2-  O210  1  0.66230113  0.20424932  0.27340247  1
  O2-  O211  1  0.66454814  0.19949166  0.60252446  1
  O2-  O212  1  0.67449408  0.20174408  0.93358923  1
  O2-  O213  1  0.66607565  0.70795375  0.27261283  1
  O2-  O214  1  0.66338453  0.71033222  0.59915305  1
  O2-  O215  1  0.66500768  0.71267419  0.92980026  1
  O2-  O216  1  0.08299367  0.45482101  0.07374988  1
  O2-  O217  1  0.09055341  0.46372184  0.39595593  1
  O2-  O218  1  0.08618865  0.46614870  0.73487721  1
  O2-  O219  1  0.08364234  0.96193489  0.06452644  1
  O2-  O220  1  0.07529901  0.94866630  0.40139939  1
  O2-  O221  1  0.07850753  0.94359796  0.72367622  1
  O2-  O222  1  0.58243098  0.46110531  0.06718015  1
  O2-  O223  1  0.58438061  0.45732056  0.40232643  1
  O2-  O224  1  0.58774654  0.46440169  0.72753307  1
  O2-  O225  1  0.57611882  0.95083739  0.06710171  1
  O2-  O226  1  0.58784188  0.95754822  0.39479091  1
  O2-  O227  1  0.58372313  0.95342280  0.73564469  1
  O2-  O228  1  0.21124768  0.32846233  0.07115180  1
  O2-  O229  1  0.20836778  0.33887538  0.39611043  1
  O2-  O230  1  0.20953609  0.33424420  0.73193748  1
  O2-  O231  1  0.20500636  0.83322291  0.06479630  1
  O2-  O232  1  0.20716815  0.82846621  0.40188806  1
  O2-  O233  1  0.20699481  0.83305400  0.73190957  1
  O2-  O234  1  0.70083710  0.32880877  0.06772832  1
  O2-  O235  1  0.69696831  0.33138696  0.40038553  1
  O2-  O236  1  0.69693666  0.33407931  0.72334337  1
  O2-  O237  1  0.71077096  0.83289864  0.06985576  1
  O2-  O238  1  0.70908459  0.83864533  0.39711888  1
  O2-  O239  1  0.71356210  0.83212009  0.73173230  1
  O2-  O240  1  0.45775161  0.41451122  0.27264033  1
  O2-  O241  1  0.46237909  0.41680962  0.59524131  1
  O2-  O242  1  0.45609312  0.41988392  0.93393388  1
  O2-  O243  1  0.46088191  0.91604374  0.26475897  1
  O2-  O244  1  0.45945268  0.91313264  0.60552576  1
  O2-  O245  1  0.44591730  0.91768258  0.93736219  1
  O2-  O246  1  0.95697645  0.42266698  0.26684528  1
  O2-  O247  1  0.95921962  0.42276555  0.60127786  1
  O2-  O248  1  0.95306913  0.42000646  0.94253891  1
  O2-  O249  1  0.94592566  0.91432348  0.27503574  1
  O2-  O250  1  0.94961627  0.91109553  0.60084283  1
  O2-  O251  1  0.96376741  0.91217020  0.92932551  1
  O2-  O252  1  0.33733686  0.29634046  0.27207364  1
  O2-  O253  1  0.33452381  0.29003694  0.59834021  1
  O2-  O254  1  0.33276376  0.28985140  0.93205859  1
  O2-  O255  1  0.33235075  0.78966493  0.26663789  1
  O2-  O256  1  0.33769933  0.79344768  0.60163038  1
  O2-  O257  1  0.33192200  0.79311681  0.93439966  1
  O2-  O258  1  0.82575918  0.30061935  0.27005065  1
  O2-  O259  1  0.82776900  0.30061737  0.59813090  1
  O2-  O260  1  0.83383284  0.30139785  0.94230278  1
  O2-  O261  1  0.83731883  0.78479268  0.27328271  1
  O2-  O262  1  0.83769263  0.78534154  0.60009391  1
  O2-  O263  1  0.83420264  0.78807191  0.93095789  1
  O2-  O264  1  0.41660607  0.05008582  0.06016237  1
  O2-  O265  1  0.41881060  0.03971291  0.40274800  1
  O2-  O266  1  0.41263789  0.03650247  0.73886977  1
  O2-  O267  1  0.41941032  0.54568795  0.06871599  1
  O2-  O268  1  0.41697830  0.54707948  0.39594443  1
  O2-  O269  1  0.42096479  0.55135854  0.72161512  1
  O2-  O270  1  0.91642973  0.03347020  0.06817471  1
  O2-  O271  1  0.91060086  0.04367867  0.39914712  1
  O2-  O272  1  0.91725884  0.04488754  0.72319181  1
  O2-  O273  1  0.92149626  0.55245721  0.06752716  1
  O2-  O274  1  0.91814366  0.54251743  0.40446388  1
  O2-  O275  1  0.91422187  0.55060160  0.72807612  1
  O2-  O276  1  0.29438295  0.16460064  0.06244678  1
  O2-  O277  1  0.29402485  0.17131346  0.40100740  1
  O2-  O278  1  0.29111982  0.16786929  0.73567586  1
  O2-  O279  1  0.29120579  0.66798047  0.06872351  1
  O2-  O280  1  0.29364093  0.66210710  0.39749117  1
  O2-  O281  1  0.29808826  0.66691082  0.72667361  1
  O2-  O282  1  0.80009397  0.16991260  0.06908551  1
  O2-  O283  1  0.79103585  0.16453357  0.39791253  1
  O2-  O284  1  0.79995497  0.16773669  0.72352794  1
  O2-  O285  1  0.78724354  0.66803246  0.06652872  1
  O2-  O286  1  0.78593934  0.66415417  0.40813056  1
  O2-  O287  1  0.78709849  0.66011245  0.72842577  1
