# generated using pymatgen
data_Ca2Al2SiO7
_symmetry_space_group_name_H-M   'P 1'
_cell_length_a   15.45983672
_cell_length_b   15.45843642
_cell_length_c   15.28421611
_cell_angle_alpha   89.99382429
_cell_angle_beta   90.00225088
_cell_angle_gamma   89.99882329
_symmetry_Int_Tables_number   1
_chemical_formula_structural   Ca2Al2SiO7
_chemical_formula_sum   'Ca48 Al48 Si24 O168'
_cell_volume   3652.69688064
_cell_formula_units_Z   24
loop_
 _symmetry_equiv_pos_site_id
 _symmetry_equiv_pos_as_xyz
  1  'x, y, z'
loop_
 _atom_type_symbol
 _atom_type_oxidation_number
  Ca2+  2.0
  Al0+  0.0
  Si0+  0.0
  O2-  -2.0
loop_
 _atom_site_type_symbol
 _atom_site_label
 _atom_site_symmetry_multiplicity
 _atom_site_fract_x
 _atom_site_fract_y
 _atom_site_fract_z
 _atom_site_occupancy
  Ca2+  Ca0  1  0.16410370  0.07851603  0.17128306  1
  Ca2+  Ca1  1  0.17810329  0.07969195  0.50818151  1
  Ca2+  Ca2  1  0.16421411  0.07482933  0.83913751  1
  Ca2+  Ca3  1  0.16826779  0.59219691  0.17363680  1
  Ca2+  Ca4  1  0.17177666  0.59012362  0.49915993  1
  Ca2+  Ca5  1  0.16551524  0.58264283  0.83907885  1
  Ca2+  Ca6  1  0.67779100  0.08314272  0.17560351  1
  Ca2+  Ca7  1  0.66632160  0.08238845  0.50370573  1
  Ca2+  Ca8  1  0.66871609  0.08096521  0.83425332  1
  Ca2+  Ca9  1  0.67850841  0.57946421  0.17709678  1
  Ca2+  Ca10  1  0.66451189  0.57486518  0.50353869  1
  Ca2+  Ca11  1  0.67008661  0.57793232  0.83548386  1
  Ca2+  Ca12  1  0.07616832  0.32747084  0.16417685  1
  Ca2+  Ca13  1  0.06852456  0.33400826  0.49523127  1
  Ca2+  Ca14  1  0.07594443  0.32534152  0.82752778  1
  Ca2+  Ca15  1  0.07473696  0.82643528  0.16108607  1
  Ca2+  Ca16  1  0.08015378  0.83181666  0.49273156  1
  Ca2+  Ca17  1  0.08241597  0.83667292  0.83528165  1
  Ca2+  Ca18  1  0.58965313  0.33017852  0.17228555  1
  Ca2+  Ca19  1  0.58739759  0.32514496  0.49648816  1
  Ca2+  Ca20  1  0.57960572  0.32776136  0.81936162  1
  Ca2+  Ca21  1  0.58470397  0.82640606  0.16799818  1
  Ca2+  Ca22  1  0.59151672  0.82232379  0.49670167  1
  Ca2+  Ca23  1  0.58811568  0.82730213  0.82319084  1
  Ca2+  Ca24  1  0.32606133  0.42258926  0.17566153  1
  Ca2+  Ca25  1  0.33809876  0.42045730  0.50174421  1
  Ca2+  Ca26  1  0.33600266  0.41517146  0.83363376  1
  Ca2+  Ca27  1  0.32363654  0.91967224  0.17385972  1
  Ca2+  Ca28  1  0.32960769  0.92681180  0.50740265  1
  Ca2+  Ca29  1  0.32333515  0.92204126  0.83491116  1
  Ca2+  Ca30  1  0.83349013  0.42744518  0.17735977  1
  Ca2+  Ca31  1  0.82515326  0.41492417  0.50133382  1
  Ca2+  Ca32  1  0.83001850  0.41831246  0.83462131  1
  Ca2+  Ca33  1  0.84668009  0.92580896  0.16884584  1
  Ca2+  Ca34  1  0.83320289  0.92184592  0.50194779  1
  Ca2+  Ca35  1  0.82954340  0.91943834  0.83965283  1
  Ca2+  Ca36  1  0.42206442  0.16040614  0.16839242  1
  Ca2+  Ca37  1  0.42457852  0.16182466  0.49626418  1
  Ca2+  Ca38  1  0.42184027  0.17228087  0.81998193  1
  Ca2+  Ca39  1  0.42229338  0.65939293  0.16922624  1
  Ca2+  Ca40  1  0.42872007  0.66340136  0.49338236  1
  Ca2+  Ca41  1  0.42465672  0.67078965  0.82475064  1
  Ca2+  Ca42  1  0.91173663  0.17037219  0.16272336  1
  Ca2+  Ca43  1  0.90697856  0.17806100  0.49394594  1
  Ca2+  Ca44  1  0.91908935  0.16530321  0.83210266  1
  Ca2+  Ca45  1  0.91746476  0.67367852  0.16051013  1
  Ca2+  Ca46  1  0.92120060  0.67459773  0.48518934  1
  Ca2+  Ca47  1  0.91641353  0.66884555  0.83472612  1
  Al0+  Al48  1  -0.00025251  -0.00006586  0.00014949  1
  Al0+  Al49  1  0.00013931  0.00059390  0.33775152  1
  Al0+  Al50  1  0.00104365  -0.00048196  0.66929835  1
  Al0+  Al51  1  -0.00014090  0.49965792  -0.00034668  1
  Al0+  Al52  1  0.00066900  0.49943123  0.32927781  1
  Al0+  Al53  1  0.00156348  0.50130814  0.66303773  1
  Al0+  Al54  1  0.49937865  -0.00072029  -0.00118212  1
  Al0+  Al55  1  0.49983414  -0.00028005  0.33130372  1
  Al0+  Al56  1  0.50000965  -0.00088095  0.67245334  1
  Al0+  Al57  1  0.49906110  0.49895864  0.00015796  1
  Al0+  Al58  1  0.49837690  0.49857368  0.33457818  1
  Al0+  Al59  1  0.50133693  0.49992555  0.66540369  1
  Al0+  Al60  1  0.25059297  0.25071929  -0.00336268  1
  Al0+  Al61  1  0.25065083  0.25025708  0.33798048  1
  Al0+  Al62  1  0.24960898  0.25271866  0.66640887  1
  Al0+  Al63  1  0.25075560  0.75071879  0.00047786  1
  Al0+  Al64  1  0.25058556  0.75026065  0.33605410  1
  Al0+  Al65  1  0.25067357  0.75041471  0.67128284  1
  Al0+  Al66  1  0.74717903  0.24897658  0.00158187  1
  Al0+  Al67  1  0.74940599  0.24959444  0.33053940  1
  Al0+  Al68  1  0.74956014  0.25202018  0.66554184  1
  Al0+  Al69  1  0.74917877  0.74864059  -0.00076473  1
  Al0+  Al70  1  0.75032344  0.75104679  0.32556218  1
  Al0+  Al71  1  0.75277246  0.75075511  0.66589730  1
  Al0+  Al72  1  0.67963563  0.42985809  0.68099760  1
  Al0+  Al73  1  0.32227642  0.07132801  0.34665318  1
  Al0+  Al74  1  0.17830605  0.92853119  0.68364360  1
  Al0+  Al75  1  0.42687647  0.32222296  0.65007076  1
  Al0+  Al76  1  0.81875538  0.06986504  0.01304571  1
  Al0+  Al77  1  0.82332467  0.57394361  0.34813019  1
  Al0+  Al78  1  0.57274359  0.68032005  0.65354656  1
  Al0+  Al79  1  0.92838632  0.82111749  0.98201232  1
  Al0+  Al80  1  0.68082466  0.92746002  0.67869962  1
  Al0+  Al81  1  0.07241058  0.67824554  0.98306763  1
  Al0+  Al82  1  0.17972553  0.92950604  0.01672691  1
  Al0+  Al83  1  0.92794164  0.31996212  0.31824573  1
  Al0+  Al84  1  0.07109769  0.17951535  0.98731161  1
  Al0+  Al85  1  0.56994119  0.17782554  0.31798222  1
  Al0+  Al86  1  0.32167224  0.07377242  0.68348073  1
  Al0+  Al87  1  0.07257012  0.67965583  0.31952233  1
  Al0+  Al88  1  0.92964817  0.32130267  0.65347472  1
  Al0+  Al89  1  0.82087690  0.56984337  0.01318338  1
  Al0+  Al90  1  0.57033027  0.17697040  0.65158834  1
  Al0+  Al91  1  0.82148790  0.07028202  0.34749197  1
  Al0+  Al92  1  0.57071967  0.67630329  0.31858958  1
  Al0+  Al93  1  0.67996569  0.42971443  0.34883093  1
  Al0+  Al94  1  0.31937100  0.57122386  0.34750303  1
  Al0+  Al95  1  0.92807196  0.82359995  0.31802161  1
  Si0+  Si96  1  0.42645472  0.32109584  0.31517302  1
  Si0+  Si97  1  0.92607212  0.32166639  0.98330741  1
  Si0+  Si98  1  0.93005658  0.82185900  0.65173791  1
  Si0+  Si99  1  0.17725374  0.42632303  0.35102635  1
  Si0+  Si100  1  0.07384150  0.17934181  0.31967203  1
  Si0+  Si101  1  0.32121538  0.57035335  0.01406535  1
  Si0+  Si102  1  0.42891104  0.82157880  0.98449478  1
  Si0+  Si103  1  0.82115767  0.07334547  0.68308314  1
  Si0+  Si104  1  0.67651301  0.92815140  0.34793620  1
  Si0+  Si105  1  0.56932243  0.67821414  0.98449510  1
  Si0+  Si106  1  0.32141956  0.56990939  0.68276375  1
  Si0+  Si107  1  0.32234492  0.07352396  0.01733545  1
  Si0+  Si108  1  0.17884149  0.92905592  0.35086542  1
  Si0+  Si109  1  0.67538603  0.92651824  0.01737896  1
  Si0+  Si110  1  0.07104787  0.17645917  0.64984338  1
  Si0+  Si111  1  0.07269501  0.67956467  0.65175051  1
  Si0+  Si112  1  0.17951738  0.42749383  0.01355825  1
  Si0+  Si113  1  0.42706349  0.82068919  0.65116612  1
  Si0+  Si114  1  0.82440805  0.57232351  0.68259867  1
  Si0+  Si115  1  0.57064040  0.17842392  0.98454573  1
  Si0+  Si116  1  0.42873451  0.82140064  0.31727183  1
  Si0+  Si117  1  0.17635026  0.43114916  0.68206419  1
  Si0+  Si118  1  0.42941184  0.32139010  0.98554114  1
  Si0+  Si119  1  0.67567929  0.42814662  0.01696903  1
  O2-  O120  1  0.25323738  0.00631118  0.06267056  1
  O2-  O121  1  0.24680272  -0.00138361  0.39397414  1
  O2-  O122  1  0.24736467  0.00393677  0.73331721  1
  O2-  O123  1  0.24626303  0.50302003  0.05540811  1
  O2-  O124  1  0.24320912  0.49841151  0.39463511  1
  O2-  O125  1  0.25085551  0.49857868  0.72556215  1
  O2-  O126  1  0.74529912  -0.00617232  0.06069381  1
  O2-  O127  1  0.74774577  -0.00600525  0.39229450  1
  O2-  O128  1  0.75211340  0.00467307  0.72680318  1
  O2-  O129  1  0.74731522  0.49384967  0.05928547  1
  O2-  O130  1  0.75024350  0.50366459  0.39917085  1
  O2-  O131  1  0.75527170  0.50395845  0.72733966  1
  O2-  O132  1  0.00324750  0.24470054  0.27331909  1
  O2-  O133  1  0.00103399  0.24345303  0.60588641  1
  O2-  O134  1  -0.00553807  0.25231034  0.93962497  1
  O2-  O135  1  -0.00324701  0.74721059  0.26967651  1
  O2-  O136  1  0.00322054  0.75218469  0.61135940  1
  O2-  O137  1  0.00014173  0.74864247  0.93095358  1
  O2-  O138  1  0.49430085  0.25203526  0.27020008  1
  O2-  O139  1  0.49592331  0.24691762  0.60156416  1
  O2-  O140  1  0.49917480  0.24944632  0.94374034  1
  O2-  O141  1  0.49566959  0.75138097  0.27161221  1
  O2-  O142  1  0.49918307  0.75623407  0.60652414  1
  O2-  O143  1  0.50185643  0.75238843  0.94187832  1
  O2-  O144  1  0.07414156  0.18366111  0.10023233  1
  O2-  O145  1  0.07516949  0.18260866  0.42513759  1
  O2-  O146  1  0.06939491  0.17762619  0.75587459  1
  O2-  O147  1  0.07435405  0.67949409  0.09582831  1
  O2-  O148  1  0.07504874  0.68478124  0.43379668  1
  O2-  O149  1  0.07252913  0.67640015  0.75663771  1
  O2-  O150  1  0.57022441  0.17794479  0.08947630  1
  O2-  O151  1  0.56897223  0.17616276  0.43037655  1
  O2-  O152  1  0.57099061  0.18024687  0.76622339  1
  O2-  O153  1  0.56584375  0.67618364  0.08932629  1
  O2-  O154  1  0.56928926  0.67774918  0.43166637  1
  O2-  O155  1  0.56994500  0.68083213  0.76753424  1
  O2-  O156  1  0.18135090  0.42186986  0.24508971  1
  O2-  O157  1  0.17292568  0.43540482  0.57753734  1
  O2-  O158  1  0.18288561  0.42648804  0.90822069  1
  O2-  O159  1  0.17981114  0.92907564  0.24514578  1
  O2-  O160  1  0.17996422  0.92732792  0.57005043  1
  O2-  O161  1  0.18334311  0.93005846  0.90388389  1
  O2-  O162  1  0.68134322  0.43084786  0.23444226  1
  O2-  O163  1  0.67951906  0.42980085  0.56880636  1
  O2-  O164  1  0.67241121  0.42927966  0.91128110  1
  O2-  O165  1  0.67228874  0.93179709  0.24225595  1
  O2-  O166  1  0.68567652  0.92343314  0.56609078  1
  O2-  O167  1  0.67352454  0.92802210  0.91155589  1
  O2-  O168  1  0.42807043  0.32410230  0.09021562  1
  O2-  O169  1  0.42552076  0.32108585  0.42013528  1
  O2-  O170  1  0.43034780  0.32351056  0.76485301  1
  O2-  O171  1  0.42953244  0.82146472  0.08948729  1
  O2-  O172  1  0.42965980  0.82129409  0.42269886  1
  O2-  O173  1  0.42588907  0.81523322  0.75725688  1
  O2-  O174  1  0.92738521  0.32119480  0.08868561  1
  O2-  O175  1  0.92880497  0.31874357  0.43153855  1
  O2-  O176  1  0.93281997  0.32179282  0.76701989  1
  O2-  O177  1  0.93035068  0.82063492  0.09494200  1
  O2-  O178  1  0.93160041  0.82534767  0.43244678  1
  O2-  O179  1  0.92804573  0.82122128  0.75659537  1
  O2-  O180  1  0.32034786  0.06865084  0.23306596  1
  O2-  O181  1  0.32034064  0.07012984  0.56978649  1
  O2-  O182  1  0.32333577  0.07269864  0.91213784  1
  O2-  O183  1  0.31928869  0.56837787  0.23367967  1
  O2-  O184  1  0.31957323  0.57181226  0.57801988  1
  O2-  O185  1  0.32518979  0.56726469  0.90882619  1
  O2-  O186  1  0.82071434  0.07021658  0.23418042  1
  O2-  O187  1  0.82216899  0.07181098  0.57757570  1
  O2-  O188  1  0.81465503  0.07188260  0.89972719  1
  O2-  O189  1  0.82137963  0.57140951  0.23421461  1
  O2-  O190  1  0.82543007  0.57273097  0.57761450  1
  O2-  O191  1  0.81767236  0.56819684  0.89947678  1
  O2-  O192  1  0.05085900  0.08425075  0.27669105  1
  O2-  O193  1  0.04862582  0.08179841  0.60481340  1
  O2-  O194  1  0.04058180  0.08388082  0.93255185  1
  O2-  O195  1  0.05463543  0.57834441  0.26899176  1
  O2-  O196  1  0.04562651  0.58888222  0.60254832  1
  O2-  O197  1  0.04607185  0.57771370  0.93138285  1
  O2-  O198  1  0.53807669  0.08209078  0.26173638  1
  O2-  O199  1  0.54536410  0.07605965  0.60205800  1
  O2-  O200  1  0.54406460  0.08575730  0.93766176  1
  O2-  O201  1  0.53553288  0.58122493  0.26368357  1
  O2-  O202  1  0.53840613  0.58552355  0.60042664  1
  O2-  O203  1  0.53713563  0.58716064  0.93691597  1
  O2-  O204  1  0.16657717  0.20705497  0.27206541  1
  O2-  O205  1  0.16442565  0.20438179  0.60565436  1
  O2-  O206  1  0.16682093  0.21230750  0.93115596  1
  O2-  O207  1  0.17093804  0.71071059  0.26672929  1
  O2-  O208  1  0.16592460  0.70659935  0.60654441  1
  O2-  O209  1  0.17268098  0.70570879  0.93153105  1
  O2-  O210  1  0.66462360  0.21126338  0.26199471  1
  O2-  O211  1  0.66854068  0.20707711  0.60022277  1
  O2-  O212  1  0.66171855  0.20672149  0.93608177  1
  O2-  O213  1  0.66507858  0.70810361  0.26127201  1
  O2-  O214  1  0.66963551  0.71008397  0.60026464  1
  O2-  O215  1  0.66139746  0.70277847  0.93704439  1
  O2-  O216  1  0.08601509  0.44900960  0.05948706  1
  O2-  O217  1  0.08275674  0.44923168  0.39500215  1
  O2-  O218  1  0.08716760  0.46337882  0.73277488  1
  O2-  O219  1  0.08311048  0.96013060  0.06902718  1
  O2-  O220  1  0.08634377  0.95431147  0.39859629  1
  O2-  O221  1  0.07931714  0.95552596  0.73710610  1
  O2-  O222  1  0.58297977  0.45666330  0.06396036  1
  O2-  O223  1  0.57982332  0.45436331  0.39893311  1
  O2-  O224  1  0.58342888  0.46260873  0.73618231  1
  O2-  O225  1  0.58159175  0.95304083  0.06324909  1
  O2-  O226  1  0.58427802  0.95513825  0.39562040  1
  O2-  O227  1  0.58327879  0.95139335  0.73465634  1
  O2-  O228  1  0.21289037  0.33834390  0.06305505  1
  O2-  O229  1  0.20585053  0.33542510  0.40073277  1
  O2-  O230  1  0.20015810  0.33821653  0.72938225  1
  O2-  O231  1  0.21450121  0.83334103  0.06970044  1
  O2-  O232  1  0.20681335  0.83675767  0.39773948  1
  O2-  O233  1  0.20961461  0.83092786  0.73809644  1
  O2-  O234  1  0.69754355  0.33310614  0.06103393  1
  O2-  O235  1  0.71014813  0.33128025  0.39945800  1
  O2-  O236  1  0.71068358  0.33362754  0.73660982  1
  O2-  O237  1  0.69718239  0.83125076  0.06084697  1
  O2-  O238  1  0.69941553  0.83273539  0.39009516  1
  O2-  O239  1  0.71484452  0.83249128  0.73592072  1
  O2-  O240  1  0.45225203  0.41418980  0.26788652  1
  O2-  O241  1  0.45641527  0.42053430  0.59884656  1
  O2-  O242  1  0.45766632  0.41302328  0.93650938  1
  O2-  O243  1  0.45544938  0.91313259  0.26790589  1
  O2-  O244  1  0.44798677  0.91631453  0.60956889  1
  O2-  O245  1  0.45393495  0.91409087  0.93632834  1
  O2-  O246  1  0.96031739  0.41530699  0.26288187  1
  O2-  O247  1  0.96453025  0.41643182  0.59890581  1
  O2-  O248  1  0.95321091  0.41427833  0.93665553  1
  O2-  O249  1  0.96190944  0.92163345  0.26652462  1
  O2-  O250  1  0.95660626  0.91460013  0.60517477  1
  O2-  O251  1  0.95680989  0.91979450  0.93005367  1
  O2-  O252  1  0.33225398  0.29544429  0.26908541  1
  O2-  O253  1  0.32515569  0.30326464  0.59975713  1
  O2-  O254  1  0.33794580  0.29591299  0.93603184  1
  O2-  O255  1  0.33511774  0.79562809  0.27141450  1
  O2-  O256  1  0.33485948  0.79082929  0.60454958  1
  O2-  O257  1  0.33914979  0.79053776  0.93573643  1
  O2-  O258  1  0.83333155  0.28820321  0.26206130  1
  O2-  O259  1  0.83308279  0.29286637  0.59983276  1
  O2-  O260  1  0.83138709  0.29592358  0.93880918  1
  O2-  O261  1  0.82898564  0.80331852  0.26325199  1
  O2-  O262  1  0.84016893  0.79255198  0.60256742  1
  O2-  O263  1  0.82812915  0.79254357  0.93065776  1
  O2-  O264  1  0.41623486  0.04525760  0.06246679  1
  O2-  O265  1  0.41793353  0.03771883  0.39992888  1
  O2-  O266  1  0.41876262  0.04393448  0.73853148  1
  O2-  O267  1  0.41117706  0.53776772  0.06323071  1
  O2-  O268  1  0.41459391  0.53836891  0.40196542  1
  O2-  O269  1  0.41267365  0.54233419  0.73148707  1
  O2-  O270  1  0.91617684  0.04267572  0.06622627  1
  O2-  O271  1  0.91811722  0.04352260  0.40407736  1
  O2-  O272  1  0.91479403  0.04640988  0.72875359  1
  O2-  O273  1  0.91861195  0.54143601  0.06598555  1
  O2-  O274  1  0.92335512  0.54653850  0.39799507  1
  O2-  O275  1  0.91799516  0.54510372  0.72887668  1
  O2-  O276  1  0.29930966  0.16881029  0.06113955  1
  O2-  O277  1  0.29447589  0.16808873  0.40111384  1
  O2-  O278  1  0.29642241  0.17475702  0.73364569  1
  O2-  O279  1  0.29857602  0.66311632  0.06086144  1
  O2-  O280  1  0.29174336  0.66790646  0.40340940  1
  O2-  O281  1  0.29318396  0.66090978  0.73211419  1
  O2-  O282  1  0.78654488  0.16649528  0.06742539  1
  O2-  O283  1  0.78722471  0.16591877  0.39974206  1
  O2-  O284  1  0.79659082  0.16670361  0.72944821  1
  O2-  O285  1  0.78803782  0.66618886  0.06596466  1
  O2-  O286  1  0.79751367  0.67520875  0.39603276  1
  O2-  O287  1  0.79813112  0.66546199  0.72921035  1
