# generated using pymatgen
data_Ca2Al2SiO7
_symmetry_space_group_name_H-M   'P 1'
_cell_length_a   15.45960701
_cell_length_b   15.46168910
_cell_length_c   15.28499706
_cell_angle_alpha   90.00752326
_cell_angle_beta   90.01639772
_cell_angle_gamma   90.00156307
_symmetry_Int_Tables_number   1
_chemical_formula_structural   Ca2Al2SiO7
_chemical_formula_sum   'Ca48 Al48 Si24 O168'
_cell_volume   3653.59768988
_cell_formula_units_Z   24
loop_
 _symmetry_equiv_pos_site_id
 _symmetry_equiv_pos_as_xyz
  1  'x, y, z'
loop_
 _atom_type_symbol
 _atom_type_oxidation_number
  Ca2+  2.0
  Al0+  0.0
  Si0+  0.0
  O2-  -2.0
loop_
 _atom_site_type_symbol
 _atom_site_label
 _atom_site_symmetry_multiplicity
 _atom_site_fract_x
 _atom_site_fract_y
 _atom_site_fract_z
 _atom_site_occupancy
  Ca2+  Ca0  1  0.16471277  0.07933250  0.16673695  1
  Ca2+  Ca1  1  0.16067976  0.07668234  0.50458462  1
  Ca2+  Ca2  1  0.16815612  0.07609436  0.83951553  1
  Ca2+  Ca3  1  0.17376364  0.59464759  0.16621852  1
  Ca2+  Ca4  1  0.16995095  0.58112734  0.50473666  1
  Ca2+  Ca5  1  0.17491806  0.58690323  0.84364731  1
  Ca2+  Ca6  1  0.66392145  0.07052702  0.17089863  1
  Ca2+  Ca7  1  0.66816272  0.07269950  0.50413764  1
  Ca2+  Ca8  1  0.66289098  0.06838165  0.83759169  1
  Ca2+  Ca9  1  0.66740857  0.57683156  0.16524729  1
  Ca2+  Ca10  1  0.67038671  0.57544037  0.51098174  1
  Ca2+  Ca11  1  0.67253213  0.58478290  0.83948794  1
  Ca2+  Ca12  1  0.07812320  0.32364058  0.16071576  1
  Ca2+  Ca13  1  0.07616238  0.32006237  0.49109616  1
  Ca2+  Ca14  1  0.08665752  0.31908127  0.82727720  1
  Ca2+  Ca15  1  0.08406860  0.83487883  0.15957762  1
  Ca2+  Ca16  1  0.07820770  0.84099960  0.49876912  1
  Ca2+  Ca17  1  0.08084039  0.83396383  0.82815503  1
  Ca2+  Ca18  1  0.58800497  0.33699846  0.16246785  1
  Ca2+  Ca19  1  0.58289469  0.34076537  0.49826681  1
  Ca2+  Ca20  1  0.57999788  0.33981781  0.82748438  1
  Ca2+  Ca21  1  0.57976427  0.83390764  0.15876401  1
  Ca2+  Ca22  1  0.57678220  0.83652130  0.49596338  1
  Ca2+  Ca23  1  0.58374193  0.82438043  0.82387663  1
  Ca2+  Ca24  1  0.33317775  0.42622169  0.16552231  1
  Ca2+  Ca25  1  0.33406274  0.41563231  0.50657460  1
  Ca2+  Ca26  1  0.33619688  0.42198437  0.83829159  1
  Ca2+  Ca27  1  0.32294668  0.91770335  0.17084529  1
  Ca2+  Ca28  1  0.32460731  0.90968134  0.50532849  1
  Ca2+  Ca29  1  0.32383240  0.91575115  0.83920953  1
  Ca2+  Ca30  1  0.82863206  0.41897237  0.17161511  1
  Ca2+  Ca31  1  0.82642998  0.41790955  0.50743978  1
  Ca2+  Ca32  1  0.82279404  0.42787789  0.83958363  1
  Ca2+  Ca33  1  0.81970285  0.91148657  0.16805027  1
  Ca2+  Ca34  1  0.82365013  0.91112157  0.50800077  1
  Ca2+  Ca35  1  0.82355121  0.90646403  0.83234018  1
  Ca2+  Ca36  1  0.41456301  0.16712482  0.16078539  1
  Ca2+  Ca37  1  0.41801184  0.17272476  0.50075023  1
  Ca2+  Ca38  1  0.41310428  0.17204917  0.82959685  1
  Ca2+  Ca39  1  0.42186076  0.67312190  0.15920237  1
  Ca2+  Ca40  1  0.42415270  0.67855706  0.50101524  1
  Ca2+  Ca41  1  0.42873961  0.66752918  0.82802582  1
  Ca2+  Ca42  1  0.92401729  0.16923088  0.16306545  1
  Ca2+  Ca43  1  0.92654301  0.16727092  0.49178854  1
  Ca2+  Ca44  1  0.92917811  0.16084370  0.82847189  1
  Ca2+  Ca45  1  0.92229858  0.66640219  0.15742772  1
  Ca2+  Ca46  1  0.91050346  0.67041464  0.50390907  1
  Ca2+  Ca47  1  0.91682980  0.66637472  0.83037963  1
  Al0+  Al48  1  -0.00184582  0.00081569  -0.00175887  1
  Al0+  Al49  1  0.00026365  -0.00112083  0.33024930  1
  Al0+  Al50  1  0.00084448  -0.00295292  0.66201235  1
  Al0+  Al51  1  -0.00074891  0.49984261  -0.00250224  1
  Al0+  Al52  1  0.00159108  0.50030637  0.33016392  1
  Al0+  Al53  1  0.00095276  0.49727584  0.67048711  1
  Al0+  Al54  1  0.49743170  0.00221609  0.00590569  1
  Al0+  Al55  1  0.49729428  0.00138340  0.33353560  1
  Al0+  Al56  1  0.49829588  0.00231785  0.66657023  1
  Al0+  Al57  1  0.49895590  0.50194513  0.00487921  1
  Al0+  Al58  1  0.50107300  0.50197817  0.33687869  1
  Al0+  Al59  1  0.49877049  0.49980631  0.65999650  1
  Al0+  Al60  1  0.24966371  0.25036465  -0.00068259  1
  Al0+  Al61  1  0.25130993  0.25080833  0.32857938  1
  Al0+  Al62  1  0.25094904  0.24843040  0.65663857  1
  Al0+  Al63  1  0.24912480  0.75073390  0.00398360  1
  Al0+  Al64  1  0.25236378  0.75231481  0.33563685  1
  Al0+  Al65  1  0.25071927  0.74863414  0.66774894  1
  Al0+  Al66  1  0.74868949  0.24922641  0.00025252  1
  Al0+  Al67  1  0.74944120  0.25052909  0.33385449  1
  Al0+  Al68  1  0.75112426  0.24927273  0.67216486  1
  Al0+  Al69  1  0.74936051  0.74842706  0.00590027  1
  Al0+  Al70  1  0.74992760  0.74745333  0.33628210  1
  Al0+  Al71  1  0.75252610  0.74795984  0.66553226  1
  Al0+  Al72  1  0.32022295  0.57149380  0.01320563  1
  Al0+  Al73  1  0.31976101  0.07348270  0.01493590  1
  Al0+  Al74  1  0.43155187  0.32035964  0.65352370  1
  Al0+  Al75  1  0.17935473  0.92841396  0.68048956  1
  Al0+  Al76  1  0.17729817  0.92957022  0.01481889  1
  Al0+  Al77  1  0.07006530  0.17807944  0.65123269  1
  Al0+  Al78  1  0.42965116  0.82195739  0.31758552  1
  Al0+  Al79  1  0.07210598  0.67947257  0.98709206  1
  Al0+  Al80  1  0.67676911  0.42833175  0.68274726  1
  Al0+  Al81  1  0.57302888  0.67948924  0.65110809  1
  Al0+  Al82  1  0.07172566  0.17701218  0.31456017  1
  Al0+  Al83  1  0.92750149  0.32191228  0.31775457  1
  Al0+  Al84  1  0.67738752  0.92977390  0.67931071  1
  Al0+  Al85  1  0.07000618  0.17996221  0.98346191  1
  Al0+  Al86  1  0.42805761  0.82325321  0.65362362  1
  Al0+  Al87  1  0.67899779  0.92874872  0.01256970  1
  Al0+  Al88  1  0.93111223  0.81788983  0.65342804  1
  Al0+  Al89  1  0.82287972  0.57116261  0.01759108  1
  Al0+  Al90  1  0.67760321  0.92790988  0.34786750  1
  Al0+  Al91  1  0.17970698  0.93029000  0.34893238  1
  Al0+  Al92  1  0.67824408  0.42888288  0.01562296  1
  Al0+  Al93  1  0.82281609  0.57088742  0.68293534  1
  Al0+  Al94  1  0.68044265  0.42941016  0.34900792  1
  Al0+  Al95  1  0.56993674  0.68026497  0.98766202  1
  Si0+  Si96  1  0.57125725  0.17690240  0.98569884  1
  Si0+  Si97  1  0.92821284  0.32186130  0.65150885  1
  Si0+  Si98  1  0.57207674  0.67828609  0.31549497  1
  Si0+  Si99  1  0.82066104  0.07029272  0.34851011  1
  Si0+  Si100  1  0.07423511  0.67462190  0.65072890  1
  Si0+  Si101  1  0.42805548  0.82431334  0.98440247  1
  Si0+  Si102  1  0.17798979  0.42730468  0.01525393  1
  Si0+  Si103  1  0.82165855  0.07283485  0.01607250  1
  Si0+  Si104  1  0.92517925  0.32222526  0.98036450  1
  Si0+  Si105  1  0.32174199  0.07553341  0.35243590  1
  Si0+  Si106  1  0.57510941  0.17707974  0.65077989  1
  Si0+  Si107  1  0.92691496  0.82158295  0.98427960  1
  Si0+  Si108  1  0.56975470  0.17997794  0.31849662  1
  Si0+  Si109  1  0.07248302  0.67993890  0.32037549  1
  Si0+  Si110  1  0.32090740  0.57139312  0.35072720  1
  Si0+  Si111  1  0.82341752  0.07067432  0.68204864  1
  Si0+  Si112  1  0.42974224  0.32409821  0.31602656  1
  Si0+  Si113  1  0.18047303  0.42592362  0.67955616  1
  Si0+  Si114  1  0.32061074  0.07431631  0.68176170  1
  Si0+  Si115  1  0.92720681  0.81960318  0.31796725  1
  Si0+  Si116  1  0.18000816  0.42879820  0.34725147  1
  Si0+  Si117  1  0.43056287  0.32123377  0.98716252  1
  Si0+  Si118  1  0.31949718  0.56962861  0.68079658  1
  Si0+  Si119  1  0.82643837  0.57115613  0.35143338  1
  O2-  O120  1  0.24881768  0.00151546  0.06565709  1
  O2-  O121  1  0.25172972  0.00807774  0.39567882  1
  O2-  O122  1  0.25657660  0.00136663  0.72526787  1
  O2-  O123  1  0.24076958  0.50119114  0.06056222  1
  O2-  O124  1  0.25061126  0.49892523  0.39223257  1
  O2-  O125  1  0.24768132  0.49937737  0.72330222  1
  O2-  O126  1  0.75272741  0.00433122  0.06013933  1
  O2-  O127  1  0.75450211  0.00029627  0.39447701  1
  O2-  O128  1  0.75119478  0.00567512  0.72635001  1
  O2-  O129  1  0.75296545  0.49695904  0.06697262  1
  O2-  O130  1  0.75789824  0.50166269  0.39400993  1
  O2-  O131  1  0.74743335  0.50161169  0.73164080  1
  O2-  O132  1  -0.00054104  0.25026016  0.26681115  1
  O2-  O133  1  -0.00637981  0.25135806  0.60543792  1
  O2-  O134  1  -0.00505780  0.25427982  0.93599879  1
  O2-  O135  1  -0.00042923  0.74888907  0.27803555  1
  O2-  O136  1  0.00533754  0.74229434  0.60576954  1
  O2-  O137  1  -0.00264254  0.75384339  0.94112218  1
  O2-  O138  1  0.50045644  0.25275146  0.27485666  1
  O2-  O139  1  0.51015572  0.24973360  0.60644162  1
  O2-  O140  1  0.50209027  0.25069691  0.94497408  1
  O2-  O141  1  0.50823492  0.75132578  0.27091264  1
  O2-  O142  1  0.50551578  0.75713063  0.60252533  1
  O2-  O143  1  0.49851976  0.75792419  0.94031849  1
  O2-  O144  1  0.06899429  0.18203711  0.09622812  1
  O2-  O145  1  0.07032764  0.17863140  0.42839360  1
  O2-  O146  1  0.07142728  0.17996140  0.76440660  1
  O2-  O147  1  0.07190207  0.68224610  0.10089704  1
  O2-  O148  1  0.07315867  0.67822571  0.42546979  1
  O2-  O149  1  0.07630010  0.67524685  0.75598941  1
  O2-  O150  1  0.57056785  0.17618883  0.09105737  1
  O2-  O151  1  0.56811482  0.17997531  0.42354019  1
  O2-  O152  1  0.57221348  0.17455400  0.75631097  1
  O2-  O153  1  0.56718406  0.68053120  0.10105821  1
  O2-  O154  1  0.56959611  0.67705716  0.42078857  1
  O2-  O155  1  0.56973292  0.67850760  0.76496126  1
  O2-  O156  1  0.18198942  0.43018442  0.24228342  1
  O2-  O157  1  0.18199962  0.42772110  0.57401562  1
  O2-  O158  1  0.18349663  0.42467307  0.90946193  1
  O2-  O159  1  0.18045941  0.92783532  0.23635495  1
  O2-  O160  1  0.17927133  0.93013731  0.56719186  1
  O2-  O161  1  0.17858046  0.92986154  0.90113881  1
  O2-  O162  1  0.67798885  0.43180401  0.23630508  1
  O2-  O163  1  0.67938892  0.42889213  0.56884014  1
  O2-  O164  1  0.67601105  0.43021310  0.90265758  1
  O2-  O165  1  0.67867038  0.92941785  0.23460548  1
  O2-  O166  1  0.67892180  0.93258802  0.56598872  1
  O2-  O167  1  0.67933085  0.92897533  0.89955152  1
  O2-  O168  1  0.43035075  0.32091159  0.09258077  1
  O2-  O169  1  0.42860171  0.32373277  0.42104777  1
  O2-  O170  1  0.42778514  0.31914897  0.76673703  1
  O2-  O171  1  0.42950701  0.82258364  0.09038815  1
  O2-  O172  1  0.42825196  0.81860180  0.43052732  1
  O2-  O173  1  0.42560964  0.81918566  0.76705521  1
  O2-  O174  1  0.92603075  0.32001631  0.08605838  1
  O2-  O175  1  0.93005363  0.32037228  0.43166835  1
  O2-  O176  1  0.93209304  0.32147837  0.75681981  1
  O2-  O177  1  0.92673601  0.82134213  0.09050163  1
  O2-  O178  1  0.92625078  0.81946070  0.42297216  1
  O2-  O179  1  0.93218973  0.81955225  0.76627987  1
  O2-  O180  1  0.32260731  0.07648334  0.24710259  1
  O2-  O181  1  0.31868773  0.07809961  0.57627268  1
  O2-  O182  1  0.31966505  0.07545960  0.90133529  1
  O2-  O183  1  0.32010871  0.57060721  0.24555861  1
  O2-  O184  1  0.31671094  0.56865253  0.57520762  1
  O2-  O185  1  0.32168951  0.56735118  0.90003907  1
  O2-  O186  1  0.81782087  0.06929376  0.24282554  1
  O2-  O187  1  0.82251067  0.07015728  0.57621336  1
  O2-  O188  1  0.82087324  0.07331365  0.91048372  1
  O2-  O189  1  0.82809553  0.57226603  0.24619435  1
  O2-  O190  1  0.82507179  0.56673161  0.56890085  1
  O2-  O191  1  0.82167293  0.57162641  0.90452442  1
  O2-  O192  1  0.04152350  0.07894393  0.26192474  1
  O2-  O193  1  0.03857628  0.08251684  0.59669732  1
  O2-  O194  1  0.03813195  0.08315682  0.92997878  1
  O2-  O195  1  0.04908399  0.58770746  0.27139650  1
  O2-  O196  1  0.05067004  0.57935833  0.60560463  1
  O2-  O197  1  0.04691673  0.58090835  0.93327626  1
  O2-  O198  1  0.53972956  0.08944321  0.26964210  1
  O2-  O199  1  0.54460320  0.08655338  0.60080149  1
  O2-  O200  1  0.53971338  0.08669783  0.93697343  1
  O2-  O201  1  0.53941325  0.58634619  0.26957185  1
  O2-  O202  1  0.53709579  0.58453382  0.59547336  1
  O2-  O203  1  0.53410605  0.58453928  0.93506956  1
  O2-  O204  1  0.17072400  0.20748538  0.26377120  1
  O2-  O205  1  0.16418991  0.21136474  0.59437974  1
  O2-  O206  1  0.16673630  0.21353762  0.93056232  1
  O2-  O207  1  0.16384267  0.70997615  0.27378305  1
  O2-  O208  1  0.16730622  0.69995626  0.60347529  1
  O2-  O209  1  0.16960101  0.70878164  0.93347724  1
  O2-  O210  1  0.66196330  0.20517479  0.27112735  1
  O2-  O211  1  0.67086684  0.19764650  0.60669160  1
  O2-  O212  1  0.66393530  0.19991683  0.93806527  1
  O2-  O213  1  0.66849351  0.69779740  0.27261140  1
  O2-  O214  1  0.67296382  0.70034017  0.59960068  1
  O2-  O215  1  0.66814540  0.70878958  0.93657070  1
  O2-  O216  1  0.08206232  0.44581461  0.05773499  1
  O2-  O217  1  0.08847429  0.45718176  0.39493106  1
  O2-  O218  1  0.08819995  0.44742007  0.72789040  1
  O2-  O219  1  0.07765315  0.95732986  0.06573764  1
  O2-  O220  1  0.08031400  0.95788660  0.39991622  1
  O2-  O221  1  0.08261476  0.96039509  0.73262087  1
  O2-  O222  1  0.58122022  0.45955265  0.07046411  1
  O2-  O223  1  0.58322349  0.46148329  0.40233751  1
  O2-  O224  1  0.57516643  0.45404586  0.72975289  1
  O2-  O225  1  0.58351465  0.96152345  0.06750612  1
  O2-  O226  1  0.58140718  0.96282839  0.39972845  1
  O2-  O227  1  0.58067776  0.96061751  0.73333076  1
  O2-  O228  1  0.21072420  0.33763899  0.06465363  1
  O2-  O229  1  0.20902746  0.33694931  0.39426267  1
  O2-  O230  1  0.21350298  0.33508625  0.72521098  1
  O2-  O231  1  0.20572886  0.83214664  0.06945935  1
  O2-  O232  1  0.21285737  0.83419350  0.40351137  1
  O2-  O233  1  0.20729538  0.83026705  0.73307940  1
  O2-  O234  1  0.70233242  0.32770051  0.06614939  1
  O2-  O235  1  0.70605517  0.33067185  0.40182559  1
  O2-  O236  1  0.70252221  0.32867039  0.73531092  1
  O2-  O237  1  0.71048810  0.83470628  0.07035099  1
  O2-  O238  1  0.70731721  0.83035017  0.40014038  1
  O2-  O239  1  0.71115215  0.83342769  0.73053747  1
  O2-  O240  1  0.45782469  0.41671070  0.27033588  1
  O2-  O241  1  0.45610647  0.41611264  0.59461136  1
  O2-  O242  1  0.45798827  0.41300824  0.94019851  1
  O2-  O243  1  0.45504474  0.92088471  0.26565996  1
  O2-  O244  1  0.44904476  0.92405728  0.60167584  1
  O2-  O245  1  0.45015503  0.91979656  0.94114426  1
  O2-  O246  1  0.95796686  0.42011793  0.26453221  1
  O2-  O247  1  0.95696055  0.41420931  0.60417386  1
  O2-  O248  1  0.94962433  0.41620437  0.93545380  1
  O2-  O249  1  0.95347457  0.91104166  0.26984041  1
  O2-  O250  1  0.96169476  0.91276133  0.59549582  1
  O2-  O251  1  0.94897159  0.91562536  0.93799074  1
  O2-  O252  1  0.33809670  0.29791234  0.26749178  1
  O2-  O253  1  0.33798225  0.28647781  0.59378563  1
  O2-  O254  1  0.33911761  0.29408747  0.93860608  1
  O2-  O255  1  0.33426255  0.78556426  0.26424000  1
  O2-  O256  1  0.33210613  0.78650480  0.59894739  1
  O2-  O257  1  0.33437370  0.79635689  0.94111851  1
  O2-  O258  1  0.82869270  0.29337486  0.26536615  1
  O2-  O259  1  0.83267191  0.29896949  0.60802326  1
  O2-  O260  1  0.83140080  0.29539862  0.93506512  1
  O2-  O261  1  0.83558894  0.79030940  0.27012514  1
  O2-  O262  1  0.83577528  0.78770209  0.59622705  1
  O2-  O263  1  0.83383701  0.79285195  0.93950048  1
  O2-  O264  1  0.41773149  0.04831198  0.07069337  1
  O2-  O265  1  0.41514340  0.05001696  0.39868091  1
  O2-  O266  1  0.41616060  0.05634034  0.72659236  1
  O2-  O267  1  0.41225080  0.53570216  0.07228702  1
  O2-  O268  1  0.41191699  0.54261225  0.39836799  1
  O2-  O269  1  0.41073282  0.53898638  0.72612378  1
  O2-  O270  1  0.91445713  0.04701138  0.06294610  1
  O2-  O271  1  0.91525248  0.04595328  0.39255617  1
  O2-  O272  1  0.91522890  0.03961041  0.72786253  1
  O2-  O273  1  0.92326356  0.54457589  0.06855147  1
  O2-  O274  1  0.92125385  0.54824596  0.39698484  1
  O2-  O275  1  0.92174037  0.54160264  0.73609813  1
  O2-  O276  1  0.29203541  0.17214989  0.06871274  1
  O2-  O277  1  0.29882447  0.17131316  0.39666570  1
  O2-  O278  1  0.28981523  0.16674237  0.72802250  1
  O2-  O279  1  0.29117963  0.66702522  0.07004372  1
  O2-  O280  1  0.29021389  0.66148172  0.39890269  1
  O2-  O281  1  0.29284159  0.66025002  0.72996422  1
  O2-  O282  1  0.79654528  0.16594152  0.06310336  1
  O2-  O283  1  0.79355676  0.16302991  0.39552965  1
  O2-  O284  1  0.80447338  0.16517356  0.72922362  1
  O2-  O285  1  0.79363295  0.66803596  0.07295159  1
  O2-  O286  1  0.79896933  0.66427773  0.39773833  1
  O2-  O287  1  0.79876806  0.67035923  0.73460531  1
