# generated using pymatgen
data_Ca2Al2SiO7
_symmetry_space_group_name_H-M   'P 1'
_cell_length_a   15.46478922
_cell_length_b   15.46274639
_cell_length_c   15.28704427
_cell_angle_alpha   89.99080968
_cell_angle_beta   89.99520609
_cell_angle_gamma   90.02972244
_symmetry_Int_Tables_number   1
_chemical_formula_structural   Ca2Al2SiO7
_chemical_formula_sum   'Ca48 Al48 Si24 O168'
_cell_volume   3655.56150853
_cell_formula_units_Z   24
loop_
 _symmetry_equiv_pos_site_id
 _symmetry_equiv_pos_as_xyz
  1  'x, y, z'
loop_
 _atom_type_symbol
 _atom_type_oxidation_number
  Ca2+  2.0
  Al0+  0.0
  Si0+  0.0
  O2-  -2.0
loop_
 _atom_site_type_symbol
 _atom_site_label
 _atom_site_symmetry_multiplicity
 _atom_site_fract_x
 _atom_site_fract_y
 _atom_site_fract_z
 _atom_site_occupancy
  Ca2+  Ca0  1  0.17971262  0.08937608  0.16900308  1
  Ca2+  Ca1  1  0.17966137  0.07982316  0.50856552  1
  Ca2+  Ca2  1  0.17816384  0.08221746  0.83716166  1
  Ca2+  Ca3  1  0.17751107  0.58296680  0.17214525  1
  Ca2+  Ca4  1  0.17187712  0.57454241  0.50167957  1
  Ca2+  Ca5  1  0.17354238  0.57701594  0.83763001  1
  Ca2+  Ca6  1  0.65552138  0.07821353  0.16738109  1
  Ca2+  Ca7  1  0.66019035  0.07954267  0.50588751  1
  Ca2+  Ca8  1  0.65310684  0.07470522  0.83764241  1
  Ca2+  Ca9  1  0.67234598  0.57022953  0.16996751  1
  Ca2+  Ca10  1  0.67572478  0.58683559  0.50549216  1
  Ca2+  Ca11  1  0.67159308  0.58300295  0.84020794  1
  Ca2+  Ca12  1  0.08730163  0.33123647  0.16250384  1
  Ca2+  Ca13  1  0.08691658  0.34005538  0.49696424  1
  Ca2+  Ca14  1  0.08908566  0.32933183  0.82936556  1
  Ca2+  Ca15  1  0.06874445  0.83338805  0.15851071  1
  Ca2+  Ca16  1  0.07687820  0.83626476  0.49270711  1
  Ca2+  Ca17  1  0.07791601  0.83489330  0.82973928  1
  Ca2+  Ca18  1  0.59189863  0.32474145  0.16136828  1
  Ca2+  Ca19  1  0.58116125  0.32244570  0.49337954  1
  Ca2+  Ca20  1  0.57997478  0.32452808  0.82495844  1
  Ca2+  Ca21  1  0.57757306  0.83029233  0.15663272  1
  Ca2+  Ca22  1  0.58842251  0.82835420  0.50240427  1
  Ca2+  Ca23  1  0.58206156  0.83337128  0.83007893  1
  Ca2+  Ca24  1  0.32993748  0.42815323  0.17191853  1
  Ca2+  Ca25  1  0.32511385  0.41167238  0.50327696  1
  Ca2+  Ca26  1  0.33568676  0.41776019  0.83454362  1
  Ca2+  Ca27  1  0.34116749  0.92794685  0.16813789  1
  Ca2+  Ca28  1  0.33160017  0.92891679  0.50777826  1
  Ca2+  Ca29  1  0.33782153  0.92738926  0.83913009  1
  Ca2+  Ca30  1  0.82512389  0.42322250  0.17108294  1
  Ca2+  Ca31  1  0.82686735  0.42667119  0.50313565  1
  Ca2+  Ca32  1  0.82447531  0.42813484  0.84146366  1
  Ca2+  Ca33  1  0.83028877  0.91107053  0.16579498  1
  Ca2+  Ca34  1  0.82952020  0.91676287  0.50536317  1
  Ca2+  Ca35  1  0.81991775  0.91455307  0.83968925  1
  Ca2+  Ca36  1  0.42274854  0.16539990  0.16123191  1
  Ca2+  Ca37  1  0.42021203  0.16565717  0.49948681  1
  Ca2+  Ca38  1  0.42153180  0.16784882  0.82764420  1
  Ca2+  Ca39  1  0.41035161  0.67131875  0.15723746  1
  Ca2+  Ca40  1  0.42214543  0.66403948  0.49608295  1
  Ca2+  Ca41  1  0.42117809  0.67054939  0.82887893  1
  Ca2+  Ca42  1  0.92783903  0.16952675  0.15681078  1
  Ca2+  Ca43  1  0.92056371  0.16942332  0.49396316  1
  Ca2+  Ca44  1  0.92480398  0.16593122  0.83278099  1
  Ca2+  Ca45  1  0.90752998  0.67186786  0.16338513  1
  Ca2+  Ca46  1  0.91323066  0.66830941  0.49329362  1
  Ca2+  Ca47  1  0.90675012  0.66878159  0.83080893  1
  Al0+  Al48  1  -0.00064882  -0.00085983  -0.01051614  1
  Al0+  Al49  1  -0.00136559  -0.00009812  0.32686181  1
  Al0+  Al50  1  -0.00025713  0.00062350  0.66794118  1
  Al0+  Al51  1  -0.00016997  0.50072175  0.00358810  1
  Al0+  Al52  1  0.00001267  0.50129484  0.33671100  1
  Al0+  Al53  1  0.00067854  0.50170611  0.67513737  1
  Al0+  Al54  1  0.49886637  -0.00052716  0.00126113  1
  Al0+  Al55  1  0.50029986  -0.00087663  0.33554349  1
  Al0+  Al56  1  0.50003309  -0.00074430  0.66973025  1
  Al0+  Al57  1  0.49950894  0.49940871  0.00851039  1
  Al0+  Al58  1  0.50063947  0.49767248  0.33828016  1
  Al0+  Al59  1  0.50017226  0.49929858  0.65604500  1
  Al0+  Al60  1  0.25143968  0.24869837  -0.00072136  1
  Al0+  Al61  1  0.25284260  0.24929627  0.33999045  1
  Al0+  Al62  1  0.24981975  0.24954832  0.67036756  1
  Al0+  Al63  1  0.24693748  0.75205945  -0.00246941  1
  Al0+  Al64  1  0.24894302  0.75058763  0.33596751  1
  Al0+  Al65  1  0.24758366  0.74917442  0.66736260  1
  Al0+  Al66  1  0.75247164  0.24729946  -0.00368750  1
  Al0+  Al67  1  0.75187598  0.24775152  0.33145526  1
  Al0+  Al68  1  0.75270852  0.25114247  0.66193124  1
  Al0+  Al69  1  0.74877077  0.75121112  0.00390595  1
  Al0+  Al70  1  0.74816465  0.75068957  0.33102603  1
  Al0+  Al71  1  0.74987214  0.75246170  0.66937507  1
  Al0+  Al72  1  0.68128040  0.93191887  0.67969546  1
  Al0+  Al73  1  0.42728654  0.82091303  0.98689252  1
  Al0+  Al74  1  0.57179959  0.17758154  0.65096331  1
  Al0+  Al75  1  0.42700457  0.32095216  0.65006751  1
  Al0+  Al76  1  0.92702651  0.81823495  0.98271632  1
  Al0+  Al77  1  0.67812832  0.42476511  0.01300918  1
  Al0+  Al78  1  0.57185409  0.68049366  0.65404302  1
  Al0+  Al79  1  0.92812861  0.82074896  0.31890460  1
  Al0+  Al80  1  0.18044526  0.42946501  0.34706907  1
  Al0+  Al81  1  0.67884327  0.93187214  0.01525757  1
  Al0+  Al82  1  0.18036306  0.43059929  0.68244981  1
  Al0+  Al83  1  0.57046102  0.17855801  0.31777019  1
  Al0+  Al84  1  0.81746467  0.57218076  0.34916238  1
  Al0+  Al85  1  0.32004345  0.57331202  0.01078738  1
  Al0+  Al86  1  0.57138511  0.17957985  0.98657709  1
  Al0+  Al87  1  0.31997493  0.06988960  0.01532906  1
  Al0+  Al88  1  0.32298590  0.57507924  0.34966561  1
  Al0+  Al89  1  0.32226920  0.06881015  0.34824384  1
  Al0+  Al90  1  0.17606857  0.92647749  0.68186843  1
  Al0+  Al91  1  0.67932172  0.42359756  0.35056498  1
  Al0+  Al92  1  0.81888323  0.57090177  0.68120395  1
  Al0+  Al93  1  0.32058950  0.06927037  0.68429008  1
  Al0+  Al94  1  0.82114932  0.57190474  0.01644312  1
  Al0+  Al95  1  0.07323352  0.18073039  0.98513733  1
  Si0+  Si96  1  0.93028110  0.32189161  0.31867416  1
  Si0+  Si97  1  0.93017178  0.82001259  0.65148762  1
  Si0+  Si98  1  0.42628590  0.82128973  0.64996772  1
  Si0+  Si99  1  0.07120224  0.67688578  0.65137244  1
  Si0+  Si100  1  0.56969906  0.67712388  0.98650981  1
  Si0+  Si101  1  0.93128414  0.32396167  0.65147401  1
  Si0+  Si102  1  0.17481353  0.92997838  0.34668187  1
  Si0+  Si103  1  0.07191434  0.67696506  0.98185385  1
  Si0+  Si104  1  0.42868024  0.32388420  0.98577650  1
  Si0+  Si105  1  0.67717781  0.42650705  0.68119572  1
  Si0+  Si106  1  0.67977323  0.93034652  0.34804607  1
  Si0+  Si107  1  0.07253868  0.17966188  0.32008901  1
  Si0+  Si108  1  0.17906414  0.42733532  0.01555715  1
  Si0+  Si109  1  0.57090683  0.67769738  0.31788093  1
  Si0+  Si110  1  0.82388491  0.07575287  0.68284472  1
  Si0+  Si111  1  0.92889834  0.32368759  0.98237956  1
  Si0+  Si112  1  0.06967939  0.17952875  0.65027857  1
  Si0+  Si113  1  0.42647927  0.32136102  0.31499940  1
  Si0+  Si114  1  0.42910772  0.81958267  0.32043241  1
  Si0+  Si115  1  0.32523501  0.57257214  0.68244412  1
  Si0+  Si116  1  0.82536813  0.07057414  0.01602556  1
  Si0+  Si117  1  0.82453656  0.06995583  0.34601514  1
  Si0+  Si118  1  0.17488978  0.92892063  0.01698306  1
  Si0+  Si119  1  0.07224542  0.67770450  0.31648226  1
  O2-  O120  1  0.24430621  -0.00424116  0.06275152  1
  O2-  O121  1  0.24523487  -0.00479812  0.39237315  1
  O2-  O122  1  0.25074689  -0.00587592  0.73308135  1
  O2-  O123  1  0.24513801  0.49880129  0.05808568  1
  O2-  O124  1  0.25317494  0.50017207  0.39802003  1
  O2-  O125  1  0.25826183  0.50253182  0.72732400  1
  O2-  O126  1  0.75346822  0.00681325  0.06248245  1
  O2-  O127  1  0.75195876  0.00104646  0.38851332  1
  O2-  O128  1  0.75057778  0.01209270  0.72579664  1
  O2-  O129  1  0.75120984  0.49630142  0.06284722  1
  O2-  O130  1  0.74562990  0.50111648  0.40071133  1
  O2-  O131  1  0.74218909  0.49792449  0.72654306  1
  O2-  O132  1  0.00418064  0.25298571  0.27717929  1
  O2-  O133  1  -0.00016081  0.25112007  0.60682156  1
  O2-  O134  1  -0.00005003  0.25720217  0.93802453  1
  O2-  O135  1  0.00267372  0.74565451  0.27250407  1
  O2-  O136  1  0.00395173  0.75213286  0.60904614  1
  O2-  O137  1  -0.00069545  0.74101851  0.93636507  1
  O2-  O138  1  0.49906546  0.25651009  0.27087455  1
  O2-  O139  1  0.50071275  0.24999152  0.60044401  1
  O2-  O140  1  0.50100796  0.25893158  0.94210060  1
  O2-  O141  1  0.49314442  0.74251953  0.27729849  1
  O2-  O142  1  0.49348429  0.75124292  0.60522439  1
  O2-  O143  1  0.49916120  0.74319633  0.94132695  1
  O2-  O144  1  0.07273970  0.18287260  0.09913038  1
  O2-  O145  1  0.06842212  0.17688388  0.42511751  1
  O2-  O146  1  0.06746750  0.17989969  0.75519644  1
  O2-  O147  1  0.07442584  0.68007978  0.08731703  1
  O2-  O148  1  0.07226755  0.67948293  0.42232193  1
  O2-  O149  1  0.06997294  0.67527820  0.75623366  1
  O2-  O150  1  0.56788868  0.17875926  0.09998184  1
  O2-  O151  1  0.56929315  0.17561554  0.43043841  1
  O2-  O152  1  0.57099452  0.17920421  0.76448459  1
  O2-  O153  1  0.56838359  0.67897264  0.09241402  1
  O2-  O154  1  0.57493757  0.68370394  0.42296356  1
  O2-  O155  1  0.57148792  0.68197887  0.76716493  1
  O2-  O156  1  0.18117215  0.42915968  0.23323125  1
  O2-  O157  1  0.17750033  0.43343339  0.56971985  1
  O2-  O158  1  0.18004359  0.42725162  0.90997334  1
  O2-  O159  1  0.17280258  0.93254619  0.24137267  1
  O2-  O160  1  0.17371855  0.93102582  0.56759796  1
  O2-  O161  1  0.17551563  0.93052284  0.91164723  1
  O2-  O162  1  0.68455479  0.42276608  0.23703315  1
  O2-  O163  1  0.68259232  0.42534237  0.57602450  1
  O2-  O164  1  0.67787953  0.42691835  0.89910454  1
  O2-  O165  1  0.67821763  0.93042009  0.24310892  1
  O2-  O166  1  0.68577158  0.92944632  0.56591946  1
  O2-  O167  1  0.67949710  0.93147548  0.90232255  1
  O2-  O168  1  0.42513812  0.32263861  0.09123087  1
  O2-  O169  1  0.42334513  0.31685668  0.42013886  1
  O2-  O170  1  0.42911613  0.32222346  0.76417585  1
  O2-  O171  1  0.42981844  0.82051670  0.10083242  1
  O2-  O172  1  0.43216851  0.82162574  0.42542172  1
  O2-  O173  1  0.42734371  0.82039638  0.75541999  1
  O2-  O174  1  0.93015143  0.32160164  0.08833608  1
  O2-  O175  1  0.93020627  0.31933363  0.42400103  1
  O2-  O176  1  0.93225426  0.32228556  0.75630383  1
  O2-  O177  1  0.92903117  0.81893101  0.09604088  1
  O2-  O178  1  0.92988724  0.82325649  0.43243537  1
  O2-  O179  1  0.92896220  0.81835355  0.75622395  1
  O2-  O180  1  0.32179904  0.06844749  0.23508422  1
  O2-  O181  1  0.31880507  0.06778561  0.57024973  1
  O2-  O182  1  0.31954609  0.07021040  0.90297142  1
  O2-  O183  1  0.31848977  0.57727941  0.23580618  1
  O2-  O184  1  0.32156448  0.57468169  0.57719985  1
  O2-  O185  1  0.32010852  0.57164235  0.89773326  1
  O2-  O186  1  0.82938682  0.06927109  0.24137441  1
  O2-  O187  1  0.82900197  0.07251534  0.57671532  1
  O2-  O188  1  0.82722287  0.06817874  0.91047901  1
  O2-  O189  1  0.81578843  0.57164516  0.23610201  1
  O2-  O190  1  0.82009663  0.57108087  0.56820530  1
  O2-  O191  1  0.81784750  0.57137198  0.90258118  1
  O2-  O192  1  0.04197473  0.09022752  0.26964871  1
  O2-  O193  1  0.04009197  0.08805737  0.60215685  1
  O2-  O194  1  0.04024410  0.08622676  0.92880867  1
  O2-  O195  1  0.04826642  0.58354053  0.27087916  1
  O2-  O196  1  0.03806926  0.58668168  0.60398286  1
  O2-  O197  1  0.05142762  0.58055861  0.93880397  1
  O2-  O198  1  0.53624806  0.08127152  0.26582427  1
  O2-  O199  1  0.54316150  0.07785304  0.59980464  1
  O2-  O200  1  0.53477248  0.08453016  0.93426140  1
  O2-  O201  1  0.55142619  0.58220852  0.27461245  1
  O2-  O202  1  0.54750317  0.58416098  0.59648900  1
  O2-  O203  1  0.54647052  0.58228651  0.94208527  1
  O2-  O204  1  0.16548930  0.20641762  0.27472632  1
  O2-  O205  1  0.16173676  0.20680364  0.60450463  1
  O2-  O206  1  0.16895071  0.21165276  0.92978581  1
  O2-  O207  1  0.16593358  0.70438800  0.27023758  1
  O2-  O208  1  0.16428565  0.69930705  0.60325345  1
  O2-  O209  1  0.16280126  0.70644514  0.93222770  1
  O2-  O210  1  0.67035172  0.20317285  0.26592066  1
  O2-  O211  1  0.67283050  0.20239637  0.59913763  1
  O2-  O212  1  0.67099020  0.20012839  0.93337738  1
  O2-  O213  1  0.65865711  0.71329314  0.26777009  1
  O2-  O214  1  0.66631473  0.71894342  0.59862271  1
  O2-  O215  1  0.66220961  0.70662582  0.94135203  1
  O2-  O216  1  0.08427445  0.44839609  0.06095979  1
  O2-  O217  1  0.08194656  0.45700080  0.40071484  1
  O2-  O218  1  0.08621076  0.46363018  0.73951614  1
  O2-  O219  1  0.08064725  0.95665248  0.06045073  1
  O2-  O220  1  0.08188364  0.95820807  0.39352038  1
  O2-  O221  1  0.07853429  0.95801758  0.73497197  1
  O2-  O222  1  0.58148259  0.45228956  0.07016915  1
  O2-  O223  1  0.57803112  0.44339115  0.39912021  1
  O2-  O224  1  0.58110759  0.44885349  0.72187324  1
  O2-  O225  1  0.58316456  0.96245441  0.07072007  1
  O2-  O226  1  0.58956089  0.95869091  0.39749134  1
  O2-  O227  1  0.58337632  0.95534077  0.73345291  1
  O2-  O228  1  0.20699904  0.33497874  0.06214352  1
  O2-  O229  1  0.20668699  0.33131533  0.40221559  1
  O2-  O230  1  0.20711358  0.33300898  0.73535872  1
  O2-  O231  1  0.19699014  0.83429247  0.06176579  1
  O2-  O232  1  0.19601552  0.83528312  0.39188701  1
  O2-  O233  1  0.19600279  0.82508165  0.73200504  1
  O2-  O234  1  0.70921172  0.32607169  0.06454442  1
  O2-  O235  1  0.71436043  0.32671488  0.40299683  1
  O2-  O236  1  0.70722953  0.33385673  0.72723148  1
  O2-  O237  1  0.70934270  0.83581763  0.07006555  1
  O2-  O238  1  0.70833453  0.83897060  0.39524744  1
  O2-  O239  1  0.71686431  0.83850741  0.73579566  1
  O2-  O240  1  0.44671606  0.41818252  0.27268418  1
  O2-  O241  1  0.44943553  0.41960248  0.59450665  1
  O2-  O242  1  0.45045579  0.41924654  0.94114951  1
  O2-  O243  1  0.46385243  0.90880809  0.27198062  1
  O2-  O244  1  0.45530231  0.91386811  0.60401315  1
  O2-  O245  1  0.46324826  0.91499917  0.93261171  1
  O2-  O246  1  0.95651897  0.41427216  0.27179745  1
  O2-  O247  1  0.96295629  0.41530301  0.60546205  1
  O2-  O248  1  0.95205562  0.41871599  0.93799589  1
  O2-  O249  1  0.95865505  0.91659461  0.26202171  1
  O2-  O250  1  0.95505471  0.91373993  0.60489755  1
  O2-  O251  1  0.95806349  0.91369829  0.92694830  1
  O2-  O252  1  0.33382574  0.29124597  0.26845484  1
  O2-  O253  1  0.32806308  0.28953308  0.59876978  1
  O2-  O254  1  0.33685850  0.29478227  0.93790939  1
  O2-  O255  1  0.33436224  0.79969034  0.27468341  1
  O2-  O256  1  0.33113809  0.79893279  0.60459500  1
  O2-  O257  1  0.32946702  0.79560856  0.93295900  1
  O2-  O258  1  0.84125844  0.28971461  0.26911026  1
  O2-  O259  1  0.83989285  0.29878962  0.60153304  1
  O2-  O260  1  0.83748290  0.29541709  0.93364626  1
  O2-  O261  1  0.83115949  0.79089827  0.26493705  1
  O2-  O262  1  0.83951846  0.79008809  0.60340750  1
  O2-  O263  1  0.82885517  0.78887840  0.93077415  1
  O2-  O264  1  0.41454938  0.03558334  0.07040429  1
  O2-  O265  1  0.41637701  0.03302044  0.40349201  1
  O2-  O266  1  0.41912025  0.04188534  0.73617951  1
  O2-  O267  1  0.41494141  0.54518890  0.06901972  1
  O2-  O268  1  0.42302289  0.55173417  0.39963028  1
  O2-  O269  1  0.42027388  0.54829025  0.72554269  1
  O2-  O270  1  0.91818080  0.04079857  0.06188786  1
  O2-  O271  1  0.91499475  0.04036059  0.39625005  1
  O2-  O272  1  0.91524109  0.04580915  0.73063125  1
  O2-  O273  1  0.92116654  0.54732814  0.06871846  1
  O2-  O274  1  0.91745091  0.54602826  0.39958188  1
  O2-  O275  1  0.91395118  0.53989357  0.73695996  1
  O2-  O276  1  0.28833474  0.16667914  0.06912198  1
  O2-  O277  1  0.29171159  0.16397548  0.40328748  1
  O2-  O278  1  0.28857385  0.16618609  0.73647052  1
  O2-  O279  1  0.28710845  0.66962361  0.06489054  1
  O2-  O280  1  0.29309840  0.67280094  0.40434707  1
  O2-  O281  1  0.29777336  0.66576662  0.72831790  1
  O2-  O282  1  0.80661148  0.16651890  0.05934796  1
  O2-  O283  1  0.80012619  0.16193443  0.39384337  1
  O2-  O284  1  0.80610586  0.17196369  0.72610186  1
  O2-  O285  1  0.79023654  0.66885302  0.06925628  1
  O2-  O286  1  0.78780371  0.67136670  0.40123634  1
  O2-  O287  1  0.78787389  0.66739906  0.73406234  1
