# generated using pymatgen
data_Ca2Al2SiO7
_symmetry_space_group_name_H-M   'P 1'
_cell_length_a   15.46252915
_cell_length_b   15.46355514
_cell_length_c   15.28579506
_cell_angle_alpha   90.01986418
_cell_angle_beta   90.00846459
_cell_angle_gamma   90.01043273
_symmetry_Int_Tables_number   1
_chemical_formula_structural   Ca2Al2SiO7
_chemical_formula_sum   'Ca48 Al48 Si24 O168'
_cell_volume   3654.91998176
_cell_formula_units_Z   24
loop_
 _symmetry_equiv_pos_site_id
 _symmetry_equiv_pos_as_xyz
  1  'x, y, z'
loop_
 _atom_type_symbol
 _atom_type_oxidation_number
  Ca2+  2.0
  Al0+  0.0
  Si0+  0.0
  O2-  -2.0
loop_
 _atom_site_type_symbol
 _atom_site_label
 _atom_site_symmetry_multiplicity
 _atom_site_fract_x
 _atom_site_fract_y
 _atom_site_fract_z
 _atom_site_occupancy
  Ca2+  Ca0  1  0.15711712  0.07664897  0.16833142  1
  Ca2+  Ca1  1  0.16954599  0.07549702  0.50672342  1
  Ca2+  Ca2  1  0.17253080  0.07625945  0.83690602  1
  Ca2+  Ca3  1  0.17394265  0.58787585  0.16566154  1
  Ca2+  Ca4  1  0.17286695  0.57612863  0.51113097  1
  Ca2+  Ca5  1  0.17858138  0.58375106  0.83440647  1
  Ca2+  Ca6  1  0.66298777  0.07517088  0.16635365  1
  Ca2+  Ca7  1  0.66543422  0.07150889  0.50266558  1
  Ca2+  Ca8  1  0.66142378  0.07206472  0.83938922  1
  Ca2+  Ca9  1  0.66817965  0.57063079  0.17027413  1
  Ca2+  Ca10  1  0.67022760  0.57546747  0.51066863  1
  Ca2+  Ca11  1  0.66373560  0.57730714  0.83427292  1
  Ca2+  Ca12  1  0.07271813  0.32133863  0.15709097  1
  Ca2+  Ca13  1  0.08055392  0.32931779  0.48945398  1
  Ca2+  Ca14  1  0.08400837  0.33271721  0.82934173  1
  Ca2+  Ca15  1  0.07929892  0.83994422  0.15732904  1
  Ca2+  Ca16  1  0.08842661  0.83560175  0.49680110  1
  Ca2+  Ca17  1  0.07997527  0.84102338  0.83252371  1
  Ca2+  Ca18  1  0.59105409  0.32830811  0.15787786  1
  Ca2+  Ca19  1  0.58623506  0.33717536  0.49682061  1
  Ca2+  Ca20  1  0.59266422  0.32870234  0.83162322  1
  Ca2+  Ca21  1  0.57219511  0.84159263  0.15980052  1
  Ca2+  Ca22  1  0.57470618  0.83404910  0.49841235  1
  Ca2+  Ca23  1  0.57356392  0.83279890  0.82246384  1
  Ca2+  Ca24  1  0.33849547  0.42711208  0.16775578  1
  Ca2+  Ca25  1  0.32629000  0.42333720  0.51303317  1
  Ca2+  Ca26  1  0.33572261  0.43096111  0.83578725  1
  Ca2+  Ca27  1  0.32437343  0.91161566  0.17026513  1
  Ca2+  Ca28  1  0.32804763  0.91733675  0.50654452  1
  Ca2+  Ca29  1  0.32721251  0.91098917  0.83748076  1
  Ca2+  Ca30  1  0.82769243  0.40373463  0.16803868  1
  Ca2+  Ca31  1  0.82673334  0.41828510  0.50668128  1
  Ca2+  Ca32  1  0.82713994  0.42063903  0.83713679  1
  Ca2+  Ca33  1  0.82127539  0.91162829  0.16948316  1
  Ca2+  Ca34  1  0.81992068  0.91418421  0.50589056  1
  Ca2+  Ca35  1  0.81968766  0.91081077  0.84047262  1
  Ca2+  Ca36  1  0.42499298  0.16950431  0.15969976  1
  Ca2+  Ca37  1  0.41420530  0.16449977  0.50076366  1
  Ca2+  Ca38  1  0.42087788  0.16253185  0.82940265  1
  Ca2+  Ca39  1  0.41621573  0.67792579  0.15977410  1
  Ca2+  Ca40  1  0.41699313  0.67501116  0.50085999  1
  Ca2+  Ca41  1  0.41737030  0.67345469  0.82594517  1
  Ca2+  Ca42  1  0.92393913  0.17201113  0.15995651  1
  Ca2+  Ca43  1  0.92509072  0.17403803  0.48970118  1
  Ca2+  Ca44  1  0.92148938  0.17020139  0.83482813  1
  Ca2+  Ca45  1  0.92003715  0.67452642  0.16030984  1
  Ca2+  Ca46  1  0.91591400  0.66371956  0.50135390  1
  Ca2+  Ca47  1  0.91203858  0.67074036  0.82939552  1
  Al0+  Al48  1  -0.00092095  0.00070878  -0.00623982  1
  Al0+  Al49  1  -0.00076199  -0.00097912  0.33484349  1
  Al0+  Al50  1  -0.00046832  0.00139434  0.66646638  1
  Al0+  Al51  1  0.00134073  0.50075900  -0.00266439  1
  Al0+  Al52  1  0.00047701  0.50128418  0.32631474  1
  Al0+  Al53  1  -0.00232185  0.50063348  0.67241932  1
  Al0+  Al54  1  0.49798294  0.00134335  -0.00390944  1
  Al0+  Al55  1  0.49821025  0.00054528  0.33320341  1
  Al0+  Al56  1  0.49996096  0.00112729  0.66643822  1
  Al0+  Al57  1  0.50075886  0.50109174  0.01062552  1
  Al0+  Al58  1  0.50184372  0.50216350  0.33763576  1
  Al0+  Al59  1  0.50042429  0.49862777  0.66907500  1
  Al0+  Al60  1  0.25086729  0.25106559  -0.00311538  1
  Al0+  Al61  1  0.25190130  0.25028864  0.32611526  1
  Al0+  Al62  1  0.25020189  0.24719663  0.67197136  1
  Al0+  Al63  1  0.25015255  0.75077986  0.00481430  1
  Al0+  Al64  1  0.25132247  0.75146009  0.33392083  1
  Al0+  Al65  1  0.24733664  0.74987884  0.66834316  1
  Al0+  Al66  1  0.75114646  0.24841866  -0.00579704  1
  Al0+  Al67  1  0.74949360  0.24875367  0.33543905  1
  Al0+  Al68  1  0.75170451  0.24899045  0.66582938  1
  Al0+  Al69  1  0.74900537  0.74761082  0.00305261  1
  Al0+  Al70  1  0.74921351  0.74680328  0.33731001  1
  Al0+  Al71  1  0.74891972  0.74913064  0.66832904  1
  Al0+  Al72  1  0.17716950  0.42706315  0.67996350  1
  Al0+  Al73  1  0.68098237  0.42780801  0.34783230  1
  Al0+  Al74  1  0.67675731  0.92760680  0.01344149  1
  Al0+  Al75  1  0.92700567  0.81970111  0.98706135  1
  Al0+  Al76  1  0.57176898  0.67708015  0.65123232  1
  Al0+  Al77  1  0.67982991  0.93012733  0.67995974  1
  Al0+  Al78  1  0.67857091  0.42660955  0.68249237  1
  Al0+  Al79  1  0.42897621  0.82005971  0.98617675  1
  Al0+  Al80  1  0.42678190  0.82194883  0.65036647  1
  Al0+  Al81  1  0.56966018  0.18023773  0.98582603  1
  Al0+  Al82  1  0.82048520  0.57157942  0.68264248  1
  Al0+  Al83  1  0.17951598  0.93235070  0.01432408  1
  Al0+  Al84  1  0.43037986  0.82066082  0.31826493  1
  Al0+  Al85  1  0.32139690  0.57133346  0.68053463  1
  Al0+  Al86  1  0.68285124  0.42869875  0.01438109  1
  Al0+  Al87  1  0.17745158  0.92824150  0.68244337  1
  Al0+  Al88  1  0.17816621  0.93019284  0.34670743  1
  Al0+  Al89  1  0.67688526  0.92799730  0.34732952  1
  Al0+  Al90  1  0.92911259  0.32187863  0.98097919  1
  Al0+  Al91  1  0.07304956  0.17806669  0.98056468  1
  Al0+  Al92  1  0.32184837  0.07033637  0.68194722  1
  Al0+  Al93  1  0.32031683  0.57090538  0.01617718  1
  Al0+  Al94  1  0.92830166  0.32168412  0.31842252  1
  Al0+  Al95  1  0.07294524  0.17699513  0.31814422  1
  Si0+  Si96  1  0.32260480  0.07459552  0.01818597  1
  Si0+  Si97  1  0.93005082  0.32159161  0.65039934  1
  Si0+  Si98  1  0.07192620  0.17942456  0.64999861  1
  Si0+  Si99  1  0.07309517  0.67956533  0.98288734  1
  Si0+  Si100  1  0.57108113  0.67614697  0.98596142  1
  Si0+  Si101  1  0.82264792  0.07203069  0.68306641  1
  Si0+  Si102  1  0.82495344  0.57239941  0.01919593  1
  Si0+  Si103  1  0.82480429  0.57204363  0.34964400  1
  Si0+  Si104  1  0.57281266  0.17916503  0.64921922  1
  Si0+  Si105  1  0.18034578  0.42970832  0.34380225  1
  Si0+  Si106  1  0.17717762  0.42699112  0.01867519  1
  Si0+  Si107  1  0.56956311  0.18003168  0.31987403  1
  Si0+  Si108  1  0.07254095  0.67992605  0.31887774  1
  Si0+  Si109  1  0.92710011  0.81969860  0.32089179  1
  Si0+  Si110  1  0.57306218  0.67702022  0.31532445  1
  Si0+  Si111  1  0.32235496  0.07444748  0.34802471  1
  Si0+  Si112  1  0.82069278  0.07017194  0.01568393  1
  Si0+  Si113  1  0.92835631  0.82209091  0.65088999  1
  Si0+  Si114  1  0.42955532  0.32495443  0.31928227  1
  Si0+  Si115  1  0.42911835  0.32564442  0.98392089  1
  Si0+  Si116  1  0.06901252  0.67825830  0.65225665  1
  Si0+  Si117  1  0.32072130  0.57173027  0.34977620  1
  Si0+  Si118  1  0.42845671  0.31950905  0.65291105  1
  Si0+  Si119  1  0.82121525  0.07042370  0.34973986  1
  O2-  O120  1  0.25164301  0.00879620  0.06297654  1
  O2-  O121  1  0.25038834  0.00836615  0.39055642  1
  O2-  O122  1  0.25383825  -0.00480206  0.73196322  1
  O2-  O123  1  0.24648586  0.49493196  0.06394101  1
  O2-  O124  1  0.25111726  0.49847945  0.39019356  1
  O2-  O125  1  0.25001983  0.49806632  0.72958686  1
  O2-  O126  1  0.75376699  -0.00010111  0.06113943  1
  O2-  O127  1  0.75427959  0.00001554  0.39416353  1
  O2-  O128  1  0.75472986  0.00349672  0.72778065  1
  O2-  O129  1  0.75993163  0.50014035  0.06319360  1
  O2-  O130  1  0.75795930  0.50087134  0.39208231  1
  O2-  O131  1  0.74713832  0.50139282  0.73205386  1
  O2-  O132  1  0.00082369  0.24966311  0.26967180  1
  O2-  O133  1  0.00323880  0.25290661  0.60748624  1
  O2-  O134  1  0.00515133  0.25429474  0.93063042  1
  O2-  O135  1  0.00120343  0.75172801  0.27860520  1
  O2-  O136  1  0.00037140  0.75158457  0.60865655  1
  O2-  O137  1  0.00077971  0.74454823  0.93916610  1
  O2-  O138  1  0.50179639  0.25468237  0.27798215  1
  O2-  O139  1  0.50165435  0.25121465  0.60826939  1
  O2-  O140  1  0.49575091  0.25581058  0.93887169  1
  O2-  O141  1  0.50793560  0.74880283  0.27092101  1
  O2-  O142  1  0.49968835  0.74956540  0.60101620  1
  O2-  O143  1  0.50705248  0.74843659  0.94147912  1
  O2-  O144  1  0.06920371  0.17775724  0.09447256  1
  O2-  O145  1  0.07303087  0.18032912  0.43230353  1
  O2-  O146  1  0.06967392  0.17864096  0.75436785  1
  O2-  O147  1  0.07266464  0.68137144  0.08938773  1
  O2-  O148  1  0.07266892  0.67705079  0.42392976  1
  O2-  O149  1  0.06799202  0.67728817  0.75683021  1
  O2-  O150  1  0.56888865  0.18104744  0.09986766  1
  O2-  O151  1  0.56778979  0.17936567  0.42507566  1
  O2-  O152  1  0.57403879  0.17923972  0.75398530  1
  O2-  O153  1  0.56882222  0.67511442  0.09202124  1
  O2-  O154  1  0.57100901  0.67464661  0.42046048  1
  O2-  O155  1  0.57125569  0.67857410  0.76495661  1
  O2-  O156  1  0.18322333  0.43291426  0.23917448  1
  O2-  O157  1  0.17816595  0.42833664  0.56486397  1
  O2-  O158  1  0.17846038  0.42896699  0.91333402  1
  O2-  O159  1  0.17791541  0.92820843  0.23383053  1
  O2-  O160  1  0.17544985  0.93197539  0.56830327  1
  O2-  O161  1  0.18094284  0.93077050  0.90192818  1
  O2-  O162  1  0.68024824  0.42786709  0.23483308  1
  O2-  O163  1  0.68278305  0.42519227  0.56846947  1
  O2-  O164  1  0.68131651  0.43088436  0.90207453  1
  O2-  O165  1  0.67752258  0.93103606  0.23423099  1
  O2-  O166  1  0.68102545  0.93231021  0.56628910  1
  O2-  O167  1  0.67748205  0.92875788  0.90064143  1
  O2-  O168  1  0.43109101  0.32459139  0.09036049  1
  O2-  O169  1  0.42682764  0.32507534  0.42432261  1
  O2-  O170  1  0.42806396  0.31825564  0.75751568  1
  O2-  O171  1  0.42872340  0.81894845  0.09995105  1
  O2-  O172  1  0.42834515  0.81901065  0.43088416  1
  O2-  O173  1  0.42790969  0.82061561  0.76386076  1
  O2-  O174  1  0.92860566  0.31728046  0.09483235  1
  O2-  O175  1  0.93134236  0.32194230  0.43257353  1
  O2-  O176  1  0.92912907  0.31934451  0.75481836  1
  O2-  O177  1  0.92767032  0.81824973  0.10111546  1
  O2-  O178  1  0.92609892  0.81767911  0.42604810  1
  O2-  O179  1  0.92828087  0.82204640  0.75577351  1
  O2-  O180  1  0.32680985  0.07477246  0.24289026  1
  O2-  O181  1  0.31776471  0.07418562  0.56771701  1
  O2-  O182  1  0.32354773  0.07277023  0.91293884  1
  O2-  O183  1  0.31997079  0.57156444  0.24467342  1
  O2-  O184  1  0.31779077  0.56878840  0.56606597  1
  O2-  O185  1  0.31972405  0.57025894  0.90367172  1
  O2-  O186  1  0.82030200  0.07024401  0.24439023  1
  O2-  O187  1  0.82199152  0.07108982  0.57695647  1
  O2-  O188  1  0.81836744  0.06920770  0.91005387  1
  O2-  O189  1  0.82439971  0.57687366  0.24445487  1
  O2-  O190  1  0.82427989  0.56732760  0.56855698  1
  O2-  O191  1  0.82287579  0.57459740  0.91412820  1
  O2-  O192  1  0.04170599  0.07834292  0.26692945  1
  O2-  O193  1  0.04030022  0.08868623  0.60144539  1
  O2-  O194  1  0.03998697  0.08224107  0.92600933  1
  O2-  O195  1  0.04575608  0.58986387  0.26693386  1
  O2-  O196  1  0.03843003  0.58703497  0.60335152  1
  O2-  O197  1  0.05377239  0.58428889  0.93854578  1
  O2-  O198  1  0.53849352  0.09020405  0.27064098  1
  O2-  O199  1  0.54325584  0.08875805  0.59982501  1
  O2-  O200  1  0.53702337  0.08559108  0.92971445  1
  O2-  O201  1  0.54308074  0.58427023  0.26871289  1
  O2-  O202  1  0.54435208  0.57703658  0.59908203  1
  O2-  O203  1  0.54053144  0.58353362  0.94118013  1
  O2-  O204  1  0.17124615  0.20353649  0.26373619  1
  O2-  O205  1  0.16503225  0.20471850  0.60374336  1
  O2-  O206  1  0.17377208  0.20303090  0.93061913  1
  O2-  O207  1  0.16383061  0.70799255  0.27099984  1
  O2-  O208  1  0.16066476  0.70342694  0.60277796  1
  O2-  O209  1  0.16489901  0.70983380  0.93758059  1
  O2-  O210  1  0.66222416  0.20429539  0.27321924  1
  O2-  O211  1  0.66489375  0.20597187  0.60072646  1
  O2-  O212  1  0.66540716  0.20853156  0.93024285  1
  O2-  O213  1  0.66898655  0.69742052  0.27165716  1
  O2-  O214  1  0.67099946  0.70515227  0.59816644  1
  O2-  O215  1  0.66685625  0.69521545  0.94305518  1
  O2-  O216  1  0.08361179  0.45428164  0.06436362  1
  O2-  O217  1  0.08781387  0.45829199  0.38949407  1
  O2-  O218  1  0.08075046  0.45650244  0.73384776  1
  O2-  O219  1  0.08016651  0.96131009  0.06502186  1
  O2-  O220  1  0.08006529  0.95518127  0.40133521  1
  O2-  O221  1  0.07933980  0.96044892  0.73355179  1
  O2-  O222  1  0.58736928  0.45941332  0.07156045  1
  O2-  O223  1  0.58411686  0.45939887  0.40175727  1
  O2-  O224  1  0.57874944  0.44831212  0.73353505  1
  O2-  O225  1  0.58132005  0.96465984  0.06626753  1
  O2-  O226  1  0.58202830  0.96409388  0.40102700  1
  O2-  O227  1  0.58410969  0.96256745  0.73224756  1
  O2-  O228  1  0.20223682  0.33255374  0.06324951  1
  O2-  O229  1  0.20706204  0.33663806  0.38941808  1
  O2-  O230  1  0.20373612  0.32942580  0.73264908  1
  O2-  O231  1  0.21015788  0.83606639  0.06945725  1
  O2-  O232  1  0.21107888  0.83374369  0.40051907  1
  O2-  O233  1  0.19733264  0.82789063  0.73303273  1
  O2-  O234  1  0.71283597  0.33002053  0.06562720  1
  O2-  O235  1  0.70731423  0.33018925  0.40230210  1
  O2-  O236  1  0.71061745  0.32845258  0.73327187  1
  O2-  O237  1  0.70578053  0.83061256  0.06824160  1
  O2-  O238  1  0.70678774  0.83061344  0.40008924  1
  O2-  O239  1  0.71005082  0.83411295  0.73284122  1
  O2-  O240  1  0.45697885  0.41737859  0.27265296  1
  O2-  O241  1  0.45306084  0.41169820  0.60429196  1
  O2-  O242  1  0.45728524  0.41955218  0.94104708  1
  O2-  O243  1  0.45882075  0.91861463  0.26540891  1
  O2-  O244  1  0.45674898  0.92101946  0.59815919  1
  O2-  O245  1  0.45529127  0.91744865  0.93345305  1
  O2-  O246  1  0.95423367  0.42017747  0.26407896  1
  O2-  O247  1  0.95537241  0.41497418  0.60479692  1
  O2-  O248  1  0.95310847  0.42312061  0.93190193  1
  O2-  O249  1  0.95102932  0.91237807  0.27435905  1
  O2-  O250  1  0.95491871  0.91430226  0.60274034  1
  O2-  O251  1  0.95574170  0.91521175  0.93151140  1
  O2-  O252  1  0.33966453  0.29806077  0.26744748  1
  O2-  O253  1  0.33710195  0.28897093  0.60422741  1
  O2-  O254  1  0.33443120  0.30485798  0.93910978  1
  O2-  O255  1  0.33421136  0.78604338  0.26473269  1
  O2-  O256  1  0.32697848  0.79274172  0.59890560  1
  O2-  O257  1  0.33274456  0.78534354  0.93496023  1
  O2-  O258  1  0.82963588  0.28991335  0.26778901  1
  O2-  O259  1  0.83931966  0.29021956  0.60173018  1
  O2-  O260  1  0.83314286  0.28879761  0.92685757  1
  O2-  O261  1  0.83615633  0.78880909  0.27261227  1
  O2-  O262  1  0.83751710  0.79234987  0.60249209  1
  O2-  O263  1  0.83017024  0.78753090  0.93372776  1
  O2-  O264  1  0.41549515  0.04689449  0.06452110  1
  O2-  O265  1  0.41376796  0.04596621  0.39707015  1
  O2-  O266  1  0.42244945  0.04958974  0.73205811  1
  O2-  O267  1  0.41473728  0.53984458  0.07525278  1
  O2-  O268  1  0.41278329  0.54538123  0.39638688  1
  O2-  O269  1  0.41834857  0.54215816  0.73398459  1
  O2-  O270  1  0.91489947  0.04608199  0.06023821  1
  O2-  O271  1  0.91471325  0.04663406  0.39713152  1
  O2-  O272  1  0.91598667  0.04776469  0.72879357  1
  O2-  O273  1  0.92121570  0.55237895  0.06270150  1
  O2-  O274  1  0.92041132  0.54907698  0.39376760  1
  O2-  O275  1  0.91720115  0.54361491  0.73817991  1
  O2-  O276  1  0.30238770  0.17090355  0.06208501  1
  O2-  O277  1  0.30080809  0.17031598  0.39278195  1
  O2-  O278  1  0.29250323  0.16663710  0.73784536  1
  O2-  O279  1  0.28518252  0.66494995  0.07300136  1
  O2-  O280  1  0.28939907  0.66196169  0.39693225  1
  O2-  O281  1  0.28974319  0.66766163  0.73362327  1
  O2-  O282  1  0.79207349  0.16269845  0.06179469  1
  O2-  O283  1  0.79306919  0.16235919  0.39824858  1
  O2-  O284  1  0.79717291  0.16524551  0.72845991  1
  O2-  O285  1  0.79562047  0.66376571  0.06856157  1
  O2-  O286  1  0.79764255  0.66354951  0.39957092  1
  O2-  O287  1  0.79558111  0.67054644  0.73483181  1
