# generated using pymatgen
data_Ca2Al2SiO7
_symmetry_space_group_name_H-M   'P 1'
_cell_length_a   15.46306621
_cell_length_b   15.46408704
_cell_length_c   15.28836082
_cell_angle_alpha   89.99207383
_cell_angle_beta   90.00191936
_cell_angle_gamma   90.01290493
_symmetry_Int_Tables_number   1
_chemical_formula_structural   Ca2Al2SiO7
_chemical_formula_sum   'Ca48 Al48 Si24 O168'
_cell_volume   3655.78636914
_cell_formula_units_Z   24
loop_
 _symmetry_equiv_pos_site_id
 _symmetry_equiv_pos_as_xyz
  1  'x, y, z'
loop_
 _atom_type_symbol
 _atom_type_oxidation_number
  Ca2+  2.0
  Al0+  0.0
  Si0+  0.0
  O2-  -2.0
loop_
 _atom_site_type_symbol
 _atom_site_label
 _atom_site_symmetry_multiplicity
 _atom_site_fract_x
 _atom_site_fract_y
 _atom_site_fract_z
 _atom_site_occupancy
  Ca2+  Ca0  1  0.16828222  0.07197624  0.17592166  1
  Ca2+  Ca1  1  0.16268006  0.08376963  0.50185792  1
  Ca2+  Ca2  1  0.16536859  0.07854831  0.83861717  1
  Ca2+  Ca3  1  0.17521239  0.58480188  0.17181298  1
  Ca2+  Ca4  1  0.17323121  0.56988039  0.50483041  1
  Ca2+  Ca5  1  0.17441385  0.58416424  0.83858122  1
  Ca2+  Ca6  1  0.67606231  0.08069332  0.17078118  1
  Ca2+  Ca7  1  0.67622204  0.07883378  0.50704175  1
  Ca2+  Ca8  1  0.67319655  0.08582443  0.83718516  1
  Ca2+  Ca9  1  0.66588532  0.58503670  0.16786379  1
  Ca2+  Ca10  1  0.66920897  0.57988883  0.50325425  1
  Ca2+  Ca11  1  0.66308718  0.58190885  0.83882201  1
  Ca2+  Ca12  1  0.07713437  0.33099454  0.16686533  1
  Ca2+  Ca13  1  0.08553430  0.32513771  0.49130165  1
  Ca2+  Ca14  1  0.07959966  0.32944959  0.82657910  1
  Ca2+  Ca15  1  0.08652769  0.83305826  0.15638861  1
  Ca2+  Ca16  1  0.08535384  0.83278227  0.49490389  1
  Ca2+  Ca17  1  0.08427288  0.83304361  0.83802620  1
  Ca2+  Ca18  1  0.57988761  0.32457590  0.15814011  1
  Ca2+  Ca19  1  0.58258813  0.32554195  0.49837594  1
  Ca2+  Ca20  1  0.58279677  0.32066492  0.83098462  1
  Ca2+  Ca21  1  0.57761750  0.83003900  0.15818390  1
  Ca2+  Ca22  1  0.57996789  0.84271705  0.49830953  1
  Ca2+  Ca23  1  0.57079896  0.83543928  0.82694481  1
  Ca2+  Ca24  1  0.32843304  0.43019337  0.17584324  1
  Ca2+  Ca25  1  0.32359298  0.42335358  0.50697433  1
  Ca2+  Ca26  1  0.32886139  0.42591969  0.83792474  1
  Ca2+  Ca27  1  0.32455706  0.91521229  0.16976062  1
  Ca2+  Ca28  1  0.32995766  0.92023900  0.49828308  1
  Ca2+  Ca29  1  0.33131661  0.91027800  0.83879360  1
  Ca2+  Ca30  1  0.83821048  0.41276498  0.16838421  1
  Ca2+  Ca31  1  0.83754892  0.41368655  0.50000609  1
  Ca2+  Ca32  1  0.83363563  0.41399166  0.83961835  1
  Ca2+  Ca33  1  0.83305370  0.92780878  0.17257563  1
  Ca2+  Ca34  1  0.82289338  0.92730397  0.50614020  1
  Ca2+  Ca35  1  0.83358581  0.92962380  0.84031417  1
  Ca2+  Ca36  1  0.42271601  0.15942916  0.16284322  1
  Ca2+  Ca37  1  0.42235114  0.15839421  0.49504496  1
  Ca2+  Ca38  1  0.43227543  0.15814218  0.82706962  1
  Ca2+  Ca39  1  0.41652923  0.66978238  0.15538257  1
  Ca2+  Ca40  1  0.40758215  0.66927542  0.49994068  1
  Ca2+  Ca41  1  0.40982739  0.67485104  0.83253556  1
  Ca2+  Ca42  1  0.91566923  0.17070230  0.16447469  1
  Ca2+  Ca43  1  0.92484037  0.16507328  0.49326481  1
  Ca2+  Ca44  1  0.91808786  0.16588504  0.82947028  1
  Ca2+  Ca45  1  0.92692813  0.67939092  0.15445082  1
  Ca2+  Ca46  1  0.91856072  0.66965326  0.49373327  1
  Ca2+  Ca47  1  0.92165861  0.67441883  0.83469595  1
  Al0+  Al48  1  0.00028401  0.00151012  0.00560023  1
  Al0+  Al49  1  -0.00083124  0.00003654  0.33717516  1
  Al0+  Al50  1  -0.00146134  0.00044731  0.66621438  1
  Al0+  Al51  1  -0.00106482  0.49939302  -0.00748178  1
  Al0+  Al52  1  0.00043968  0.50110100  0.33240447  1
  Al0+  Al53  1  0.00008627  0.50055923  0.67001248  1
  Al0+  Al54  1  0.50200211  -0.00073341  -0.00799763  1
  Al0+  Al55  1  0.49854045  -0.00286256  0.33539813  1
  Al0+  Al56  1  0.49936750  -0.00204434  0.65923824  1
  Al0+  Al57  1  0.49955660  0.49819154  0.00141441  1
  Al0+  Al58  1  0.50225647  0.50050768  0.33756268  1
  Al0+  Al59  1  0.50069210  0.50165619  0.67035752  1
  Al0+  Al60  1  0.24968657  0.25116415  0.00172059  1
  Al0+  Al61  1  0.25168040  0.25024172  0.33311964  1
  Al0+  Al62  1  0.24928552  0.25000869  0.66902128  1
  Al0+  Al63  1  0.25043919  0.74898006  0.00040904  1
  Al0+  Al64  1  0.25117760  0.75127896  0.33991075  1
  Al0+  Al65  1  0.24973198  0.74998243  0.66365515  1
  Al0+  Al66  1  0.75016923  0.25031571  -0.00259460  1
  Al0+  Al67  1  0.74973085  0.25051998  0.33334959  1
  Al0+  Al68  1  0.74998093  0.25082414  0.66480949  1
  Al0+  Al69  1  0.75036204  0.74979871  -0.00699033  1
  Al0+  Al70  1  0.74888930  0.74866809  0.33613451  1
  Al0+  Al71  1  0.74755005  0.75021813  0.66968906  1
  Al0+  Al72  1  0.57095643  0.17970508  0.64988345  1
  Al0+  Al73  1  0.31959004  0.56857231  0.01463751  1
  Al0+  Al74  1  0.67932748  0.92672081  0.34649500  1
  Al0+  Al75  1  0.67625943  0.92925194  0.68477588  1
  Al0+  Al76  1  0.42801917  0.81910002  0.64815550  1
  Al0+  Al77  1  0.17763051  0.92953128  0.34938152  1
  Al0+  Al78  1  0.18153780  0.93101785  0.01153432  1
  Al0+  Al79  1  0.07370322  0.17640429  0.31642009  1
  Al0+  Al80  1  0.56968740  0.17941030  0.98758253  1
  Al0+  Al81  1  0.92885877  0.82569895  0.98560587  1
  Al0+  Al82  1  0.82023783  0.07369742  0.34937071  1
  Al0+  Al83  1  0.93012316  0.31933024  0.98515320  1
  Al0+  Al84  1  0.82002579  0.07232859  0.01547243  1
  Al0+  Al85  1  0.07104253  0.17871804  0.65382423  1
  Al0+  Al86  1  0.32017364  0.57180668  0.68479752  1
  Al0+  Al87  1  0.82081544  0.07141634  0.68372202  1
  Al0+  Al88  1  0.17743685  0.42956278  0.34678477  1
  Al0+  Al89  1  0.32375905  0.57159806  0.34975841  1
  Al0+  Al90  1  0.17783402  0.42653613  0.68465869  1
  Al0+  Al91  1  0.07209258  0.67938282  0.98522092  1
  Al0+  Al92  1  0.32160000  0.07162025  0.34662458  1
  Al0+  Al93  1  0.92901380  0.32141530  0.31785116  1
  Al0+  Al94  1  0.42977960  0.81959323  0.98577873  1
  Al0+  Al95  1  0.57199590  0.67578467  0.98514397  1
  Si0+  Si96  1  0.82048212  0.57073651  0.34590092  1
  Si0+  Si97  1  0.07372843  0.17806678  0.98468025  1
  Si0+  Si98  1  0.92649695  0.81965234  0.32095402  1
  Si0+  Si99  1  0.42656201  0.32226749  0.98455369  1
  Si0+  Si100  1  0.57328001  0.67660924  0.64734639  1
  Si0+  Si101  1  0.82214906  0.57230738  0.01420558  1
  Si0+  Si102  1  0.32565085  0.07365494  0.01314533  1
  Si0+  Si103  1  0.67977312  0.42955179  0.68215231  1
  Si0+  Si104  1  0.68050638  0.42962024  0.01498430  1
  Si0+  Si105  1  0.92850322  0.32385588  0.64982346  1
  Si0+  Si106  1  0.17437930  0.42644554  0.01805855  1
  Si0+  Si107  1  0.82173977  0.57239167  0.68257625  1
  Si0+  Si108  1  0.42929957  0.81904028  0.31731092  1
  Si0+  Si109  1  0.32097471  0.07055501  0.68075010  1
  Si0+  Si110  1  0.57254276  0.67718146  0.31912401  1
  Si0+  Si111  1  0.42917288  0.32313231  0.65090315  1
  Si0+  Si112  1  0.17816423  0.92914308  0.68172177  1
  Si0+  Si113  1  0.67710655  0.92703355  0.01488589  1
  Si0+  Si114  1  0.92740300  0.82030980  0.65096891  1
  Si0+  Si115  1  0.67867176  0.42830316  0.34781943  1
  Si0+  Si116  1  0.07122564  0.68150358  0.32026289  1
  Si0+  Si117  1  0.56907944  0.17863337  0.31830154  1
  Si0+  Si118  1  0.43017790  0.32412999  0.31947914  1
  Si0+  Si119  1  0.06924987  0.67933419  0.64990883  1
  O2-  O120  1  0.25584021  0.00665278  0.05702213  1
  O2-  O121  1  0.24430539  0.00669707  0.39910153  1
  O2-  O122  1  0.24858163  0.00106370  0.72308494  1
  O2-  O123  1  0.24401294  0.49465145  0.06131521  1
  O2-  O124  1  0.25243032  0.49812673  0.39735994  1
  O2-  O125  1  0.24925768  0.49891519  0.73455514  1
  O2-  O126  1  0.74775181  -0.00658462  0.05960820  1
  O2-  O127  1  0.74874126  0.00029470  0.39724853  1
  O2-  O128  1  0.74803460  0.00088742  0.73501755  1
  O2-  O129  1  0.74870390  0.50374081  0.05725365  1
  O2-  O130  1  0.75259303  0.49703366  0.38886440  1
  O2-  O131  1  0.75129700  0.50028362  0.72385740  1
  O2-  O132  1  -0.00019670  0.24822116  0.26796531  1
  O2-  O133  1  -0.00212285  0.25571827  0.60773380  1
  O2-  O134  1  0.00688462  0.24756020  0.93896339  1
  O2-  O135  1  0.00338992  0.75544568  0.27808682  1
  O2-  O136  1  -0.00271423  0.74894403  0.60651407  1
  O2-  O137  1  0.00033829  0.75255423  0.93560127  1
  O2-  O138  1  0.49676505  0.24881033  0.27616473  1
  O2-  O139  1  0.49447388  0.25294090  0.60319363  1
  O2-  O140  1  0.48925399  0.24812908  0.94038835  1
  O2-  O141  1  0.49989953  0.74621889  0.27736532  1
  O2-  O142  1  0.50464338  0.74457484  0.60247653  1
  O2-  O143  1  0.50243268  0.74878169  0.93426496  1
  O2-  O144  1  0.07464497  0.17907986  0.08975468  1
  O2-  O145  1  0.07150157  0.17864910  0.43026723  1
  O2-  O146  1  0.06960966  0.17743019  0.76714611  1
  O2-  O147  1  0.07047392  0.68005144  0.09951078  1
  O2-  O148  1  0.06693191  0.68056386  0.42572224  1
  O2-  O149  1  0.06829570  0.68044129  0.75464542  1
  O2-  O150  1  0.56954162  0.18135518  0.10126025  1
  O2-  O151  1  0.56932612  0.18137581  0.42330720  1
  O2-  O152  1  0.57106957  0.18269384  0.76306350  1
  O2-  O153  1  0.57099587  0.67592714  0.09953405  1
  O2-  O154  1  0.57610204  0.67530872  0.42378017  1
  O2-  O155  1  0.57459969  0.67504096  0.75229024  1
  O2-  O156  1  0.17709131  0.43520983  0.23310753  1
  O2-  O157  1  0.17736542  0.42843216  0.57108734  1
  O2-  O158  1  0.17637385  0.42505279  0.91261826  1
  O2-  O159  1  0.18205212  0.92403482  0.23601765  1
  O2-  O160  1  0.17790956  0.92870699  0.57682355  1
  O2-  O161  1  0.18176149  0.93283069  0.89786827  1
  O2-  O162  1  0.67501998  0.42973788  0.24289203  1
  O2-  O163  1  0.67993509  0.43054202  0.57662527  1
  O2-  O164  1  0.68200905  0.42894523  0.90973249  1
  O2-  O165  1  0.68073380  0.92480437  0.23273473  1
  O2-  O166  1  0.68003506  0.92999729  0.57098169  1
  O2-  O167  1  0.67539043  0.93028339  0.90984025  1
  O2-  O168  1  0.43078747  0.32406145  0.09041168  1
  O2-  O169  1  0.43604657  0.32729942  0.42430031  1
  O2-  O170  1  0.43343601  0.32206894  0.75651907  1
  O2-  O171  1  0.43075157  0.81952666  0.09977673  1
  O2-  O172  1  0.42957479  0.81906443  0.42224883  1
  O2-  O173  1  0.42605280  0.81831141  0.76091763  1
  O2-  O174  1  0.92890591  0.31964577  0.09781027  1
  O2-  O175  1  0.92860232  0.32395778  0.43124242  1
  O2-  O176  1  0.92738085  0.32460547  0.75546465  1
  O2-  O177  1  0.92893363  0.82280823  0.09987903  1
  O2-  O178  1  0.92404166  0.81281075  0.42623020  1
  O2-  O179  1  0.92946579  0.81898119  0.75567244  1
  O2-  O180  1  0.32694945  0.06469521  0.23303678  1
  O2-  O181  1  0.32032158  0.07003399  0.57588386  1
  O2-  O182  1  0.32489265  0.07423396  0.90732923  1
  O2-  O183  1  0.32465956  0.57174104  0.23602731  1
  O2-  O184  1  0.31796938  0.56952179  0.57119455  1
  O2-  O185  1  0.31923710  0.56700145  0.90197680  1
  O2-  O186  1  0.81660701  0.07417969  0.23549969  1
  O2-  O187  1  0.82108695  0.06987965  0.57044886  1
  O2-  O188  1  0.81864411  0.07393558  0.90265136  1
  O2-  O189  1  0.81775654  0.57398064  0.24118111  1
  O2-  O190  1  0.82188422  0.57237080  0.57678069  1
  O2-  O191  1  0.82230548  0.56962067  0.90899448  1
  O2-  O192  1  0.04586001  0.07587371  0.26645956  1
  O2-  O193  1  0.03931929  0.08221225  0.59921799  1
  O2-  O194  1  0.04615147  0.08514782  0.93946725  1
  O2-  O195  1  0.04076323  0.59159020  0.27188221  1
  O2-  O196  1  0.03989096  0.58716941  0.60341746  1
  O2-  O197  1  0.04147730  0.58305366  0.92988156  1
  O2-  O198  1  0.54096154  0.08633268  0.27211021  1
  O2-  O199  1  0.53987533  0.08405965  0.59556396  1
  O2-  O200  1  0.54433189  0.08394821  0.92947819  1
  O2-  O201  1  0.54831055  0.58390920  0.27222189  1
  O2-  O202  1  0.54912846  0.58153732  0.60203371  1
  O2-  O203  1  0.54474958  0.57616088  0.93396888  1
  O2-  O204  1  0.17381383  0.20258498  0.26460819  1
  O2-  O205  1  0.16943202  0.20630748  0.60124330  1
  O2-  O206  1  0.16879007  0.20056559  0.93864048  1
  O2-  O207  1  0.16463047  0.70786639  0.27559719  1
  O2-  O208  1  0.15960361  0.70904974  0.60160746  1
  O2-  O209  1  0.16859649  0.70947091  0.93103274  1
  O2-  O210  1  0.65982074  0.20970300  0.27118806  1
  O2-  O211  1  0.66618962  0.21554020  0.59583805  1
  O2-  O212  1  0.66213986  0.21877701  0.93229142  1
  O2-  O213  1  0.66405732  0.70560871  0.27043960  1
  O2-  O214  1  0.66824338  0.70050928  0.60153048  1
  O2-  O215  1  0.67190962  0.69659228  0.93260548  1
  O2-  O216  1  0.07984503  0.45332368  0.06065226  1
  O2-  O217  1  0.08050651  0.46210371  0.40130444  1
  O2-  O218  1  0.07879612  0.45619736  0.73611927  1
  O2-  O219  1  0.08580189  0.95956887  0.06798211  1
  O2-  O220  1  0.07742952  0.94921392  0.40198018  1
  O2-  O221  1  0.08618791  0.95596770  0.72858053  1
  O2-  O222  1  0.58823260  0.45346046  0.06368480  1
  O2-  O223  1  0.59054301  0.45933859  0.40028784  1
  O2-  O224  1  0.58902966  0.45706848  0.73123425  1
  O2-  O225  1  0.58394864  0.95573344  0.06108990  1
  O2-  O226  1  0.58081686  0.95381722  0.39808822  1
  O2-  O227  1  0.57589951  0.95762636  0.73247461  1
  O2-  O228  1  0.19884994  0.33232412  0.06427427  1
  O2-  O229  1  0.20394864  0.33040705  0.39742972  1
  O2-  O230  1  0.20605507  0.32835868  0.73851204  1
  O2-  O231  1  0.21200914  0.83469931  0.06587574  1
  O2-  O232  1  0.21068128  0.83379739  0.40558049  1
  O2-  O233  1  0.20721818  0.83735022  0.72739124  1
  O2-  O234  1  0.71182504  0.33984838  0.06383148  1
  O2-  O235  1  0.70429421  0.33712199  0.39686943  1
  O2-  O236  1  0.70776713  0.33835603  0.72997182  1
  O2-  O237  1  0.69908197  0.83088464  0.05754078  1
  O2-  O238  1  0.70780493  0.82897392  0.40215536  1
  O2-  O239  1  0.70114837  0.82859309  0.73445690  1
  O2-  O240  1  0.46473788  0.41385717  0.27068858  1
  O2-  O241  1  0.45899700  0.41608512  0.60524167  1
  O2-  O242  1  0.45955449  0.41197130  0.93601187  1
  O2-  O243  1  0.45795423  0.91010905  0.26906312  1
  O2-  O244  1  0.45785463  0.91505786  0.59245538  1
  O2-  O245  1  0.45525780  0.91766603  0.93013443  1
  O2-  O246  1  0.95602298  0.42160152  0.26522781  1
  O2-  O247  1  0.95142788  0.41924046  0.60513876  1
  O2-  O248  1  0.95532818  0.41628364  0.92895094  1
  O2-  O249  1  0.94698390  0.91414928  0.27762799  1
  O2-  O250  1  0.95672363  0.91127991  0.60346830  1
  O2-  O251  1  0.95992542  0.92320285  0.93303330  1
  O2-  O252  1  0.33720452  0.30379170  0.27222353  1
  O2-  O253  1  0.33407343  0.30023087  0.60801257  1
  O2-  O254  1  0.33048805  0.30462934  0.94080609  1
  O2-  O255  1  0.33660822  0.79113073  0.27162753  1
  O2-  O256  1  0.33142190  0.78727460  0.59360019  1
  O2-  O257  1  0.33260234  0.78901930  0.93236909  1
  O2-  O258  1  0.82801747  0.29668756  0.26619538  1
  O2-  O259  1  0.83428108  0.30035901  0.60410074  1
  O2-  O260  1  0.83382169  0.28895579  0.93048323  1
  O2-  O261  1  0.83766468  0.78462967  0.27204689  1
  O2-  O262  1  0.83526855  0.79077128  0.60483536  1
  O2-  O263  1  0.83199835  0.79646312  0.93068618  1
  O2-  O264  1  0.41969005  0.04701906  0.05772002  1
  O2-  O265  1  0.41669866  0.03610493  0.40271989  1
  O2-  O266  1  0.41244459  0.03956054  0.72614320  1
  O2-  O267  1  0.41656062  0.53662546  0.06862323  1
  O2-  O268  1  0.42269503  0.54456294  0.40266436  1
  O2-  O269  1  0.42065046  0.54641218  0.73493448  1
  O2-  O270  1  0.91674450  0.04441850  0.06997000  1
  O2-  O271  1  0.91835950  0.04604349  0.40117808  1
  O2-  O272  1  0.91885187  0.03960946  0.73622172  1
  O2-  O273  1  0.91330680  0.54168157  0.06123399  1
  O2-  O274  1  0.91220253  0.54609017  0.39490958  1
  O2-  O275  1  0.91294584  0.54603215  0.73096452  1
  O2-  O276  1  0.30433828  0.16858919  0.05926418  1
  O2-  O277  1  0.30690674  0.17373729  0.39644228  1
  O2-  O278  1  0.29780166  0.16271836  0.72913164  1
  O2-  O279  1  0.28930234  0.66510647  0.06839876  1
  O2-  O280  1  0.29323516  0.66830627  0.40291412  1
  O2-  O281  1  0.28694742  0.67025095  0.73447767  1
  O2-  O282  1  0.78348612  0.16774469  0.06837159  1
  O2-  O283  1  0.79020831  0.17164510  0.40219868  1
  O2-  O284  1  0.79331736  0.17206210  0.73280102  1
  O2-  O285  1  0.79718973  0.66528529  0.06119082  1
  O2-  O286  1  0.78908000  0.65906567  0.39833773  1
  O2-  O287  1  0.79341520  0.66311280  0.73068980  1
