# generated using pymatgen
data_Ca2Al2SiO7
_symmetry_space_group_name_H-M   'P 1'
_cell_length_a   15.45350615
_cell_length_b   15.45329711
_cell_length_c   15.28083584
_cell_angle_alpha   89.99652284
_cell_angle_beta   89.99181923
_cell_angle_gamma   90.00740516
_symmetry_Int_Tables_number   1
_chemical_formula_structural   Ca2Al2SiO7
_chemical_formula_sum   'Ca48 Al48 Si24 O168'
_cell_volume   3649.17999284
_cell_formula_units_Z   24
loop_
 _symmetry_equiv_pos_site_id
 _symmetry_equiv_pos_as_xyz
  1  'x, y, z'
loop_
 _atom_type_symbol
 _atom_type_oxidation_number
  Ca2+  2.0
  Al0+  0.0
  Si0+  0.0
  O2-  -2.0
loop_
 _atom_site_type_symbol
 _atom_site_label
 _atom_site_symmetry_multiplicity
 _atom_site_fract_x
 _atom_site_fract_y
 _atom_site_fract_z
 _atom_site_occupancy
  Ca2+  Ca0  1  0.17150262  0.07550654  0.16916038  1
  Ca2+  Ca1  1  0.16938480  0.08918791  0.50488028  1
  Ca2+  Ca2  1  0.16129217  0.07685658  0.83836538  1
  Ca2+  Ca3  1  0.17339355  0.59403764  0.17138082  1
  Ca2+  Ca4  1  0.16805545  0.58033708  0.50095631  1
  Ca2+  Ca5  1  0.16980540  0.57937726  0.84006313  1
  Ca2+  Ca6  1  0.66876644  0.07880065  0.17311593  1
  Ca2+  Ca7  1  0.66974174  0.07877759  0.50154660  1
  Ca2+  Ca8  1  0.68231999  0.08424383  0.83706218  1
  Ca2+  Ca9  1  0.67946209  0.57948508  0.16864881  1
  Ca2+  Ca10  1  0.67821739  0.58171274  0.50914597  1
  Ca2+  Ca11  1  0.67265490  0.58017682  0.83386028  1
  Ca2+  Ca12  1  0.07620742  0.33417819  0.16796776  1
  Ca2+  Ca13  1  0.08011211  0.33229989  0.49836022  1
  Ca2+  Ca14  1  0.08542000  0.32611386  0.82396347  1
  Ca2+  Ca15  1  0.07633435  0.82520558  0.15940895  1
  Ca2+  Ca16  1  0.06808186  0.82536063  0.49207626  1
  Ca2+  Ca17  1  0.07706627  0.82722444  0.83365143  1
  Ca2+  Ca18  1  0.58087615  0.33121859  0.16023209  1
  Ca2+  Ca19  1  0.58421717  0.33062663  0.49799581  1
  Ca2+  Ca20  1  0.57463567  0.34967652  0.83037427  1
  Ca2+  Ca21  1  0.58379000  0.83453915  0.16687358  1
  Ca2+  Ca22  1  0.58922161  0.82734865  0.49602452  1
  Ca2+  Ca23  1  0.58351422  0.82330674  0.82717824  1
  Ca2+  Ca24  1  0.33473342  0.42547765  0.16722517  1
  Ca2+  Ca25  1  0.32895952  0.41798599  0.50586877  1
  Ca2+  Ca26  1  0.33176660  0.41615281  0.83702946  1
  Ca2+  Ca27  1  0.32289678  0.91661162  0.17394534  1
  Ca2+  Ca28  1  0.33335734  0.92597652  0.50032195  1
  Ca2+  Ca29  1  0.32309753  0.91732558  0.84205076  1
  Ca2+  Ca30  1  0.83744160  0.42661025  0.17197398  1
  Ca2+  Ca31  1  0.83447397  0.42726989  0.50717334  1
  Ca2+  Ca32  1  0.82181264  0.42815810  0.84153996  1
  Ca2+  Ca33  1  0.83375813  0.91646771  0.16951173  1
  Ca2+  Ca34  1  0.83277482  0.91364829  0.50399115  1
  Ca2+  Ca35  1  0.84832745  0.92526493  0.83546420  1
  Ca2+  Ca36  1  0.42197702  0.16779511  0.16336946  1
  Ca2+  Ca37  1  0.42062510  0.17304331  0.49193088  1
  Ca2+  Ca38  1  0.41809916  0.18222998  0.82660143  1
  Ca2+  Ca39  1  0.41445360  0.66086224  0.16016728  1
  Ca2+  Ca40  1  0.42459620  0.66120316  0.49701880  1
  Ca2+  Ca41  1  0.42283544  0.66005807  0.82955238  1
  Ca2+  Ca42  1  0.90892231  0.17323284  0.16344864  1
  Ca2+  Ca43  1  0.91750721  0.17206172  0.49824081  1
  Ca2+  Ca44  1  0.91920757  0.16323456  0.82569416  1
  Ca2+  Ca45  1  0.92146178  0.67167886  0.16056951  1
  Ca2+  Ca46  1  0.91469846  0.67035791  0.49015305  1
  Ca2+  Ca47  1  0.90662044  0.67609283  0.83071329  1
  Al0+  Al48  1  0.00068255  -0.00038781  0.00889673  1
  Al0+  Al49  1  -0.00004226  0.00014306  0.33012040  1
  Al0+  Al50  1  0.00126074  -0.00096182  0.65869788  1
  Al0+  Al51  1  0.00111981  0.49824550  -0.00171218  1
  Al0+  Al52  1  0.00141897  0.49921279  0.32942974  1
  Al0+  Al53  1  0.00215320  0.50069953  0.67743960  1
  Al0+  Al54  1  0.50175784  0.00140818  -0.00483607  1
  Al0+  Al55  1  0.50035969  -0.00020046  0.33781564  1
  Al0+  Al56  1  0.49944064  0.00147486  0.66995433  1
  Al0+  Al57  1  0.49877342  0.49903338  0.00428434  1
  Al0+  Al58  1  0.49934940  0.49930676  0.33624242  1
  Al0+  Al59  1  0.49974351  0.50146126  0.65759414  1
  Al0+  Al60  1  0.25143823  0.25049831  -0.00279854  1
  Al0+  Al61  1  0.25050039  0.25029757  0.33442631  1
  Al0+  Al62  1  0.25097101  0.25095283  0.66232640  1
  Al0+  Al63  1  0.24817650  0.75024766  0.00299235  1
  Al0+  Al64  1  0.25061561  0.75033339  0.33938350  1
  Al0+  Al65  1  0.24954653  0.75212392  0.66520998  1
  Al0+  Al66  1  0.74919472  0.24841978  0.00537759  1
  Al0+  Al67  1  0.74871427  0.24869650  0.32459111  1
  Al0+  Al68  1  0.74844452  0.24962624  0.67495273  1
  Al0+  Al69  1  0.74937228  0.75119096  -0.00120223  1
  Al0+  Al70  1  0.74877154  0.74990810  0.33545537  1
  Al0+  Al71  1  0.74792136  0.75107723  0.66210940  1
  Al0+  Al72  1  0.43124733  0.32013080  0.98643600  1
  Al0+  Al73  1  0.07210153  0.67875650  0.31887324  1
  Al0+  Al74  1  0.93104816  0.81911422  0.65172147  1
  Al0+  Al75  1  0.92565071  0.82107598  0.31608187  1
  Al0+  Al76  1  0.67762963  0.43015859  0.01720974  1
  Al0+  Al77  1  0.31995722  0.07047368  0.34636676  1
  Al0+  Al78  1  0.06962854  0.17922923  0.65371271  1
  Al0+  Al79  1  0.18035674  0.42831644  0.68033652  1
  Al0+  Al80  1  0.82254508  0.57421833  0.68194750  1
  Al0+  Al81  1  0.82158445  0.06864891  0.67747494  1
  Al0+  Al82  1  0.56865577  0.68109975  0.65194466  1
  Al0+  Al83  1  0.92874984  0.82094770  0.98391070  1
  Al0+  Al84  1  0.31818983  0.56888406  0.01139608  1
  Al0+  Al85  1  0.82236786  0.57278108  0.01629780  1
  Al0+  Al86  1  0.18007493  0.92947797  0.01416638  1
  Al0+  Al87  1  0.67766407  0.42900038  0.68009340  1
  Al0+  Al88  1  0.32195076  0.57196672  0.34928630  1
  Al0+  Al89  1  0.07306676  0.67693549  0.98285394  1
  Al0+  Al90  1  0.68046269  0.92996788  0.34708555  1
  Al0+  Al91  1  0.82165912  0.06938169  0.01514594  1
  Al0+  Al92  1  0.56922393  0.17784614  0.31970118  1
  Al0+  Al93  1  0.92962265  0.31962386  0.32125191  1
  Al0+  Al94  1  0.43037524  0.32086029  0.65032560  1
  Al0+  Al95  1  0.82134437  0.56878515  0.34630500  1
  Si0+  Si96  1  0.17980522  0.93067826  0.68028550  1
  Si0+  Si97  1  0.32159491  0.07236410  0.68305782  1
  Si0+  Si98  1  0.43031735  0.82064438  0.32017772  1
  Si0+  Si99  1  0.57351684  0.17613352  0.65049359  1
  Si0+  Si100  1  0.17749964  0.42359035  0.01727132  1
  Si0+  Si101  1  0.07016801  0.18025726  0.98738253  1
  Si0+  Si102  1  0.32330187  0.07303675  0.01405742  1
  Si0+  Si103  1  0.92641595  0.32305970  0.65520511  1
  Si0+  Si104  1  0.07484881  0.17765539  0.31502969  1
  Si0+  Si105  1  0.57410155  0.17641181  0.98000850  1
  Si0+  Si106  1  0.67827111  0.42580786  0.34933359  1
  Si0+  Si107  1  0.82277874  0.07410971  0.34992954  1
  Si0+  Si108  1  0.07469941  0.67566449  0.65038046  1
  Si0+  Si109  1  0.67499709  0.92786767  0.01534972  1
  Si0+  Si110  1  0.42704242  0.32254618  0.31496006  1
  Si0+  Si111  1  0.92691799  0.32061726  0.98361413  1
  Si0+  Si112  1  0.17672876  0.92853148  0.35315704  1
  Si0+  Si113  1  0.42716053  0.82302196  0.98710669  1
  Si0+  Si114  1  0.32124467  0.57278564  0.68156412  1
  Si0+  Si115  1  0.67644204  0.92784809  0.68431786  1
  Si0+  Si116  1  0.57000468  0.67753027  0.31707312  1
  Si0+  Si117  1  0.56887963  0.68002035  0.98747591  1
  Si0+  Si118  1  0.17832446  0.42758987  0.34963041  1
  Si0+  Si119  1  0.42535337  0.82535615  0.64981054  1
  O2-  O120  1  0.25902551  0.00135500  0.05922657  1
  O2-  O121  1  0.24148614  0.00164139  0.39695605  1
  O2-  O122  1  0.25269134  -0.00067718  0.72480733  1
  O2-  O123  1  0.24056852  0.49808170  0.05989771  1
  O2-  O124  1  0.24719601  0.49651521  0.39341537  1
  O2-  O125  1  0.25185965  0.50622811  0.72697355  1
  O2-  O126  1  0.74476993  -0.00459050  0.05858966  1
  O2-  O127  1  0.75868013  0.00129448  0.39385661  1
  O2-  O128  1  0.74665434  -0.00484512  0.72728255  1
  O2-  O129  1  0.75414832  0.49712683  0.06700037  1
  O2-  O130  1  0.74762948  0.49306989  0.39361657  1
  O2-  O131  1  0.75231138  0.49866793  0.72932666  1
  O2-  O132  1  0.00207419  0.24238071  0.27209690  1
  O2-  O133  1  -0.00483404  0.25501421  0.60899138  1
  O2-  O134  1  -0.00021675  0.25044829  0.94260110  1
  O2-  O135  1  -0.00057197  0.74973613  0.26846257  1
  O2-  O136  1  0.00014739  0.73807657  0.60700302  1
  O2-  O137  1  -0.00381055  0.74444248  0.93330473  1
  O2-  O138  1  0.49622736  0.25398467  0.27203568  1
  O2-  O139  1  0.50647956  0.24631576  0.60613370  1
  O2-  O140  1  0.50654907  0.24687905  0.93726001  1
  O2-  O141  1  0.49655078  0.74661719  0.27499226  1
  O2-  O142  1  0.49420536  0.75737888  0.60566184  1
  O2-  O143  1  0.49842690  0.75254448  0.94512271  1
  O2-  O144  1  0.07186097  0.18293290  0.09237366  1
  O2-  O145  1  0.07671670  0.18006324  0.42059830  1
  O2-  O146  1  0.06952519  0.17702342  0.76733699  1
  O2-  O147  1  0.07694027  0.68248838  0.09599327  1
  O2-  O148  1  0.07130220  0.67932089  0.43298306  1
  O2-  O149  1  0.08220467  0.68074243  0.75522328  1
  O2-  O150  1  0.57020416  0.17188343  0.08549023  1
  O2-  O151  1  0.56836424  0.17901455  0.43304437  1
  O2-  O152  1  0.57002488  0.17123945  0.75567778  1
  O2-  O153  1  0.56752867  0.68167234  0.09280724  1
  O2-  O154  1  0.56932426  0.67911811  0.42210542  1
  O2-  O155  1  0.56553432  0.68181056  0.76581187  1
  O2-  O156  1  0.18020420  0.42431014  0.24413347  1
  O2-  O157  1  0.18148187  0.42746524  0.56721945  1
  O2-  O158  1  0.18191961  0.41844082  0.91181050  1
  O2-  O159  1  0.18075875  0.92797394  0.24751976  1
  O2-  O160  1  0.18271622  0.93232142  0.57549195  1
  O2-  O161  1  0.18087086  0.93221711  0.90036582  1
  O2-  O162  1  0.67710283  0.42861171  0.24388307  1
  O2-  O163  1  0.68008953  0.42846956  0.56622294  1
  O2-  O164  1  0.67591335  0.43550394  0.90368933  1
  O2-  O165  1  0.67669910  0.93208957  0.23393054  1
  O2-  O166  1  0.67430490  0.92955599  0.57879324  1
  O2-  O167  1  0.66943649  0.92890234  0.91007340  1
  O2-  O168  1  0.43039897  0.31739607  0.09945608  1
  O2-  O169  1  0.42633254  0.32150408  0.42056790  1
  O2-  O170  1  0.42945118  0.32027764  0.76368868  1
  O2-  O171  1  0.42823312  0.82494924  0.09230040  1
  O2-  O172  1  0.43267260  0.82144334  0.42526975  1
  O2-  O173  1  0.42393619  0.82560341  0.75573250  1
  O2-  O174  1  0.92836319  0.31940870  0.08897010  1
  O2-  O175  1  0.93078965  0.31915261  0.43473234  1
  O2-  O176  1  0.92848663  0.31901289  0.76079715  1
  O2-  O177  1  0.92970214  0.82174703  0.09702167  1
  O2-  O178  1  0.92688113  0.81954420  0.43006737  1
  O2-  O179  1  0.93563320  0.82364294  0.76452256  1
  O2-  O180  1  0.31925112  0.06676487  0.23298334  1
  O2-  O181  1  0.32232505  0.07122140  0.57793001  1
  O2-  O182  1  0.32060430  0.07257879  0.90822982  1
  O2-  O183  1  0.32324653  0.57085249  0.23614568  1
  O2-  O184  1  0.31951727  0.57222841  0.57598515  1
  O2-  O185  1  0.32122045  0.56711014  0.89821842  1
  O2-  O186  1  0.81916268  0.07483640  0.24437221  1
  O2-  O187  1  0.82007750  0.06888562  0.56459287  1
  O2-  O188  1  0.82376000  0.06882608  0.90163443  1
  O2-  O189  1  0.81981832  0.56863044  0.23347652  1
  O2-  O190  1  0.82212403  0.57270019  0.56795055  1
  O2-  O191  1  0.81670736  0.57400658  0.90286887  1
  O2-  O192  1  0.05454353  0.08227892  0.27071053  1
  O2-  O193  1  0.04016833  0.08527423  0.59458719  1
  O2-  O194  1  0.04191353  0.08767803  0.94251775  1
  O2-  O195  1  0.04973229  0.57953994  0.26598914  1
  O2-  O196  1  0.05568266  0.57838415  0.60968226  1
  O2-  O197  1  0.05441582  0.57432420  0.93423333  1
  O2-  O198  1  0.53409108  0.08217299  0.26586663  1
  O2-  O199  1  0.54526088  0.08275250  0.60400474  1
  O2-  O200  1  0.54868668  0.08351646  0.93098762  1
  O2-  O201  1  0.54287614  0.58484062  0.27102724  1
  O2-  O202  1  0.53747270  0.58753017  0.59286113  1
  O2-  O203  1  0.53682781  0.58967794  0.94074723  1
  O2-  O204  1  0.16711211  0.20693027  0.26732629  1
  O2-  O205  1  0.16560004  0.21039383  0.59870274  1
  O2-  O206  1  0.16228101  0.20608643  0.93830298  1
  O2-  O207  1  0.17208748  0.71022185  0.26954616  1
  O2-  O208  1  0.16629483  0.70705176  0.60144261  1
  O2-  O209  1  0.17048949  0.71174185  0.92945348  1
  O2-  O210  1  0.66470240  0.20476609  0.26201484  1
  O2-  O211  1  0.66808984  0.20079008  0.60610814  1
  O2-  O212  1  0.66913057  0.20057544  0.93687298  1
  O2-  O213  1  0.65998264  0.70899080  0.26945948  1
  O2-  O214  1  0.66347437  0.71275230  0.59510843  1
  O2-  O215  1  0.65930263  0.70794429  0.93781369  1
  O2-  O216  1  0.08137704  0.44177792  0.05998164  1
  O2-  O217  1  0.08531046  0.45311316  0.39612349  1
  O2-  O218  1  0.08458594  0.45230433  0.73904223  1
  O2-  O219  1  0.08834951  0.96471518  0.07306305  1
  O2-  O220  1  0.08122703  0.95154790  0.39625039  1
  O2-  O221  1  0.08962961  0.96262884  0.72674083  1
  O2-  O222  1  0.58131659  0.46162811  0.07225195  1
  O2-  O223  1  0.58436669  0.45102466  0.39510947  1
  O2-  O224  1  0.57911089  0.46400555  0.72944255  1
  O2-  O225  1  0.58133176  0.95487079  0.06279455  1
  O2-  O226  1  0.58559217  0.96245449  0.40386922  1
  O2-  O227  1  0.58233957  0.95247185  0.73157906  1
  O2-  O228  1  0.20948442  0.33263325  0.06594391  1
  O2-  O229  1  0.20426004  0.33428299  0.39695768  1
  O2-  O230  1  0.21485897  0.33208206  0.73403585  1
  O2-  O231  1  0.21210918  0.83499306  0.07037333  1
  O2-  O232  1  0.20763925  0.83797257  0.40170514  1
  O2-  O233  1  0.20646244  0.83844674  0.72852009  1
  O2-  O234  1  0.69959751  0.32882298  0.06611430  1
  O2-  O235  1  0.70216287  0.33028753  0.39167812  1
  O2-  O236  1  0.69815735  0.33007733  0.73594410  1
  O2-  O237  1  0.69830821  0.83414132  0.06145103  1
  O2-  O238  1  0.70724988  0.83289514  0.40227615  1
  O2-  O239  1  0.69997202  0.83367371  0.72850170  1
  O2-  O240  1  0.45372814  0.41664902  0.27018914  1
  O2-  O241  1  0.45747229  0.41678329  0.59410967  1
  O2-  O242  1  0.46135668  0.41758552  0.93298999  1
  O2-  O243  1  0.46127349  0.91066448  0.27158992  1
  O2-  O244  1  0.45081796  0.92011450  0.60537881  1
  O2-  O245  1  0.45311953  0.91468439  0.93685507  1
  O2-  O246  1  0.96429745  0.41301460  0.26333877  1
  O2-  O247  1  0.95367707  0.41758917  0.61174506  1
  O2-  O248  1  0.95197466  0.41261708  0.93609857  1
  O2-  O249  1  0.95202884  0.92176904  0.26616764  1
  O2-  O250  1  0.96724518  0.91209498  0.59396035  1
  O2-  O251  1  0.96512679  0.91994954  0.93534470  1
  O2-  O252  1  0.33335189  0.29647318  0.26933901  1
  O2-  O253  1  0.33586418  0.28615820  0.59497920  1
  O2-  O254  1  0.33498671  0.28808992  0.93063799  1
  O2-  O255  1  0.33655001  0.79651772  0.27522312  1
  O2-  O256  1  0.33198859  0.80123786  0.60207852  1
  O2-  O257  1  0.33622930  0.79513247  0.93901377  1
  O2-  O258  1  0.83435856  0.29082278  0.26311801  1
  O2-  O259  1  0.83253551  0.29685427  0.61014505  1
  O2-  O260  1  0.83485898  0.29035405  0.93853283  1
  O2-  O261  1  0.82642807  0.79321593  0.26511825  1
  O2-  O262  1  0.83159318  0.79606128  0.60040346  1
  O2-  O263  1  0.82752620  0.79902843  0.93159805  1
  O2-  O264  1  0.41915489  0.05091972  0.05664285  1
  O2-  O265  1  0.41318415  0.03501517  0.40364073  1
  O2-  O266  1  0.41355776  0.04696997  0.73204428  1
  O2-  O267  1  0.41242341  0.53619492  0.06892062  1
  O2-  O268  1  0.41837764  0.54015234  0.40382028  1
  O2-  O269  1  0.41500813  0.54521160  0.72485917  1
  O2-  O270  1  0.91637466  0.04115242  0.07307864  1
  O2-  O271  1  0.91992329  0.05548169  0.39173408  1
  O2-  O272  1  0.91915120  0.03597288  0.72956277  1
  O2-  O273  1  0.92287679  0.54492735  0.06519413  1
  O2-  O274  1  0.91895002  0.53829479  0.39831609  1
  O2-  O275  1  0.92142006  0.55260391  0.73615440  1
  O2-  O276  1  0.29387138  0.16477355  0.06137305  1
  O2-  O277  1  0.29318833  0.16852510  0.40020416  1
  O2-  O278  1  0.29088878  0.16313977  0.72939758  1
  O2-  O279  1  0.29329856  0.66687116  0.06589458  1
  O2-  O280  1  0.29468042  0.66870620  0.40523416  1
  O2-  O281  1  0.30007483  0.66885007  0.72581950  1
  O2-  O282  1  0.79044269  0.16512637  0.07027902  1
  O2-  O283  1  0.79210255  0.16678050  0.39503724  1
  O2-  O284  1  0.79315669  0.16416983  0.73557644  1
  O2-  O285  1  0.78914273  0.67070314  0.06767109  1
  O2-  O286  1  0.78731047  0.66434498  0.39970715  1
  O2-  O287  1  0.78632741  0.67138751  0.73286168  1
