# generated using pymatgen
data_Ca2Al2SiO7
_symmetry_space_group_name_H-M   'P 1'
_cell_length_a   15.46273581
_cell_length_b   15.46182217
_cell_length_c   15.28689652
_cell_angle_alpha   89.99023709
_cell_angle_beta   89.98402391
_cell_angle_gamma   90.01195686
_symmetry_Int_Tables_number   1
_chemical_formula_structural   Ca2Al2SiO7
_chemical_formula_sum   'Ca48 Al48 Si24 O168'
_cell_volume   3654.82260971
_cell_formula_units_Z   24
loop_
 _symmetry_equiv_pos_site_id
 _symmetry_equiv_pos_as_xyz
  1  'x, y, z'
loop_
 _atom_type_symbol
 _atom_type_oxidation_number
  Ca2+  2.0
  Al0+  0.0
  Si0+  0.0
  O2-  -2.0
loop_
 _atom_site_type_symbol
 _atom_site_label
 _atom_site_symmetry_multiplicity
 _atom_site_fract_x
 _atom_site_fract_y
 _atom_site_fract_z
 _atom_site_occupancy
  Ca2+  Ca0  1  0.16762961  0.07701490  0.17664753  1
  Ca2+  Ca1  1  0.16834181  0.08174754  0.50104669  1
  Ca2+  Ca2  1  0.15977913  0.08660912  0.83653982  1
  Ca2+  Ca3  1  0.16811042  0.58350908  0.17766486  1
  Ca2+  Ca4  1  0.16751807  0.58030296  0.49281979  1
  Ca2+  Ca5  1  0.17236872  0.58473361  0.84217157  1
  Ca2+  Ca6  1  0.67741029  0.08181184  0.17827554  1
  Ca2+  Ca7  1  0.67373055  0.08454502  0.49678489  1
  Ca2+  Ca8  1  0.68167498  0.08316560  0.83845604  1
  Ca2+  Ca9  1  0.68141496  0.57763307  0.17368722  1
  Ca2+  Ca10  1  0.67427882  0.58227001  0.49932715  1
  Ca2+  Ca11  1  0.67885146  0.58252967  0.83702450  1
  Ca2+  Ca12  1  0.07986186  0.32857478  0.16183111  1
  Ca2+  Ca13  1  0.08400175  0.32966652  0.49502701  1
  Ca2+  Ca14  1  0.07633233  0.32418408  0.83439203  1
  Ca2+  Ca15  1  0.08116754  0.82423878  0.16410111  1
  Ca2+  Ca16  1  0.07778685  0.82820102  0.49234644  1
  Ca2+  Ca17  1  0.07015062  0.82689209  0.83448558  1
  Ca2+  Ca18  1  0.58373895  0.33554158  0.17194120  1
  Ca2+  Ca19  1  0.57555569  0.33176089  0.48722154  1
  Ca2+  Ca20  1  0.57644438  0.33561571  0.82805156  1
  Ca2+  Ca21  1  0.57879071  0.84132196  0.17141518  1
  Ca2+  Ca22  1  0.57929751  0.83538011  0.48836980  1
  Ca2+  Ca23  1  0.58302079  0.83037272  0.83111201  1
  Ca2+  Ca24  1  0.32546072  0.42644550  0.17748663  1
  Ca2+  Ca25  1  0.33162593  0.41013629  0.49864773  1
  Ca2+  Ca26  1  0.33184071  0.41918697  0.83939717  1
  Ca2+  Ca27  1  0.32534246  0.92054510  0.18180209  1
  Ca2+  Ca28  1  0.32920416  0.91677326  0.49347919  1
  Ca2+  Ca29  1  0.32745745  0.91975537  0.83944588  1
  Ca2+  Ca30  1  0.83662425  0.42348058  0.17451737  1
  Ca2+  Ca31  1  0.83107029  0.42841241  0.49849304  1
  Ca2+  Ca32  1  0.84007201  0.42591349  0.83974516  1
  Ca2+  Ca33  1  0.83593283  0.92679871  0.17176365  1
  Ca2+  Ca34  1  0.83348246  0.92439593  0.50231978  1
  Ca2+  Ca35  1  0.84529721  0.92268399  0.83632587  1
  Ca2+  Ca36  1  0.42111027  0.16605550  0.17127280  1
  Ca2+  Ca37  1  0.42151435  0.17533038  0.48550377  1
  Ca2+  Ca38  1  0.42031363  0.17564994  0.82369139  1
  Ca2+  Ca39  1  0.40815135  0.66905546  0.16626838  1
  Ca2+  Ca40  1  0.41642375  0.67197899  0.48738495  1
  Ca2+  Ca41  1  0.41784879  0.66297200  0.83175221  1
  Ca2+  Ca42  1  0.91641030  0.17100932  0.15673998  1
  Ca2+  Ca43  1  0.91796434  0.15960081  0.49693277  1
  Ca2+  Ca44  1  0.92416430  0.16158494  0.83076546  1
  Ca2+  Ca45  1  0.92587424  0.66492320  0.15836989  1
  Ca2+  Ca46  1  0.91512203  0.66871601  0.49229298  1
  Ca2+  Ca47  1  0.90926622  0.67389868  0.82976190  1
  Al0+  Al48  1  0.00083253  -0.00226727  -0.00110805  1
  Al0+  Al49  1  0.00100579  -0.00188832  0.33981842  1
  Al0+  Al50  1  0.00065793  -0.00294399  0.66226357  1
  Al0+  Al51  1  0.00318199  0.49735931  -0.00481456  1
  Al0+  Al52  1  0.00246389  0.49979351  0.33818042  1
  Al0+  Al53  1  0.00270746  0.49886822  0.67232439  1
  Al0+  Al54  1  0.49994085  0.00068964  -0.00392284  1
  Al0+  Al55  1  0.50046076  0.00101953  0.33152672  1
  Al0+  Al56  1  0.49906173  -0.00000175  0.66843714  1
  Al0+  Al57  1  0.49915167  0.50169940  0.00333224  1
  Al0+  Al58  1  0.50107833  0.50150976  0.33341148  1
  Al0+  Al59  1  0.49950838  0.50107209  0.66250312  1
  Al0+  Al60  1  0.25216394  0.25045400  -0.00339053  1
  Al0+  Al61  1  0.25006575  0.25079453  0.33433910  1
  Al0+  Al62  1  0.24942318  0.25009826  0.66137793  1
  Al0+  Al63  1  0.25010074  0.75255292  -0.00235763  1
  Al0+  Al64  1  0.24866892  0.74989354  0.33416812  1
  Al0+  Al65  1  0.24888978  0.75006065  0.66921156  1
  Al0+  Al66  1  0.74775401  0.25022963  -0.00204451  1
  Al0+  Al67  1  0.75036845  0.25151660  0.33763345  1
  Al0+  Al68  1  0.75011037  0.25007574  0.67204812  1
  Al0+  Al69  1  0.74647513  0.74931699  0.00068762  1
  Al0+  Al70  1  0.74946042  0.75365077  0.33707306  1
  Al0+  Al71  1  0.74848294  0.75009517  0.66568909  1
  Al0+  Al72  1  0.07156706  0.17778526  0.98763665  1
  Al0+  Al73  1  0.07319479  0.67747645  0.98508225  1
  Al0+  Al74  1  0.67914821  0.42926461  0.34768595  1
  Al0+  Al75  1  0.06807701  0.17956645  0.65069566  1
  Al0+  Al76  1  0.31979741  0.57182702  0.01329064  1
  Al0+  Al77  1  0.67836629  0.93037417  0.34749956  1
  Al0+  Al78  1  0.92877623  0.81778302  0.65068653  1
  Al0+  Al79  1  0.43073985  0.32112660  0.65229495  1
  Al0+  Al80  1  0.57269389  0.18007841  0.31735360  1
  Al0+  Al81  1  0.82286290  0.07279185  0.34799595  1
  Al0+  Al82  1  0.42964163  0.81946955  0.31967838  1
  Al0+  Al83  1  0.92588075  0.32136349  0.98574467  1
  Al0+  Al84  1  0.82135947  0.06934047  0.01290409  1
  Al0+  Al85  1  0.82095177  0.57089368  0.68127732  1
  Al0+  Al86  1  0.17848300  0.92747867  0.34952401  1
  Al0+  Al87  1  0.06770504  0.67922090  0.32122559  1
  Al0+  Al88  1  0.82170918  0.06922322  0.68263448  1
  Al0+  Al89  1  0.32089685  0.07175065  0.34746208  1
  Al0+  Al90  1  0.32103956  0.57179714  0.34811066  1
  Al0+  Al91  1  0.82271348  0.57008601  0.01288279  1
  Al0+  Al92  1  0.17895454  0.42774387  0.34856768  1
  Al0+  Al93  1  0.42702474  0.32376068  0.31458255  1
  Al0+  Al94  1  0.82350456  0.57251190  0.34621969  1
  Al0+  Al95  1  0.92631555  0.81828158  0.98696143  1
  Si0+  Si96  1  0.07419692  0.67602524  0.64951665  1
  Si0+  Si97  1  0.18063023  0.93096764  0.01421175  1
  Si0+  Si98  1  0.92692363  0.32424666  0.64935661  1
  Si0+  Si99  1  0.32007513  0.07165374  0.68232143  1
  Si0+  Si100  1  0.57502534  0.67807021  0.31472258  1
  Si0+  Si101  1  0.32332377  0.07255559  0.01305446  1
  Si0+  Si102  1  0.18010861  0.42573851  0.01545003  1
  Si0+  Si103  1  0.56916062  0.68086553  0.65126308  1
  Si0+  Si104  1  0.32083878  0.57120450  0.68168549  1
  Si0+  Si105  1  0.56880229  0.67764862  0.98450340  1
  Si0+  Si106  1  0.92630882  0.82347082  0.31659671  1
  Si0+  Si107  1  0.43158787  0.32162042  0.98517608  1
  Si0+  Si108  1  0.57064030  0.17689931  0.98229199  1
  Si0+  Si109  1  0.18011133  0.92815230  0.68465136  1
  Si0+  Si110  1  0.57336591  0.17707359  0.65077644  1
  Si0+  Si111  1  0.67436763  0.92809129  0.01630745  1
  Si0+  Si112  1  0.07063632  0.17671322  0.31999045  1
  Si0+  Si113  1  0.67629903  0.42817832  0.01549841  1
  Si0+  Si114  1  0.42894856  0.82241146  0.98381077  1
  Si0+  Si115  1  0.93055327  0.32036415  0.32165893  1
  Si0+  Si116  1  0.42676060  0.82195892  0.65264099  1
  Si0+  Si117  1  0.18068659  0.42598675  0.68483360  1
  Si0+  Si118  1  0.67617432  0.42987015  0.68349646  1
  Si0+  Si119  1  0.67534216  0.92778723  0.68499917  1
  O2-  O120  1  0.24962593  0.00486704  0.05447948  1
  O2-  O121  1  0.24828201  0.00178800  0.39979560  1
  O2-  O122  1  0.25019005  0.00081153  0.72737994  1
  O2-  O123  1  0.24179397  0.50106616  0.05841028  1
  O2-  O124  1  0.25506943  0.49537388  0.39980694  1
  O2-  O125  1  0.25050218  0.50011705  0.72492323  1
  O2-  O126  1  0.74644742  -0.00597700  0.05786370  1
  O2-  O127  1  0.75113096  0.00041586  0.39793769  1
  O2-  O128  1  0.74472872  -0.00444180  0.72917712  1
  O2-  O129  1  0.75262773  0.48967559  0.05711031  1
  O2-  O130  1  0.74824302  0.50414906  0.39688083  1
  O2-  O131  1  0.74909823  0.49311187  0.72891789  1
  O2-  O132  1  -0.00181888  0.24615747  0.27867824  1
  O2-  O133  1  -0.00877581  0.25204382  0.60402154  1
  O2-  O134  1  -0.00429621  0.24574544  0.93696582  1
  O2-  O135  1  -0.00923234  0.75072595  0.27343678  1
  O2-  O136  1  0.00030728  0.73902845  0.60628463  1
  O2-  O137  1  -0.00661502  0.74137097  0.93543053  1
  O2-  O138  1  0.50056324  0.25204777  0.26581369  1
  O2-  O139  1  0.50613933  0.24699586  0.60756583  1
  O2-  O140  1  0.50120263  0.25020191  0.94083455  1
  O2-  O141  1  0.50326955  0.74441983  0.27088552  1
  O2-  O142  1  0.49890402  0.75302679  0.61073831  1
  O2-  O143  1  0.49857579  0.75016089  0.94135671  1
  O2-  O144  1  0.07444451  0.17900184  0.10101811  1
  O2-  O145  1  0.06971857  0.17745822  0.42521438  1
  O2-  O146  1  0.06956073  0.18127780  0.76394402  1
  O2-  O147  1  0.07623551  0.68210495  0.09818420  1
  O2-  O148  1  0.06647667  0.68011456  0.43468672  1
  O2-  O149  1  0.07935569  0.67966158  0.75499778  1
  O2-  O150  1  0.56920478  0.17259820  0.08631602  1
  O2-  O151  1  0.57169132  0.18139407  0.43131000  1
  O2-  O152  1  0.56965469  0.17701276  0.75719458  1
  O2-  O153  1  0.56829308  0.67595579  0.08857646  1
  O2-  O154  1  0.57489282  0.68055923  0.42085790  1
  O2-  O155  1  0.56709591  0.68009264  0.75702405  1
  O2-  O156  1  0.17602981  0.42882462  0.23494406  1
  O2-  O157  1  0.18049243  0.42457040  0.58035783  1
  O2-  O158  1  0.18635592  0.42180719  0.90943826  1
  O2-  O159  1  0.17840336  0.92953044  0.23532719  1
  O2-  O160  1  0.18363643  0.92548419  0.58035448  1
  O2-  O161  1  0.18378295  0.93000845  0.90849471  1
  O2-  O162  1  0.68422917  0.42923089  0.23367653  1
  O2-  O163  1  0.67344916  0.43335472  0.57879477  1
  O2-  O164  1  0.67002701  0.43275300  0.90961090  1
  O2-  O165  1  0.67980711  0.93142419  0.23353456  1
  O2-  O166  1  0.67115115  0.92838231  0.58033170  1
  O2-  O167  1  0.66825535  0.93107616  0.91049974  1
  O2-  O168  1  0.43136960  0.32137210  0.08909971  1
  O2-  O169  1  0.42861759  0.32044139  0.42843930  1
  O2-  O170  1  0.43185627  0.32080734  0.76669889  1
  O2-  O171  1  0.42879411  0.82532003  0.08801173  1
  O2-  O172  1  0.43083836  0.81779478  0.43345973  1
  O2-  O173  1  0.42661860  0.82099098  0.75838643  1
  O2-  O174  1  0.92729914  0.32059767  0.09968190  1
  O2-  O175  1  0.93264927  0.32127645  0.42691861  1
  O2-  O176  1  0.93025334  0.32512024  0.75488112  1
  O2-  O177  1  0.92946009  0.82098514  0.09992416  1
  O2-  O178  1  0.92844863  0.82353491  0.42242088  1
  O2-  O179  1  0.93095366  0.81786315  0.76402666  1
  O2-  O180  1  0.31793172  0.06951683  0.23296207  1
  O2-  O181  1  0.32095896  0.06993409  0.57823764  1
  O2-  O182  1  0.32567689  0.07000693  0.90726807  1
  O2-  O183  1  0.31530201  0.57311211  0.23447487  1
  O2-  O184  1  0.32118173  0.57414389  0.57766269  1
  O2-  O185  1  0.32274417  0.56784845  0.89906211  1
  O2-  O186  1  0.82440156  0.07236171  0.23408514  1
  O2-  O187  1  0.82025473  0.06797615  0.57037975  1
  O2-  O188  1  0.82038811  0.06718399  0.89948965  1
  O2-  O189  1  0.82511034  0.56912209  0.23247122  1
  O2-  O190  1  0.81786320  0.57138286  0.56882716  1
  O2-  O191  1  0.81654460  0.57148970  0.89938358  1
  O2-  O192  1  0.04518805  0.08342032  0.27437886  1
  O2-  O193  1  0.04170749  0.08168692  0.59810794  1
  O2-  O194  1  0.04615635  0.07908117  0.93339961  1
  O2-  O195  1  0.04062637  0.58115725  0.26789723  1
  O2-  O196  1  0.05517771  0.57903841  0.60885298  1
  O2-  O197  1  0.05792839  0.57589072  0.93454398  1
  O2-  O198  1  0.54303928  0.08260742  0.26304750  1
  O2-  O199  1  0.54613315  0.08303636  0.60702385  1
  O2-  O200  1  0.53984188  0.08711695  0.93113317  1
  O2-  O201  1  0.55403242  0.58361205  0.26965813  1
  O2-  O202  1  0.54023498  0.59039832  0.60287356  1
  O2-  O203  1  0.53760149  0.58762331  0.93412402  1
  O2-  O204  1  0.16197968  0.20464108  0.27264542  1
  O2-  O205  1  0.16449388  0.21143290  0.59758402  1
  O2-  O206  1  0.16992947  0.20800870  0.93211381  1
  O2-  O207  1  0.16336031  0.71269825  0.26776491  1
  O2-  O208  1  0.16623408  0.70814646  0.60334625  1
  O2-  O209  1  0.16867737  0.71487962  0.92887666  1
  O2-  O210  1  0.67176130  0.21012833  0.26539267  1
  O2-  O211  1  0.66852393  0.20015455  0.60825201  1
  O2-  O212  1  0.66171358  0.20412810  0.93322766  1
  O2-  O213  1  0.66743928  0.70824340  0.26819517  1
  O2-  O214  1  0.66016142  0.70791684  0.60341635  1
  O2-  O215  1  0.65908884  0.70639037  0.93402816  1
  O2-  O216  1  0.08377732  0.44241222  0.05747504  1
  O2-  O217  1  0.08441135  0.46033307  0.40679220  1
  O2-  O218  1  0.08916999  0.45153104  0.73397854  1
  O2-  O219  1  0.08906329  0.95546842  0.06194864  1
  O2-  O220  1  0.08169086  0.95419925  0.40517300  1
  O2-  O221  1  0.08824166  0.95654520  0.73043813  1
  O2-  O222  1  0.58670989  0.46178130  0.06451034  1
  O2-  O223  1  0.58018075  0.45495873  0.39985635  1
  O2-  O224  1  0.58393776  0.46187371  0.73118307  1
  O2-  O225  1  0.58148964  0.95782354  0.06232126  1
  O2-  O226  1  0.58038459  0.95833400  0.40071446  1
  O2-  O227  1  0.58110010  0.95252032  0.73326871  1
  O2-  O228  1  0.21276259  0.33471772  0.06298568  1
  O2-  O229  1  0.20378072  0.32914024  0.40243286  1
  O2-  O230  1  0.21293910  0.33549274  0.73263566  1
  O2-  O231  1  0.21302088  0.84100766  0.06148679  1
  O2-  O232  1  0.21133511  0.83215187  0.40448708  1
  O2-  O233  1  0.21142803  0.83788591  0.73458388  1
  O2-  O234  1  0.69195229  0.33133377  0.05739429  1
  O2-  O235  1  0.70865802  0.33354565  0.40418008  1
  O2-  O236  1  0.69453186  0.33420073  0.72893898  1
  O2-  O237  1  0.69297404  0.83250593  0.05971105  1
  O2-  O238  1  0.70235186  0.83215600  0.40295991  1
  O2-  O239  1  0.69969558  0.83338416  0.73027936  1
  O2-  O240  1  0.45503838  0.42348487  0.26369758  1
  O2-  O241  1  0.45837837  0.41846596  0.59897531  1
  O2-  O242  1  0.46100197  0.41347216  0.93723707  1
  O2-  O243  1  0.45996390  0.91557686  0.26436553  1
  O2-  O244  1  0.45184810  0.91514108  0.60729565  1
  O2-  O245  1  0.45815405  0.91302413  0.93273441  1
  O2-  O246  1  0.96245867  0.41064716  0.27404319  1
  O2-  O247  1  0.95808312  0.41691325  0.60424153  1
  O2-  O248  1  0.95924661  0.41646799  0.92834286  1
  O2-  O249  1  0.95815351  0.91585520  0.27116972  1
  O2-  O250  1  0.96403277  0.91200097  0.59637948  1
  O2-  O251  1  0.96326175  0.91365930  0.93194815  1
  O2-  O252  1  0.32807866  0.29394054  0.26296556  1
  O2-  O253  1  0.33486172  0.28959150  0.59951661  1
  O2-  O254  1  0.34065476  0.29391177  0.93508084  1
  O2-  O255  1  0.33306001  0.78908793  0.26552228  1
  O2-  O256  1  0.33541397  0.79201355  0.60660746  1
  O2-  O257  1  0.33810449  0.79591152  0.93358412  1
  O2-  O258  1  0.83811710  0.29649776  0.27478053  1
  O2-  O259  1  0.83000909  0.30371278  0.60870395  1
  O2-  O260  1  0.82535631  0.30013328  0.93275516  1
  O2-  O261  1  0.83053138  0.80504613  0.27309058  1
  O2-  O262  1  0.82984076  0.79186411  0.59919024  1
  O2-  O263  1  0.82528454  0.79663700  0.93421521  1
  O2-  O264  1  0.41414812  0.04136097  0.05954808  1
  O2-  O265  1  0.41842157  0.04223113  0.39963822  1
  O2-  O266  1  0.41225840  0.04429920  0.73134212  1
  O2-  O267  1  0.41540763  0.54024948  0.06742328  1
  O2-  O268  1  0.42278459  0.55341823  0.39702397  1
  O2-  O269  1  0.41354530  0.54359700  0.72875909  1
  O2-  O270  1  0.91857627  0.03961003  0.06569190  1
  O2-  O271  1  0.91932174  0.04241969  0.40290943  1
  O2-  O272  1  0.91896460  0.03428332  0.73372681  1
  O2-  O273  1  0.92261586  0.54352621  0.06141953  1
  O2-  O274  1  0.91788370  0.53910428  0.40299072  1
  O2-  O275  1  0.91943474  0.54427339  0.73442288  1
  O2-  O276  1  0.30044476  0.16602530  0.05792822  1
  O2-  O277  1  0.29395045  0.16964282  0.40039730  1
  O2-  O278  1  0.29151393  0.16382771  0.72932520  1
  O2-  O279  1  0.29532463  0.67197734  0.06212173  1
  O2-  O280  1  0.28787460  0.66748898  0.40318580  1
  O2-  O281  1  0.29339927  0.66305112  0.73122801  1
  O2-  O282  1  0.78972533  0.16741808  0.06323694  1
  O2-  O283  1  0.79524600  0.16996183  0.40268865  1
  O2-  O284  1  0.79378831  0.16744368  0.73689891  1
  O2-  O285  1  0.78622280  0.66527237  0.06578134  1
  O2-  O286  1  0.79698596  0.67150038  0.39781500  1
  O2-  O287  1  0.78376676  0.66635192  0.73469825  1
