# generated using pymatgen
data_Ca2Al2SiO7
_symmetry_space_group_name_H-M   'P 1'
_cell_length_a   15.46515070
_cell_length_b   15.46670507
_cell_length_c   15.28932848
_cell_angle_alpha   90.00053552
_cell_angle_beta   89.99813467
_cell_angle_gamma   89.96847617
_symmetry_Int_Tables_number   1
_chemical_formula_structural   Ca2Al2SiO7
_chemical_formula_sum   'Ca48 Al48 Si24 O168'
_cell_volume   3657.12922003
_cell_formula_units_Z   24
loop_
 _symmetry_equiv_pos_site_id
 _symmetry_equiv_pos_as_xyz
  1  'x, y, z'
loop_
 _atom_type_symbol
 _atom_type_oxidation_number
  Ca2+  2.0
  Al0+  0.0
  Si0+  0.0
  O2-  -2.0
loop_
 _atom_site_type_symbol
 _atom_site_label
 _atom_site_symmetry_multiplicity
 _atom_site_fract_x
 _atom_site_fract_y
 _atom_site_fract_z
 _atom_site_occupancy
  Ca2+  Ca0  1  0.16667375  0.07792788  0.17051476  1
  Ca2+  Ca1  1  0.17117569  0.07410893  0.50827294  1
  Ca2+  Ca2  1  0.16559021  0.06893392  0.83920648  1
  Ca2+  Ca3  1  0.16707031  0.58501208  0.16737812  1
  Ca2+  Ca4  1  0.17367924  0.58746461  0.50952899  1
  Ca2+  Ca5  1  0.17236342  0.59394863  0.83430830  1
  Ca2+  Ca6  1  0.66956335  0.08220402  0.17495667  1
  Ca2+  Ca7  1  0.66697575  0.09074275  0.50220107  1
  Ca2+  Ca8  1  0.66158875  0.08275202  0.83245370  1
  Ca2+  Ca9  1  0.67178308  0.58224234  0.17032529  1
  Ca2+  Ca10  1  0.67403271  0.58296476  0.50889040  1
  Ca2+  Ca11  1  0.67079395  0.57712785  0.84112052  1
  Ca2+  Ca12  1  0.06850738  0.33559551  0.16134787  1
  Ca2+  Ca13  1  0.06933105  0.33870966  0.49656300  1
  Ca2+  Ca14  1  0.06743270  0.34031284  0.82971987  1
  Ca2+  Ca15  1  0.07687714  0.82938416  0.16169277  1
  Ca2+  Ca16  1  0.08015035  0.82937944  0.50047317  1
  Ca2+  Ca17  1  0.08728896  0.82669072  0.82927298  1
  Ca2+  Ca18  1  0.57836235  0.33470630  0.16340351  1
  Ca2+  Ca19  1  0.58691082  0.32712173  0.49681224  1
  Ca2+  Ca20  1  0.58764140  0.33442448  0.82927468  1
  Ca2+  Ca21  1  0.58833633  0.81842441  0.16599701  1
  Ca2+  Ca22  1  0.57483082  0.82176535  0.49408614  1
  Ca2+  Ca23  1  0.58107929  0.81801041  0.82486785  1
  Ca2+  Ca24  1  0.33473079  0.41108751  0.17135992  1
  Ca2+  Ca25  1  0.33390771  0.42128413  0.50544888  1
  Ca2+  Ca26  1  0.33813154  0.42398004  0.83755384  1
  Ca2+  Ca27  1  0.32695063  0.90797087  0.17112165  1
  Ca2+  Ca28  1  0.33210745  0.90710223  0.50957987  1
  Ca2+  Ca29  1  0.32441732  0.90584647  0.83453806  1
  Ca2+  Ca30  1  0.83388965  0.42536036  0.17032479  1
  Ca2+  Ca31  1  0.83119879  0.42446446  0.50755039  1
  Ca2+  Ca32  1  0.82510113  0.42241345  0.83616975  1
  Ca2+  Ca33  1  0.83545461  0.92291257  0.17848494  1
  Ca2+  Ca34  1  0.83700845  0.92276185  0.49821519  1
  Ca2+  Ca35  1  0.83261675  0.92158243  0.83718626  1
  Ca2+  Ca36  1  0.42013978  0.17712564  0.16528674  1
  Ca2+  Ca37  1  0.42992882  0.17134519  0.49219198  1
  Ca2+  Ca38  1  0.42129976  0.17539882  0.82837297  1
  Ca2+  Ca39  1  0.43246760  0.66551333  0.16640493  1
  Ca2+  Ca40  1  0.42552217  0.66812223  0.49998778  1
  Ca2+  Ca41  1  0.42882672  0.66490892  0.82499253  1
  Ca2+  Ca42  1  0.90573577  0.17951061  0.16618951  1
  Ca2+  Ca43  1  0.91099610  0.17998437  0.49401081  1
  Ca2+  Ca44  1  0.91064508  0.18231046  0.82885497  1
  Ca2+  Ca45  1  0.91564972  0.66623332  0.16143204  1
  Ca2+  Ca46  1  0.91883872  0.66344090  0.49502137  1
  Ca2+  Ca47  1  0.92671434  0.65285278  0.83018482  1
  Al0+  Al48  1  0.00113887  -0.00003514  0.00591225  1
  Al0+  Al49  1  0.00030678  -0.00134590  0.33651688  1
  Al0+  Al50  1  0.00125337  0.00080086  0.67292189  1
  Al0+  Al51  1  0.00133209  0.50081014  -0.00436482  1
  Al0+  Al52  1  0.00064419  0.49872100  0.33285272  1
  Al0+  Al53  1  0.00057903  0.50058856  0.65977259  1
  Al0+  Al54  1  0.49847713  0.00135783  0.00243727  1
  Al0+  Al55  1  0.49753797  -0.00070588  0.32584820  1
  Al0+  Al56  1  0.50005593  0.00223935  0.66096808  1
  Al0+  Al57  1  0.50037001  0.49986934  -0.00267481  1
  Al0+  Al58  1  0.49907840  0.49968183  0.32853134  1
  Al0+  Al59  1  0.49965597  0.49914014  0.67027651  1
  Al0+  Al60  1  0.25059262  0.24932158  -0.00464941  1
  Al0+  Al61  1  0.24869149  0.24703081  0.33414211  1
  Al0+  Al62  1  0.24832199  0.24833971  0.66881846  1
  Al0+  Al63  1  0.24850892  0.75037550  0.00525235  1
  Al0+  Al64  1  0.24976470  0.74737348  0.33196825  1
  Al0+  Al65  1  0.24777105  0.74889222  0.66840321  1
  Al0+  Al66  1  0.74788768  0.25049769  -0.00104712  1
  Al0+  Al67  1  0.75036893  0.25016368  0.32898709  1
  Al0+  Al68  1  0.75026280  0.25215224  0.66277534  1
  Al0+  Al69  1  0.75095655  0.75141059  -0.00206599  1
  Al0+  Al70  1  0.75225720  0.75111239  0.33147421  1
  Al0+  Al71  1  0.75322290  0.75313324  0.66809003  1
  Al0+  Al72  1  0.42836411  0.32076417  0.98418887  1
  Al0+  Al73  1  0.57349851  0.67858585  0.31901911  1
  Al0+  Al74  1  0.06832086  0.68112013  0.65278255  1
  Al0+  Al75  1  0.57500927  0.67575167  0.65257926  1
  Al0+  Al76  1  0.82149914  0.57171355  0.34750784  1
  Al0+  Al77  1  0.57267494  0.68002366  0.98467692  1
  Al0+  Al78  1  0.42621017  0.81991549  0.31773602  1
  Al0+  Al79  1  0.82335488  0.57448691  0.68127034  1
  Al0+  Al80  1  0.31962191  0.56921550  0.68029714  1
  Al0+  Al81  1  0.42718947  0.32064373  0.32016256  1
  Al0+  Al82  1  0.18048451  0.92974791  0.68121291  1
  Al0+  Al83  1  0.18032910  0.92869300  0.01803240  1
  Al0+  Al84  1  0.67990613  0.42914862  0.68035146  1
  Al0+  Al85  1  0.56975685  0.18090001  0.65316349  1
  Al0+  Al86  1  0.67767197  0.42856217  0.01761786  1
  Al0+  Al87  1  0.82295753  0.57076197  0.01553657  1
  Al0+  Al88  1  0.81950128  0.07167377  0.34764519  1
  Al0+  Al89  1  0.93079081  0.32018211  0.65127328  1
  Al0+  Al90  1  0.93000349  0.32147605  0.31824875  1
  Al0+  Al91  1  0.93110959  0.82127625  0.32132920  1
  Al0+  Al92  1  0.42945602  0.81894350  0.65501037  1
  Al0+  Al93  1  0.57244676  0.17890331  0.31620077  1
  Al0+  Al94  1  0.07036068  0.68098158  0.98650262  1
  Al0+  Al95  1  0.92803672  0.32043060  0.98509889  1
  Si0+  Si96  1  0.07153673  0.67714684  0.31649518  1
  Si0+  Si97  1  0.57126759  0.17665060  0.98230374  1
  Si0+  Si98  1  0.17867293  0.42684166  0.34737674  1
  Si0+  Si99  1  0.67697546  0.93040255  0.68005503  1
  Si0+  Si100  1  0.92774562  0.82834251  0.65079737  1
  Si0+  Si101  1  0.42828887  0.82204080  0.98519939  1
  Si0+  Si102  1  0.67598656  0.92807826  0.34996738  1
  Si0+  Si103  1  0.82010768  0.07077189  0.01428631  1
  Si0+  Si104  1  0.32090483  0.57044082  0.01666255  1
  Si0+  Si105  1  0.32446009  0.07295768  0.68411856  1
  Si0+  Si106  1  0.32097173  0.07105366  0.34935948  1
  Si0+  Si107  1  0.18053974  0.92742806  0.35060803  1
  Si0+  Si108  1  0.32159714  0.07401758  0.01891465  1
  Si0+  Si109  1  0.81996079  0.07181550  0.68128409  1
  Si0+  Si110  1  0.67667285  0.42931490  0.34900521  1
  Si0+  Si111  1  0.07202386  0.17537536  0.65097783  1
  Si0+  Si112  1  0.17961624  0.42774236  0.01378326  1
  Si0+  Si113  1  0.17707111  0.42607866  0.68306804  1
  Si0+  Si114  1  0.32045026  0.56952194  0.34773543  1
  Si0+  Si115  1  0.92832158  0.82513941  0.98323260  1
  Si0+  Si116  1  0.07134790  0.17643764  0.31791179  1
  Si0+  Si117  1  0.67768648  0.92914761  0.01395345  1
  Si0+  Si118  1  0.42460170  0.32271526  0.65101637  1
  Si0+  Si119  1  0.07196604  0.17682995  0.98335262  1
  O2-  O120  1  0.25516601  0.00352522  0.06446914  1
  O2-  O121  1  0.25505365  -0.00483311  0.39221706  1
  O2-  O122  1  0.25643834  0.00355439  0.72832624  1
  O2-  O123  1  0.25138555  0.49696248  0.05808565  1
  O2-  O124  1  0.25144058  0.49590777  0.38902206  1
  O2-  O125  1  0.24814797  0.49127284  0.72828010  1
  O2-  O126  1  0.74997102  -0.00102075  0.05619173  1
  O2-  O127  1  0.74174388  -0.00001918  0.39488728  1
  O2-  O128  1  0.74998779  -0.00014937  0.72346557  1
  O2-  O129  1  0.75031374  0.50028657  0.06699940  1
  O2-  O130  1  0.74409298  0.49926177  0.39290546  1
  O2-  O131  1  0.74625712  0.50704384  0.72978572  1
  O2-  O132  1  0.00319530  0.24439909  0.27221233  1
  O2-  O133  1  0.00752061  0.24638886  0.60531892  1
  O2-  O134  1  0.00288673  0.24452473  0.93888670  1
  O2-  O135  1  0.00109961  0.74370174  0.27278720  1
  O2-  O136  1  -0.00983173  0.75313209  0.60828572  1
  O2-  O137  1  -0.00615595  0.75382160  0.93952190  1
  O2-  O138  1  0.50092514  0.25197873  0.26789036  1
  O2-  O139  1  0.49410034  0.25495326  0.60763585  1
  O2-  O140  1  0.50427051  0.24692328  0.93882639  1
  O2-  O141  1  0.50234435  0.75236027  0.26873864  1
  O2-  O142  1  0.50258592  0.74881518  0.60466099  1
  O2-  O143  1  0.49828856  0.75643128  0.94005535  1
  O2-  O144  1  0.07250352  0.17758873  0.08910145  1
  O2-  O145  1  0.07222236  0.17750278  0.42346908  1
  O2-  O146  1  0.06889465  0.17350642  0.75649546  1
  O2-  O147  1  0.07185394  0.68241664  0.09978159  1
  O2-  O148  1  0.07440645  0.67878421  0.42192327  1
  O2-  O149  1  0.07056009  0.68327906  0.76577231  1
  O2-  O150  1  0.57068318  0.17357119  0.08735917  1
  O2-  O151  1  0.57098349  0.18088633  0.42991230  1
  O2-  O152  1  0.56867323  0.17913508  0.76631474  1
  O2-  O153  1  0.57232656  0.68115386  0.09770039  1
  O2-  O154  1  0.57150716  0.67798419  0.43228431  1
  O2-  O155  1  0.57317785  0.67806943  0.76638640  1
  O2-  O156  1  0.17760503  0.42757020  0.24202310  1
  O2-  O157  1  0.17862920  0.42615329  0.57705905  1
  O2-  O158  1  0.17990972  0.42819320  0.90891552  1
  O2-  O159  1  0.17991103  0.92903978  0.24550951  1
  O2-  O160  1  0.17977307  0.93169080  0.56783139  1
  O2-  O161  1  0.18127205  0.92907995  0.90507863  1
  O2-  O162  1  0.67694941  0.43009108  0.24349035  1
  O2-  O163  1  0.68326566  0.42494720  0.56669105  1
  O2-  O164  1  0.67925878  0.42760956  0.90420699  1
  O2-  O165  1  0.68003000  0.92849145  0.24383734  1
  O2-  O166  1  0.67640157  0.93177735  0.57539299  1
  O2-  O167  1  0.67756905  0.93140217  0.90856540  1
  O2-  O168  1  0.42523494  0.31719412  0.09692707  1
  O2-  O169  1  0.42398164  0.31849738  0.43353726  1
  O2-  O170  1  0.42267933  0.31957933  0.75659289  1
  O2-  O171  1  0.42943964  0.81997191  0.09064959  1
  O2-  O172  1  0.42361048  0.81596010  0.43104048  1
  O2-  O173  1  0.43128145  0.81819559  0.76896633  1
  O2-  O174  1  0.93029030  0.31890035  0.09828768  1
  O2-  O175  1  0.93229874  0.32148446  0.43108500  1
  O2-  O176  1  0.93068409  0.31757686  0.76447547  1
  O2-  O177  1  0.93021132  0.82825129  0.08884871  1
  O2-  O178  1  0.93565469  0.82475246  0.43408554  1
  O2-  O179  1  0.93104533  0.83700833  0.75596544  1
  O2-  O180  1  0.31541382  0.07466181  0.24453115  1
  O2-  O181  1  0.32207717  0.07429912  0.57849880  1
  O2-  O182  1  0.32098472  0.07454806  0.91350041  1
  O2-  O183  1  0.31781112  0.57070647  0.24242594  1
  O2-  O184  1  0.31777113  0.56825761  0.56668425  1
  O2-  O185  1  0.31917832  0.57156334  0.91162508  1
  O2-  O186  1  0.82033324  0.06894778  0.23413941  1
  O2-  O187  1  0.82096363  0.07125238  0.57642298  1
  O2-  O188  1  0.82023395  0.06973246  0.90874231  1
  O2-  O189  1  0.82453094  0.56952037  0.23463270  1
  O2-  O190  1  0.82411794  0.57084848  0.56733822  1
  O2-  O191  1  0.82372553  0.56821147  0.90238299  1
  O2-  O192  1  0.04648721  0.08268024  0.27255275  1
  O2-  O193  1  0.04402545  0.08284147  0.60423782  1
  O2-  O194  1  0.04536108  0.08240086  0.93930920  1
  O2-  O195  1  0.04899387  0.58294145  0.27107285  1
  O2-  O196  1  0.04446871  0.58434423  0.59596141  1
  O2-  O197  1  0.04526076  0.58386393  0.93117040  1
  O2-  O198  1  0.54424727  0.08068066  0.26301511  1
  O2-  O199  1  0.54105031  0.08553505  0.59580106  1
  O2-  O200  1  0.54341315  0.08317246  0.93554825  1
  O2-  O201  1  0.54116872  0.58241387  0.26429078  1
  O2-  O202  1  0.54440043  0.57751830  0.60131513  1
  O2-  O203  1  0.53862108  0.58471209  0.93210897  1
  O2-  O204  1  0.16447388  0.20131933  0.27081012  1
  O2-  O205  1  0.16778881  0.19605781  0.60660281  1
  O2-  O206  1  0.16514618  0.20036957  0.93628208  1
  O2-  O207  1  0.16378424  0.70480721  0.26921773  1
  O2-  O208  1  0.16317336  0.71555552  0.59769413  1
  O2-  O209  1  0.16730005  0.71486455  0.93438476  1
  O2-  O210  1  0.67059006  0.20459804  0.26263163  1
  O2-  O211  1  0.66579714  0.21125339  0.59853646  1
  O2-  O212  1  0.66516457  0.19981292  0.93602807  1
  O2-  O213  1  0.67066737  0.70867554  0.26482590  1
  O2-  O214  1  0.67401018  0.70647439  0.60250979  1
  O2-  O215  1  0.66871727  0.71227814  0.93048387  1
  O2-  O216  1  0.08901123  0.45810971  0.06200674  1
  O2-  O217  1  0.08877464  0.45741039  0.39663810  1
  O2-  O218  1  0.08435654  0.45582051  0.72714126  1
  O2-  O219  1  0.08377250  0.96053952  0.07290049  1
  O2-  O220  1  0.09050853  0.95866716  0.39899894  1
  O2-  O221  1  0.08543993  0.96269757  0.73829835  1
  O2-  O222  1  0.57808000  0.45726296  0.06832289  1
  O2-  O223  1  0.58123613  0.45120727  0.39350589  1
  O2-  O224  1  0.57896359  0.44768853  0.73203416  1
  O2-  O225  1  0.58634994  0.95724904  0.06244910  1
  O2-  O226  1  0.57959725  0.95007900  0.39156395  1
  O2-  O227  1  0.58684014  0.96241745  0.72880063  1
  O2-  O228  1  0.20548265  0.33466499  0.06027391  1
  O2-  O229  1  0.20290055  0.33420549  0.39527918  1
  O2-  O230  1  0.19590743  0.33048130  0.72891795  1
  O2-  O231  1  0.21107592  0.83309552  0.07443169  1
  O2-  O232  1  0.20577278  0.83373726  0.39569901  1
  O2-  O233  1  0.21089914  0.83405196  0.73640325  1
  O2-  O234  1  0.70382786  0.32793722  0.06794331  1
  O2-  O235  1  0.70448196  0.33514138  0.39220295  1
  O2-  O236  1  0.71429243  0.33199929  0.73446615  1
  O2-  O237  1  0.70501142  0.83776954  0.06157856  1
  O2-  O238  1  0.70586117  0.83641346  0.39665148  1
  O2-  O239  1  0.70394101  0.83969612  0.73019672  1
  O2-  O240  1  0.45021213  0.41924545  0.26598391  1
  O2-  O241  1  0.44785271  0.41676451  0.60671742  1
  O2-  O242  1  0.45643081  0.41781531  0.93132437  1
  O2-  O243  1  0.44454579  0.92040155  0.26555990  1
  O2-  O244  1  0.45404055  0.91829160  0.60206752  1
  O2-  O245  1  0.44894237  0.91815054  0.94208593  1
  O2-  O246  1  0.96623174  0.41572755  0.26326360  1
  O2-  O247  1  0.96285218  0.41475039  0.59503529  1
  O2-  O248  1  0.96348144  0.41475225  0.93104254  1
  O2-  O249  1  0.96560925  0.91659183  0.26581450  1
  O2-  O250  1  0.96109320  0.91922107  0.60267430  1
  O2-  O251  1  0.95727201  0.91850903  0.93764684  1
  O2-  O252  1  0.32887862  0.28863485  0.26716934  1
  O2-  O253  1  0.33000225  0.29738534  0.60592086  1
  O2-  O254  1  0.33235912  0.28937852  0.92834375  1
  O2-  O255  1  0.32941408  0.78653911  0.26350678  1
  O2-  O256  1  0.33129781  0.78945456  0.60328264  1
  O2-  O257  1  0.33431202  0.79390119  0.94221997  1
  O2-  O258  1  0.83462186  0.29076107  0.26367399  1
  O2-  O259  1  0.83673701  0.28520683  0.59656097  1
  O2-  O260  1  0.83229347  0.28656660  0.93163021  1
  O2-  O261  1  0.83375645  0.79802585  0.26647977  1
  O2-  O262  1  0.83190361  0.81179635  0.60686982  1
  O2-  O263  1  0.83332639  0.80609376  0.93808796  1
  O2-  O264  1  0.41616033  0.05123707  0.06477064  1
  O2-  O265  1  0.41556702  0.04870962  0.39320967  1
  O2-  O266  1  0.41865053  0.04921730  0.72938959  1
  O2-  O267  1  0.41259982  0.54286657  0.06319542  1
  O2-  O268  1  0.41283320  0.54352234  0.39441064  1
  O2-  O269  1  0.41578334  0.54105267  0.73647014  1
  O2-  O270  1  0.91195438  0.04540586  0.06270334  1
  O2-  O271  1  0.91571549  0.03811085  0.40208301  1
  O2-  O272  1  0.91106762  0.04517749  0.73106965  1
  O2-  O273  1  0.92277709  0.54164840  0.06668723  1
  O2-  O274  1  0.91901504  0.53876753  0.39981628  1
  O2-  O275  1  0.92139876  0.53869668  0.73094512  1
  O2-  O276  1  0.29201706  0.16677773  0.06510833  1
  O2-  O277  1  0.28842661  0.16006050  0.40028441  1
  O2-  O278  1  0.29763431  0.16609792  0.73167966  1
  O2-  O279  1  0.28949627  0.66017338  0.06580312  1
  O2-  O280  1  0.28822048  0.65954301  0.39629758  1
  O2-  O281  1  0.28395451  0.66329206  0.73571841  1
  O2-  O282  1  0.79062144  0.16183110  0.06132804  1
  O2-  O283  1  0.79092307  0.16953162  0.40050704  1
  O2-  O284  1  0.78913572  0.16224438  0.72896480  1
  O2-  O285  1  0.79755144  0.67267760  0.06400125  1
  O2-  O286  1  0.79651826  0.67091397  0.39922988  1
  O2-  O287  1  0.80818367  0.67731150  0.73113711  1
