# generated using pymatgen
data_Ca2Al2SiO7
_symmetry_space_group_name_H-M   'P 1'
_cell_length_a   15.45998287
_cell_length_b   15.45908590
_cell_length_c   15.28506571
_cell_angle_alpha   90.00256563
_cell_angle_beta   89.99655302
_cell_angle_gamma   90.00737284
_symmetry_Int_Tables_number   1
_chemical_formula_structural   Ca2Al2SiO7
_chemical_formula_sum   'Ca48 Al48 Si24 O168'
_cell_volume   3653.08791472
_cell_formula_units_Z   24
loop_
 _symmetry_equiv_pos_site_id
 _symmetry_equiv_pos_as_xyz
  1  'x, y, z'
loop_
 _atom_type_symbol
 _atom_type_oxidation_number
  Ca2+  2.0
  Al0+  0.0
  Si0+  0.0
  O2-  -2.0
loop_
 _atom_site_type_symbol
 _atom_site_label
 _atom_site_symmetry_multiplicity
 _atom_site_fract_x
 _atom_site_fract_y
 _atom_site_fract_z
 _atom_site_occupancy
  Ca2+  Ca0  1  0.17399510  0.08305878  0.17689668  1
  Ca2+  Ca1  1  0.16908441  0.07718282  0.49590707  1
  Ca2+  Ca2  1  0.17065939  0.08177312  0.83902689  1
  Ca2+  Ca3  1  0.17189847  0.57497384  0.17990407  1
  Ca2+  Ca4  1  0.17727235  0.58429390  0.49856933  1
  Ca2+  Ca5  1  0.17466063  0.57887294  0.83267705  1
  Ca2+  Ca6  1  0.66965930  0.07749291  0.17283743  1
  Ca2+  Ca7  1  0.66783453  0.08854000  0.50070342  1
  Ca2+  Ca8  1  0.66296776  0.08297464  0.83818595  1
  Ca2+  Ca9  1  0.66582538  0.57440357  0.17679129  1
  Ca2+  Ca10  1  0.66950520  0.58047839  0.49857951  1
  Ca2+  Ca11  1  0.67301608  0.57552018  0.83951219  1
  Ca2+  Ca12  1  0.09291777  0.31901861  0.16669258  1
  Ca2+  Ca13  1  0.07873131  0.33414670  0.49037803  1
  Ca2+  Ca14  1  0.07920531  0.32527359  0.82883632  1
  Ca2+  Ca15  1  0.08983617  0.82826483  0.17054173  1
  Ca2+  Ca16  1  0.08867279  0.82993758  0.48990252  1
  Ca2+  Ca17  1  0.08377424  0.83372798  0.82783147  1
  Ca2+  Ca18  1  0.57359751  0.34177495  0.16497060  1
  Ca2+  Ca19  1  0.57332038  0.33553454  0.49473201  1
  Ca2+  Ca20  1  0.57716044  0.33068503  0.82758783  1
  Ca2+  Ca21  1  0.57508048  0.83121976  0.16385282  1
  Ca2+  Ca22  1  0.57335985  0.82260592  0.48725086  1
  Ca2+  Ca23  1  0.57605298  0.84058034  0.83311233  1
  Ca2+  Ca24  1  0.33244397  0.41828190  0.17982540  1
  Ca2+  Ca25  1  0.33579261  0.42147332  0.49872682  1
  Ca2+  Ca26  1  0.34631664  0.41970056  0.83438530  1
  Ca2+  Ca27  1  0.33608537  0.92733628  0.17479865  1
  Ca2+  Ca28  1  0.32297566  0.91280868  0.49991633  1
  Ca2+  Ca29  1  0.33072943  0.92470095  0.84136213  1
  Ca2+  Ca30  1  0.81792319  0.41759575  0.17673677  1
  Ca2+  Ca31  1  0.83286845  0.42574604  0.50332830  1
  Ca2+  Ca32  1  0.83063610  0.41607439  0.83557591  1
  Ca2+  Ca33  1  0.82694335  0.92078591  0.17199535  1
  Ca2+  Ca34  1  0.83555265  0.92487312  0.49916457  1
  Ca2+  Ca35  1  0.82250966  0.91981685  0.84062154  1
  Ca2+  Ca36  1  0.40377748  0.17782398  0.16298848  1
  Ca2+  Ca37  1  0.41685571  0.17519851  0.49412753  1
  Ca2+  Ca38  1  0.41945220  0.17671172  0.82859580  1
  Ca2+  Ca39  1  0.41431807  0.67692043  0.16924492  1
  Ca2+  Ca40  1  0.41456777  0.66760918  0.48682877  1
  Ca2+  Ca41  1  0.41587694  0.67165576  0.82972577  1
  Ca2+  Ca42  1  0.92941430  0.15783635  0.16671526  1
  Ca2+  Ca43  1  0.92026150  0.17208536  0.49174115  1
  Ca2+  Ca44  1  0.92173052  0.17219143  0.82784897  1
  Ca2+  Ca45  1  0.92295441  0.65666513  0.17025993  1
  Ca2+  Ca46  1  0.91988271  0.66331061  0.49040632  1
  Ca2+  Ca47  1  0.91710410  0.66576580  0.82646190  1
  Al0+  Al48  1  0.00096679  -0.00277553  -0.00642189  1
  Al0+  Al49  1  -0.00122008  -0.00012695  0.33638723  1
  Al0+  Al50  1  -0.00166504  -0.00140138  0.67232768  1
  Al0+  Al51  1  0.00236724  0.49987691  -0.00248545  1
  Al0+  Al52  1  -0.00227611  0.49930835  0.33255525  1
  Al0+  Al53  1  0.00160146  0.50069967  0.66851981  1
  Al0+  Al54  1  0.49926910  0.00027623  0.00460578  1
  Al0+  Al55  1  0.50034862  0.00182122  0.33538381  1
  Al0+  Al56  1  0.49874174  -0.00057422  0.66154834  1
  Al0+  Al57  1  0.50192814  0.50297230  -0.00054997  1
  Al0+  Al58  1  0.50051811  0.50011567  0.33291557  1
  Al0+  Al59  1  0.50131888  0.50084219  0.66912902  1
  Al0+  Al60  1  0.24961847  0.25045507  -0.00985741  1
  Al0+  Al61  1  0.24861996  0.24883226  0.33570761  1
  Al0+  Al62  1  0.24968959  0.24851841  0.66284593  1
  Al0+  Al63  1  0.25002997  0.74972913  -0.00639117  1
  Al0+  Al64  1  0.24823854  0.74994972  0.32889893  1
  Al0+  Al65  1  0.24874994  0.74898429  0.67677247  1
  Al0+  Al66  1  0.75166310  0.25121373  0.00550982  1
  Al0+  Al67  1  0.74800777  0.24964567  0.34093930  1
  Al0+  Al68  1  0.75198616  0.24979915  0.66081875  1
  Al0+  Al69  1  0.75181280  0.75022004  0.00418102  1
  Al0+  Al70  1  0.74918124  0.74998936  0.33175211  1
  Al0+  Al71  1  0.75056223  0.75071764  0.67108649  1
  Al0+  Al72  1  0.06959071  0.67767764  0.32049111  1
  Al0+  Al73  1  0.82055486  0.57177373  0.34742138  1
  Al0+  Al74  1  0.17980820  0.92913185  0.34549636  1
  Al0+  Al75  1  0.67812760  0.92946961  0.01433446  1
  Al0+  Al76  1  0.82046998  0.06972218  0.34688092  1
  Al0+  Al77  1  0.31835794  0.07210855  0.01199185  1
  Al0+  Al78  1  0.57209040  0.67820151  0.31771245  1
  Al0+  Al79  1  0.42991866  0.31856351  0.31972241  1
  Al0+  Al80  1  0.32337710  0.07320723  0.34973743  1
  Al0+  Al81  1  0.17783112  0.42648204  0.34663799  1
  Al0+  Al82  1  0.67650973  0.42848623  0.35148972  1
  Al0+  Al83  1  0.32223674  0.56918621  0.68187414  1
  Al0+  Al84  1  0.57097168  0.17685211  0.65138387  1
  Al0+  Al85  1  0.93163003  0.32199459  0.65228546  1
  Al0+  Al86  1  0.43030809  0.32290584  0.98639973  1
  Al0+  Al87  1  0.42673850  0.82275758  0.31886174  1
  Al0+  Al88  1  0.17917282  0.92965444  0.68255249  1
  Al0+  Al89  1  0.06859103  0.17898725  0.32141033  1
  Al0+  Al90  1  0.32005269  0.57080381  0.34463474  1
  Al0+  Al91  1  0.82223905  0.57134891  0.68172063  1
  Al0+  Al92  1  0.07112763  0.17770040  0.98473273  1
  Al0+  Al93  1  0.67918050  0.42957032  0.01334201  1
  Al0+  Al94  1  0.42886256  0.32333013  0.64937835  1
  Al0+  Al95  1  0.43002945  0.82216400  0.98462347  1
  Si0+  Si96  1  0.07050725  0.17466481  0.64873538  1
  Si0+  Si97  1  0.57464275  0.17847726  0.98754541  1
  Si0+  Si98  1  0.82431810  0.07135631  0.01507148  1
  Si0+  Si99  1  0.57379610  0.67995972  0.98152694  1
  Si0+  Si100  1  0.67848694  0.92929653  0.68044572  1
  Si0+  Si101  1  0.92551840  0.32204099  0.31599667  1
  Si0+  Si102  1  0.92744814  0.82302125  0.31645682  1
  Si0+  Si103  1  0.82016983  0.07185638  0.68312785  1
  Si0+  Si104  1  0.67712827  0.92756428  0.35148621  1
  Si0+  Si105  1  0.32303059  0.07188438  0.68423302  1
  Si0+  Si106  1  0.07090066  0.67766363  0.98166253  1
  Si0+  Si107  1  0.57285441  0.68098733  0.65458465  1
  Si0+  Si108  1  0.68003281  0.42753592  0.68427842  1
  Si0+  Si109  1  0.92723053  0.82097469  0.65248029  1
  Si0+  Si110  1  0.42725203  0.81880009  0.65283468  1
  Si0+  Si111  1  0.17698338  0.92641150  0.01663963  1
  Si0+  Si112  1  0.17928254  0.42993246  0.01251001  1
  Si0+  Si113  1  0.57412947  0.17791158  0.31511938  1
  Si0+  Si114  1  0.32080898  0.57222103  0.01444529  1
  Si0+  Si115  1  0.92815879  0.81981767  0.98327279  1
  Si0+  Si116  1  0.17803284  0.42625031  0.68382176  1
  Si0+  Si117  1  0.92763535  0.32194570  0.98489650  1
  Si0+  Si118  1  0.07088497  0.68134889  0.65252207  1
  Si0+  Si119  1  0.82481271  0.57182205  0.01693236  1
  O2-  O120  1  0.24426892  -0.00365775  0.05879345  1
  O2-  O121  1  0.25413994  -0.00291455  0.39762107  1
  O2-  O122  1  0.25207882  0.00561434  0.72944734  1
  O2-  O123  1  0.25304873  0.49771967  0.05469843  1
  O2-  O124  1  0.24915295  0.49890325  0.39656348  1
  O2-  O125  1  0.25269885  0.48876207  0.72889745  1
  O2-  O126  1  0.75251469  0.00578891  0.05859440  1
  O2-  O127  1  0.74468140  -0.00291244  0.39611991  1
  O2-  O128  1  0.74534239  0.00407021  0.72427943  1
  O2-  O129  1  0.75552487  0.50359503  0.05863891  1
  O2-  O130  1  0.74983697  0.50044082  0.39964926  1
  O2-  O131  1  0.74960224  0.49554878  0.72940638  1
  O2-  O132  1  -0.00484524  0.25420098  0.27177131  1
  O2-  O133  1  0.00712727  0.24832760  0.60550870  1
  O2-  O134  1  -0.00605180  0.25122225  0.93987295  1
  O2-  O135  1  -0.00654331  0.75131902  0.27260440  1
  O2-  O136  1  -0.00106299  0.75140976  0.61041276  1
  O2-  O137  1  -0.00113215  0.74850240  0.94026270  1
  O2-  O138  1  0.50349909  0.24368040  0.27030966  1
  O2-  O139  1  0.50002848  0.24944701  0.60144309  1
  O2-  O140  1  0.50748519  0.24848956  0.94282349  1
  O2-  O141  1  0.50070119  0.75193144  0.26935847  1
  O2-  O142  1  0.49802921  0.74748848  0.61177808  1
  O2-  O143  1  0.50609756  0.74917185  0.93573477  1
  O2-  O144  1  0.07051642  0.17720951  0.09746193  1
  O2-  O145  1  0.06501527  0.17798985  0.43434956  1
  O2-  O146  1  0.06693768  0.17440778  0.75500153  1
  O2-  O147  1  0.07120607  0.67560564  0.08615700  1
  O2-  O148  1  0.07008935  0.68044380  0.43387234  1
  O2-  O149  1  0.06918724  0.68296415  0.75838132  1
  O2-  O150  1  0.57698031  0.17868273  0.09244420  1
  O2-  O151  1  0.57444963  0.17965716  0.42070027  1
  O2-  O152  1  0.57035521  0.17580065  0.76594109  1
  O2-  O153  1  0.57269634  0.68007329  0.08631422  1
  O2-  O154  1  0.57286580  0.68107958  0.43226988  1
  O2-  O155  1  0.57376849  0.68489248  0.75996124  1
  O2-  O156  1  0.18061428  0.42662648  0.23203998  1
  O2-  O157  1  0.17366355  0.43076877  0.57919371  1
  O2-  O158  1  0.17529731  0.43375476  0.90726907  1
  O2-  O159  1  0.17793921  0.93095223  0.23181562  1
  O2-  O160  1  0.17937759  0.92625204  0.57032375  1
  O2-  O161  1  0.17732677  0.92695125  0.91049543  1
  O2-  O162  1  0.67782247  0.42894191  0.23738884  1
  O2-  O163  1  0.67955847  0.43041301  0.57952591  1
  O2-  O164  1  0.68161576  0.43021473  0.89974907  1
  O2-  O165  1  0.67893707  0.92852254  0.24569113  1
  O2-  O166  1  0.68225110  0.92605416  0.57611510  1
  O2-  O167  1  0.68021790  0.93083380  0.90026968  1
  O2-  O168  1  0.42724963  0.32380952  0.09891858  1
  O2-  O169  1  0.43070117  0.31909762  0.43239516  1
  O2-  O170  1  0.43339253  0.32259354  0.76375330  1
  O2-  O171  1  0.42868965  0.82036345  0.09665020  1
  O2-  O172  1  0.42743099  0.81925510  0.43338340  1
  O2-  O173  1  0.42983394  0.82041770  0.75830998  1
  O2-  O174  1  0.92811721  0.32384162  0.08967361  1
  O2-  O175  1  0.92767744  0.32106417  0.42185257  1
  O2-  O176  1  0.93169484  0.31844743  0.76629067  1
  O2-  O177  1  0.92782479  0.82202932  0.08762332  1
  O2-  O178  1  0.92845972  0.82435055  0.42245283  1
  O2-  O179  1  0.92659649  0.81978418  0.75802520  1
  O2-  O180  1  0.31910585  0.07459025  0.23575248  1
  O2-  O181  1  0.32362239  0.06930917  0.57937101  1
  O2-  O182  1  0.31721833  0.07056512  0.89837286  1
  O2-  O183  1  0.31757470  0.57034018  0.23053342  1
  O2-  O184  1  0.31902956  0.57557852  0.56996815  1
  O2-  O185  1  0.31872613  0.57257108  0.90876256  1
  O2-  O186  1  0.82074204  0.06568563  0.23334280  1
  O2-  O187  1  0.82379138  0.06828418  0.57861616  1
  O2-  O188  1  0.82398912  0.06994906  0.90894933  1
  O2-  O189  1  0.82106609  0.56802701  0.23346384  1
  O2-  O190  1  0.82104780  0.57420057  0.56983309  1
  O2-  O191  1  0.82510800  0.57202990  0.91081199  1
  O2-  O192  1  0.03469888  0.08318728  0.26678181  1
  O2-  O193  1  0.03787776  0.08218488  0.60520314  1
  O2-  O194  1  0.04175593  0.08073343  0.92917658  1
  O2-  O195  1  0.03830248  0.58188986  0.26323351  1
  O2-  O196  1  0.04529052  0.58885514  0.60755797  1
  O2-  O197  1  0.04305368  0.58638295  0.93182359  1
  O2-  O198  1  0.55382533  0.08193651  0.27205863  1
  O2-  O199  1  0.54485186  0.07813195  0.59661914  1
  O2-  O200  1  0.54790354  0.08512446  0.94138979  1
  O2-  O201  1  0.54314308  0.58099412  0.26421705  1
  O2-  O202  1  0.55068828  0.58716012  0.61059480  1
  O2-  O203  1  0.54636208  0.58754709  0.93337862  1
  O2-  O204  1  0.16464182  0.20954396  0.26654485  1
  O2-  O205  1  0.16681402  0.19228500  0.60687604  1
  O2-  O206  1  0.16336333  0.21260856  0.92478062  1
  O2-  O207  1  0.16324000  0.70979504  0.26172158  1
  O2-  O208  1  0.16291918  0.71172862  0.60819056  1
  O2-  O209  1  0.16134178  0.70664039  0.93170009  1
  O2-  O210  1  0.66852732  0.20340917  0.27024823  1
  O2-  O211  1  0.67109338  0.20084139  0.60046320  1
  O2-  O212  1  0.66978778  0.20157732  0.94117535  1
  O2-  O213  1  0.67052403  0.70625090  0.26359485  1
  O2-  O214  1  0.66305507  0.71352519  0.60695532  1
  O2-  O215  1  0.66953795  0.70384172  0.93784714  1
  O2-  O216  1  0.08859269  0.45996843  0.06088983  1
  O2-  O217  1  0.07876852  0.45418716  0.39693809  1
  O2-  O218  1  0.08812614  0.45943836  0.73437956  1
  O2-  O219  1  0.08117879  0.94823432  0.05884036  1
  O2-  O220  1  0.08226124  0.95785271  0.40030200  1
  O2-  O221  1  0.08104171  0.95756284  0.73752641  1
  O2-  O222  1  0.58367654  0.46384843  0.06713558  1
  O2-  O223  1  0.58010848  0.46037725  0.40474901  1
  O2-  O224  1  0.58752303  0.45516786  0.73183233  1
  O2-  O225  1  0.58290597  0.95818399  0.07011176  1
  O2-  O226  1  0.58399752  0.95178660  0.39838722  1
  O2-  O227  1  0.58471064  0.95419050  0.72629219  1
  O2-  O228  1  0.20435898  0.33603904  0.05496065  1
  O2-  O229  1  0.20403103  0.32985063  0.40203225  1
  O2-  O230  1  0.19608035  0.32911483  0.72661856  1
  O2-  O231  1  0.20282376  0.83125226  0.05869462  1
  O2-  O232  1  0.20593041  0.83013919  0.39810726  1
  O2-  O233  1  0.20963304  0.83458906  0.74040669  1
  O2-  O234  1  0.70794652  0.33338462  0.06914861  1
  O2-  O235  1  0.70280695  0.33044943  0.40486899  1
  O2-  O236  1  0.70706111  0.33302645  0.72834504  1
  O2-  O237  1  0.71208166  0.83400763  0.06835793  1
  O2-  O238  1  0.70422035  0.83456636  0.39721868  1
  O2-  O239  1  0.71065856  0.84076267  0.73241229  1
  O2-  O240  1  0.46039009  0.41542376  0.26623344  1
  O2-  O241  1  0.45842658  0.42301862  0.59976625  1
  O2-  O242  1  0.46199287  0.42012296  0.93273850  1
  O2-  O243  1  0.45609553  0.92222105  0.26839599  1
  O2-  O244  1  0.45366300  0.91001001  0.60487330  1
  O2-  O245  1  0.46212510  0.91920592  0.93073170  1
  O2-  O246  1  0.94765723  0.41566654  0.26950210  1
  O2-  O247  1  0.96161048  0.41967233  0.60032806  1
  O2-  O248  1  0.95629475  0.41465642  0.93666900  1
  O2-  O249  1  0.95627075  0.91466741  0.26862151  1
  O2-  O250  1  0.95354996  0.91411447  0.60740973  1
  O2-  O251  1  0.95530148  0.91024344  0.93160790  1
  O2-  O252  1  0.33218233  0.28853983  0.26708329  1
  O2-  O253  1  0.32810395  0.29854432  0.60017624  1
  O2-  O254  1  0.33549085  0.29265339  0.92815028  1
  O2-  O255  1  0.33035242  0.79357419  0.26304331  1
  O2-  O256  1  0.33443148  0.78888323  0.61008451  1
  O2-  O257  1  0.33388578  0.78976145  0.92861367  1
  O2-  O258  1  0.83130969  0.29361544  0.27307511  1
  O2-  O259  1  0.83602884  0.29166071  0.59781310  1
  O2-  O260  1  0.83369086  0.29730706  0.93788027  1
  O2-  O261  1  0.83309614  0.80116791  0.27062637  1
  O2-  O262  1  0.83545236  0.79371997  0.60536728  1
  O2-  O263  1  0.83614916  0.79199796  0.93478006  1
  O2-  O264  1  0.41482321  0.04406348  0.06614023  1
  O2-  O265  1  0.42356286  0.05113695  0.40129064  1
  O2-  O266  1  0.41622383  0.04230016  0.72997783  1
  O2-  O267  1  0.41475389  0.55066823  0.05824050  1
  O2-  O268  1  0.41804524  0.54488815  0.39751290  1
  O2-  O269  1  0.42039330  0.54424066  0.73767719  1
  O2-  O270  1  0.91662680  0.03872707  0.05951650  1
  O2-  O271  1  0.91386988  0.03558905  0.40455617  1
  O2-  O272  1  0.90915424  0.03961838  0.73419957  1
  O2-  O273  1  0.91952032  0.54587132  0.06048760  1
  O2-  O274  1  0.91875585  0.54388651  0.40061904  1
  O2-  O275  1  0.91960370  0.54246265  0.73655452  1
  O2-  O276  1  0.28511995  0.16976383  0.06211105  1
  O2-  O277  1  0.28802909  0.16742828  0.40511367  1
  O2-  O278  1  0.29916522  0.16711540  0.72873499  1
  O2-  O279  1  0.28780171  0.66332303  0.05931492  1
  O2-  O280  1  0.28906405  0.66832067  0.39721013  1
  O2-  O281  1  0.28512549  0.66212171  0.74101423  1
  O2-  O282  1  0.80564615  0.16597887  0.06069412  1
  O2-  O283  1  0.79238250  0.16532373  0.40318581  1
  O2-  O284  1  0.79572223  0.16478322  0.73006723  1
  O2-  O285  1  0.80294515  0.66610668  0.06211856  1
  O2-  O286  1  0.79627234  0.67220390  0.39868673  1
  O2-  O287  1  0.79017373  0.66783154  0.73770593  1
