# generated using pymatgen
data_Ca2Al2SiO7
_symmetry_space_group_name_H-M   'P 1'
_cell_length_a   15.45367285
_cell_length_b   15.45403826
_cell_length_c   15.28077119
_cell_angle_alpha   89.99581192
_cell_angle_beta   90.00768504
_cell_angle_gamma   90.00433654
_symmetry_Int_Tables_number   1
_chemical_formula_structural   Ca2Al2SiO7
_chemical_formula_sum   'Ca48 Al48 Si24 O168'
_cell_volume   3649.37895913
_cell_formula_units_Z   24
loop_
 _symmetry_equiv_pos_site_id
 _symmetry_equiv_pos_as_xyz
  1  'x, y, z'
loop_
 _atom_type_symbol
 _atom_type_oxidation_number
  Ca2+  2.0
  Al0+  0.0
  Si0+  0.0
  O2-  -2.0
loop_
 _atom_site_type_symbol
 _atom_site_label
 _atom_site_symmetry_multiplicity
 _atom_site_fract_x
 _atom_site_fract_y
 _atom_site_fract_z
 _atom_site_occupancy
  Ca2+  Ca0  1  0.16060168  0.07160463  0.17221357  1
  Ca2+  Ca1  1  0.16430446  0.08227323  0.50560092  1
  Ca2+  Ca2  1  0.16956130  0.07914468  0.83733713  1
  Ca2+  Ca3  1  0.16739762  0.58216145  0.16926045  1
  Ca2+  Ca4  1  0.17446122  0.58741215  0.50608597  1
  Ca2+  Ca5  1  0.16725641  0.58733787  0.83868143  1
  Ca2+  Ca6  1  0.67182973  0.08221941  0.16753263  1
  Ca2+  Ca7  1  0.67271572  0.08263025  0.51250148  1
  Ca2+  Ca8  1  0.67419529  0.07415367  0.83567248  1
  Ca2+  Ca9  1  0.66710675  0.57684130  0.16811622  1
  Ca2+  Ca10  1  0.66676869  0.57375427  0.50246286  1
  Ca2+  Ca11  1  0.67400794  0.58172886  0.84565049  1
  Ca2+  Ca12  1  0.08150555  0.33201816  0.16194042  1
  Ca2+  Ca13  1  0.07810096  0.31943250  0.49338356  1
  Ca2+  Ca14  1  0.08248097  0.32927893  0.82655352  1
  Ca2+  Ca15  1  0.08105647  0.83289599  0.16179670  1
  Ca2+  Ca16  1  0.07142283  0.83841047  0.49605930  1
  Ca2+  Ca17  1  0.07957111  0.82580602  0.82742385  1
  Ca2+  Ca18  1  0.59030920  0.33378246  0.16556428  1
  Ca2+  Ca19  1  0.58774277  0.32004089  0.49288829  1
  Ca2+  Ca20  1  0.58498422  0.32879314  0.82914723  1
  Ca2+  Ca21  1  0.58088178  0.82732413  0.15603188  1
  Ca2+  Ca22  1  0.57470273  0.84191827  0.50069669  1
  Ca2+  Ca23  1  0.58564093  0.83408568  0.82775597  1
  Ca2+  Ca24  1  0.32695154  0.42299365  0.17066103  1
  Ca2+  Ca25  1  0.33593278  0.42979410  0.50484050  1
  Ca2+  Ca26  1  0.32515769  0.42234965  0.83676632  1
  Ca2+  Ca27  1  0.31814247  0.91115698  0.17003157  1
  Ca2+  Ca28  1  0.32576677  0.91970661  0.50780327  1
  Ca2+  Ca29  1  0.33213681  0.91927918  0.83262245  1
  Ca2+  Ca30  1  0.82811079  0.42111219  0.16983393  1
  Ca2+  Ca31  1  0.83110242  0.40771230  0.49803163  1
  Ca2+  Ca32  1  0.82796434  0.42380558  0.84394494  1
  Ca2+  Ca33  1  0.83280668  0.91848599  0.16793669  1
  Ca2+  Ca34  1  0.83001932  0.91787896  0.50956548  1
  Ca2+  Ca35  1  0.83071086  0.92322609  0.83622169  1
  Ca2+  Ca36  1  0.42502490  0.16564003  0.16458765  1
  Ca2+  Ca37  1  0.42939876  0.15596263  0.49876436  1
  Ca2+  Ca38  1  0.42174759  0.16578602  0.82259288  1
  Ca2+  Ca39  1  0.42093285  0.66259898  0.16200953  1
  Ca2+  Ca40  1  0.40982613  0.66934265  0.50030254  1
  Ca2+  Ca41  1  0.42240195  0.67281072  0.82670441  1
  Ca2+  Ca42  1  0.91707719  0.17018730  0.16778479  1
  Ca2+  Ca43  1  0.92589412  0.16312065  0.49401386  1
  Ca2+  Ca44  1  0.91743238  0.16214587  0.82810275  1
  Ca2+  Ca45  1  0.91791136  0.67198153  0.15787198  1
  Ca2+  Ca46  1  0.92010571  0.67942314  0.49841041  1
  Ca2+  Ca47  1  0.92556511  0.66755730  0.82683109  1
  Al0+  Al48  1  0.00109490  0.00120492  0.00638764  1
  Al0+  Al49  1  -0.00148438  -0.00137128  0.32899094  1
  Al0+  Al50  1  -0.00077080  0.00002705  0.66416003  1
  Al0+  Al51  1  0.00037700  0.49964570  0.00329983  1
  Al0+  Al52  1  0.00014418  0.50064128  0.33299076  1
  Al0+  Al53  1  -0.00035777  0.49918338  0.65956579  1
  Al0+  Al54  1  0.50070991  0.00153581  0.00258034  1
  Al0+  Al55  1  0.49880577  -0.00155846  0.32436285  1
  Al0+  Al56  1  0.49882735  -0.00103241  0.66651796  1
  Al0+  Al57  1  0.49951613  0.49973704  -0.00323953  1
  Al0+  Al58  1  0.50097875  0.49900432  0.34300960  1
  Al0+  Al59  1  0.49800039  0.50051753  0.67213529  1
  Al0+  Al60  1  0.25137152  0.25155726  0.00365621  1
  Al0+  Al61  1  0.25302244  0.24916173  0.32957937  1
  Al0+  Al62  1  0.25003724  0.25171737  0.66506597  1
  Al0+  Al63  1  0.25034251  0.75166581  -0.00080776  1
  Al0+  Al64  1  0.24878988  0.75185084  0.34201833  1
  Al0+  Al65  1  0.25282362  0.74894648  0.66528838  1
  Al0+  Al66  1  0.75063022  0.24950846  0.00497208  1
  Al0+  Al67  1  0.75078006  0.24936293  0.32894463  1
  Al0+  Al68  1  0.74925125  0.24958278  0.66835020  1
  Al0+  Al69  1  0.74947006  0.75145054  0.00191852  1
  Al0+  Al70  1  0.74936739  0.74974377  0.33034768  1
  Al0+  Al71  1  0.74945369  0.74650989  0.66542567  1
  Al0+  Al72  1  0.57066532  0.17792733  0.31755478  1
  Al0+  Al73  1  0.17758277  0.93196288  0.34957266  1
  Al0+  Al74  1  0.31951226  0.56939148  0.34732992  1
  Al0+  Al75  1  0.43134329  0.82061789  0.65291411  1
  Al0+  Al76  1  0.67755395  0.92883665  0.01663542  1
  Al0+  Al77  1  0.82219928  0.07097459  0.01800730  1
  Al0+  Al78  1  0.07191006  0.17902056  0.65577470  1
  Al0+  Al79  1  0.67804091  0.92711648  0.67948298  1
  Al0+  Al80  1  0.68225612  0.42904251  0.34908121  1
  Al0+  Al81  1  0.92738173  0.81974737  0.31698906  1
  Al0+  Al82  1  0.07365258  0.17839106  0.31576871  1
  Al0+  Al83  1  0.07251061  0.67751464  0.65035228  1
  Al0+  Al84  1  0.32018729  0.07211651  0.67827575  1
  Al0+  Al85  1  0.07052641  0.67869367  0.98768168  1
  Al0+  Al86  1  0.82256234  0.57247096  0.01430534  1
  Al0+  Al87  1  0.32010291  0.57266536  0.68448752  1
  Al0+  Al88  1  0.92978687  0.32185854  0.31623180  1
  Al0+  Al89  1  0.57126926  0.67899953  0.98687794  1
  Al0+  Al90  1  0.67728277  0.42949566  0.01452612  1
  Al0+  Al91  1  0.17874044  0.42829900  0.01305462  1
  Al0+  Al92  1  0.18133426  0.92939151  0.01183681  1
  Al0+  Al93  1  0.56956444  0.18061817  0.65530417  1
  Al0+  Al94  1  0.92768776  0.82071371  0.65339412  1
  Al0+  Al95  1  0.82290487  0.07191061  0.68020649  1
  Si0+  Si96  1  0.07367157  0.68023400  0.31742471  1
  Si0+  Si97  1  0.32441653  0.07174514  0.34848734  1
  Si0+  Si98  1  0.32296944  0.07420164  0.01749082  1
  Si0+  Si99  1  0.42802278  0.82324294  0.98352428  1
  Si0+  Si100  1  0.43067219  0.32537608  0.31677567  1
  Si0+  Si101  1  0.57168073  0.17942534  0.98345231  1
  Si0+  Si102  1  0.81792888  0.06896435  0.34824868  1
  Si0+  Si103  1  0.82164873  0.56953630  0.67972258  1
  Si0+  Si104  1  0.57228688  0.67487555  0.64886536  1
  Si0+  Si105  1  0.67914283  0.42832197  0.68190471  1
  Si0+  Si106  1  0.56918871  0.67746681  0.32055569  1
  Si0+  Si107  1  0.42749756  0.32055947  0.98381153  1
  Si0+  Si108  1  0.17718387  0.92856943  0.68277133  1
  Si0+  Si109  1  0.67659711  0.92698825  0.34727814  1
  Si0+  Si110  1  0.17690188  0.42930130  0.68145727  1
  Si0+  Si111  1  0.92920193  0.31983640  0.98492720  1
  Si0+  Si112  1  0.42723640  0.81956040  0.31744236  1
  Si0+  Si113  1  0.92676742  0.32222725  0.65136258  1
  Si0+  Si114  1  0.32067772  0.57220700  0.01487180  1
  Si0+  Si115  1  0.82326781  0.57477131  0.35182667  1
  Si0+  Si116  1  0.17633084  0.42515993  0.35085037  1
  Si0+  Si117  1  0.42759512  0.32397131  0.64970572  1
  Si0+  Si118  1  0.07238263  0.17901975  0.98511381  1
  Si0+  Si119  1  0.92843497  0.82431315  0.98314690  1
  O2-  O120  1  0.25535264  0.00418295  0.06054727  1
  O2-  O121  1  0.25008685  0.01025247  0.39360926  1
  O2-  O122  1  0.24363549  0.00017743  0.72637468  1
  O2-  O123  1  0.25024847  0.50601926  0.05976456  1
  O2-  O124  1  0.24423462  0.49491000  0.39464042  1
  O2-  O125  1  0.24173842  0.50050746  0.72816407  1
  O2-  O126  1  0.75063520  -0.00157005  0.06835216  1
  O2-  O127  1  0.74601734  -0.00132609  0.39028236  1
  O2-  O128  1  0.75245824  -0.00268851  0.72837893  1
  O2-  O129  1  0.74748868  0.50323463  0.06407844  1
  O2-  O130  1  0.75870954  0.50183703  0.39674867  1
  O2-  O131  1  0.74995553  0.49953077  0.72279343  1
  O2-  O132  1  0.00619695  0.25474926  0.26530552  1
  O2-  O133  1  -0.00582792  0.25102073  0.60980941  1
  O2-  O134  1  0.00059765  0.24910770  0.94227556  1
  O2-  O135  1  0.00114143  0.74340710  0.27155282  1
  O2-  O136  1  0.00260698  0.75212665  0.60172142  1
  O2-  O137  1  -0.00562034  0.75193533  0.94049349  1
  O2-  O138  1  0.49576671  0.25354420  0.27151974  1
  O2-  O139  1  0.49527338  0.25446008  0.60550542  1
  O2-  O140  1  0.49950775  0.25006994  0.94204305  1
  O2-  O141  1  0.49868769  0.74844915  0.27688627  1
  O2-  O142  1  0.50639176  0.74625875  0.60449987  1
  O2-  O143  1  0.49999156  0.75731963  0.94058004  1
  O2-  O144  1  0.07314251  0.18081061  0.08989336  1
  O2-  O145  1  0.07123892  0.17794838  0.42965191  1
  O2-  O146  1  0.07351804  0.18215168  0.76932239  1
  O2-  O147  1  0.07235385  0.68084386  0.10088616  1
  O2-  O148  1  0.07386531  0.68361494  0.42283320  1
  O2-  O149  1  0.06948772  0.67641753  0.76431194  1
  O2-  O150  1  0.56938150  0.17964570  0.08875975  1
  O2-  O151  1  0.57037251  0.17644160  0.43078967  1
  O2-  O152  1  0.56883148  0.18412751  0.76848144  1
  O2-  O153  1  0.56531017  0.67655824  0.10064138  1
  O2-  O154  1  0.56931075  0.67835627  0.42560681  1
  O2-  O155  1  0.57126354  0.67295533  0.75434522  1
  O2-  O156  1  0.17820574  0.42709720  0.24497405  1
  O2-  O157  1  0.17943957  0.42858131  0.57597578  1
  O2-  O158  1  0.18153972  0.42425100  0.90014863  1
  O2-  O159  1  0.18116595  0.92868566  0.23620794  1
  O2-  O160  1  0.17789042  0.93040059  0.57705128  1
  O2-  O161  1  0.18221010  0.93115315  0.89877713  1
  O2-  O162  1  0.67971556  0.43351347  0.23654435  1
  O2-  O163  1  0.67993635  0.42723042  0.57665454  1
  O2-  O164  1  0.68003070  0.42859923  0.90034430  1
  O2-  O165  1  0.67670282  0.92688322  0.24252540  1
  O2-  O166  1  0.67746568  0.93076138  0.56507486  1
  O2-  O167  1  0.67569272  0.93191180  0.90340160  1
  O2-  O168  1  0.42573496  0.32001263  0.08891116  1
  O2-  O169  1  0.43330308  0.32713701  0.42222149  1
  O2-  O170  1  0.42868424  0.32408772  0.75569309  1
  O2-  O171  1  0.42601061  0.82016675  0.08961768  1
  O2-  O172  1  0.42849184  0.82224899  0.42228732  1
  O2-  O173  1  0.43165200  0.81955438  0.76602439  1
  O2-  O174  1  0.93000121  0.31949129  0.08961416  1
  O2-  O175  1  0.92905639  0.31613670  0.43029096  1
  O2-  O176  1  0.92772847  0.32636368  0.75710345  1
  O2-  O177  1  0.93140102  0.82407174  0.08901846  1
  O2-  O178  1  0.92574226  0.82013357  0.42990633  1
  O2-  O179  1  0.92836426  0.81852775  0.76703383  1
  O2-  O180  1  0.32738196  0.06697821  0.24275214  1
  O2-  O181  1  0.32106365  0.06944721  0.56522905  1
  O2-  O182  1  0.32242198  0.07621665  0.91179400  1
  O2-  O183  1  0.32041877  0.56822182  0.23381568  1
  O2-  O184  1  0.32205253  0.56904942  0.57127293  1
  O2-  O185  1  0.32001063  0.57069395  0.90957016  1
  O2-  O186  1  0.81664853  0.06807484  0.24325996  1
  O2-  O187  1  0.82077484  0.07426263  0.56625212  1
  O2-  O188  1  0.82214691  0.07142673  0.90446991  1
  O2-  O189  1  0.81999501  0.57681696  0.24662527  1
  O2-  O190  1  0.81971594  0.56865934  0.57455107  1
  O2-  O191  1  0.82324437  0.56797877  0.89996025  1
  O2-  O192  1  0.03857143  0.08219993  0.26292414  1
  O2-  O193  1  0.04415951  0.08285224  0.60017837  1
  O2-  O194  1  0.04504349  0.08645896  0.93924481  1
  O2-  O195  1  0.05509446  0.58341671  0.27540122  1
  O2-  O196  1  0.04289992  0.58024444  0.59475843  1
  O2-  O197  1  0.04276681  0.58049065  0.93438382  1
  O2-  O198  1  0.53799321  0.08299117  0.25994108  1
  O2-  O199  1  0.53826734  0.08476511  0.60092253  1
  O2-  O200  1  0.54339670  0.08724350  0.93721349  1
  O2-  O201  1  0.53893330  0.58561405  0.27490319  1
  O2-  O202  1  0.54147248  0.58202280  0.60317091  1
  O2-  O203  1  0.53927014  0.58326102  0.93068977  1
  O2-  O204  1  0.17533680  0.19901396  0.26490330  1
  O2-  O205  1  0.16691396  0.21179661  0.59894219  1
  O2-  O206  1  0.16522027  0.20769012  0.93971443  1
  O2-  O207  1  0.16649960  0.71056478  0.27205138  1
  O2-  O208  1  0.17267198  0.70191834  0.60096544  1
  O2-  O209  1  0.16733630  0.71076256  0.93376142  1
  O2-  O210  1  0.66584106  0.21004601  0.26314825  1
  O2-  O211  1  0.66582762  0.21253696  0.60051908  1
  O2-  O212  1  0.66384335  0.20861914  0.93800357  1
  O2-  O213  1  0.66058747  0.70407054  0.27219569  1
  O2-  O214  1  0.66695805  0.69410006  0.60288603  1
  O2-  O215  1  0.66934585  0.70620314  0.93352176  1
  O2-  O216  1  0.08298346  0.45585269  0.06868600  1
  O2-  O217  1  0.08181815  0.44822495  0.39610802  1
  O2-  O218  1  0.08104146  0.45067364  0.72506964  1
  O2-  O219  1  0.08660991  0.96011567  0.06852307  1
  O2-  O220  1  0.07949285  0.96133046  0.40100107  1
  O2-  O221  1  0.08329254  0.95177659  0.72825752  1
  O2-  O222  1  0.57731484  0.45546745  0.06583037  1
  O2-  O223  1  0.58755094  0.46080860  0.40643929  1
  O2-  O224  1  0.58698561  0.45469460  0.72888292  1
  O2-  O225  1  0.57890938  0.95799419  0.07050586  1
  O2-  O226  1  0.58240219  0.95403473  0.39051345  1
  O2-  O227  1  0.58100373  0.95746968  0.73307724  1
  O2-  O228  1  0.21375282  0.33446925  0.07052729  1
  O2-  O229  1  0.20321785  0.33074153  0.39470673  1
  O2-  O230  1  0.20597622  0.33733132  0.72938823  1
  O2-  O231  1  0.21370506  0.83406111  0.06852757  1
  O2-  O232  1  0.21180386  0.83797552  0.40574787  1
  O2-  O233  1  0.20732984  0.83587514  0.72716968  1
  O2-  O234  1  0.70688610  0.33232853  0.06776024  1
  O2-  O235  1  0.71311538  0.33098539  0.40114010  1
  O2-  O236  1  0.70676019  0.33753004  0.73104123  1
  O2-  O237  1  0.70145092  0.82944122  0.06908935  1
  O2-  O238  1  0.70345455  0.83480474  0.39427719  1
  O2-  O239  1  0.70194130  0.82605324  0.72953973  1
  O2-  O240  1  0.46082780  0.41769201  0.27025494  1
  O2-  O241  1  0.45583995  0.41748804  0.60476605  1
  O2-  O242  1  0.45384163  0.41208004  0.93488813  1
  O2-  O243  1  0.45390381  0.90944772  0.26578067  1
  O2-  O244  1  0.46094908  0.91607328  0.59573568  1
  O2-  O245  1  0.45008790  0.91922024  0.94050626  1
  O2-  O246  1  0.95165630  0.42370593  0.26640162  1
  O2-  O247  1  0.95273438  0.41313203  0.59999638  1
  O2-  O248  1  0.95713479  0.41163451  0.93764996  1
  O2-  O249  1  0.95942773  0.91487700  0.26217296  1
  O2-  O250  1  0.95348101  0.91924728  0.59906309  1
  O2-  O251  1  0.95913245  0.91735901  0.93866817  1
  O2-  O252  1  0.33577635  0.30426715  0.27091436  1
  O2-  O253  1  0.33376807  0.30208879  0.60346896  1
  O2-  O254  1  0.33637588  0.29122472  0.93498278  1
  O2-  O255  1  0.33521537  0.78910441  0.27200019  1
  O2-  O256  1  0.33573901  0.78918601  0.59747974  1
  O2-  O257  1  0.33624691  0.79526999  0.93551014  1
  O2-  O258  1  0.83327146  0.28952975  0.26215842  1
  O2-  O259  1  0.83258779  0.29804995  0.60621582  1
  O2-  O260  1  0.83689346  0.29162525  0.93792171  1
  O2-  O261  1  0.83025986  0.78993389  0.26240272  1
  O2-  O262  1  0.83046987  0.78852248  0.59852726  1
  O2-  O263  1  0.83278791  0.80377215  0.94047473  1
  O2-  O264  1  0.41669868  0.05025221  0.06349455  1
  O2-  O265  1  0.41631172  0.03795660  0.39418444  1
  O2-  O266  1  0.41455557  0.03833140  0.73451577  1
  O2-  O267  1  0.41299376  0.54226695  0.06067954  1
  O2-  O268  1  0.41450306  0.53847366  0.40501695  1
  O2-  O269  1  0.41571342  0.53889131  0.73965264  1
  O2-  O270  1  0.92050311  0.04516052  0.07198626  1
  O2-  O271  1  0.91018031  0.03999509  0.39324057  1
  O2-  O272  1  0.92176976  0.04550000  0.73361981  1
  O2-  O273  1  0.91851911  0.54132098  0.06974108  1
  O2-  O274  1  0.91898198  0.55406721  0.39579154  1
  O2-  O275  1  0.91390186  0.54047028  0.72558068  1
  O2-  O276  1  0.29762673  0.16680759  0.06528753  1
  O2-  O277  1  0.30975163  0.16917802  0.39028072  1
  O2-  O278  1  0.29415811  0.17062328  0.73190787  1
  O2-  O279  1  0.29841073  0.66637871  0.06081484  1
  O2-  O280  1  0.28976023  0.66545056  0.40293395  1
  O2-  O281  1  0.29398903  0.67037614  0.73802565  1
  O2-  O282  1  0.79119091  0.16811042  0.07160880  1
  O2-  O283  1  0.79094245  0.16124047  0.39400868  1
  O2-  O284  1  0.79291328  0.16977447  0.73471268  1
  O2-  O285  1  0.79771731  0.67151890  0.06611266  1
  O2-  O286  1  0.79069579  0.66630841  0.39889056  1
  O2-  O287  1  0.79518954  0.66052651  0.72863541  1
