# generated using pymatgen
data_Ca2Al2SiO7
_symmetry_space_group_name_H-M   'P 1'
_cell_length_a   15.47321353
_cell_length_b   15.47769491
_cell_length_c   15.29738423
_cell_angle_alpha   90.00867626
_cell_angle_beta   89.99199321
_cell_angle_gamma   89.99032673
_symmetry_Int_Tables_number   1
_chemical_formula_structural   Ca2Al2SiO7
_chemical_formula_sum   'Ca48 Al48 Si24 O168'
_cell_volume   3663.56549737
_cell_formula_units_Z   24
loop_
 _symmetry_equiv_pos_site_id
 _symmetry_equiv_pos_as_xyz
  1  'x, y, z'
loop_
 _atom_type_symbol
 _atom_type_oxidation_number
  Ca2+  2.0
  Al0+  0.0
  Si0+  0.0
  O2-  -2.0
loop_
 _atom_site_type_symbol
 _atom_site_label
 _atom_site_symmetry_multiplicity
 _atom_site_fract_x
 _atom_site_fract_y
 _atom_site_fract_z
 _atom_site_occupancy
  Ca2+  Ca0  1  0.16790786  0.07946551  0.17269791  1
  Ca2+  Ca1  1  0.17446951  0.08646809  0.51173564  1
  Ca2+  Ca2  1  0.17209060  0.08988021  0.82861755  1
  Ca2+  Ca3  1  0.17309561  0.57794337  0.18019123  1
  Ca2+  Ca4  1  0.16925819  0.57464281  0.49770136  1
  Ca2+  Ca5  1  0.16854857  0.57607139  0.83056100  1
  Ca2+  Ca6  1  0.67012358  0.08749646  0.17785947  1
  Ca2+  Ca7  1  0.67437860  0.09302490  0.50471349  1
  Ca2+  Ca8  1  0.66978726  0.08923913  0.82909637  1
  Ca2+  Ca9  1  0.66999945  0.57325400  0.17195542  1
  Ca2+  Ca10  1  0.66323649  0.57294236  0.50422125  1
  Ca2+  Ca11  1  0.67440050  0.57339667  0.83568556  1
  Ca2+  Ca12  1  0.06797231  0.34659715  0.16807732  1
  Ca2+  Ca13  1  0.07897182  0.33626607  0.49717456  1
  Ca2+  Ca14  1  0.07615649  0.33325047  0.82551165  1
  Ca2+  Ca15  1  0.08423996  0.82338706  0.16740388  1
  Ca2+  Ca16  1  0.07698450  0.82602554  0.49575107  1
  Ca2+  Ca17  1  0.07506228  0.82732741  0.82282715  1
  Ca2+  Ca18  1  0.57776235  0.34075028  0.16672860  1
  Ca2+  Ca19  1  0.58145374  0.33123918  0.49171530  1
  Ca2+  Ca20  1  0.57612371  0.33660132  0.82650530  1
  Ca2+  Ca21  1  0.58121434  0.82649550  0.17118784  1
  Ca2+  Ca22  1  0.57473196  0.82488539  0.49363003  1
  Ca2+  Ca23  1  0.58098079  0.83003911  0.82318304  1
  Ca2+  Ca24  1  0.32881520  0.41579961  0.17927571  1
  Ca2+  Ca25  1  0.32464944  0.40632520  0.50429688  1
  Ca2+  Ca26  1  0.32830089  0.40150383  0.83291004  1
  Ca2+  Ca27  1  0.33529862  0.91719661  0.17537839  1
  Ca2+  Ca28  1  0.34036424  0.92125059  0.50759744  1
  Ca2+  Ca29  1  0.34238701  0.92643132  0.83145067  1
  Ca2+  Ca30  1  0.82428794  0.41041083  0.17237634  1
  Ca2+  Ca31  1  0.81998685  0.41590321  0.50502383  1
  Ca2+  Ca32  1  0.82018222  0.41762205  0.83936273  1
  Ca2+  Ca33  1  0.83067850  0.92781346  0.17444787  1
  Ca2+  Ca34  1  0.83657185  0.92805133  0.50712276  1
  Ca2+  Ca35  1  0.83919989  0.92265294  0.83004598  1
  Ca2+  Ca36  1  0.42145111  0.18085012  0.16727774  1
  Ca2+  Ca37  1  0.42705182  0.17530223  0.50039363  1
  Ca2+  Ca38  1  0.42402596  0.17503243  0.82194987  1
  Ca2+  Ca39  1  0.42410482  0.65656511  0.17309502  1
  Ca2+  Ca40  1  0.41390066  0.67569112  0.48906528  1
  Ca2+  Ca41  1  0.41820266  0.67563474  0.82573854  1
  Ca2+  Ca42  1  0.91099684  0.18007509  0.16861865  1
  Ca2+  Ca43  1  0.91978713  0.16663382  0.49417189  1
  Ca2+  Ca44  1  0.92226181  0.17091950  0.82603091  1
  Ca2+  Ca45  1  0.92351402  0.65536604  0.16351026  1
  Ca2+  Ca46  1  0.91706672  0.66568642  0.49708137  1
  Ca2+  Ca47  1  0.90652687  0.66841304  0.82436909  1
  Al0+  Al48  1  0.00130820  -0.00299999  0.00178733  1
  Al0+  Al49  1  0.00009410  -0.00025903  0.33514531  1
  Al0+  Al50  1  0.00068837  -0.00140339  0.66395117  1
  Al0+  Al51  1  0.00265284  0.49957210  -0.00546850  1
  Al0+  Al52  1  0.00057565  0.50029688  0.32986457  1
  Al0+  Al53  1  0.00281441  0.50148201  0.67369164  1
  Al0+  Al54  1  0.49996638  0.00019067  0.00276791  1
  Al0+  Al55  1  0.50066664  -0.00069345  0.32654326  1
  Al0+  Al56  1  0.50084038  0.00141856  0.66464883  1
  Al0+  Al57  1  0.49985538  0.50149465  -0.00420573  1
  Al0+  Al58  1  0.49934190  0.50291665  0.33367523  1
  Al0+  Al59  1  0.49702741  0.50208636  0.66837579  1
  Al0+  Al60  1  0.25112893  0.24727548  0.00099691  1
  Al0+  Al61  1  0.24932946  0.24622362  0.33394643  1
  Al0+  Al62  1  0.24928755  0.24768704  0.66975131  1
  Al0+  Al63  1  0.24924785  0.75051184  -0.00176165  1
  Al0+  Al64  1  0.24622016  0.75043821  0.32897675  1
  Al0+  Al65  1  0.24729345  0.74976117  0.66384234  1
  Al0+  Al66  1  0.75041869  0.24903401  -0.00056120  1
  Al0+  Al67  1  0.75197914  0.24998547  0.33518093  1
  Al0+  Al68  1  0.75124492  0.25049049  0.67540711  1
  Al0+  Al69  1  0.75146523  0.75090112  0.00415683  1
  Al0+  Al70  1  0.74882702  0.75287119  0.32867054  1
  Al0+  Al71  1  0.74922685  0.75251094  0.66310772  1
  Al0+  Al72  1  0.42763982  0.82058033  0.31740551  1
  Al0+  Al73  1  0.32044953  0.57154610  0.34765692  1
  Al0+  Al74  1  0.32206925  0.06893517  0.68040703  1
  Al0+  Al75  1  0.93050650  0.32024030  0.32345132  1
  Al0+  Al76  1  0.57283766  0.18119257  0.31884769  1
  Al0+  Al77  1  0.57405106  0.18147905  0.65289666  1
  Al0+  Al78  1  0.42822243  0.82086429  0.65456363  1
  Al0+  Al79  1  0.06921499  0.17984645  0.65398826  1
  Al0+  Al80  1  0.67567534  0.42758474  0.68215381  1
  Al0+  Al81  1  0.82422076  0.07164296  0.68148985  1
  Al0+  Al82  1  0.92782887  0.81991960  0.65212299  1
  Al0+  Al83  1  0.92938479  0.32052629  0.98444782  1
  Al0+  Al84  1  0.17808873  0.42634036  0.34831024  1
  Al0+  Al85  1  0.06710040  0.67966891  0.31947355  1
  Al0+  Al86  1  0.42832219  0.32308874  0.65194664  1
  Al0+  Al87  1  0.67808213  0.42828327  0.01711331  1
  Al0+  Al88  1  0.42710249  0.32164860  0.31995588  1
  Al0+  Al89  1  0.18175593  0.42839479  0.68189852  1
  Al0+  Al90  1  0.42919974  0.32130359  0.98605838  1
  Al0+  Al91  1  0.57303192  0.67714884  0.31746473  1
  Al0+  Al92  1  0.81979571  0.07041326  0.34755338  1
  Al0+  Al93  1  0.82263497  0.57139836  0.01568872  1
  Al0+  Al94  1  0.81998400  0.57219925  0.67818176  1
  Al0+  Al95  1  0.67918206  0.43061392  0.34651694  1
  Si0+  Si96  1  0.32203562  0.06874717  0.34881017  1
  Si0+  Si97  1  0.42908617  0.82209721  0.98457990  1
  Si0+  Si98  1  0.17962904  0.92754079  0.01581555  1
  Si0+  Si99  1  0.67649399  0.92776805  0.35100162  1
  Si0+  Si100  1  0.67746734  0.92859563  0.01570619  1
  Si0+  Si101  1  0.17795246  0.92674983  0.68344649  1
  Si0+  Si102  1  0.18171017  0.42749535  0.01437248  1
  Si0+  Si103  1  0.57246713  0.68130138  0.98374035  1
  Si0+  Si104  1  0.57139946  0.67892301  0.65094026  1
  Si0+  Si105  1  0.07241434  0.17501627  0.31688562  1
  Si0+  Si106  1  0.17820728  0.92870651  0.34911773  1
  Si0+  Si107  1  0.07229582  0.67948076  0.98248896  1
  Si0+  Si108  1  0.32143498  0.06955211  0.01773848  1
  Si0+  Si109  1  0.31932776  0.57448722  0.01339837  1
  Si0+  Si110  1  0.07199800  0.67614151  0.64822384  1
  Si0+  Si111  1  0.92898820  0.32393460  0.65221645  1
  Si0+  Si112  1  0.92796512  0.82464947  0.31455165  1
  Si0+  Si113  1  0.32081828  0.57608821  0.68364751  1
  Si0+  Si114  1  0.07121535  0.17405950  0.98431233  1
  Si0+  Si115  1  0.57163408  0.17534141  0.98355280  1
  Si0+  Si116  1  0.67933909  0.93033578  0.68209146  1
  Si0+  Si117  1  0.82207947  0.06888391  0.01503032  1
  Si0+  Si118  1  0.82273341  0.57421132  0.34771749  1
  Si0+  Si119  1  0.92976985  0.82084362  0.98485637  1
  O2-  O120  1  0.24999064  -0.00173084  0.05935763  1
  O2-  O121  1  0.25073065  -0.00246348  0.39073673  1
  O2-  O122  1  0.24890836  -0.00766198  0.72893928  1
  O2-  O123  1  0.25397533  0.49786377  0.05475761  1
  O2-  O124  1  0.25515523  0.49346719  0.39762184  1
  O2-  O125  1  0.25921874  0.50117469  0.72882342  1
  O2-  O126  1  0.74637593  0.00241808  0.05666834  1
  O2-  O127  1  0.74487744  -0.00362787  0.39461890  1
  O2-  O128  1  0.74754385  -0.00146503  0.72852848  1
  O2-  O129  1  0.75396943  0.49721980  0.06654219  1
  O2-  O130  1  0.75109049  0.50935617  0.39149512  1
  O2-  O131  1  0.75065865  0.49884420  0.72965538  1
  O2-  O132  1  0.00744768  0.24751237  0.27421750  1
  O2-  O133  1  -0.00645554  0.25220059  0.60675574  1
  O2-  O134  1  0.00479989  0.24457247  0.94072274  1
  O2-  O135  1  -0.00971440  0.75102734  0.26914137  1
  O2-  O136  1  -0.00088107  0.74189043  0.60687153  1
  O2-  O137  1  -0.00441248  0.74527253  0.94191698  1
  O2-  O138  1  0.50263105  0.25422326  0.26787589  1
  O2-  O139  1  0.50825411  0.25931564  0.60362962  1
  O2-  O140  1  0.50679754  0.24827363  0.94159800  1
  O2-  O141  1  0.49816071  0.74745748  0.26708800  1
  O2-  O142  1  0.49743356  0.74247457  0.60800877  1
  O2-  O143  1  0.50084464  0.75273542  0.94184805  1
  O2-  O144  1  0.07030429  0.16902890  0.08969433  1
  O2-  O145  1  0.07137998  0.17032940  0.42192094  1
  O2-  O146  1  0.06874893  0.18100760  0.76777390  1
  O2-  O147  1  0.07501749  0.68243409  0.08724392  1
  O2-  O148  1  0.06581506  0.68207794  0.43209446  1
  O2-  O149  1  0.07571277  0.67912118  0.75431384  1
  O2-  O150  1  0.56878430  0.16941132  0.08868600  1
  O2-  O151  1  0.57262784  0.18085885  0.43175771  1
  O2-  O152  1  0.57002308  0.17787475  0.76704232  1
  O2-  O153  1  0.57136858  0.68206508  0.08821719  1
  O2-  O154  1  0.57548964  0.68146421  0.43065607  1
  O2-  O155  1  0.57236549  0.68373460  0.75730630  1
  O2-  O156  1  0.17632123  0.43023317  0.23384951  1
  O2-  O157  1  0.17895059  0.42947740  0.56953386  1
  O2-  O158  1  0.18195848  0.42750376  0.90934449  1
  O2-  O159  1  0.17679875  0.93128696  0.24316427  1
  O2-  O160  1  0.17772734  0.92735066  0.57809081  1
  O2-  O161  1  0.17882217  0.92594616  0.91137177  1
  O2-  O162  1  0.68146452  0.42963722  0.23348165  1
  O2-  O163  1  0.67675326  0.42820603  0.56858120  1
  O2-  O164  1  0.67717482  0.43140556  0.90384855  1
  O2-  O165  1  0.67875260  0.92855151  0.24454734  1
  O2-  O166  1  0.68008827  0.92917020  0.57717596  1
  O2-  O167  1  0.67617434  0.92669546  0.91088303  1
  O2-  O168  1  0.42511928  0.31958235  0.09869271  1
  O2-  O169  1  0.42452099  0.31639743  0.43256131  1
  O2-  O170  1  0.42813533  0.31697252  0.76605535  1
  O2-  O171  1  0.42793758  0.82346565  0.08876344  1
  O2-  O172  1  0.42889379  0.82142451  0.43085256  1
  O2-  O173  1  0.43127039  0.82010174  0.76878054  1
  O2-  O174  1  0.93044831  0.31918693  0.09769368  1
  O2-  O175  1  0.93073155  0.31886890  0.43609692  1
  O2-  O176  1  0.93247998  0.32169544  0.75814309  1
  O2-  O177  1  0.93375736  0.82588007  0.08939827  1
  O2-  O178  1  0.93166333  0.82728247  0.41972101  1
  O2-  O179  1  0.93094454  0.81997586  0.76614075  1
  O2-  O180  1  0.31884847  0.06765513  0.24297070  1
  O2-  O181  1  0.32038929  0.06683927  0.56760629  1
  O2-  O182  1  0.32233492  0.06781985  0.91299154  1
  O2-  O183  1  0.31627261  0.57118172  0.23300841  1
  O2-  O184  1  0.31592033  0.58329960  0.57926016  1
  O2-  O185  1  0.31469955  0.58213578  0.90873182  1
  O2-  O186  1  0.82053559  0.06799169  0.23345375  1
  O2-  O187  1  0.82625853  0.06855829  0.56901296  1
  O2-  O188  1  0.82540633  0.06520952  0.91034212  1
  O2-  O189  1  0.82356936  0.57100303  0.24208226  1
  O2-  O190  1  0.81896984  0.57189894  0.56467125  1
  O2-  O191  1  0.81756845  0.57536045  0.90259506  1
  O2-  O192  1  0.04281449  0.08299972  0.26816734  1
  O2-  O193  1  0.04297537  0.08239297  0.60040209  1
  O2-  O194  1  0.04397709  0.08088034  0.93726801  1
  O2-  O195  1  0.03988587  0.58397148  0.26169721  1
  O2-  O196  1  0.04927613  0.58167523  0.60430551  1
  O2-  O197  1  0.05250350  0.58635378  0.93503081  1
  O2-  O198  1  0.54411826  0.08299740  0.26485997  1
  O2-  O199  1  0.54114683  0.08460279  0.60007157  1
  O2-  O200  1  0.54147676  0.08282170  0.93639062  1
  O2-  O201  1  0.54441460  0.58053626  0.26109511  1
  O2-  O202  1  0.55050593  0.58396365  0.60796445  1
  O2-  O203  1  0.54388309  0.59110297  0.93445803  1
  O2-  O204  1  0.16701163  0.19466473  0.27082379  1
  O2-  O205  1  0.16584363  0.20948496  0.60134187  1
  O2-  O206  1  0.16638583  0.19807473  0.94119301  1
  O2-  O207  1  0.16057077  0.71485764  0.26140016  1
  O2-  O208  1  0.16249632  0.70703284  0.60004676  1
  O2-  O209  1  0.16096756  0.71508924  0.93320644  1
  O2-  O210  1  0.67179238  0.20694822  0.26624157  1
  O2-  O211  1  0.67673952  0.20135989  0.60601459  1
  O2-  O212  1  0.66772028  0.19452640  0.94080141  1
  O2-  O213  1  0.66951011  0.71003271  0.26073917  1
  O2-  O214  1  0.66137356  0.71048509  0.60264288  1
  O2-  O215  1  0.66395927  0.71289734  0.93790654  1
  O2-  O216  1  0.08985687  0.45820897  0.05938741  1
  O2-  O217  1  0.08107634  0.46146265  0.40011933  1
  O2-  O218  1  0.08769250  0.46291942  0.73993344  1
  O2-  O219  1  0.08830694  0.95506152  0.06524077  1
  O2-  O220  1  0.08706221  0.95689070  0.39671839  1
  O2-  O221  1  0.08606735  0.95551286  0.73128849  1
  O2-  O222  1  0.57889983  0.46168357  0.06638710  1
  O2-  O223  1  0.58184839  0.45856308  0.39909657  1
  O2-  O224  1  0.57717321  0.45810967  0.73515409  1
  O2-  O225  1  0.58515582  0.95372188  0.06391543  1
  O2-  O226  1  0.58157932  0.95165480  0.39378941  1
  O2-  O227  1  0.58641303  0.95591860  0.73011582  1
  O2-  O228  1  0.20603694  0.33469466  0.06132074  1
  O2-  O229  1  0.19964930  0.32485041  0.39803917  1
  O2-  O230  1  0.21050021  0.33218502  0.73809761  1
  O2-  O231  1  0.20872726  0.83618156  0.06407814  1
  O2-  O232  1  0.20180142  0.83603121  0.39479300  1
  O2-  O233  1  0.19978565  0.83209311  0.72960865  1
  O2-  O234  1  0.70365002  0.32702050  0.06641579  1
  O2-  O235  1  0.71492412  0.33603260  0.40027392  1
  O2-  O236  1  0.70347119  0.33097039  0.73906250  1
  O2-  O237  1  0.70856717  0.83925471  0.06558702  1
  O2-  O238  1  0.70207991  0.83388225  0.39582873  1
  O2-  O239  1  0.70588129  0.83745872  0.72995682  1
  O2-  O240  1  0.44988254  0.42208185  0.26967437  1
  O2-  O241  1  0.44118671  0.42696511  0.60591086  1
  O2-  O242  1  0.45333540  0.41972202  0.93204405  1
  O2-  O243  1  0.45856804  0.91691051  0.26072137  1
  O2-  O244  1  0.46124473  0.91576291  0.60092992  1
  O2-  O245  1  0.45686336  0.91467715  0.93818734  1
  O2-  O246  1  0.95986233  0.41542172  0.26548354  1
  O2-  O247  1  0.95981446  0.41661573  0.60869678  1
  O2-  O248  1  0.96253324  0.41589234  0.92948094  1
  O2-  O249  1  0.96149725  0.91536159  0.26613682  1
  O2-  O250  1  0.96365814  0.91378700  0.59744926  1
  O2-  O251  1  0.96354168  0.91043745  0.93576322  1
  O2-  O252  1  0.32974073  0.28731780  0.26570555  1
  O2-  O253  1  0.33245453  0.28453786  0.60203302  1
  O2-  O254  1  0.33296359  0.28484378  0.93341190  1
  O2-  O255  1  0.32775533  0.79710093  0.26516009  1
  O2-  O256  1  0.32944371  0.79616812  0.60276705  1
  O2-  O257  1  0.33722733  0.79334548  0.93740681  1
  O2-  O258  1  0.83725385  0.28490484  0.26624206  1
  O2-  O259  1  0.83308448  0.30222284  0.61172788  1
  O2-  O260  1  0.83264519  0.28878540  0.93156905  1
  O2-  O261  1  0.83213092  0.80804451  0.27049369  1
  O2-  O262  1  0.83084617  0.79544975  0.59677944  1
  O2-  O263  1  0.83565235  0.79858535  0.93959631  1
  O2-  O264  1  0.41222040  0.03985277  0.06588309  1
  O2-  O265  1  0.41414975  0.03910234  0.39306096  1
  O2-  O266  1  0.41764491  0.03657774  0.73673798  1
  O2-  O267  1  0.41407332  0.55212938  0.05582320  1
  O2-  O268  1  0.42207502  0.55758147  0.39681301  1
  O2-  O269  1  0.41663046  0.56027467  0.72861557  1
  O2-  O270  1  0.91183123  0.03484334  0.06325666  1
  O2-  O271  1  0.91666781  0.03758827  0.40004135  1
  O2-  O272  1  0.91906946  0.03467605  0.73647159  1
  O2-  O273  1  0.92538819  0.54672301  0.06159995  1
  O2-  O274  1  0.91571864  0.54704757  0.39286994  1
  O2-  O275  1  0.92036063  0.55194653  0.73114746  1
  O2-  O276  1  0.29194174  0.16018342  0.06638824  1
  O2-  O277  1  0.29366305  0.15934092  0.39659622  1
  O2-  O278  1  0.28654734  0.16201705  0.73811920  1
  O2-  O279  1  0.28663788  0.66405454  0.06294879  1
  O2-  O280  1  0.28350792  0.66888209  0.39789475  1
  O2-  O281  1  0.28732140  0.66678618  0.73371502  1
  O2-  O282  1  0.79822737  0.16184372  0.06111863  1
  O2-  O283  1  0.79216617  0.16627327  0.40238427  1
  O2-  O284  1  0.79735638  0.16699252  0.73950734  1
  O2-  O285  1  0.79620124  0.67090971  0.06897939  1
  O2-  O286  1  0.80270798  0.67146750  0.38850225  1
  O2-  O287  1  0.78954256  0.67141629  0.73060244  1
