# generated using pymatgen
data_Ca2Al2SiO7
_symmetry_space_group_name_H-M   'P 1'
_cell_length_a   15.45843898
_cell_length_b   15.45975863
_cell_length_c   15.28388679
_cell_angle_alpha   89.99594732
_cell_angle_beta   89.99277779
_cell_angle_gamma   90.00931100
_symmetry_Int_Tables_number   1
_chemical_formula_structural   Ca2Al2SiO7
_chemical_formula_sum   'Ca48 Al48 Si24 O168'
_cell_volume   3652.60027013
_cell_formula_units_Z   24
loop_
 _symmetry_equiv_pos_site_id
 _symmetry_equiv_pos_as_xyz
  1  'x, y, z'
loop_
 _atom_type_symbol
 _atom_type_oxidation_number
  Ca2+  2.0
  Al0+  0.0
  Si0+  0.0
  O2-  -2.0
loop_
 _atom_site_type_symbol
 _atom_site_label
 _atom_site_symmetry_multiplicity
 _atom_site_fract_x
 _atom_site_fract_y
 _atom_site_fract_z
 _atom_site_occupancy
  Ca2+  Ca0  1  0.17052654  0.07838398  0.16928758  1
  Ca2+  Ca1  1  0.17189903  0.07383241  0.50073583  1
  Ca2+  Ca2  1  0.16840637  0.07354113  0.84248671  1
  Ca2+  Ca3  1  0.17728350  0.57901691  0.16890915  1
  Ca2+  Ca4  1  0.17973504  0.58715588  0.50463693  1
  Ca2+  Ca5  1  0.17736648  0.58036583  0.84048997  1
  Ca2+  Ca6  1  0.67082516  0.09203482  0.16853341  1
  Ca2+  Ca7  1  0.67095606  0.08441246  0.50491009  1
  Ca2+  Ca8  1  0.67837801  0.08629872  0.83942314  1
  Ca2+  Ca9  1  0.66452405  0.57725539  0.17671474  1
  Ca2+  Ca10  1  0.66302514  0.58114430  0.50415288  1
  Ca2+  Ca11  1  0.67142447  0.58960817  0.83090961  1
  Ca2+  Ca12  1  0.08735042  0.32749282  0.15677191  1
  Ca2+  Ca13  1  0.07368874  0.33676515  0.49812464  1
  Ca2+  Ca14  1  0.08626576  0.32685163  0.83038801  1
  Ca2+  Ca15  1  0.07727756  0.84590014  0.16379757  1
  Ca2+  Ca16  1  0.07587211  0.84355311  0.49823783  1
  Ca2+  Ca17  1  0.07716201  0.84345956  0.82998903  1
  Ca2+  Ca18  1  0.57778121  0.32603041  0.16910717  1
  Ca2+  Ca19  1  0.57975694  0.32901631  0.48818686  1
  Ca2+  Ca20  1  0.58437192  0.32612052  0.83389114  1
  Ca2+  Ca21  1  0.58132811  0.82641253  0.16414121  1
  Ca2+  Ca22  1  0.57824268  0.82089291  0.49786158  1
  Ca2+  Ca23  1  0.57121111  0.82703464  0.82279663  1
  Ca2+  Ca24  1  0.33496386  0.42132716  0.16989843  1
  Ca2+  Ca25  1  0.34286683  0.42614669  0.50034051  1
  Ca2+  Ca26  1  0.33092994  0.42881181  0.84035217  1
  Ca2+  Ca27  1  0.32310203  0.92752172  0.17348448  1
  Ca2+  Ca28  1  0.32373910  0.91246792  0.50582534  1
  Ca2+  Ca29  1  0.32217353  0.91441340  0.84046288  1
  Ca2+  Ca30  1  0.82355614  0.41656786  0.17373950  1
  Ca2+  Ca31  1  0.82551599  0.42072589  0.50934133  1
  Ca2+  Ca32  1  0.83933553  0.42220558  0.83232490  1
  Ca2+  Ca33  1  0.83929060  0.92006894  0.16715668  1
  Ca2+  Ca34  1  0.83527458  0.91821495  0.50717489  1
  Ca2+  Ca35  1  0.83924689  0.92431174  0.83741334  1
  Ca2+  Ca36  1  0.42051956  0.16172707  0.16048500  1
  Ca2+  Ca37  1  0.42028716  0.17355684  0.48545803  1
  Ca2+  Ca38  1  0.42090320  0.15934482  0.83292783  1
  Ca2+  Ca39  1  0.41810055  0.65726504  0.16686746  1
  Ca2+  Ca40  1  0.42007291  0.66434837  0.49717306  1
  Ca2+  Ca41  1  0.41536633  0.66838263  0.82350807  1
  Ca2+  Ca42  1  0.92443183  0.16616488  0.15619663  1
  Ca2+  Ca43  1  0.91373585  0.16886324  0.50112259  1
  Ca2+  Ca44  1  0.92060455  0.16615561  0.82952839  1
  Ca2+  Ca45  1  0.91959069  0.68138445  0.16098730  1
  Ca2+  Ca46  1  0.91314215  0.67751006  0.49549786  1
  Ca2+  Ca47  1  0.91801315  0.67871406  0.82396438  1
  Al0+  Al48  1  -0.00181175  0.00356481  -0.00129474  1
  Al0+  Al49  1  -0.00061178  0.00238333  0.33381373  1
  Al0+  Al50  1  0.00110609  0.00125110  0.66893871  1
  Al0+  Al51  1  -0.00030561  0.50284195  0.00471546  1
  Al0+  Al52  1  -0.00052641  0.50362058  0.33093146  1
  Al0+  Al53  1  -0.00146950  0.49843180  0.66573529  1
  Al0+  Al54  1  0.50218272  -0.00303370  -0.00359511  1
  Al0+  Al55  1  0.50290393  -0.00102584  0.33319393  1
  Al0+  Al56  1  0.49991193  -0.00162645  0.66054672  1
  Al0+  Al57  1  0.50292785  0.49836056  0.00073825  1
  Al0+  Al58  1  0.50101287  0.49751597  0.33316477  1
  Al0+  Al59  1  0.50074100  0.49681718  0.67065724  1
  Al0+  Al60  1  0.25129444  0.25127372  -0.00151804  1
  Al0+  Al61  1  0.24765464  0.25150558  0.33476214  1
  Al0+  Al62  1  0.25101652  0.24799622  0.66367104  1
  Al0+  Al63  1  0.24909274  0.74901879  0.01023732  1
  Al0+  Al64  1  0.24791692  0.74897781  0.34072096  1
  Al0+  Al65  1  0.24826291  0.74992098  0.67268235  1
  Al0+  Al66  1  0.74934956  0.25066347  -0.00017725  1
  Al0+  Al67  1  0.74924972  0.25158905  0.33487975  1
  Al0+  Al68  1  0.75110758  0.24992086  0.66791674  1
  Al0+  Al69  1  0.75047337  0.75121757  -0.00466368  1
  Al0+  Al70  1  0.75035373  0.75257906  0.32344010  1
  Al0+  Al71  1  0.74879918  0.74907849  0.66334344  1
  Al0+  Al72  1  0.17771894  0.42838903  0.01358253  1
  Al0+  Al73  1  0.68138072  0.43016562  0.34757651  1
  Al0+  Al74  1  0.07248528  0.18153327  0.98605409  1
  Al0+  Al75  1  0.18026175  0.93054471  0.68222111  1
  Al0+  Al76  1  0.92937226  0.32086316  0.65319833  1
  Al0+  Al77  1  0.32508378  0.07035056  0.01242474  1
  Al0+  Al78  1  0.81878198  0.07037076  0.68048199  1
  Al0+  Al79  1  0.93121348  0.82222221  0.31846358  1
  Al0+  Al80  1  0.32346895  0.57084109  0.01657186  1
  Al0+  Al81  1  0.81863938  0.07126248  0.01418309  1
  Al0+  Al82  1  0.56985097  0.67679292  0.65186552  1
  Al0+  Al83  1  0.57204625  0.17639040  0.31842195  1
  Al0+  Al84  1  0.57109654  0.17776378  0.98449275  1
  Al0+  Al85  1  0.32038308  0.56776542  0.34885779  1
  Al0+  Al86  1  0.32084220  0.56845866  0.68063408  1
  Al0+  Al87  1  0.82099238  0.57224543  0.67906952  1
  Al0+  Al88  1  0.42725040  0.32025226  0.31773403  1
  Al0+  Al89  1  0.93066611  0.82166780  0.65304258  1
  Al0+  Al90  1  0.42479486  0.82053815  0.65156501  1
  Al0+  Al91  1  0.32369414  0.07244166  0.34840892  1
  Al0+  Al92  1  0.56869504  0.67958664  0.31879811  1
  Al0+  Al93  1  0.17705289  0.93036798  0.01614913  1
  Al0+  Al94  1  0.93100320  0.82124335  0.98360978  1
  Al0+  Al95  1  0.17788717  0.93076808  0.35056511  1
  Si0+  Si96  1  0.07276715  0.17795388  0.64765866  1
  Si0+  Si97  1  0.92781966  0.32368729  0.31889030  1
  Si0+  Si98  1  0.07135301  0.67587826  0.65120124  1
  Si0+  Si99  1  0.42826868  0.81852635  0.98787050  1
  Si0+  Si100  1  0.68142981  0.42941701  0.01576112  1
  Si0+  Si101  1  0.57217513  0.17906488  0.65231660  1
  Si0+  Si102  1  0.07280612  0.67701484  0.98362411  1
  Si0+  Si103  1  0.67887461  0.92603635  0.01617937  1
  Si0+  Si104  1  0.42955042  0.32285249  0.98112113  1
  Si0+  Si105  1  0.07411149  0.67704584  0.31522874  1
  Si0+  Si106  1  0.17659166  0.42530739  0.68132675  1
  Si0+  Si107  1  0.06800746  0.18166866  0.31917926  1
  Si0+  Si108  1  0.92700117  0.32445745  0.98491925  1
  Si0+  Si109  1  0.82044969  0.57462495  0.01549363  1
  Si0+  Si110  1  0.57128627  0.67663123  0.98427901  1
  Si0+  Si111  1  0.67935265  0.92563721  0.34782543  1
  Si0+  Si112  1  0.67625523  0.92686177  0.68217534  1
  Si0+  Si113  1  0.67875572  0.42720159  0.68624937  1
  Si0+  Si114  1  0.17348613  0.42731487  0.35160934  1
  Si0+  Si115  1  0.42511607  0.82153558  0.31661511  1
  Si0+  Si116  1  0.82161715  0.57483168  0.34793002  1
  Si0+  Si117  1  0.32443108  0.07349801  0.68203088  1
  Si0+  Si118  1  0.42909696  0.31893426  0.65293588  1
  Si0+  Si119  1  0.81963857  0.07070670  0.34798997  1
  O2-  O120  1  0.25062763  0.00205452  0.06374828  1
  O2-  O121  1  0.25599027  -0.00301593  0.39985748  1
  O2-  O122  1  0.25827250  0.00300848  0.72641823  1
  O2-  O123  1  0.25130545  0.49787996  0.06455393  1
  O2-  O124  1  0.24404136  0.49399607  0.39568902  1
  O2-  O125  1  0.24464029  0.49436886  0.72544337  1
  O2-  O126  1  0.74460165  -0.00319763  0.06207965  1
  O2-  O127  1  0.74704185  0.00086462  0.38897859  1
  O2-  O128  1  0.74475982  -0.00483928  0.72743160  1
  O2-  O129  1  0.75156168  0.50171929  0.05762059  1
  O2-  O130  1  0.75565400  0.50506087  0.39414173  1
  O2-  O131  1  0.74651515  0.49799151  0.72870796  1
  O2-  O132  1  0.00163800  0.25703698  0.27625841  1
  O2-  O133  1  0.00506963  0.24846502  0.60407113  1
  O2-  O134  1  -0.00018703  0.26002161  0.94133863  1
  O2-  O135  1  0.00732271  0.74860834  0.27239141  1
  O2-  O136  1  0.00256791  0.74443195  0.60598379  1
  O2-  O137  1  0.00701084  0.74754278  0.93767683  1
  O2-  O138  1  0.49310310  0.24137199  0.26889615  1
  O2-  O139  1  0.49711114  0.24521177  0.61090075  1
  O2-  O140  1  0.49325369  0.24902445  0.93664369  1
  O2-  O141  1  0.49219311  0.75172815  0.27042742  1
  O2-  O142  1  0.49604382  0.74710151  0.60227864  1
  O2-  O143  1  0.49612937  0.74405945  0.94486707  1
  O2-  O144  1  0.06830109  0.18157975  0.09967625  1
  O2-  O145  1  0.06393331  0.18082972  0.42435159  1
  O2-  O146  1  0.07346967  0.17919802  0.75311854  1
  O2-  O147  1  0.06832596  0.67447987  0.08909564  1
  O2-  O148  1  0.07134462  0.67184804  0.42066288  1
  O2-  O149  1  0.06926982  0.67497069  0.75686350  1
  O2-  O150  1  0.57359013  0.18228108  0.09681280  1
  O2-  O151  1  0.57671403  0.18142912  0.43251282  1
  O2-  O152  1  0.57302908  0.18078851  0.75755822  1
  O2-  O153  1  0.57381566  0.67648128  0.08942032  1
  O2-  O154  1  0.57024355  0.68062460  0.43135683  1
  O2-  O155  1  0.56890060  0.67908214  0.76614441  1
  O2-  O156  1  0.17022068  0.42879103  0.24632390  1
  O2-  O157  1  0.17706226  0.42529028  0.57570545  1
  O2-  O158  1  0.17817751  0.43127320  0.89954598  1
  O2-  O159  1  0.17495703  0.93613475  0.23744041  1
  O2-  O160  1  0.17847408  0.93339119  0.56931984  1
  O2-  O161  1  0.17861538  0.93043628  0.90243503  1
  O2-  O162  1  0.68410658  0.42997921  0.23403849  1
  O2-  O163  1  0.67900624  0.42491969  0.58078236  1
  O2-  O164  1  0.68133078  0.42903130  0.91061662  1
  O2-  O165  1  0.68134943  0.92215595  0.24279389  1
  O2-  O166  1  0.67691545  0.92927522  0.57626388  1
  O2-  O167  1  0.68017988  0.92480569  0.91065419  1
  O2-  O168  1  0.43358348  0.32695889  0.08610863  1
  O2-  O169  1  0.43274360  0.32114554  0.43210585  1
  O2-  O170  1  0.42945240  0.31905307  0.75797689  1
  O2-  O171  1  0.43250011  0.81975780  0.09279150  1
  O2-  O172  1  0.42758462  0.81983566  0.42207702  1
  O2-  O173  1  0.42661593  0.82000977  0.76592179  1
  O2-  O174  1  0.92444117  0.32194337  0.09100030  1
  O2-  O175  1  0.92715353  0.32216404  0.42398960  1
  O2-  O176  1  0.93034453  0.32026900  0.76614234  1
  O2-  O177  1  0.92943789  0.81931262  0.09684348  1
  O2-  O178  1  0.92983225  0.82193855  0.43165325  1
  O2-  O179  1  0.93213618  0.82224022  0.76602097  1
  O2-  O180  1  0.32061155  0.07182410  0.23500392  1
  O2-  O181  1  0.32243756  0.07690822  0.57671452  1
  O2-  O182  1  0.32567289  0.06491131  0.89848355  1
  O2-  O183  1  0.31975091  0.56546777  0.23608355  1
  O2-  O184  1  0.32225040  0.56601087  0.56763212  1
  O2-  O185  1  0.32421748  0.57037328  0.90268769  1
  O2-  O186  1  0.82113700  0.07131629  0.24291361  1
  O2-  O187  1  0.81626541  0.07129136  0.56674244  1
  O2-  O188  1  0.81793526  0.07174452  0.90115385  1
  O2-  O189  1  0.81987354  0.57177260  0.24187017  1
  O2-  O190  1  0.81979313  0.57036879  0.56606875  1
  O2-  O191  1  0.81922024  0.57489688  0.91039478  1
  O2-  O192  1  0.03422567  0.09269804  0.27048578  1
  O2-  O193  1  0.04204625  0.08655428  0.60096176  1
  O2-  O194  1  0.03591369  0.08794119  0.93041284  1
  O2-  O195  1  0.04558120  0.58522484  0.26546385  1
  O2-  O196  1  0.04821586  0.58221674  0.60426531  1
  O2-  O197  1  0.04493212  0.58404521  0.93665961  1
  O2-  O198  1  0.55620843  0.07443749  0.26748128  1
  O2-  O199  1  0.55172239  0.08553495  0.60530763  1
  O2-  O200  1  0.54637096  0.07942972  0.92991986  1
  O2-  O201  1  0.53985432  0.58242252  0.26530479  1
  O2-  O202  1  0.54405701  0.57585502  0.60284627  1
  O2-  O203  1  0.54917430  0.58327257  0.93733854  1
  O2-  O204  1  0.16083759  0.20523529  0.27272599  1
  O2-  O205  1  0.16677297  0.20167783  0.60080778  1
  O2-  O206  1  0.16941155  0.20853794  0.92979304  1
  O2-  O207  1  0.16891260  0.70011840  0.27128295  1
  O2-  O208  1  0.16499350  0.70285318  0.60693877  1
  O2-  O209  1  0.16912658  0.69935254  0.94203664  1
  O2-  O210  1  0.66872686  0.21386709  0.26552443  1
  O2-  O211  1  0.66223638  0.21127238  0.60463302  1
  O2-  O212  1  0.66613336  0.21543730  0.92994699  1
  O2-  O213  1  0.66382686  0.71195212  0.26167070  1
  O2-  O214  1  0.66723480  0.70560281  0.59744786  1
  O2-  O215  1  0.66139886  0.70849597  0.93570270  1
  O2-  O216  1  0.07914529  0.45558259  0.06875711  1
  O2-  O217  1  0.07960713  0.45590005  0.39736347  1
  O2-  O218  1  0.08246918  0.44786019  0.72679475  1
  O2-  O219  1  0.07956932  0.96341201  0.06719741  1
  O2-  O220  1  0.08121156  0.96771033  0.40355915  1
  O2-  O221  1  0.08543689  0.96603946  0.73644663  1
  O2-  O222  1  0.59019469  0.45698182  0.06355076  1
  O2-  O223  1  0.58555811  0.46014484  0.40187253  1
  O2-  O224  1  0.58582572  0.45071406  0.73450299  1
  O2-  O225  1  0.58457129  0.94796908  0.06119572  1
  O2-  O226  1  0.58686693  0.94786522  0.39609136  1
  O2-  O227  1  0.58188680  0.95239088  0.72744037  1
  O2-  O228  1  0.20420182  0.32964535  0.06597849  1
  O2-  O229  1  0.19375117  0.33288587  0.39765453  1
  O2-  O230  1  0.20376038  0.33117977  0.72606984  1
  O2-  O231  1  0.20112298  0.83165837  0.06994264  1
  O2-  O232  1  0.19748346  0.82978089  0.40180106  1
  O2-  O233  1  0.20550214  0.83326949  0.73750632  1
  O2-  O234  1  0.71114023  0.33916488  0.06443646  1
  O2-  O235  1  0.71411868  0.33485471  0.40370462  1
  O2-  O236  1  0.70833384  0.33517225  0.73336976  1
  O2-  O237  1  0.70756720  0.83324620  0.06324587  1
  O2-  O238  1  0.71291981  0.83586944  0.39581641  1
  O2-  O239  1  0.69997056  0.83287813  0.72720738  1
  O2-  O240  1  0.46465269  0.41468100  0.26322005  1
  O2-  O241  1  0.46094720  0.40940207  0.60585648  1
  O2-  O242  1  0.46419041  0.41363966  0.93262065  1
  O2-  O243  1  0.45405187  0.91435500  0.27099788  1
  O2-  O244  1  0.45343611  0.91844678  0.59657040  1
  O2-  O245  1  0.45873291  0.90733555  0.93620597  1
  O2-  O246  1  0.94953564  0.41750264  0.27226876  1
  O2-  O247  1  0.95713805  0.41730398  0.59635895  1
  O2-  O248  1  0.94784425  0.42090249  0.94239341  1
  O2-  O249  1  0.96141385  0.91992587  0.26552131  1
  O2-  O250  1  0.96285893  0.91847134  0.59968650  1
  O2-  O251  1  0.95908914  0.91906222  0.93172528  1
  O2-  O252  1  0.32449318  0.30265778  0.26944863  1
  O2-  O253  1  0.33683207  0.29567641  0.60382305  1
  O2-  O254  1  0.33430671  0.30499564  0.93610465  1
  O2-  O255  1  0.32964641  0.79780209  0.27429169  1
  O2-  O256  1  0.32582125  0.79192352  0.60084352  1
  O2-  O257  1  0.33439551  0.79261511  0.94367298  1
  O2-  O258  1  0.83766865  0.29209424  0.27087819  1
  O2-  O259  1  0.83316888  0.28763743  0.59872380  1
  O2-  O260  1  0.83537032  0.29546327  0.93730036  1
  O2-  O261  1  0.83655589  0.79146219  0.26061829  1
  O2-  O262  1  0.83285480  0.79354071  0.60016514  1
  O2-  O263  1  0.83426994  0.78878223  0.92979542  1
  O2-  O264  1  0.42335658  0.03967582  0.06468682  1
  O2-  O265  1  0.42568913  0.05069078  0.39753369  1
  O2-  O266  1  0.42035565  0.05066182  0.72443289  1
  O2-  O267  1  0.42291644  0.54064112  0.06699627  1
  O2-  O268  1  0.41657573  0.53457661  0.40178499  1
  O2-  O269  1  0.41628820  0.53529331  0.73604714  1
  O2-  O270  1  0.91440877  0.04084323  0.06862087  1
  O2-  O271  1  0.90999285  0.04180602  0.39695925  1
  O2-  O272  1  0.91612775  0.04202416  0.73291464  1
  O2-  O273  1  0.91260835  0.55123251  0.06386782  1
  O2-  O274  1  0.91661610  0.55281043  0.39222211  1
  O2-  O275  1  0.91693507  0.53976446  0.73424874  1
  O2-  O276  1  0.30353353  0.17204003  0.05972991  1
  O2-  O277  1  0.29122823  0.17052758  0.40113718  1
  O2-  O278  1  0.29833168  0.16695929  0.72896698  1
  O2-  O279  1  0.29609674  0.66739482  0.07288772  1
  O2-  O280  1  0.29119192  0.66450378  0.40370798  1
  O2-  O281  1  0.29034679  0.66425666  0.73560658  1
  O2-  O282  1  0.78813283  0.16831347  0.06813506  1
  O2-  O283  1  0.79291699  0.16287715  0.39556327  1
  O2-  O284  1  0.78718083  0.16635012  0.73544316  1
  O2-  O285  1  0.78899674  0.66528425  0.06286041  1
  O2-  O286  1  0.79401750  0.66909198  0.39041184  1
  O2-  O287  1  0.78920222  0.66826620  0.73446208  1
