# generated using pymatgen
data_Ca2Al2SiO7
_symmetry_space_group_name_H-M   'P 1'
_cell_length_a   15.45483486
_cell_length_b   15.45484672
_cell_length_c   15.28157936
_cell_angle_alpha   90.00363491
_cell_angle_beta   90.00384147
_cell_angle_gamma   90.01183042
_symmetry_Int_Tables_number   1
_chemical_formula_structural   Ca2Al2SiO7
_chemical_formula_sum   'Ca48 Al48 Si24 O168'
_cell_volume   3650.03728735
_cell_formula_units_Z   24
loop_
 _symmetry_equiv_pos_site_id
 _symmetry_equiv_pos_as_xyz
  1  'x, y, z'
loop_
 _atom_type_symbol
 _atom_type_oxidation_number
  Ca2+  2.0
  Al0+  0.0
  Si0+  0.0
  O2-  -2.0
loop_
 _atom_site_type_symbol
 _atom_site_label
 _atom_site_symmetry_multiplicity
 _atom_site_fract_x
 _atom_site_fract_y
 _atom_site_fract_z
 _atom_site_occupancy
  Ca2+  Ca0  1  0.16728234  0.08140218  0.17753136  1
  Ca2+  Ca1  1  0.16455128  0.07797501  0.49822516  1
  Ca2+  Ca2  1  0.16184301  0.08076334  0.83486289  1
  Ca2+  Ca3  1  0.15977328  0.57511512  0.17060525  1
  Ca2+  Ca4  1  0.17173491  0.58109948  0.50923850  1
  Ca2+  Ca5  1  0.16769755  0.56973247  0.83293506  1
  Ca2+  Ca6  1  0.67789827  0.07556169  0.17256359  1
  Ca2+  Ca7  1  0.66865635  0.07494124  0.50543771  1
  Ca2+  Ca8  1  0.67067603  0.07833566  0.83864923  1
  Ca2+  Ca9  1  0.67936741  0.58793147  0.17275093  1
  Ca2+  Ca10  1  0.66917756  0.58065521  0.50322040  1
  Ca2+  Ca11  1  0.67364489  0.57381215  0.83620374  1
  Ca2+  Ca12  1  0.07946557  0.31969703  0.15632920  1
  Ca2+  Ca13  1  0.08050276  0.33194120  0.49613150  1
  Ca2+  Ca14  1  0.07697866  0.33419381  0.83159117  1
  Ca2+  Ca15  1  0.08815380  0.82801249  0.16635414  1
  Ca2+  Ca16  1  0.08141141  0.83353049  0.49499639  1
  Ca2+  Ca17  1  0.07321869  0.83468109  0.82203030  1
  Ca2+  Ca18  1  0.57967503  0.33108721  0.16360302  1
  Ca2+  Ca19  1  0.58192538  0.33212625  0.50298300  1
  Ca2+  Ca20  1  0.58379609  0.32612902  0.81742849  1
  Ca2+  Ca21  1  0.58490265  0.83797621  0.16358125  1
  Ca2+  Ca22  1  0.58861759  0.83026376  0.49357571  1
  Ca2+  Ca23  1  0.58083409  0.84006736  0.82985236  1
  Ca2+  Ca24  1  0.32258748  0.41163770  0.16906007  1
  Ca2+  Ca25  1  0.32803237  0.42318411  0.51410955  1
  Ca2+  Ca26  1  0.32657675  0.41456011  0.83276696  1
  Ca2+  Ca27  1  0.32967204  0.92200389  0.17477412  1
  Ca2+  Ca28  1  0.32052624  0.91871631  0.50219590  1
  Ca2+  Ca29  1  0.32807919  0.91431240  0.83592258  1
  Ca2+  Ca30  1  0.84334183  0.42597528  0.16619616  1
  Ca2+  Ca31  1  0.83425866  0.42358639  0.50625233  1
  Ca2+  Ca32  1  0.83557076  0.41472317  0.83797459  1
  Ca2+  Ca33  1  0.82683350  0.92749835  0.17318598  1
  Ca2+  Ca34  1  0.82772237  0.91922579  0.50433268  1
  Ca2+  Ca35  1  0.82339188  0.91999812  0.83924016  1
  Ca2+  Ca36  1  0.41574558  0.16096012  0.16426431  1
  Ca2+  Ca37  1  0.41720164  0.16756634  0.50081106  1
  Ca2+  Ca38  1  0.42711158  0.17322324  0.82233081  1
  Ca2+  Ca39  1  0.42680650  0.67670494  0.16089649  1
  Ca2+  Ca40  1  0.42207641  0.66454096  0.49304796  1
  Ca2+  Ca41  1  0.41475414  0.67017017  0.82973514  1
  Ca2+  Ca42  1  0.92371928  0.16244042  0.15928946  1
  Ca2+  Ca43  1  0.91819323  0.17278087  0.49446944  1
  Ca2+  Ca44  1  0.91607083  0.17413547  0.82993114  1
  Ca2+  Ca45  1  0.91669582  0.66274229  0.16625352  1
  Ca2+  Ca46  1  0.91952799  0.67297955  0.49302198  1
  Ca2+  Ca47  1  0.91381084  0.67156854  0.82902231  1
  Al0+  Al48  1  0.00075980  -0.00248663  -0.00072284  1
  Al0+  Al49  1  -0.00120041  0.00103984  0.33632355  1
  Al0+  Al50  1  -0.00112337  0.00004713  0.66574184  1
  Al0+  Al51  1  0.00160367  0.49846021  0.00441053  1
  Al0+  Al52  1  -0.00136789  0.50144482  0.33517316  1
  Al0+  Al53  1  0.00229553  0.50130686  0.66601464  1
  Al0+  Al54  1  0.49753174  -0.00081369  -0.00222298  1
  Al0+  Al55  1  0.49878650  0.00221675  0.34075734  1
  Al0+  Al56  1  0.49951988  -0.00141945  0.66472199  1
  Al0+  Al57  1  0.49955421  0.50215867  -0.00047092  1
  Al0+  Al58  1  0.49915587  0.50094374  0.32407908  1
  Al0+  Al59  1  0.50199819  0.50108678  0.67266245  1
  Al0+  Al60  1  0.24961497  0.24868647  -0.00074458  1
  Al0+  Al61  1  0.24813710  0.25053396  0.33387101  1
  Al0+  Al62  1  0.25065302  0.24971517  0.66677865  1
  Al0+  Al63  1  0.25209508  0.74852750  -0.00493517  1
  Al0+  Al64  1  0.25027013  0.74883243  0.33039636  1
  Al0+  Al65  1  0.25050371  0.75078247  0.67522882  1
  Al0+  Al66  1  0.74984564  0.24989133  0.00155095  1
  Al0+  Al67  1  0.74678827  0.25196820  0.33333859  1
  Al0+  Al68  1  0.75199464  0.25025289  0.65924456  1
  Al0+  Al69  1  0.74936113  0.74715616  0.00668394  1
  Al0+  Al70  1  0.75113997  0.74818688  0.33562864  1
  Al0+  Al71  1  0.74989860  0.75243765  0.66657375  1
  Al0+  Al72  1  0.18187613  0.42920668  0.01570897  1
  Al0+  Al73  1  0.82221196  0.07461258  0.35033557  1
  Al0+  Al74  1  0.68205911  0.42856411  0.67799208  1
  Al0+  Al75  1  0.67675818  0.92980208  0.01501063  1
  Al0+  Al76  1  0.57212754  0.67911420  0.31916507  1
  Al0+  Al77  1  0.17760206  0.42679138  0.68149857  1
  Al0+  Al78  1  0.67992310  0.92942975  0.34960691  1
  Al0+  Al79  1  0.93074293  0.32299237  0.65146773  1
  Al0+  Al80  1  0.82056606  0.56864140  0.01278145  1
  Al0+  Al81  1  0.17894720  0.92595114  0.34680744  1
  Al0+  Al82  1  0.17796608  0.93071692  0.68171369  1
  Al0+  Al83  1  0.82254082  0.07235652  0.01396659  1
  Al0+  Al84  1  0.67881255  0.92883709  0.68144032  1
  Al0+  Al85  1  0.32371023  0.57183392  0.68206000  1
  Al0+  Al86  1  0.07201829  0.67907190  0.32004611  1
  Al0+  Al87  1  0.43055974  0.82113612  0.98497051  1
  Al0+  Al88  1  0.92949443  0.32111999  0.98554774  1
  Al0+  Al89  1  0.92747071  0.82141231  0.65317110  1
  Al0+  Al90  1  0.32066660  0.07421659  0.34992782  1
  Al0+  Al91  1  0.07244297  0.17542935  0.98317125  1
  Al0+  Al92  1  0.82114442  0.56871078  0.34931033  1
  Al0+  Al93  1  0.06909612  0.17994224  0.32054713  1
  Al0+  Al94  1  0.57203623  0.17679321  0.64975953  1
  Al0+  Al95  1  0.42912271  0.32272064  0.65224821  1
  Si0+  Si96  1  0.56985262  0.17810990  0.31678779  1
  Si0+  Si97  1  0.67320390  0.42923187  0.34887329  1
  Si0+  Si98  1  0.07166280  0.67765061  0.98407490  1
  Si0+  Si99  1  0.07261495  0.68044076  0.65181782  1
  Si0+  Si100  1  0.17915006  0.42996915  0.34786262  1
  Si0+  Si101  1  0.82171072  0.07274746  0.68288461  1
  Si0+  Si102  1  0.17863862  0.92620758  0.01366384  1
  Si0+  Si103  1  0.92841614  0.82185069  0.31553401  1
  Si0+  Si104  1  0.67489768  0.42646758  0.01674935  1
  Si0+  Si105  1  0.57087268  0.68022499  0.65333372  1
  Si0+  Si106  1  0.31917333  0.06951926  0.01218950  1
  Si0+  Si107  1  0.42686131  0.82022084  0.65036856  1
  Si0+  Si108  1  0.32169331  0.56944811  0.34405653  1
  Si0+  Si109  1  0.32296656  0.57381081  0.02006271  1
  Si0+  Si110  1  0.42843762  0.32228770  0.98589843  1
  Si0+  Si111  1  0.82254573  0.57273698  0.68196402  1
  Si0+  Si112  1  0.92864785  0.81888132  0.98713718  1
  Si0+  Si113  1  0.42885101  0.82296712  0.31858134  1
  Si0+  Si114  1  0.92600248  0.32294334  0.31648552  1
  Si0+  Si115  1  0.57435528  0.67782675  0.98056793  1
  Si0+  Si116  1  0.56974117  0.18015531  0.98706685  1
  Si0+  Si117  1  0.42826115  0.32133104  0.31695884  1
  Si0+  Si118  1  0.32199629  0.07121288  0.68487428  1
  Si0+  Si119  1  0.07255104  0.17716556  0.64871320  1
  O2-  O120  1  0.24646498  0.00051419  0.05483724  1
  O2-  O121  1  0.24883612  0.00034455  0.39655336  1
  O2-  O122  1  0.25119408  0.00569991  0.73069927  1
  O2-  O123  1  0.25654177  0.50342662  0.06491228  1
  O2-  O124  1  0.24916858  0.50214311  0.38878816  1
  O2-  O125  1  0.25292459  0.49700673  0.72982869  1
  O2-  O126  1  0.75049250  0.00010710  0.06361503  1
  O2-  O127  1  0.75126809  0.00152105  0.40027094  1
  O2-  O128  1  0.75152856  0.00534471  0.72716993  1
  O2-  O129  1  0.74564815  0.49341037  0.05980240  1
  O2-  O130  1  0.74526524  0.49416646  0.39308660  1
  O2-  O131  1  0.75938533  0.49934147  0.72655099  1
  O2-  O132  1  -0.00976090  0.24984893  0.27312309  1
  O2-  O133  1  0.00692868  0.24937921  0.60543070  1
  O2-  O134  1  -0.00164545  0.24628411  0.93491803  1
  O2-  O135  1  -0.00004063  0.75540543  0.27108129  1
  O2-  O136  1  0.00358881  0.74785259  0.60686574  1
  O2-  O137  1  0.00111047  0.74962857  0.94300106  1
  O2-  O138  1  0.49768463  0.24861456  0.27415483  1
  O2-  O139  1  0.49942755  0.24990022  0.60080677  1
  O2-  O140  1  0.50472791  0.25691761  0.94480398  1
  O2-  O141  1  0.50179876  0.75888997  0.27378558  1
  O2-  O142  1  0.49869155  0.74966233  0.60950213  1
  O2-  O143  1  0.50649133  0.74772429  0.93698791  1
  O2-  O144  1  0.07539362  0.17640778  0.09694224  1
  O2-  O145  1  0.07240964  0.18549597  0.43342135  1
  O2-  O146  1  0.07003615  0.17531552  0.75425028  1
  O2-  O147  1  0.07267568  0.67888219  0.08940263  1
  O2-  O148  1  0.07224848  0.67729814  0.43289353  1
  O2-  O149  1  0.07048750  0.68104522  0.75783779  1
  O2-  O150  1  0.56608892  0.17984288  0.09242888  1
  O2-  O151  1  0.57013121  0.17980553  0.42130354  1
  O2-  O152  1  0.57064569  0.17780402  0.76441748  1
  O2-  O153  1  0.57229343  0.67650917  0.08616500  1
  O2-  O154  1  0.56722276  0.67456589  0.43246903  1
  O2-  O155  1  0.57215613  0.68212535  0.75837301  1
  O2-  O156  1  0.18105469  0.42910680  0.24257307  1
  O2-  O157  1  0.17812730  0.43148250  0.56727026  1
  O2-  O158  1  0.18298027  0.43034552  0.90315642  1
  O2-  O159  1  0.18358439  0.92444854  0.23256212  1
  O2-  O160  1  0.17997568  0.92894584  0.56905959  1
  O2-  O161  1  0.17945261  0.92549436  0.90862183  1
  O2-  O162  1  0.67070105  0.43022936  0.24308316  1
  O2-  O163  1  0.68035514  0.43365858  0.56494355  1
  O2-  O164  1  0.67258616  0.42750182  0.91121587  1
  O2-  O165  1  0.67977384  0.93255952  0.23586725  1
  O2-  O166  1  0.68072844  0.92628125  0.56886096  1
  O2-  O167  1  0.67721832  0.93208687  0.90127303  1
  O2-  O168  1  0.42767193  0.32009487  0.09156735  1
  O2-  O169  1  0.42924143  0.32576631  0.42138230  1
  O2-  O170  1  0.43191868  0.31967272  0.76644996  1
  O2-  O171  1  0.42932934  0.82071579  0.09817064  1
  O2-  O172  1  0.42567678  0.81789999  0.42412888  1
  O2-  O173  1  0.42740518  0.82022652  0.75563704  1
  O2-  O174  1  0.93369654  0.32296496  0.09910338  1
  O2-  O175  1  0.92932577  0.32493424  0.42220105  1
  O2-  O176  1  0.92973277  0.32201923  0.76438950  1
  O2-  O177  1  0.93090969  0.81866997  0.09203458  1
  O2-  O178  1  0.92855538  0.81852665  0.42123985  1
  O2-  O179  1  0.92721384  0.81860374  0.76714609  1
  O2-  O180  1  0.32080130  0.07278625  0.23533440  1
  O2-  O181  1  0.32154552  0.06896887  0.57955582  1
  O2-  O182  1  0.32123357  0.06846085  0.90737571  1
  O2-  O183  1  0.32179105  0.56645119  0.23911492  1
  O2-  O184  1  0.32229935  0.57370188  0.56748564  1
  O2-  O185  1  0.32231994  0.57343397  0.91479036  1
  O2-  O186  1  0.82085995  0.07307969  0.23652706  1
  O2-  O187  1  0.82197304  0.07096913  0.57746461  1
  O2-  O188  1  0.81976857  0.07195702  0.90023567  1
  O2-  O189  1  0.82184738  0.56680956  0.23601484  1
  O2-  O190  1  0.82009515  0.57309993  0.57643386  1
  O2-  O191  1  0.81862242  0.57032103  0.89959343  1
  O2-  O192  1  0.04447134  0.08073137  0.26803924  1
  O2-  O193  1  0.04334385  0.08504818  0.60184516  1
  O2-  O194  1  0.04725540  0.07530102  0.93160609  1
  O2-  O195  1  0.03728612  0.58313191  0.26542290  1
  O2-  O196  1  0.04977406  0.58679873  0.60508479  1
  O2-  O197  1  0.04131773  0.58661120  0.93794196  1
  O2-  O198  1  0.54041831  0.08636399  0.26993086  1
  O2-  O199  1  0.54059305  0.07906272  0.59680586  1
  O2-  O200  1  0.53591369  0.09113247  0.93830234  1
  O2-  O201  1  0.53718977  0.58599412  0.25976866  1
  O2-  O202  1  0.54442846  0.58799991  0.60663172  1
  O2-  O203  1  0.54663198  0.58405057  0.93441130  1
  O2-  O204  1  0.16521642  0.21382227  0.26547018  1
  O2-  O205  1  0.16807508  0.19833347  0.60511616  1
  O2-  O206  1  0.17076219  0.20615006  0.93056091  1
  O2-  O207  1  0.16881421  0.70608988  0.26266629  1
  O2-  O208  1  0.16695372  0.70761051  0.60837328  1
  O2-  O209  1  0.16375159  0.70336133  0.93659466  1
  O2-  O210  1  0.66064612  0.20773228  0.26726223  1
  O2-  O211  1  0.66907742  0.20550918  0.59553424  1
  O2-  O212  1  0.66288902  0.20254499  0.94039965  1
  O2-  O213  1  0.67010603  0.70631488  0.26640985  1
  O2-  O214  1  0.66163241  0.70952584  0.60460336  1
  O2-  O215  1  0.66919066  0.70067348  0.93641554  1
  O2-  O216  1  0.08713299  0.46201371  0.07140442  1
  O2-  O217  1  0.08747080  0.45732146  0.39433973  1
  O2-  O218  1  0.08141270  0.46092798  0.73638627  1
  O2-  O219  1  0.08614972  0.94866752  0.06129841  1
  O2-  O220  1  0.08008469  0.95173233  0.39842190  1
  O2-  O221  1  0.08065611  0.96056009  0.73542719  1
  O2-  O222  1  0.58120621  0.45360782  0.06336084  1
  O2-  O223  1  0.58044066  0.45965917  0.39387755  1
  O2-  O224  1  0.58808353  0.46077877  0.73598648  1
  O2-  O225  1  0.57812930  0.96037955  0.06651281  1
  O2-  O226  1  0.58084582  0.95551816  0.40186759  1
  O2-  O227  1  0.58013052  0.95675287  0.73282950  1
  O2-  O228  1  0.21475210  0.33226322  0.06938916  1
  O2-  O229  1  0.20861773  0.33976480  0.39570673  1
  O2-  O230  1  0.20333264  0.32765986  0.73387039  1
  O2-  O231  1  0.21014106  0.83460610  0.05965665  1
  O2-  O232  1  0.20967845  0.82791352  0.40026707  1
  O2-  O233  1  0.20928774  0.83572435  0.73849360  1
  O2-  O234  1  0.69640847  0.33229107  0.06308855  1
  O2-  O235  1  0.69340465  0.33413531  0.39304325  1
  O2-  O236  1  0.70980215  0.33028687  0.72979872  1
  O2-  O237  1  0.70231000  0.83023216  0.06610598  1
  O2-  O238  1  0.70732365  0.83004719  0.40016979  1
  O2-  O239  1  0.71152126  0.83321498  0.73675584  1
  O2-  O240  1  0.45736710  0.41050824  0.26403535  1
  O2-  O241  1  0.45889061  0.42225680  0.60200961  1
  O2-  O242  1  0.44930565  0.41704120  0.94146106  1
  O2-  O243  1  0.45074254  0.91899929  0.27559217  1
  O2-  O244  1  0.45265414  0.91196785  0.60300739  1
  O2-  O245  1  0.45818399  0.91775254  0.92855255  1
  O2-  O246  1  0.95760762  0.41506250  0.27099147  1
  O2-  O247  1  0.96058431  0.42067227  0.59773374  1
  O2-  O248  1  0.96205503  0.41921593  0.93341936  1
  O2-  O249  1  0.95085195  0.91675617  0.27136081  1
  O2-  O250  1  0.95801768  0.91760499  0.59911328  1
  O2-  O251  1  0.95519413  0.90995171  0.93791170  1
  O2-  O252  1  0.33626189  0.29316033  0.26954617  1
  O2-  O253  1  0.32983411  0.29602985  0.59964138  1
  O2-  O254  1  0.33924537  0.28945318  0.93776460  1
  O2-  O255  1  0.33791613  0.79304018  0.26903412  1
  O2-  O256  1  0.33468850  0.79083062  0.60474664  1
  O2-  O257  1  0.33478579  0.78819060  0.92878043  1
  O2-  O258  1  0.82933374  0.30533120  0.27300280  1
  O2-  O259  1  0.83574148  0.29306553  0.59434543  1
  O2-  O260  1  0.82781388  0.29825785  0.93545674  1
  O2-  O261  1  0.83646755  0.79144546  0.26921773  1
  O2-  O262  1  0.83247092  0.78869097  0.59747904  1
  O2-  O263  1  0.83663599  0.78822950  0.94135563  1
  O2-  O264  1  0.40945790  0.03952257  0.06175410  1
  O2-  O265  1  0.41805950  0.04823941  0.40461376  1
  O2-  O266  1  0.41466382  0.04206230  0.73079592  1
  O2-  O267  1  0.41842877  0.55087950  0.06414849  1
  O2-  O268  1  0.41290486  0.53893732  0.39095259  1
  O2-  O269  1  0.42121960  0.54659944  0.73814485  1
  O2-  O270  1  0.92092121  0.04087212  0.06592928  1
  O2-  O271  1  0.92069080  0.04880659  0.40326865  1
  O2-  O272  1  0.91437093  0.04561095  0.72931127  1
  O2-  O273  1  0.91668207  0.53922223  0.06887473  1
  O2-  O274  1  0.91702518  0.53821527  0.40518987  1
  O2-  O275  1  0.91821396  0.55335716  0.72558854  1
  O2-  O276  1  0.29533569  0.16163215  0.06090142  1
  O2-  O277  1  0.29097104  0.17218570  0.40279608  1
  O2-  O278  1  0.30078227  0.16628006  0.72966763  1
  O2-  O279  1  0.29523535  0.66745644  0.06484403  1
  O2-  O280  1  0.29779349  0.66211700  0.39072080  1
  O2-  O281  1  0.29288036  0.66776419  0.73867914  1
  O2-  O282  1  0.79476116  0.17057751  0.06799243  1
  O2-  O283  1  0.79249469  0.17417614  0.40020646  1
  O2-  O284  1  0.79650326  0.16700874  0.72679109  1
  O2-  O285  1  0.79030369  0.66328365  0.07131417  1
  O2-  O286  1  0.79190676  0.66522053  0.40275317  1
  O2-  O287  1  0.79089169  0.66396540  0.72899203  1
