# generated using pymatgen
data_Ca2Al2SiO7
_symmetry_space_group_name_H-M   'P 1'
_cell_length_a   15.45818291
_cell_length_b   15.45976763
_cell_length_c   15.28325738
_cell_angle_alpha   90.02456808
_cell_angle_beta   89.99413625
_cell_angle_gamma   90.01551770
_symmetry_Int_Tables_number   1
_chemical_formula_structural   Ca2Al2SiO7
_chemical_formula_sum   'Ca48 Al48 Si24 O168'
_cell_volume   3652.39107295
_cell_formula_units_Z   24
loop_
 _symmetry_equiv_pos_site_id
 _symmetry_equiv_pos_as_xyz
  1  'x, y, z'
loop_
 _atom_type_symbol
 _atom_type_oxidation_number
  Ca2+  2.0
  Al0+  0.0
  Si0+  0.0
  O2-  -2.0
loop_
 _atom_site_type_symbol
 _atom_site_label
 _atom_site_symmetry_multiplicity
 _atom_site_fract_x
 _atom_site_fract_y
 _atom_site_fract_z
 _atom_site_occupancy
  Ca2+  Ca0  1  0.15733407  0.07494530  0.17117313  1
  Ca2+  Ca1  1  0.15825339  0.07413978  0.50062034  1
  Ca2+  Ca2  1  0.16392847  0.07236811  0.83512824  1
  Ca2+  Ca3  1  0.16977280  0.56887119  0.17403537  1
  Ca2+  Ca4  1  0.17722072  0.58409496  0.50196512  1
  Ca2+  Ca5  1  0.17426412  0.58077550  0.83649898  1
  Ca2+  Ca6  1  0.66779621  0.07616461  0.16585934  1
  Ca2+  Ca7  1  0.66872744  0.07448188  0.50783818  1
  Ca2+  Ca8  1  0.66465140  0.07120482  0.83531930  1
  Ca2+  Ca9  1  0.67615925  0.58254167  0.16796880  1
  Ca2+  Ca10  1  0.67522355  0.58562656  0.50462278  1
  Ca2+  Ca11  1  0.67882407  0.57443189  0.83463767  1
  Ca2+  Ca12  1  0.08741605  0.33188908  0.15962818  1
  Ca2+  Ca13  1  0.08169895  0.33022317  0.49477051  1
  Ca2+  Ca14  1  0.07252548  0.34182788  0.83185753  1
  Ca2+  Ca15  1  0.07440462  0.83599998  0.16137401  1
  Ca2+  Ca16  1  0.07574910  0.83544856  0.49525565  1
  Ca2+  Ca17  1  0.07457027  0.83668123  0.82722885  1
  Ca2+  Ca18  1  0.57674750  0.33815668  0.15655033  1
  Ca2+  Ca19  1  0.57819524  0.34632160  0.50258786  1
  Ca2+  Ca20  1  0.57780090  0.34424143  0.82777374  1
  Ca2+  Ca21  1  0.58595696  0.82425491  0.16136159  1
  Ca2+  Ca22  1  0.57863405  0.82803868  0.49544596  1
  Ca2+  Ca23  1  0.58015704  0.83517302  0.82444288  1
  Ca2+  Ca24  1  0.32498330  0.41522554  0.17178674  1
  Ca2+  Ca25  1  0.33135629  0.42546179  0.50465495  1
  Ca2+  Ca26  1  0.33433367  0.41802483  0.83744131  1
  Ca2+  Ca27  1  0.31741742  0.91640848  0.17200609  1
  Ca2+  Ca28  1  0.32048097  0.91091702  0.50823353  1
  Ca2+  Ca29  1  0.32075621  0.91016595  0.83589080  1
  Ca2+  Ca30  1  0.83887695  0.42878472  0.16908975  1
  Ca2+  Ca31  1  0.83072569  0.42928655  0.51207635  1
  Ca2+  Ca32  1  0.83163392  0.42179232  0.84301565  1
  Ca2+  Ca33  1  0.83226639  0.90744384  0.16805428  1
  Ca2+  Ca34  1  0.83235831  0.91319675  0.50762807  1
  Ca2+  Ca35  1  0.82503823  0.90772599  0.83754755  1
  Ca2+  Ca36  1  0.41800964  0.17307294  0.15894560  1
  Ca2+  Ca37  1  0.41635723  0.17268452  0.50018215  1
  Ca2+  Ca38  1  0.41760508  0.17894557  0.82846976  1
  Ca2+  Ca39  1  0.42307855  0.65732283  0.16771643  1
  Ca2+  Ca40  1  0.41906668  0.66392170  0.49634207  1
  Ca2+  Ca41  1  0.41858526  0.67006928  0.82264564  1
  Ca2+  Ca42  1  0.92426328  0.17501734  0.16209066  1
  Ca2+  Ca43  1  0.92023176  0.17514610  0.49643687  1
  Ca2+  Ca44  1  0.91348001  0.18051112  0.83000030  1
  Ca2+  Ca45  1  0.91055798  0.67260916  0.16244682  1
  Ca2+  Ca46  1  0.90657295  0.67588814  0.49679267  1
  Ca2+  Ca47  1  0.91206310  0.67106665  0.82992211  1
  Al0+  Al48  1  -0.00108885  -0.00017026  -0.00199283  1
  Al0+  Al49  1  -0.00263380  0.00268109  0.32915282  1
  Al0+  Al50  1  -0.00087627  0.00053580  0.66811380  1
  Al0+  Al51  1  0.00395355  0.50140763  0.00452758  1
  Al0+  Al52  1  -0.00107038  0.50266843  0.34378295  1
  Al0+  Al53  1  0.00270586  0.50192703  0.66404237  1
  Al0+  Al54  1  0.50047624  -0.00044228  0.00456859  1
  Al0+  Al55  1  0.49807450  0.00047920  0.33142700  1
  Al0+  Al56  1  0.49783232  0.00123582  0.66531890  1
  Al0+  Al57  1  0.50313097  0.50123232  -0.00307996  1
  Al0+  Al58  1  0.50032089  0.50034077  0.32980531  1
  Al0+  Al59  1  0.50033354  0.50145327  0.66828183  1
  Al0+  Al60  1  0.25267870  0.24884420  -0.00360389  1
  Al0+  Al61  1  0.24954675  0.24741529  0.33267784  1
  Al0+  Al62  1  0.25097183  0.24876695  0.66147400  1
  Al0+  Al63  1  0.25062377  0.75049776  0.00642856  1
  Al0+  Al64  1  0.24788649  0.75009882  0.33910020  1
  Al0+  Al65  1  0.24927100  0.74979953  0.67146063  1
  Al0+  Al66  1  0.74932927  0.24739713  -0.00025013  1
  Al0+  Al67  1  0.74872203  0.24873793  0.33209358  1
  Al0+  Al68  1  0.74911484  0.24899529  0.66412907  1
  Al0+  Al69  1  0.74932842  0.74942120  0.00225620  1
  Al0+  Al70  1  0.74651672  0.74916118  0.32861943  1
  Al0+  Al71  1  0.74974725  0.74922378  0.67062778  1
  Al0+  Al72  1  0.17799638  0.92989611  0.68086180  1
  Al0+  Al73  1  0.92788514  0.32351112  0.65309211  1
  Al0+  Al74  1  0.67874106  0.42682641  0.01508634  1
  Al0+  Al75  1  0.82439262  0.57152569  0.68274551  1
  Al0+  Al76  1  0.82235921  0.57003722  0.01628878  1
  Al0+  Al77  1  0.32054703  0.57010372  0.68110307  1
  Al0+  Al78  1  0.92966115  0.81966689  0.31952836  1
  Al0+  Al79  1  0.43011332  0.32249156  0.65098057  1
  Al0+  Al80  1  0.17643587  0.93098933  0.34767808  1
  Al0+  Al81  1  0.68031543  0.42803548  0.68055243  1
  Al0+  Al82  1  0.18193785  0.42885872  0.01118693  1
  Al0+  Al83  1  0.56854311  0.67976485  0.31831553  1
  Al0+  Al84  1  0.06981978  0.18147748  0.31922663  1
  Al0+  Al85  1  0.17814208  0.42542771  0.35018485  1
  Al0+  Al86  1  0.17740891  0.92936255  0.01482011  1
  Al0+  Al87  1  0.81910725  0.57245793  0.34841248  1
  Al0+  Al88  1  0.92878301  0.81932525  0.65392138  1
  Al0+  Al89  1  0.67851447  0.92941531  0.67777916  1
  Al0+  Al90  1  0.32268180  0.56932061  0.34818861  1
  Al0+  Al91  1  0.67914893  0.92907225  0.01509184  1
  Al0+  Al92  1  0.42681753  0.82230360  0.65405668  1
  Al0+  Al93  1  0.43087419  0.32098803  0.98551187  1
  Al0+  Al94  1  0.92977687  0.81939631  0.98477120  1
  Al0+  Al95  1  0.93075154  0.32235052  0.98890017  1
  Si0+  Si96  1  0.57217918  0.17483481  0.98231124  1
  Si0+  Si97  1  0.57096311  0.68023845  0.98191753  1
  Si0+  Si98  1  0.32178520  0.07363566  0.68371892  1
  Si0+  Si99  1  0.67800493  0.92943436  0.34730302  1
  Si0+  Si100  1  0.07421933  0.67846421  0.64939006  1
  Si0+  Si101  1  0.17972331  0.42496556  0.68294462  1
  Si0+  Si102  1  0.07552367  0.67845953  0.98452029  1
  Si0+  Si103  1  0.67854073  0.42569757  0.34853758  1
  Si0+  Si104  1  0.42865346  0.82145488  0.98674253  1
  Si0+  Si105  1  0.81919461  0.07198726  0.34819035  1
  Si0+  Si106  1  0.07423300  0.67714078  0.31711319  1
  Si0+  Si107  1  0.82253396  0.07264519  0.01745917  1
  Si0+  Si108  1  0.32456582  0.57316224  0.01633006  1
  Si0+  Si109  1  0.43129266  0.31896533  0.31809739  1
  Si0+  Si110  1  0.57158117  0.17665846  0.64862611  1
  Si0+  Si111  1  0.32149343  0.07109859  0.01623702  1
  Si0+  Si112  1  0.42493248  0.82348050  0.31586726  1
  Si0+  Si113  1  0.57237304  0.17512656  0.31665830  1
  Si0+  Si114  1  0.07306578  0.17740042  0.98125513  1
  Si0+  Si115  1  0.92712988  0.32460854  0.31855324  1
  Si0+  Si116  1  0.82247337  0.07242968  0.68341192  1
  Si0+  Si117  1  0.07102232  0.17836174  0.65026153  1
  Si0+  Si118  1  0.32384149  0.07116489  0.35112792  1
  Si0+  Si119  1  0.57048450  0.68025762  0.65053714  1
  O2-  O120  1  0.25124170  0.00497017  0.06167652  1
  O2-  O121  1  0.25564864  0.00161854  0.39426648  1
  O2-  O122  1  0.25467243  0.00324447  0.72736176  1
  O2-  O123  1  0.25783504  0.50188957  0.05870864  1
  O2-  O124  1  0.24955438  0.49879863  0.39872515  1
  O2-  O125  1  0.24878405  0.49289619  0.72771383  1
  O2-  O126  1  0.75581044  0.00172053  0.06215665  1
  O2-  O127  1  0.74799497  0.00079772  0.38996178  1
  O2-  O128  1  0.75417470  0.00243350  0.72609610  1
  O2-  O129  1  0.75384541  0.49410666  0.06642605  1
  O2-  O130  1  0.74967899  0.49147704  0.39236088  1
  O2-  O131  1  0.75922954  0.49205832  0.73059160  1
  O2-  O132  1  0.00067172  0.26166978  0.27316464  1
  O2-  O133  1  0.00402004  0.24938454  0.60707241  1
  O2-  O134  1  0.00563932  0.24837637  0.93926485  1
  O2-  O135  1  0.00480778  0.74521185  0.27261806  1
  O2-  O136  1  0.00160567  0.74389527  0.60585497  1
  O2-  O137  1  0.00655203  0.74642765  0.93915221  1
  O2-  O138  1  0.50308453  0.24829413  0.27581084  1
  O2-  O139  1  0.50724231  0.24970844  0.60405082  1
  O2-  O140  1  0.50856972  0.24859389  0.93907241  1
  O2-  O141  1  0.49176651  0.75332496  0.27095995  1
  O2-  O142  1  0.50251971  0.74976148  0.60600910  1
  O2-  O143  1  0.49803110  0.75052503  0.94193364  1
  O2-  O144  1  0.07201985  0.17713635  0.08713604  1
  O2-  O145  1  0.06484860  0.17901552  0.43226306  1
  O2-  O146  1  0.07106053  0.17726422  0.75580561  1
  O2-  O147  1  0.07718636  0.67995234  0.09008075  1
  O2-  O148  1  0.07621419  0.68005238  0.42256783  1
  O2-  O149  1  0.07694114  0.67998135  0.75514445  1
  O2-  O150  1  0.56817468  0.17170489  0.08835819  1
  O2-  O151  1  0.57238895  0.17029847  0.42114954  1
  O2-  O152  1  0.56849871  0.17187555  0.75383709  1
  O2-  O153  1  0.56966631  0.68042985  0.08737932  1
  O2-  O154  1  0.56988487  0.68331652  0.43128131  1
  O2-  O155  1  0.56900093  0.68168039  0.75631914  1
  O2-  O156  1  0.18175379  0.42433157  0.23609230  1
  O2-  O157  1  0.18166276  0.42428732  0.57746620  1
  O2-  O158  1  0.18237522  0.43119847  0.89812752  1
  O2-  O159  1  0.17689251  0.93370752  0.23440357  1
  O2-  O160  1  0.17671640  0.93255524  0.56774863  1
  O2-  O161  1  0.17905337  0.92959924  0.90179618  1
  O2-  O162  1  0.67819734  0.42425205  0.24308344  1
  O2-  O163  1  0.67937699  0.43285070  0.56642352  1
  O2-  O164  1  0.67786826  0.43074964  0.90204237  1
  O2-  O165  1  0.67823837  0.93133165  0.24208950  1
  O2-  O166  1  0.67918353  0.93105542  0.56409864  1
  O2-  O167  1  0.67645013  0.93064546  0.90208515  1
  O2-  O168  1  0.43009899  0.31768343  0.09922512  1
  O2-  O169  1  0.43316910  0.31875782  0.42314370  1
  O2-  O170  1  0.42951155  0.32010703  0.76391939  1
  O2-  O171  1  0.42961422  0.82075898  0.09189910  1
  O2-  O172  1  0.42829192  0.82659140  0.42132678  1
  O2-  O173  1  0.42820393  0.82031762  0.76777839  1
  O2-  O174  1  0.93355283  0.32049404  0.10214700  1
  O2-  O175  1  0.92417442  0.31880678  0.42398705  1
  O2-  O176  1  0.92920892  0.32150392  0.76651052  1
  O2-  O177  1  0.93045166  0.81867650  0.09814726  1
  O2-  O178  1  0.92844539  0.82071077  0.43270603  1
  O2-  O179  1  0.92947664  0.81948817  0.76689596  1
  O2-  O180  1  0.32679839  0.07081359  0.24543956  1
  O2-  O181  1  0.32116393  0.07474453  0.57808720  1
  O2-  O182  1  0.32233203  0.06950004  0.91082318  1
  O2-  O183  1  0.32394934  0.56419493  0.23427719  1
  O2-  O184  1  0.32011860  0.56959696  0.56828623  1
  O2-  O185  1  0.32324814  0.57562915  0.91074174  1
  O2-  O186  1  0.81722143  0.07439837  0.24324702  1
  O2-  O187  1  0.82215206  0.07185099  0.57726578  1
  O2-  O188  1  0.82095204  0.07372577  0.91200358  1
  O2-  O189  1  0.81772405  0.57293557  0.23550940  1
  O2-  O190  1  0.81822682  0.57473728  0.56903532  1
  O2-  O191  1  0.82073953  0.57081913  0.90311315  1
  O2-  O192  1  0.03193029  0.08865691  0.26192837  1
  O2-  O193  1  0.04134518  0.08615444  0.60307602  1
  O2-  O194  1  0.04417529  0.08513074  0.93439508  1
  O2-  O195  1  0.04847103  0.58167782  0.27447747  1
  O2-  O196  1  0.05600762  0.58359383  0.60292108  1
  O2-  O197  1  0.05199109  0.58447094  0.93868924  1
  O2-  O198  1  0.54226344  0.08488156  0.26604670  1
  O2-  O199  1  0.54027461  0.08608986  0.59834742  1
  O2-  O200  1  0.54008590  0.08295696  0.93533885  1
  O2-  O201  1  0.53937245  0.58311542  0.26189005  1
  O2-  O202  1  0.54330589  0.58779413  0.60378084  1
  O2-  O203  1  0.54472003  0.58895585  0.93337191  1
  O2-  O204  1  0.16906969  0.20343691  0.26501850  1
  O2-  O205  1  0.16488421  0.20035959  0.60272261  1
  O2-  O206  1  0.16765755  0.19902443  0.93619007  1
  O2-  O207  1  0.16808942  0.70163401  0.27047670  1
  O2-  O208  1  0.16557756  0.70988889  0.60224156  1
  O2-  O209  1  0.16976964  0.70492252  0.93883656  1
  O2-  O210  1  0.66474665  0.20042448  0.26870041  1
  O2-  O211  1  0.66664263  0.19560293  0.60262002  1
  O2-  O212  1  0.66791735  0.19178562  0.93845955  1
  O2-  O213  1  0.66165235  0.71486654  0.26019688  1
  O2-  O214  1  0.66386111  0.70707312  0.60505331  1
  O2-  O215  1  0.66151888  0.71142397  0.93550517  1
  O2-  O216  1  0.08806195  0.45960536  0.06973237  1
  O2-  O217  1  0.07974528  0.45139639  0.40350347  1
  O2-  O218  1  0.08624700  0.45285611  0.72735664  1
  O2-  O219  1  0.08054197  0.96121806  0.06740799  1
  O2-  O220  1  0.08057351  0.96768952  0.39953304  1
  O2-  O221  1  0.08263458  0.96359348  0.73586738  1
  O2-  O222  1  0.58141909  0.46102379  0.06805503  1
  O2-  O223  1  0.58537172  0.45504296  0.39271337  1
  O2-  O224  1  0.58412582  0.46255929  0.73360417  1
  O2-  O225  1  0.58377179  0.96149902  0.07167459  1
  O2-  O226  1  0.58522542  0.95737068  0.39285887  1
  O2-  O227  1  0.58183822  0.96204333  0.73139654  1
  O2-  O228  1  0.21190007  0.33076278  0.06334563  1
  O2-  O229  1  0.20760720  0.32651451  0.40144501  1
  O2-  O230  1  0.20423960  0.33064457  0.72732968  1
  O2-  O231  1  0.20991503  0.83422243  0.07085614  1
  O2-  O232  1  0.20289858  0.83369707  0.40154867  1
  O2-  O233  1  0.20893600  0.83469283  0.73644076  1
  O2-  O234  1  0.69657191  0.32420836  0.06370151  1
  O2-  O235  1  0.69808011  0.33010991  0.39404634  1
  O2-  O236  1  0.69678196  0.32506644  0.72840806  1
  O2-  O237  1  0.70920852  0.83306680  0.06968217  1
  O2-  O238  1  0.70572221  0.83784333  0.39321320  1
  O2-  O239  1  0.70695905  0.83398011  0.73385609  1
  O2-  O240  1  0.45853705  0.40993567  0.26925401  1
  O2-  O241  1  0.46161003  0.41920153  0.59719838  1
  O2-  O242  1  0.45931440  0.41873237  0.93229010  1
  O2-  O243  1  0.45168494  0.91685596  0.26880576  1
  O2-  O244  1  0.45379529  0.91974243  0.59963679  1
  O2-  O245  1  0.45669341  0.91383632  0.94095064  1
  O2-  O246  1  0.94744674  0.42153534  0.27852136  1
  O2-  O247  1  0.95797047  0.42003253  0.59867548  1
  O2-  O248  1  0.96355609  0.41886781  0.93578135  1
  O2-  O249  1  0.95771613  0.91698629  0.26541360  1
  O2-  O250  1  0.95808650  0.91780878  0.60185434  1
  O2-  O251  1  0.95703874  0.91770795  0.93212930  1
  O2-  O252  1  0.33979807  0.28901873  0.27139655  1
  O2-  O253  1  0.33487913  0.28842741  0.59547263  1
  O2-  O254  1  0.33607531  0.28719884  0.92913244  1
  O2-  O255  1  0.32969569  0.79961400  0.27260260  1
  O2-  O256  1  0.33050109  0.78956065  0.60127364  1
  O2-  O257  1  0.33568334  0.79440921  0.94089696  1
  O2-  O258  1  0.83506963  0.29324281  0.27147060  1
  O2-  O259  1  0.83202863  0.29074332  0.59792499  1
  O2-  O260  1  0.83360409  0.28980499  0.93591824  1
  O2-  O261  1  0.83273722  0.78885381  0.26583237  1
  O2-  O262  1  0.83078979  0.79021937  0.60076659  1
  O2-  O263  1  0.83173609  0.78814105  0.93370417  1
  O2-  O264  1  0.41400572  0.04499479  0.06475952  1
  O2-  O265  1  0.41809144  0.04768850  0.39792280  1
  O2-  O266  1  0.41574739  0.05093404  0.72946222  1
  O2-  O267  1  0.41911205  0.54838519  0.05960040  1
  O2-  O268  1  0.42119017  0.53917678  0.40045128  1
  O2-  O269  1  0.41727605  0.54201285  0.73523485  1
  O2-  O270  1  0.91682052  0.04891663  0.06253853  1
  O2-  O271  1  0.91004452  0.04353856  0.39578120  1
  O2-  O272  1  0.91558135  0.04942111  0.73039431  1
  O2-  O273  1  0.92202594  0.54648021  0.06906212  1
  O2-  O274  1  0.91656813  0.55120654  0.40434523  1
  O2-  O275  1  0.92666451  0.55196859  0.73075847  1
  O2-  O276  1  0.29800613  0.16525368  0.06210400  1
  O2-  O277  1  0.29765058  0.16428772  0.39694885  1
  O2-  O278  1  0.29347740  0.16641544  0.73055323  1
  O2-  O279  1  0.29950277  0.66536746  0.06535849  1
  O2-  O280  1  0.29760468  0.66911190  0.39998880  1
  O2-  O281  1  0.28809714  0.66491580  0.73743274  1
  O2-  O282  1  0.79496018  0.16421829  0.06693455  1
  O2-  O283  1  0.79058416  0.16313671  0.39745468  1
  O2-  O284  1  0.79468893  0.16514453  0.72971731  1
  O2-  O285  1  0.78677163  0.66623677  0.06932049  1
  O2-  O286  1  0.77998242  0.66756143  0.40060970  1
  O2-  O287  1  0.78876032  0.66664410  0.73747968  1
