# generated using pymatgen
data_Ca2Al2SiO7
_symmetry_space_group_name_H-M   'P 1'
_cell_length_a   15.45704596
_cell_length_b   15.45716754
_cell_length_c   15.28276083
_cell_angle_alpha   89.99437094
_cell_angle_beta   89.98980639
_cell_angle_gamma   89.99632975
_symmetry_Int_Tables_number   1
_chemical_formula_structural   Ca2Al2SiO7
_chemical_formula_sum   'Ca48 Al48 Si24 O168'
_cell_volume   3651.38997729
_cell_formula_units_Z   24
loop_
 _symmetry_equiv_pos_site_id
 _symmetry_equiv_pos_as_xyz
  1  'x, y, z'
loop_
 _atom_type_symbol
 _atom_type_oxidation_number
  Ca2+  2.0
  Al0+  0.0
  Si0+  0.0
  O2-  -2.0
loop_
 _atom_site_type_symbol
 _atom_site_label
 _atom_site_symmetry_multiplicity
 _atom_site_fract_x
 _atom_site_fract_y
 _atom_site_fract_z
 _atom_site_occupancy
  Ca2+  Ca0  1  0.17426857  0.09188226  0.17378006  1
  Ca2+  Ca1  1  0.17639911  0.08913971  0.49885930  1
  Ca2+  Ca2  1  0.17510572  0.08614386  0.83959460  1
  Ca2+  Ca3  1  0.16908747  0.57857762  0.18318302  1
  Ca2+  Ca4  1  0.16360483  0.58524508  0.49506244  1
  Ca2+  Ca5  1  0.16736488  0.58092772  0.83716683  1
  Ca2+  Ca6  1  0.67844908  0.08745477  0.17449250  1
  Ca2+  Ca7  1  0.67602747  0.07975746  0.50413249  1
  Ca2+  Ca8  1  0.68006238  0.07690866  0.83339884  1
  Ca2+  Ca9  1  0.66377085  0.58282360  0.16729436  1
  Ca2+  Ca10  1  0.66293851  0.57735593  0.50316897  1
  Ca2+  Ca11  1  0.67038417  0.57460749  0.84337211  1
  Ca2+  Ca12  1  0.08315611  0.32573060  0.16858464  1
  Ca2+  Ca13  1  0.07156593  0.32896171  0.49033691  1
  Ca2+  Ca14  1  0.07441200  0.32502890  0.82814773  1
  Ca2+  Ca15  1  0.07964564  0.83291488  0.17100412  1
  Ca2+  Ca16  1  0.07173338  0.83300646  0.49255899  1
  Ca2+  Ca17  1  0.07580621  0.83118728  0.82729409  1
  Ca2+  Ca18  1  0.58449593  0.32931606  0.16588793  1
  Ca2+  Ca19  1  0.58619930  0.32529821  0.49386857  1
  Ca2+  Ca20  1  0.58840511  0.33538403  0.83020176  1
  Ca2+  Ca21  1  0.57938861  0.82347042  0.16707297  1
  Ca2+  Ca22  1  0.57641093  0.83657165  0.49315495  1
  Ca2+  Ca23  1  0.58445139  0.83090216  0.82684987  1
  Ca2+  Ca24  1  0.32492570  0.42300438  0.17920186  1
  Ca2+  Ca25  1  0.32576935  0.42193321  0.49660643  1
  Ca2+  Ca26  1  0.33078864  0.41797567  0.83849246  1
  Ca2+  Ca27  1  0.33472154  0.92451116  0.17463528  1
  Ca2+  Ca28  1  0.34104506  0.92311028  0.50383705  1
  Ca2+  Ca29  1  0.33766794  0.92580682  0.83338893  1
  Ca2+  Ca30  1  0.83214137  0.41948176  0.16974130  1
  Ca2+  Ca31  1  0.83189573  0.41273265  0.50607207  1
  Ca2+  Ca32  1  0.82391098  0.41679043  0.83828686  1
  Ca2+  Ca33  1  0.83720333  0.92671754  0.17399934  1
  Ca2+  Ca34  1  0.83486227  0.92435041  0.50672392  1
  Ca2+  Ca35  1  0.83417020  0.92107709  0.83476628  1
  Ca2+  Ca36  1  0.42146807  0.15889556  0.16514490  1
  Ca2+  Ca37  1  0.42371921  0.15934355  0.49172457  1
  Ca2+  Ca38  1  0.41531007  0.16349053  0.82916885  1
  Ca2+  Ca39  1  0.42443594  0.66357705  0.16586065  1
  Ca2+  Ca40  1  0.42139238  0.67833921  0.48840063  1
  Ca2+  Ca41  1  0.42520775  0.67358615  0.82671769  1
  Ca2+  Ca42  1  0.92424842  0.16506894  0.16472646  1
  Ca2+  Ca43  1  0.91333184  0.17356425  0.48982501  1
  Ca2+  Ca44  1  0.91653134  0.16398992  0.82850190  1
  Ca2+  Ca45  1  0.91590493  0.66946687  0.16603745  1
  Ca2+  Ca46  1  0.91696461  0.68094900  0.49117149  1
  Ca2+  Ca47  1  0.91327948  0.66933152  0.82910862  1
  Al0+  Al48  1  0.00192352  -0.00071745  -0.00183690  1
  Al0+  Al49  1  0.00194849  0.00279618  0.33103987  1
  Al0+  Al50  1  0.00465797  -0.00077443  0.66576038  1
  Al0+  Al51  1  -0.00185900  0.49919992  0.00112627  1
  Al0+  Al52  1  -0.00289412  0.50006299  0.33211680  1
  Al0+  Al53  1  0.00132310  0.49716027  0.66444893  1
  Al0+  Al54  1  0.50014051  0.00055509  0.00194982  1
  Al0+  Al55  1  0.50205952  -0.00038470  0.32677380  1
  Al0+  Al56  1  0.50152515  0.00010289  0.67238352  1
  Al0+  Al57  1  0.49942944  0.49972807  -0.00165775  1
  Al0+  Al58  1  0.49886159  0.49965699  0.33581138  1
  Al0+  Al59  1  0.49863396  0.49915255  0.67039765  1
  Al0+  Al60  1  0.24984082  0.24969000  -0.00114887  1
  Al0+  Al61  1  0.24938058  0.25220281  0.34130096  1
  Al0+  Al62  1  0.25050547  0.25193823  0.67036249  1
  Al0+  Al63  1  0.24929041  0.75167930  -0.00283320  1
  Al0+  Al64  1  0.24925649  0.75244452  0.33062155  1
  Al0+  Al65  1  0.25251830  0.75023844  0.66451339  1
  Al0+  Al66  1  0.74866889  0.24955079  0.00640824  1
  Al0+  Al67  1  0.74917056  0.25052018  0.32857690  1
  Al0+  Al68  1  0.74967404  0.25009910  0.67156086  1
  Al0+  Al69  1  0.74879495  0.74879138  -0.00144482  1
  Al0+  Al70  1  0.74759896  0.75008988  0.32602641  1
  Al0+  Al71  1  0.75086293  0.74849333  0.66473524  1
  Al0+  Al72  1  0.57029832  0.17893977  0.32022177  1
  Al0+  Al73  1  0.07144882  0.17928788  0.98443114  1
  Al0+  Al74  1  0.32071397  0.07090211  0.68052883  1
  Al0+  Al75  1  0.07289672  0.18058422  0.31969104  1
  Al0+  Al76  1  0.92889735  0.82094977  0.65387335  1
  Al0+  Al77  1  0.67681332  0.42900407  0.01851355  1
  Al0+  Al78  1  0.06920051  0.67987176  0.31922511  1
  Al0+  Al79  1  0.17537100  0.42947545  0.35040702  1
  Al0+  Al80  1  0.92726139  0.82376073  0.31714369  1
  Al0+  Al81  1  0.67855317  0.42958966  0.67932199  1
  Al0+  Al82  1  0.67979512  0.92704167  0.68021531  1
  Al0+  Al83  1  0.92800397  0.31759221  0.65466861  1
  Al0+  Al84  1  0.82206887  0.06872929  0.01507504  1
  Al0+  Al85  1  0.82121078  0.57209960  0.01619625  1
  Al0+  Al86  1  0.32162326  0.57384123  0.34880933  1
  Al0+  Al87  1  0.43197715  0.82200236  0.65339400  1
  Al0+  Al88  1  0.82423685  0.07085486  0.68030741  1
  Al0+  Al89  1  0.31981718  0.07066244  0.01506396  1
  Al0+  Al90  1  0.42790729  0.82297471  0.31698547  1
  Al0+  Al91  1  0.56992653  0.67581689  0.31837921  1
  Al0+  Al92  1  0.56973847  0.67880359  0.98306401  1
  Al0+  Al93  1  0.82209999  0.07130749  0.34655755  1
  Al0+  Al94  1  0.92603648  0.32186302  0.31624044  1
  Al0+  Al95  1  0.32272672  0.06989782  0.34698201  1
  Si0+  Si96  1  0.92692377  0.32146400  0.98244306  1
  Si0+  Si97  1  0.07166886  0.67665385  0.98480273  1
  Si0+  Si98  1  0.31916692  0.57208586  0.01247349  1
  Si0+  Si99  1  0.82390860  0.57110537  0.68052473  1
  Si0+  Si100  1  0.42933926  0.31961421  0.98511625  1
  Si0+  Si101  1  0.67758186  0.92705463  0.01796344  1
  Si0+  Si102  1  0.42636313  0.32334163  0.65147800  1
  Si0+  Si103  1  0.07334357  0.67655473  0.65092739  1
  Si0+  Si104  1  0.57232339  0.17818691  0.98303531  1
  Si0+  Si105  1  0.42753112  0.82333725  0.98094027  1
  Si0+  Si106  1  0.67898695  0.42917942  0.34878976  1
  Si0+  Si107  1  0.07511260  0.17824839  0.65000218  1
  Si0+  Si108  1  0.92973186  0.82036616  0.98449929  1
  Si0+  Si109  1  0.32030157  0.57179380  0.68329426  1
  Si0+  Si110  1  0.17778797  0.92849193  0.35085060  1
  Si0+  Si111  1  0.56894542  0.18121243  0.65476199  1
  Si0+  Si112  1  0.17846979  0.42989057  0.68444612  1
  Si0+  Si113  1  0.67977834  0.92735689  0.34748505  1
  Si0+  Si114  1  0.57156912  0.67577572  0.65060977  1
  Si0+  Si115  1  0.17907195  0.42964539  0.01336755  1
  Si0+  Si116  1  0.17774051  0.92639579  0.01714777  1
  Si0+  Si117  1  0.17931623  0.92532769  0.68361430  1
  Si0+  Si118  1  0.42804392  0.32147817  0.31928053  1
  Si0+  Si119  1  0.81959296  0.57289992  0.34903529  1
  O2-  O120  1  0.24637692  -0.00498690  0.06076358  1
  O2-  O121  1  0.24956829  -0.00558197  0.39487481  1
  O2-  O122  1  0.24588751  -0.00357996  0.72769348  1
  O2-  O123  1  0.24500442  0.50533395  0.05504230  1
  O2-  O124  1  0.24564961  0.50525666  0.39877943  1
  O2-  O125  1  0.24835311  0.50214019  0.72738228  1
  O2-  O126  1  0.74654521  -0.00498740  0.06212599  1
  O2-  O127  1  0.75124683  -0.00739792  0.39235946  1
  O2-  O128  1  0.75671315  -0.00586411  0.73037389  1
  O2-  O129  1  0.74936062  0.50071052  0.06748227  1
  O2-  O130  1  0.74895929  0.50116220  0.39111668  1
  O2-  O131  1  0.75357271  0.50431624  0.72505232  1
  O2-  O132  1  -0.00074289  0.25011650  0.26825074  1
  O2-  O133  1  -0.00028971  0.24013009  0.60794625  1
  O2-  O134  1  -0.00680688  0.25044101  0.93749182  1
  O2-  O135  1  -0.00229825  0.75024481  0.26625206  1
  O2-  O136  1  0.00348604  0.74466040  0.60928086  1
  O2-  O137  1  -0.00065556  0.74631463  0.94296403  1
  O2-  O138  1  0.49240304  0.25050649  0.27289571  1
  O2-  O139  1  0.49737207  0.25186577  0.61131783  1
  O2-  O140  1  0.50078874  0.24959071  0.94127109  1
  O2-  O141  1  0.49538259  0.74575294  0.26868395  1
  O2-  O142  1  0.50765187  0.74846059  0.60680179  1
  O2-  O143  1  0.49654720  0.75507217  0.93636225  1
  O2-  O144  1  0.07497576  0.18328453  0.09662751  1
  O2-  O145  1  0.07326771  0.18221157  0.43348324  1
  O2-  O146  1  0.07824111  0.18239743  0.75597966  1
  O2-  O147  1  0.07525738  0.67634355  0.08893196  1
  O2-  O148  1  0.06539404  0.68193940  0.43318886  1
  O2-  O149  1  0.07408490  0.67602338  0.75741369  1
  O2-  O150  1  0.57072016  0.17826607  0.08798052  1
  O2-  O151  1  0.57111553  0.18044915  0.43400395  1
  O2-  O152  1  0.56752163  0.18323145  0.76019375  1
  O2-  O153  1  0.56535214  0.67779346  0.09552148  1
  O2-  O154  1  0.57046580  0.67531337  0.43222153  1
  O2-  O155  1  0.56789265  0.67388715  0.75633412  1
  O2-  O156  1  0.18008050  0.42914915  0.23595674  1
  O2-  O157  1  0.17865801  0.42968930  0.58026910  1
  O2-  O158  1  0.18142349  0.43096329  0.90752735  1
  O2-  O159  1  0.17755516  0.92940948  0.24503561  1
  O2-  O160  1  0.17947160  0.92277309  0.57865134  1
  O2-  O161  1  0.17836232  0.92413203  0.91126563  1
  O2-  O162  1  0.67781259  0.42972748  0.24407911  1
  O2-  O163  1  0.67713324  0.42947542  0.56623129  1
  O2-  O164  1  0.67780159  0.42991729  0.90440217  1
  O2-  O165  1  0.68006848  0.92918821  0.24173849  1
  O2-  O166  1  0.67718963  0.93128702  0.56696168  1
  O2-  O167  1  0.67831223  0.92815116  0.91204560  1
  O2-  O168  1  0.42747674  0.31987411  0.08977836  1
  O2-  O169  1  0.43216614  0.32237428  0.42519838  1
  O2-  O170  1  0.42491370  0.32409818  0.75706098  1
  O2-  O171  1  0.42550377  0.82193476  0.08584758  1
  O2-  O172  1  0.43316926  0.82521813  0.43088927  1
  O2-  O173  1  0.43121839  0.81864513  0.76680810  1
  O2-  O174  1  0.93009946  0.32365324  0.08736269  1
  O2-  O175  1  0.92411642  0.31971434  0.43041446  1
  O2-  O176  1  0.93081151  0.32001796  0.76798576  1
  O2-  O177  1  0.93201540  0.82134317  0.08903973  1
  O2-  O178  1  0.92748597  0.82265186  0.43095860  1
  O2-  O179  1  0.93120669  0.81795534  0.76767761  1
  O2-  O180  1  0.32132412  0.06983095  0.23383741  1
  O2-  O181  1  0.32184136  0.07138771  0.56790621  1
  O2-  O182  1  0.31911107  0.07060399  0.90153192  1
  O2-  O183  1  0.32240947  0.56817215  0.23442121  1
  O2-  O184  1  0.32076025  0.57082012  0.57905423  1
  O2-  O185  1  0.31743941  0.57011184  0.90670203  1
  O2-  O186  1  0.82004535  0.07075826  0.23323187  1
  O2-  O187  1  0.82006317  0.07328387  0.56710822  1
  O2-  O188  1  0.82170982  0.06656160  0.90167344  1
  O2-  O189  1  0.81938675  0.57262999  0.24419615  1
  O2-  O190  1  0.82404333  0.57026543  0.57503031  1
  O2-  O191  1  0.82211473  0.57044980  0.90185496  1
  O2-  O192  1  0.04931928  0.08230170  0.26542372  1
  O2-  O193  1  0.06125677  0.08118861  0.60824900  1
  O2-  O194  1  0.04554733  0.08064509  0.93110668  1
  O2-  O195  1  0.04237205  0.58130496  0.26684825  1
  O2-  O196  1  0.05034050  0.58225775  0.60589334  1
  O2-  O197  1  0.04527890  0.58444092  0.93596003  1
  O2-  O198  1  0.54276911  0.08424783  0.26209505  1
  O2-  O199  1  0.54064619  0.08958618  0.60856780  1
  O2-  O200  1  0.54356946  0.08613301  0.93616896  1
  O2-  O201  1  0.54116476  0.57716059  0.26542852  1
  O2-  O202  1  0.54001209  0.58334153  0.60505497  1
  O2-  O203  1  0.53604391  0.58240311  0.92887439  1
  O2-  O204  1  0.17139977  0.21353433  0.26828273  1
  O2-  O205  1  0.16631142  0.21267812  0.60413393  1
  O2-  O206  1  0.16681448  0.21492573  0.92894881  1
  O2-  O207  1  0.16805681  0.70572100  0.26592627  1
  O2-  O208  1  0.16699239  0.70200979  0.60572788  1
  O2-  O209  1  0.16274651  0.70577527  0.93440210  1
  O2-  O210  1  0.66282884  0.21497871  0.26294259  1
  O2-  O211  1  0.66017758  0.21041163  0.60777311  1
  O2-  O212  1  0.66420968  0.20698869  0.93626914  1
  O2-  O213  1  0.66612250  0.70500467  0.26201849  1
  O2-  O214  1  0.66757987  0.69335228  0.60725807  1
  O2-  O215  1  0.66763252  0.70710745  0.92965343  1
  O2-  O216  1  0.08582352  0.45208532  0.05855809  1
  O2-  O217  1  0.07613899  0.45696931  0.40254805  1
  O2-  O218  1  0.08686273  0.45726738  0.73358420  1
  O2-  O219  1  0.08435511  0.95097082  0.06247597  1
  O2-  O220  1  0.08582664  0.95784417  0.39830104  1
  O2-  O221  1  0.08599131  0.94919758  0.73153291  1
  O2-  O222  1  0.57704172  0.45763897  0.06869140  1
  O2-  O223  1  0.58702323  0.45491107  0.39742900  1
  O2-  O224  1  0.58121865  0.45780549  0.73513467  1
  O2-  O225  1  0.58378190  0.95274385  0.06291053  1
  O2-  O226  1  0.58742830  0.95789756  0.39286642  1
  O2-  O227  1  0.58506644  0.96035069  0.73826574  1
  O2-  O228  1  0.21279643  0.34032664  0.06033573  1
  O2-  O229  1  0.20889744  0.33513069  0.40831444  1
  O2-  O230  1  0.20941151  0.33995270  0.73421439  1
  O2-  O231  1  0.20289595  0.83209759  0.06302834  1
  O2-  O232  1  0.19807878  0.83361805  0.39622653  1
  O2-  O233  1  0.20661056  0.83221242  0.73171889  1
  O2-  O234  1  0.70236702  0.33009656  0.07044899  1
  O2-  O235  1  0.70803160  0.33765883  0.39579543  1
  O2-  O236  1  0.70891209  0.33460965  0.73652788  1
  O2-  O237  1  0.70164241  0.83262531  0.06171155  1
  O2-  O238  1  0.69953176  0.83172100  0.39210069  1
  O2-  O239  1  0.70366705  0.82628768  0.73204562  1
  O2-  O240  1  0.45642672  0.41334337  0.27148581  1
  O2-  O241  1  0.45395016  0.41538162  0.60492673  1
  O2-  O242  1  0.45520201  0.41154288  0.93557848  1
  O2-  O243  1  0.46212750  0.91730819  0.25975032  1
  O2-  O244  1  0.46201326  0.91980178  0.60182942  1
  O2-  O245  1  0.45454676  0.91754598  0.93608047  1
  O2-  O246  1  0.95275160  0.42064053  0.26462195  1
  O2-  O247  1  0.96110049  0.41381084  0.60041495  1
  O2-  O248  1  0.95524129  0.41465173  0.93521498  1
  O2-  O249  1  0.96008191  0.92037009  0.26411011  1
  O2-  O250  1  0.96165915  0.91714893  0.60008051  1
  O2-  O251  1  0.96152839  0.90983367  0.93463999  1
  O2-  O252  1  0.33271648  0.30068393  0.27629162  1
  O2-  O253  1  0.33412507  0.29688585  0.60494589  1
  O2-  O254  1  0.33842114  0.29136896  0.93490210  1
  O2-  O255  1  0.32753539  0.80266350  0.26582099  1
  O2-  O256  1  0.33517763  0.79113560  0.60009706  1
  O2-  O257  1  0.33355516  0.79745567  0.93404600  1
  O2-  O258  1  0.82905787  0.29388699  0.26155400  1
  O2-  O259  1  0.82976836  0.29109468  0.60180945  1
  O2-  O260  1  0.83119253  0.29703541  0.94021204  1
  O2-  O261  1  0.82957326  0.79640304  0.26337526  1
  O2-  O262  1  0.83253842  0.79158340  0.59851665  1
  O2-  O263  1  0.83731123  0.79444472  0.93750552  1
  O2-  O264  1  0.41794781  0.04221662  0.06689595  1
  O2-  O265  1  0.42112908  0.03897643  0.39799670  1
  O2-  O266  1  0.41597432  0.03999648  0.73729513  1
  O2-  O267  1  0.40938899  0.54039888  0.05868272  1
  O2-  O268  1  0.41754764  0.53966388  0.40425032  1
  O2-  O269  1  0.41042463  0.54113884  0.73307813  1
  O2-  O270  1  0.91970435  0.03738552  0.06613959  1
  O2-  O271  1  0.92057942  0.04593529  0.39864254  1
  O2-  O272  1  0.92539971  0.04722625  0.73069283  1
  O2-  O273  1  0.92065474  0.54467533  0.06830371  1
  O2-  O274  1  0.91089928  0.54637088  0.39720249  1
  O2-  O275  1  0.91778729  0.54506912  0.72703758  1
  O2-  O276  1  0.28950514  0.16834191  0.06675765  1
  O2-  O277  1  0.29439254  0.16664570  0.40226185  1
  O2-  O278  1  0.29127720  0.16861788  0.73503953  1
  O2-  O279  1  0.29568078  0.66586311  0.05696210  1
  O2-  O280  1  0.29643942  0.67406489  0.39926723  1
  O2-  O281  1  0.29343825  0.66367725  0.73187416  1
  O2-  O282  1  0.79165562  0.16527929  0.06790370  1
  O2-  O283  1  0.78499534  0.16733369  0.39804922  1
  O2-  O284  1  0.78926595  0.16589452  0.73660422  1
  O2-  O285  1  0.79377442  0.67123950  0.06734971  1
  O2-  O286  1  0.79006483  0.66521468  0.39515068  1
  O2-  O287  1  0.80064658  0.66491712  0.72701352  1
