# generated using pymatgen
data_Ca2Al2SiO7
_symmetry_space_group_name_H-M   'P 1'
_cell_length_a   15.45585219
_cell_length_b   15.45631613
_cell_length_c   15.28259891
_cell_angle_alpha   90.01781572
_cell_angle_beta   89.99586089
_cell_angle_gamma   89.99128036
_symmetry_Int_Tables_number   1
_chemical_formula_structural   Ca2Al2SiO7
_chemical_formula_sum   'Ca48 Al48 Si24 O168'
_cell_volume   3650.86804083
_cell_formula_units_Z   24
loop_
 _symmetry_equiv_pos_site_id
 _symmetry_equiv_pos_as_xyz
  1  'x, y, z'
loop_
 _atom_type_symbol
 _atom_type_oxidation_number
  Ca2+  2.0
  Al0+  0.0
  Si0+  0.0
  O2-  -2.0
loop_
 _atom_site_type_symbol
 _atom_site_label
 _atom_site_symmetry_multiplicity
 _atom_site_fract_x
 _atom_site_fract_y
 _atom_site_fract_z
 _atom_site_occupancy
  Ca2+  Ca0  1  0.17121960  0.07651808  0.17818823  1
  Ca2+  Ca1  1  0.16732408  0.08450523  0.49435824  1
  Ca2+  Ca2  1  0.16785558  0.07702366  0.84023015  1
  Ca2+  Ca3  1  0.17398397  0.57880211  0.17072834  1
  Ca2+  Ca4  1  0.16281709  0.56961022  0.50148769  1
  Ca2+  Ca5  1  0.17340559  0.57576171  0.83850377  1
  Ca2+  Ca6  1  0.66268439  0.08182657  0.17528781  1
  Ca2+  Ca7  1  0.65782819  0.07197113  0.49845880  1
  Ca2+  Ca8  1  0.66422179  0.08203630  0.83522871  1
  Ca2+  Ca9  1  0.67086441  0.57645352  0.17908264  1
  Ca2+  Ca10  1  0.67628833  0.58363321  0.49668096  1
  Ca2+  Ca11  1  0.67259368  0.58098027  0.83469879  1
  Ca2+  Ca12  1  0.07691833  0.33528565  0.16955996  1
  Ca2+  Ca13  1  0.07764345  0.33577069  0.49061022  1
  Ca2+  Ca14  1  0.07590717  0.34008971  0.82696395  1
  Ca2+  Ca15  1  0.07492950  0.84396171  0.16313132  1
  Ca2+  Ca16  1  0.07576787  0.83120508  0.48807110  1
  Ca2+  Ca17  1  0.07977177  0.83470094  0.83473061  1
  Ca2+  Ca18  1  0.58597225  0.32241415  0.16078992  1
  Ca2+  Ca19  1  0.57862175  0.33100902  0.49055574  1
  Ca2+  Ca20  1  0.57162676  0.33082469  0.83195792  1
  Ca2+  Ca21  1  0.57251920  0.83336352  0.16954256  1
  Ca2+  Ca22  1  0.58518576  0.83039561  0.48621967  1
  Ca2+  Ca23  1  0.57747057  0.83551344  0.83071971  1
  Ca2+  Ca24  1  0.33518785  0.41992362  0.17198912  1
  Ca2+  Ca25  1  0.32081255  0.40681939  0.50387358  1
  Ca2+  Ca26  1  0.33361781  0.41574146  0.83965375  1
  Ca2+  Ca27  1  0.32671083  0.91641847  0.17618094  1
  Ca2+  Ca28  1  0.33698094  0.92304032  0.49526814  1
  Ca2+  Ca29  1  0.32675216  0.91550303  0.84536807  1
  Ca2+  Ca30  1  0.83119032  0.41847353  0.17843231  1
  Ca2+  Ca31  1  0.83512018  0.42244906  0.50187805  1
  Ca2+  Ca32  1  0.84091671  0.41945999  0.83620421  1
  Ca2+  Ca33  1  0.83056084  0.91568259  0.17630192  1
  Ca2+  Ca34  1  0.82100961  0.91084963  0.50049961  1
  Ca2+  Ca35  1  0.82712124  0.91676192  0.83885282  1
  Ca2+  Ca36  1  0.42566326  0.16609605  0.16567779  1
  Ca2+  Ca37  1  0.41880481  0.16876287  0.49258410  1
  Ca2+  Ca38  1  0.41833395  0.17488935  0.83247919  1
  Ca2+  Ca39  1  0.41750265  0.67227913  0.16304853  1
  Ca2+  Ca40  1  0.42644661  0.67564127  0.48848661  1
  Ca2+  Ca41  1  0.41175511  0.66929272  0.83485150  1
  Ca2+  Ca42  1  0.91965546  0.17754455  0.16532823  1
  Ca2+  Ca43  1  0.92247624  0.17916125  0.48956207  1
  Ca2+  Ca44  1  0.91857269  0.17980839  0.82973589  1
  Ca2+  Ca45  1  0.91320757  0.67683878  0.16807720  1
  Ca2+  Ca46  1  0.91123657  0.66690917  0.49225759  1
  Ca2+  Ca47  1  0.91438339  0.67000569  0.83063552  1
  Al0+  Al48  1  -0.00289210  0.00067212  -0.00224721  1
  Al0+  Al49  1  0.00063629  0.00139274  0.33140622  1
  Al0+  Al50  1  -0.00133542  0.00008067  0.66727721  1
  Al0+  Al51  1  0.00110202  0.50223288  -0.00191016  1
  Al0+  Al52  1  0.00134982  0.50281480  0.33487961  1
  Al0+  Al53  1  0.00079680  0.50167502  0.67244672  1
  Al0+  Al54  1  0.50033647  -0.00197664  -0.00836213  1
  Al0+  Al55  1  0.49899529  0.00088193  0.33350518  1
  Al0+  Al56  1  0.49818743  -0.00009725  0.67342943  1
  Al0+  Al57  1  0.50172923  0.49964391  0.00069300  1
  Al0+  Al58  1  0.50166638  0.50114752  0.33516806  1
  Al0+  Al59  1  0.50062009  0.50168377  0.66092539  1
  Al0+  Al60  1  0.24941507  0.24833115  -0.00108758  1
  Al0+  Al61  1  0.25010649  0.24908874  0.33613217  1
  Al0+  Al62  1  0.24971898  0.24833198  0.66997549  1
  Al0+  Al63  1  0.24909166  0.74773943  0.00441489  1
  Al0+  Al64  1  0.24885487  0.75029480  0.33595666  1
  Al0+  Al65  1  0.24914881  0.74969014  0.66442577  1
  Al0+  Al66  1  0.75160428  0.24894855  -0.01006604  1
  Al0+  Al67  1  0.74896471  0.25069232  0.33126019  1
  Al0+  Al68  1  0.74943010  0.24874252  0.66243157  1
  Al0+  Al69  1  0.75010531  0.74998641  -0.00367421  1
  Al0+  Al70  1  0.75010574  0.74904346  0.33134705  1
  Al0+  Al71  1  0.74853442  0.74997660  0.67748005  1
  Al0+  Al72  1  0.68077703  0.93114487  0.34302135  1
  Al0+  Al73  1  0.67768958  0.42529092  0.34774275  1
  Al0+  Al74  1  0.93164630  0.32237746  0.98554739  1
  Al0+  Al75  1  0.57035868  0.17975437  0.32203078  1
  Al0+  Al76  1  0.92945479  0.82064285  0.32222247  1
  Al0+  Al77  1  0.92953273  0.32394978  0.31917488  1
  Al0+  Al78  1  0.57229412  0.67775690  0.31772621  1
  Al0+  Al79  1  0.42824425  0.32239454  0.98722299  1
  Al0+  Al80  1  0.42815966  0.82140088  0.31936410  1
  Al0+  Al81  1  0.93027833  0.32269065  0.65131407  1
  Al0+  Al82  1  0.17609660  0.92748843  0.34985343  1
  Al0+  Al83  1  0.18105598  0.42876083  0.68194898  1
  Al0+  Al84  1  0.42779288  0.81794250  0.98632747  1
  Al0+  Al85  1  0.32140182  0.07018057  0.34814624  1
  Al0+  Al86  1  0.67902870  0.93004456  0.68268794  1
  Al0+  Al87  1  0.32242782  0.56856447  0.01408795  1
  Al0+  Al88  1  0.82082275  0.57047851  0.34627217  1
  Al0+  Al89  1  0.57206578  0.17721894  0.98249545  1
  Al0+  Al90  1  0.07297647  0.17955974  0.31779064  1
  Al0+  Al91  1  0.92822669  0.82157373  0.98469011  1
  Al0+  Al92  1  0.42884849  0.32131365  0.65170894  1
  Al0+  Al93  1  0.17805201  0.93006201  0.01357611  1
  Al0+  Al94  1  0.18210017  0.43061520  0.34521065  1
  Al0+  Al95  1  0.81964947  0.56867767  0.68311729  1
  Si0+  Si96  1  0.56985649  0.17619197  0.64857449  1
  Si0+  Si97  1  0.57261741  0.67731942  0.98133909  1
  Si0+  Si98  1  0.31993919  0.06927350  0.68515309  1
  Si0+  Si99  1  0.32447317  0.57375634  0.35168971  1
  Si0+  Si100  1  0.67821860  0.92840114  0.01588100  1
  Si0+  Si101  1  0.07322972  0.67751440  0.31659211  1
  Si0+  Si102  1  0.67589529  0.42562257  0.68358228  1
  Si0+  Si103  1  0.07145537  0.17729782  0.98302519  1
  Si0+  Si104  1  0.68184926  0.42836292  0.01218289  1
  Si0+  Si105  1  0.32328508  0.57351927  0.68154745  1
  Si0+  Si106  1  0.82354411  0.07418171  0.34879815  1
  Si0+  Si107  1  0.07195680  0.17584543  0.65020812  1
  Si0+  Si108  1  0.17732846  0.92690195  0.68201846  1
  Si0+  Si109  1  0.42705303  0.32253548  0.31869377  1
  Si0+  Si110  1  0.82351376  0.07288952  0.68391869  1
  Si0+  Si111  1  0.07188819  0.67849423  0.98212992  1
  Si0+  Si112  1  0.82199050  0.57205249  0.01563826  1
  Si0+  Si113  1  0.57275687  0.68148179  0.65210598  1
  Si0+  Si114  1  0.81882696  0.07166641  0.01453275  1
  Si0+  Si115  1  0.42771797  0.82138941  0.65229622  1
  Si0+  Si116  1  0.92765895  0.82045036  0.65312361  1
  Si0+  Si117  1  0.17663625  0.42663397  0.01708152  1
  Si0+  Si118  1  0.07094397  0.68083843  0.65217758  1
  Si0+  Si119  1  0.32364084  0.07170722  0.01619946  1
  O2-  O120  1  0.25401033  0.00363472  0.05903838  1
  O2-  O121  1  0.24894907  -0.00137163  0.39996200  1
  O2-  O122  1  0.24814283  -0.00251596  0.72526845  1
  O2-  O123  1  0.25127719  0.48964071  0.05959318  1
  O2-  O124  1  0.25795464  0.50283456  0.39549009  1
  O2-  O125  1  0.25988972  0.50039798  0.72679280  1
  O2-  O126  1  0.74749527  0.00121257  0.05719174  1
  O2-  O127  1  0.75538637  0.00452391  0.39298446  1
  O2-  O128  1  0.75347107  0.00551926  0.72899129  1
  O2-  O129  1  0.75324590  0.49854363  0.05544526  1
  O2-  O130  1  0.75151539  0.49611989  0.39693553  1
  O2-  O131  1  0.74806946  0.49019275  0.72977901  1
  O2-  O132  1  0.00016152  0.25092792  0.26841272  1
  O2-  O133  1  0.00443730  0.24617329  0.60732919  1
  O2-  O134  1  0.00971275  0.25162586  0.93752589  1
  O2-  O135  1  0.00878370  0.75122502  0.27425337  1
  O2-  O136  1  -0.00045292  0.75146094  0.61031074  1
  O2-  O137  1  0.00325258  0.74752013  0.93724576  1
  O2-  O138  1  0.50021444  0.25862815  0.27520141  1
  O2-  O139  1  0.50579116  0.24903338  0.60490025  1
  O2-  O140  1  0.49761927  0.24853695  0.93538543  1
  O2-  O141  1  0.49609427  0.74581323  0.26903493  1
  O2-  O142  1  0.50011723  0.75174176  0.61142606  1
  O2-  O143  1  0.50274972  0.74474550  0.93635009  1
  O2-  O144  1  0.06870320  0.17544364  0.08776943  1
  O2-  O145  1  0.07111151  0.18185552  0.43197079  1
  O2-  O146  1  0.07021851  0.17303352  0.75619039  1
  O2-  O147  1  0.07000388  0.67544552  0.08712808  1
  O2-  O148  1  0.07143931  0.67594242  0.42273766  1
  O2-  O149  1  0.07348082  0.68406251  0.75734597  1
  O2-  O150  1  0.57372666  0.17772867  0.09577751  1
  O2-  O151  1  0.56675876  0.17764315  0.43525543  1
  O2-  O152  1  0.56685817  0.17526835  0.75421555  1
  O2-  O153  1  0.57454187  0.67804976  0.08616554  1
  O2-  O154  1  0.57320773  0.68192080  0.43217304  1
  O2-  O155  1  0.57214099  0.68151400  0.75756318  1
  O2-  O156  1  0.18301383  0.43294982  0.23198145  1
  O2-  O157  1  0.17979619  0.43062263  0.56912305  1
  O2-  O158  1  0.17456551  0.43049600  0.91119828  1
  O2-  O159  1  0.17615060  0.92957280  0.23626340  1
  O2-  O160  1  0.17628974  0.92559086  0.57784144  1
  O2-  O161  1  0.17953783  0.93173279  0.89911718  1
  O2-  O162  1  0.67914195  0.42511901  0.23340216  1
  O2-  O163  1  0.67497902  0.42821270  0.57861409  1
  O2-  O164  1  0.68199435  0.43129570  0.90667959  1
  O2-  O165  1  0.68093741  0.93239818  0.22987577  1
  O2-  O166  1  0.67915277  0.92812042  0.56976099  1
  O2-  O167  1  0.68039642  0.92839420  0.91024338  1
  O2-  O168  1  0.43156602  0.32356187  0.10036592  1
  O2-  O169  1  0.42609054  0.31918377  0.42467279  1
  O2-  O170  1  0.42941769  0.31955285  0.76487769  1
  O2-  O171  1  0.42885330  0.81844043  0.09837166  1
  O2-  O172  1  0.43234236  0.82130152  0.43392620  1
  O2-  O173  1  0.42560908  0.81918480  0.75767525  1
  O2-  O174  1  0.92964612  0.32173975  0.09777837  1
  O2-  O175  1  0.93199661  0.32417007  0.43289988  1
  O2-  O176  1  0.93330678  0.32152463  0.76496950  1
  O2-  O177  1  0.92624494  0.82078982  0.09725326  1
  O2-  O178  1  0.92755515  0.81727750  0.43607670  1
  O2-  O179  1  0.92999064  0.82004889  0.75848881  1
  O2-  O180  1  0.32235087  0.06928261  0.23458494  1
  O2-  O181  1  0.32300294  0.06853560  0.58071641  1
  O2-  O182  1  0.32102779  0.07054567  0.90974731  1
  O2-  O183  1  0.32296853  0.57298236  0.24588373  1
  O2-  O184  1  0.31959914  0.57809475  0.57670523  1
  O2-  O185  1  0.31922845  0.56906610  0.90033652  1
  O2-  O186  1  0.82206228  0.07316699  0.24279206  1
  O2-  O187  1  0.82709445  0.07040655  0.57901583  1
  O2-  O188  1  0.81887636  0.06998243  0.90899539  1
  O2-  O189  1  0.81961623  0.57086249  0.23227225  1
  O2-  O190  1  0.81813990  0.57286346  0.57096760  1
  O2-  O191  1  0.82064654  0.57198599  0.91008212  1
  O2-  O192  1  0.04577265  0.08127910  0.26496014  1
  O2-  O193  1  0.04550057  0.08219626  0.60378701  1
  O2-  O194  1  0.03876611  0.08718193  0.93299613  1
  O2-  O195  1  0.04375359  0.58715870  0.26695549  1
  O2-  O196  1  0.04206467  0.58903921  0.60671811  1
  O2-  O197  1  0.04495171  0.58634637  0.93278147  1
  O2-  O198  1  0.53599711  0.08569516  0.26588419  1
  O2-  O199  1  0.53761831  0.08302945  0.60492266  1
  O2-  O200  1  0.54491211  0.07940282  0.92721894  1
  O2-  O201  1  0.54718281  0.57792387  0.26571409  1
  O2-  O202  1  0.54847671  0.58968548  0.60351189  1
  O2-  O203  1  0.54804213  0.58369079  0.93469675  1
  O2-  O204  1  0.17124983  0.20817094  0.26520780  1
  O2-  O205  1  0.16687129  0.19901522  0.60733300  1
  O2-  O206  1  0.16753232  0.19478180  0.93811184  1
  O2-  O207  1  0.16850162  0.69764763  0.27241837  1
  O2-  O208  1  0.16194105  0.70802794  0.60246912  1
  O2-  O209  1  0.16498307  0.70453475  0.93538659  1
  O2-  O210  1  0.66745679  0.20469918  0.26621401  1
  O2-  O211  1  0.66628471  0.19304772  0.60565473  1
  O2-  O212  1  0.66840347  0.20727341  0.92558256  1
  O2-  O213  1  0.66818002  0.70912056  0.26298416  1
  O2-  O214  1  0.66423732  0.71341725  0.60730399  1
  O2-  O215  1  0.66499509  0.70546699  0.93305293  1
  O2-  O216  1  0.08547414  0.46017495  0.06363175  1
  O2-  O217  1  0.08702658  0.46484700  0.40044300  1
  O2-  O218  1  0.08758400  0.46607524  0.73811147  1
  O2-  O219  1  0.08003996  0.96154773  0.06387321  1
  O2-  O220  1  0.07774366  0.95727893  0.40334059  1
  O2-  O221  1  0.08489015  0.95445755  0.72980198  1
  O2-  O222  1  0.59065854  0.45534752  0.06007756  1
  O2-  O223  1  0.57983599  0.45480283  0.40223385  1
  O2-  O224  1  0.58342060  0.45793691  0.72972073  1
  O2-  O225  1  0.58447696  0.95436898  0.05921721  1
  O2-  O226  1  0.58552841  0.96233376  0.39924913  1
  O2-  O227  1  0.58223435  0.96027006  0.73810469  1
  O2-  O228  1  0.19426194  0.32978371  0.05871454  1
  O2-  O229  1  0.21018954  0.33449363  0.40115282  1
  O2-  O230  1  0.20668317  0.33060374  0.73608890  1
  O2-  O231  1  0.20450640  0.83225425  0.06554587  1
  O2-  O232  1  0.20117100  0.82801455  0.40319943  1
  O2-  O233  1  0.20628051  0.83500796  0.72961027  1
  O2-  O234  1  0.71024311  0.33506575  0.05551176  1
  O2-  O235  1  0.70271950  0.32669768  0.40193685  1
  O2-  O236  1  0.69621879  0.32927923  0.72661356  1
  O2-  O237  1  0.70806147  0.83605970  0.06022884  1
  O2-  O238  1  0.71268750  0.83528526  0.39790130  1
  O2-  O239  1  0.71058399  0.83600461  0.74136290  1
  O2-  O240  1  0.44690979  0.41875082  0.27690249  1
  O2-  O241  1  0.45428949  0.41962777  0.59827051  1
  O2-  O242  1  0.45991764  0.41956916  0.93197680  1
  O2-  O243  1  0.46057024  0.91752114  0.26580758  1
  O2-  O244  1  0.45458854  0.91488389  0.60910307  1
  O2-  O245  1  0.45775576  0.91320751  0.92853667  1
  O2-  O246  1  0.96046484  0.42179690  0.26643519  1
  O2-  O247  1  0.96256785  0.42077861  0.60222085  1
  O2-  O248  1  0.96044965  0.42018644  0.93174774  1
  O2-  O249  1  0.95490955  0.91827590  0.26802368  1
  O2-  O250  1  0.95295651  0.91331252  0.60723337  1
  O2-  O251  1  0.95773889  0.91806771  0.92893604  1
  O2-  O252  1  0.33568515  0.29357657  0.27141795  1
  O2-  O253  1  0.33186776  0.28633715  0.60105938  1
  O2-  O254  1  0.32812534  0.29680434  0.93429442  1
  O2-  O255  1  0.32753225  0.79660736  0.26984992  1
  O2-  O256  1  0.33633859  0.79366328  0.60412273  1
  O2-  O257  1  0.33098957  0.78541119  0.93236427  1
  O2-  O258  1  0.83105792  0.29576540  0.26698501  1
  O2-  O259  1  0.83168843  0.29462081  0.60005294  1
  O2-  O260  1  0.83790965  0.28864627  0.92747625  1
  O2-  O261  1  0.83599674  0.78634701  0.26502690  1
  O2-  O262  1  0.83472570  0.79027782  0.61042653  1
  O2-  O263  1  0.83273326  0.78856012  0.92861143  1
  O2-  O264  1  0.41847556  0.04473238  0.05773888  1
  O2-  O265  1  0.41746756  0.03860475  0.40491845  1
  O2-  O266  1  0.41014330  0.04090020  0.73566968  1
  O2-  O267  1  0.42062761  0.54268940  0.06767954  1
  O2-  O268  1  0.41905333  0.55261267  0.39717307  1
  O2-  O269  1  0.41942005  0.55362092  0.72515656  1
  O2-  O270  1  0.91027396  0.04333812  0.06144484  1
  O2-  O271  1  0.91692726  0.05014713  0.39498545  1
  O2-  O272  1  0.91606649  0.04527132  0.73301690  1
  O2-  O273  1  0.91562852  0.54815626  0.06012742  1
  O2-  O274  1  0.91991817  0.54717528  0.40020362  1
  O2-  O275  1  0.91693018  0.54258449  0.73889258  1
  O2-  O276  1  0.30067895  0.16632818  0.06109266  1
  O2-  O277  1  0.29279489  0.16757718  0.40361719  1
  O2-  O278  1  0.29087240  0.15994035  0.73430975  1
  O2-  O279  1  0.28713615  0.66248548  0.06997430  1
  O2-  O280  1  0.29748412  0.66644068  0.39869831  1
  O2-  O281  1  0.29169187  0.66559236  0.72985691  1
  O2-  O282  1  0.79183307  0.16465971  0.05963953  1
  O2-  O283  1  0.79734495  0.16695263  0.39534248  1
  O2-  O284  1  0.79759143  0.16718085  0.72971398  1
  O2-  O285  1  0.79175135  0.66403289  0.06089977  1
  O2-  O286  1  0.78839665  0.66710790  0.40118411  1
  O2-  O287  1  0.78528923  0.66308294  0.74095617  1
