# generated using pymatgen
data_Ca2Al2SiO7
_symmetry_space_group_name_H-M   'P 1'
_cell_length_a   15.45879486
_cell_length_b   15.45795603
_cell_length_c   15.28359791
_cell_angle_alpha   89.99756146
_cell_angle_beta   90.01691553
_cell_angle_gamma   89.97525737
_symmetry_Int_Tables_number   1
_chemical_formula_structural   Ca2Al2SiO7
_chemical_formula_sum   'Ca48 Al48 Si24 O168'
_cell_volume   3652.18901135
_cell_formula_units_Z   24
loop_
 _symmetry_equiv_pos_site_id
 _symmetry_equiv_pos_as_xyz
  1  'x, y, z'
loop_
 _atom_type_symbol
 _atom_type_oxidation_number
  Ca2+  2.0
  Al0+  0.0
  Si0+  0.0
  O2-  -2.0
loop_
 _atom_site_type_symbol
 _atom_site_label
 _atom_site_symmetry_multiplicity
 _atom_site_fract_x
 _atom_site_fract_y
 _atom_site_fract_z
 _atom_site_occupancy
  Ca2+  Ca0  1  0.17438857  0.09349106  0.16671956  1
  Ca2+  Ca1  1  0.16323528  0.07566447  0.50912460  1
  Ca2+  Ca2  1  0.16626982  0.08323803  0.84135685  1
  Ca2+  Ca3  1  0.15521644  0.57492806  0.16895147  1
  Ca2+  Ca4  1  0.16473437  0.58197086  0.50517608  1
  Ca2+  Ca5  1  0.16512023  0.58195286  0.83872264  1
  Ca2+  Ca6  1  0.66699619  0.07512403  0.17428292  1
  Ca2+  Ca7  1  0.67175771  0.08722051  0.49821872  1
  Ca2+  Ca8  1  0.66350963  0.08192673  0.84153996  1
  Ca2+  Ca9  1  0.66830985  0.58374160  0.17325436  1
  Ca2+  Ca10  1  0.66721936  0.57796517  0.50726808  1
  Ca2+  Ca11  1  0.66818763  0.57393529  0.83742948  1
  Ca2+  Ca12  1  0.07583124  0.33545130  0.15760419  1
  Ca2+  Ca13  1  0.08036386  0.33049691  0.49283847  1
  Ca2+  Ca14  1  0.08722194  0.32420858  0.83708414  1
  Ca2+  Ca15  1  0.07307451  0.82499968  0.15978085  1
  Ca2+  Ca16  1  0.08409015  0.82412375  0.49385050  1
  Ca2+  Ca17  1  0.08589648  0.82699667  0.82724729  1
  Ca2+  Ca18  1  0.57841595  0.31779602  0.15855764  1
  Ca2+  Ca19  1  0.58822249  0.32481139  0.49636100  1
  Ca2+  Ca20  1  0.58254069  0.32276048  0.82757253  1
  Ca2+  Ca21  1  0.58662999  0.83394666  0.16077620  1
  Ca2+  Ca22  1  0.58277450  0.82753794  0.49002347  1
  Ca2+  Ca23  1  0.57704548  0.83910158  0.83700979  1
  Ca2+  Ca24  1  0.31942558  0.40790911  0.16815528  1
  Ca2+  Ca25  1  0.32720119  0.42527252  0.50446404  1
  Ca2+  Ca26  1  0.33075829  0.42207430  0.84356024  1
  Ca2+  Ca27  1  0.33741469  0.92056015  0.16372904  1
  Ca2+  Ca28  1  0.32551865  0.91702688  0.50616914  1
  Ca2+  Ca29  1  0.32782211  0.92180680  0.84131630  1
  Ca2+  Ca30  1  0.83925646  0.41424228  0.17161185  1
  Ca2+  Ca31  1  0.82938531  0.41389846  0.50244237  1
  Ca2+  Ca32  1  0.83152650  0.41213355  0.83656907  1
  Ca2+  Ca33  1  0.82863799  0.91766222  0.17483363  1
  Ca2+  Ca34  1  0.83294019  0.91744300  0.49689800  1
  Ca2+  Ca35  1  0.82684011  0.91677793  0.84366759  1
  Ca2+  Ca36  1  0.42480218  0.16588030  0.15579640  1
  Ca2+  Ca37  1  0.43027474  0.16463193  0.49578920  1
  Ca2+  Ca38  1  0.42252467  0.16657687  0.83613878  1
  Ca2+  Ca39  1  0.42359664  0.67368911  0.16370523  1
  Ca2+  Ca40  1  0.42005522  0.66400431  0.49706310  1
  Ca2+  Ca41  1  0.40736348  0.67320432  0.83101933  1
  Ca2+  Ca42  1  0.91662478  0.17571943  0.16232306  1
  Ca2+  Ca43  1  0.91930138  0.17002453  0.49396346  1
  Ca2+  Ca44  1  0.92724524  0.16821692  0.83283796  1
  Ca2+  Ca45  1  0.92306461  0.67610351  0.16253392  1
  Ca2+  Ca46  1  0.92766233  0.67265252  0.49076203  1
  Ca2+  Ca47  1  0.92792267  0.67198199  0.83460822  1
  Al0+  Al48  1  -0.00185662  -0.00053495  -0.00364535  1
  Al0+  Al49  1  0.00108037  0.00076499  0.33400803  1
  Al0+  Al50  1  -0.00216831  0.00053699  0.66777743  1
  Al0+  Al51  1  -0.00136992  0.50138858  -0.00497028  1
  Al0+  Al52  1  -0.00032822  0.49804367  0.33424214  1
  Al0+  Al53  1  -0.00068754  0.50154207  0.66398001  1
  Al0+  Al54  1  0.49936791  -0.00244299  0.00035625  1
  Al0+  Al55  1  0.50041454  -0.00082227  0.33592183  1
  Al0+  Al56  1  0.49994151  0.00074330  0.66073709  1
  Al0+  Al57  1  0.50048439  0.49960362  0.00114526  1
  Al0+  Al58  1  0.49800698  0.50032935  0.32887559  1
  Al0+  Al59  1  0.49924255  0.50057349  0.67647219  1
  Al0+  Al60  1  0.25106155  0.25116139  0.00134010  1
  Al0+  Al61  1  0.25088552  0.25125935  0.34406529  1
  Al0+  Al62  1  0.25137985  0.25068241  0.66099126  1
  Al0+  Al63  1  0.25237735  0.74963494  -0.00386218  1
  Al0+  Al64  1  0.25218413  0.74903239  0.32864028  1
  Al0+  Al65  1  0.24873408  0.75111993  0.66902495  1
  Al0+  Al66  1  0.75033341  0.24930320  -0.00605278  1
  Al0+  Al67  1  0.75015155  0.24827488  0.32875629  1
  Al0+  Al68  1  0.74914941  0.24914945  0.66754290  1
  Al0+  Al69  1  0.75049305  0.74816608  -0.00061428  1
  Al0+  Al70  1  0.74959684  0.74927539  0.33251546  1
  Al0+  Al71  1  0.74938294  0.75031790  0.66895944  1
  Al0+  Al72  1  0.82209481  0.07240045  0.34849512  1
  Al0+  Al73  1  0.17837559  0.93150846  0.67991833  1
  Al0+  Al74  1  0.92820665  0.32256818  0.98335766  1
  Al0+  Al75  1  0.17995749  0.43196236  0.01264942  1
  Al0+  Al76  1  0.56994208  0.17907561  0.31866423  1
  Al0+  Al77  1  0.67877916  0.92749507  0.35050039  1
  Al0+  Al78  1  0.31920950  0.57039882  0.68110001  1
  Al0+  Al79  1  0.07093886  0.68081917  0.65128772  1
  Al0+  Al80  1  0.07206672  0.17861762  0.65213297  1
  Al0+  Al81  1  0.07295474  0.67795854  0.31804695  1
  Al0+  Al82  1  0.43094664  0.81952030  0.98618592  1
  Al0+  Al83  1  0.17752491  0.43028264  0.34888051  1
  Al0+  Al84  1  0.92676365  0.82192900  0.98439430  1
  Al0+  Al85  1  0.68065659  0.42866849  0.68035794  1
  Al0+  Al86  1  0.57044183  0.17964221  0.65005696  1
  Al0+  Al87  1  0.42804390  0.32187928  0.98575065  1
  Al0+  Al88  1  0.56999544  0.17748251  0.98513525  1
  Al0+  Al89  1  0.92948843  0.82315884  0.31915245  1
  Al0+  Al90  1  0.07268879  0.17895459  0.98819009  1
  Al0+  Al91  1  0.07115634  0.68020931  0.98398906  1
  Al0+  Al92  1  0.93006552  0.31881599  0.32155994  1
  Al0+  Al93  1  0.31849409  0.06976951  0.01269757  1
  Al0+  Al94  1  0.57112190  0.67761035  0.32198938  1
  Al0+  Al95  1  0.68035203  0.92976357  0.01306764  1
  Si0+  Si96  1  0.42958891  0.82049332  0.65130353  1
  Si0+  Si97  1  0.42652544  0.32197605  0.31807112  1
  Si0+  Si98  1  0.42906128  0.32607958  0.64887426  1
  Si0+  Si99  1  0.42833651  0.82271302  0.31725137  1
  Si0+  Si100  1  0.32383219  0.07248430  0.68192886  1
  Si0+  Si101  1  0.82370984  0.07357094  0.01610179  1
  Si0+  Si102  1  0.32449178  0.57475272  0.02002668  1
  Si0+  Si103  1  0.57340471  0.67631689  0.98186656  1
  Si0+  Si104  1  0.18051195  0.92786400  0.34592142  1
  Si0+  Si105  1  0.07531073  0.17748859  0.31898864  1
  Si0+  Si106  1  0.67748102  0.42917040  0.34526950  1
  Si0+  Si107  1  0.81914970  0.56876296  0.01582791  1
  Si0+  Si108  1  0.82040692  0.57048858  0.34833327  1
  Si0+  Si109  1  0.57117630  0.67838943  0.65456455  1
  Si0+  Si110  1  0.17617660  0.92591858  0.01699814  1
  Si0+  Si111  1  0.32199414  0.07146929  0.35055133  1
  Si0+  Si112  1  0.32299844  0.57300732  0.34895446  1
  Si0+  Si113  1  0.67729360  0.92770713  0.68178536  1
  Si0+  Si114  1  0.82278713  0.57379242  0.68414811  1
  Si0+  Si115  1  0.81925981  0.07070827  0.68315910  1
  Si0+  Si116  1  0.92478747  0.82244148  0.64931547  1
  Si0+  Si117  1  0.67827404  0.42656977  0.01686599  1
  Si0+  Si118  1  0.92835931  0.32074141  0.64955447  1
  Si0+  Si119  1  0.17603981  0.42685227  0.68380028  1
  O2-  O120  1  0.24103330  -0.00175823  0.06183443  1
  O2-  O121  1  0.24914244  0.00098184  0.39024753  1
  O2-  O122  1  0.24950759  0.01009683  0.72578217  1
  O2-  O123  1  0.25484019  0.50617907  0.06236220  1
  O2-  O124  1  0.25116303  0.50760394  0.39327230  1
  O2-  O125  1  0.24540189  0.49499522  0.72743274  1
  O2-  O126  1  0.75601459  0.00331100  0.05907805  1
  O2-  O127  1  0.75118946  -0.00065298  0.40067896  1
  O2-  O128  1  0.74849598  -0.00172717  0.72349665  1
  O2-  O129  1  0.74936549  0.49694247  0.05972227  1
  O2-  O130  1  0.74690887  0.50091351  0.38979664  1
  O2-  O131  1  0.75578353  0.50292064  0.72781470  1
  O2-  O132  1  0.00606234  0.24546495  0.27580539  1
  O2-  O133  1  0.00069189  0.25630657  0.60487747  1
  O2-  O134  1  -0.00040212  0.24892275  0.93613656  1
  O2-  O135  1  0.00212122  0.75163929  0.27003464  1
  O2-  O136  1  -0.00533355  0.75460587  0.60573266  1
  O2-  O137  1  0.00530457  0.75785875  0.93356962  1
  O2-  O138  1  0.49336422  0.25203523  0.27378855  1
  O2-  O139  1  0.49591104  0.25553333  0.60397469  1
  O2-  O140  1  0.50189010  0.25289294  0.93436168  1
  O2-  O141  1  0.50060683  0.75615078  0.27599214  1
  O2-  O142  1  0.50133819  0.74951218  0.61024443  1
  O2-  O143  1  0.50237163  0.74234579  0.93752790  1
  O2-  O144  1  0.07306174  0.18214411  0.10191310  1
  O2-  O145  1  0.07472214  0.17846286  0.42509599  1
  O2-  O146  1  0.07060182  0.17812865  0.76466527  1
  O2-  O147  1  0.06666296  0.67864713  0.09738783  1
  O2-  O148  1  0.07300386  0.68020430  0.43217781  1
  O2-  O149  1  0.07050207  0.68196044  0.76384614  1
  O2-  O150  1  0.56902222  0.17782835  0.09874889  1
  O2-  O151  1  0.56997108  0.18237968  0.43224270  1
  O2-  O152  1  0.56930495  0.17751209  0.76249450  1
  O2-  O153  1  0.57408103  0.67678351  0.08767499  1
  O2-  O154  1  0.56764136  0.67487281  0.43581948  1
  O2-  O155  1  0.57232105  0.68018161  0.75922708  1
  O2-  O156  1  0.17814695  0.42777857  0.23603534  1
  O2-  O157  1  0.17657307  0.42877244  0.57786601  1
  O2-  O158  1  0.18174142  0.43311574  0.89938918  1
  O2-  O159  1  0.18271991  0.92734743  0.24133465  1
  O2-  O160  1  0.18209854  0.93029153  0.56597247  1
  O2-  O161  1  0.17989103  0.92567288  0.91120181  1
  O2-  O162  1  0.67826533  0.43097238  0.24034073  1
  O2-  O163  1  0.68160088  0.43087503  0.56640992  1
  O2-  O164  1  0.67827902  0.42892252  0.91156950  1
  O2-  O165  1  0.67757106  0.92858869  0.23721791  1
  O2-  O166  1  0.67750168  0.92447229  0.57706129  1
  O2-  O167  1  0.68015515  0.93133468  0.89901428  1
  O2-  O168  1  0.42959842  0.31883953  0.09974629  1
  O2-  O169  1  0.42885295  0.32301997  0.42402893  1
  O2-  O170  1  0.43035148  0.32629858  0.75400771  1
  O2-  O171  1  0.43313316  0.81895635  0.09933810  1
  O2-  O172  1  0.42566227  0.82117238  0.42339022  1
  O2-  O173  1  0.43116306  0.82201805  0.75604230  1
  O2-  O174  1  0.92855462  0.32276075  0.09706598  1
  O2-  O175  1  0.92974846  0.31921493  0.43499589  1
  O2-  O176  1  0.92708039  0.31855925  0.75469294  1
  O2-  O177  1  0.92499982  0.81810012  0.09764874  1
  O2-  O178  1  0.93150712  0.82015692  0.43335525  1
  O2-  O179  1  0.92222547  0.82052476  0.75453023  1
  O2-  O180  1  0.32259196  0.07327384  0.24574523  1
  O2-  O181  1  0.32606867  0.06700006  0.57589709  1
  O2-  O182  1  0.31909421  0.06727873  0.89945416  1
  O2-  O183  1  0.32721033  0.57253423  0.24419426  1
  O2-  O184  1  0.32101530  0.56948295  0.56757539  1
  O2-  O185  1  0.32436992  0.57427681  0.91415502  1
  O2-  O186  1  0.81961677  0.07439162  0.23544268  1
  O2-  O187  1  0.81923408  0.07227243  0.57809630  1
  O2-  O188  1  0.82230870  0.07348192  0.90999394  1
  O2-  O189  1  0.81992536  0.56930352  0.24324066  1
  O2-  O190  1  0.82008634  0.57577598  0.57832840  1
  O2-  O191  1  0.81602550  0.56887087  0.91048819  1
  O2-  O192  1  0.05464786  0.08322939  0.27391168  1
  O2-  O193  1  0.03748976  0.08236265  0.59868833  1
  O2-  O194  1  0.04762440  0.07994187  0.93468145  1
  O2-  O195  1  0.04019989  0.58028332  0.26824101  1
  O2-  O196  1  0.04127666  0.58321163  0.59773833  1
  O2-  O197  1  0.03563276  0.58566161  0.92849329  1
  O2-  O198  1  0.53942365  0.08112269  0.26872885  1
  O2-  O199  1  0.53902721  0.08351902  0.59423405  1
  O2-  O200  1  0.53737093  0.08086681  0.93216243  1
  O2-  O201  1  0.53890521  0.58329841  0.26374103  1
  O2-  O202  1  0.54232504  0.58614413  0.60872531  1
  O2-  O203  1  0.55073726  0.58142991  0.93788069  1
  O2-  O204  1  0.17029020  0.20473441  0.27740420  1
  O2-  O205  1  0.17053469  0.20292558  0.59732797  1
  O2-  O206  1  0.16935848  0.20937863  0.93355262  1
  O2-  O207  1  0.17220405  0.70238132  0.26573404  1
  O2-  O208  1  0.16738118  0.71400090  0.59786451  1
  O2-  O209  1  0.17195903  0.70170489  0.93377598  1
  O2-  O210  1  0.66454485  0.21121029  0.26384546  1
  O2-  O211  1  0.66720867  0.21260490  0.59723711  1
  O2-  O212  1  0.66830202  0.20371229  0.93166968  1
  O2-  O213  1  0.66806653  0.70323377  0.26739241  1
  O2-  O214  1  0.66344957  0.70496325  0.60666813  1
  O2-  O215  1  0.66537782  0.70351887  0.93433808  1
  O2-  O216  1  0.08182149  0.46370727  0.06426943  1
  O2-  O217  1  0.08103292  0.45914876  0.40472659  1
  O2-  O218  1  0.08166054  0.45274799  0.72748581  1
  O2-  O219  1  0.08007563  0.94628941  0.05943540  1
  O2-  O220  1  0.08882579  0.95292772  0.39494600  1
  O2-  O221  1  0.07991764  0.95673164  0.73272212  1
  O2-  O222  1  0.58664574  0.45442332  0.06488483  1
  O2-  O223  1  0.58485809  0.45586089  0.39225009  1
  O2-  O224  1  0.58615327  0.46042829  0.73731650  1
  O2-  O225  1  0.58384517  0.95888859  0.06717835  1
  O2-  O226  1  0.57932539  0.95451630  0.40368432  1
  O2-  O227  1  0.58452074  0.95721557  0.72646087  1
  O2-  O228  1  0.21050612  0.33589742  0.06802682  1
  O2-  O229  1  0.21026063  0.33565255  0.40770619  1
  O2-  O230  1  0.20167705  0.33158856  0.72618236  1
  O2-  O231  1  0.20787690  0.83370210  0.06261145  1
  O2-  O232  1  0.21213939  0.83662335  0.39397083  1
  O2-  O233  1  0.21403027  0.83740977  0.73470317  1
  O2-  O234  1  0.70605622  0.33378708  0.06198454  1
  O2-  O235  1  0.70786031  0.33812433  0.39248176  1
  O2-  O236  1  0.71145740  0.33245700  0.73503781  1
  O2-  O237  1  0.70818857  0.83072929  0.06443335  1
  O2-  O238  1  0.70592378  0.82760780  0.40315981  1
  O2-  O239  1  0.70298501  0.83571127  0.73060791  1
  O2-  O240  1  0.45019179  0.41474142  0.27077012  1
  O2-  O241  1  0.45767186  0.41978222  0.60409540  1
  O2-  O242  1  0.45348814  0.42225259  0.93526406  1
  O2-  O243  1  0.45112851  0.91702273  0.27260336  1
  O2-  O244  1  0.45681074  0.91115696  0.60114345  1
  O2-  O245  1  0.46404669  0.91353582  0.92950374  1
  O2-  O246  1  0.95872553  0.41555207  0.26782427  1
  O2-  O247  1  0.94772041  0.41686889  0.60556339  1
  O2-  O248  1  0.95540320  0.41983670  0.92888979  1
  O2-  O249  1  0.95634266  0.92201489  0.26696700  1
  O2-  O250  1  0.94832886  0.91703550  0.60542471  1
  O2-  O251  1  0.94518047  0.92259690  0.93296658  1
  O2-  O252  1  0.33172849  0.29498560  0.27597331  1
  O2-  O253  1  0.33488885  0.30370583  0.60201263  1
  O2-  O254  1  0.33150120  0.29262675  0.93148274  1
  O2-  O255  1  0.33763123  0.79488380  0.26734650  1
  O2-  O256  1  0.33849301  0.79101838  0.60380743  1
  O2-  O257  1  0.33476365  0.79187257  0.92961559  1
  O2-  O258  1  0.83443633  0.29007736  0.26514526  1
  O2-  O259  1  0.83589965  0.29080310  0.60341618  1
  O2-  O260  1  0.83027127  0.29525613  0.92911727  1
  O2-  O261  1  0.83114436  0.79320931  0.26837660  1
  O2-  O262  1  0.83118421  0.79485647  0.60293528  1
  O2-  O263  1  0.83136299  0.78528475  0.92946292  1
  O2-  O264  1  0.41300353  0.03333303  0.06791656  1
  O2-  O265  1  0.41219884  0.04069425  0.39983370  1
  O2-  O266  1  0.41556325  0.04003785  0.72800273  1
  O2-  O267  1  0.41935078  0.55045680  0.06494575  1
  O2-  O268  1  0.41529644  0.54273917  0.39762530  1
  O2-  O269  1  0.41536003  0.54414464  0.73862206  1
  O2-  O270  1  0.91818018  0.05130439  0.06195123  1
  O2-  O271  1  0.92209428  0.04669568  0.40201803  1
  O2-  O272  1  0.91063964  0.04355119  0.73137960  1
  O2-  O273  1  0.91108537  0.54174030  0.06243723  1
  O2-  O274  1  0.91025360  0.53967609  0.39789012  1
  O2-  O275  1  0.91685311  0.54899455  0.72919658  1
  O2-  O276  1  0.29129531  0.16629425  0.06908340  1
  O2-  O277  1  0.29759182  0.16246450  0.40172001  1
  O2-  O278  1  0.30586982  0.16981350  0.72221266  1
  O2-  O279  1  0.30104266  0.66956518  0.06447431  1
  O2-  O280  1  0.30195514  0.66834686  0.39466091  1
  O2-  O281  1  0.28843748  0.66705049  0.73460671  1
  O2-  O282  1  0.79710522  0.16791474  0.06042451  1
  O2-  O283  1  0.78921451  0.17026414  0.40267701  1
  O2-  O284  1  0.78987617  0.16146742  0.73094509  1
  O2-  O285  1  0.78888160  0.65928043  0.06440309  1
  O2-  O286  1  0.79373451  0.66164262  0.39717425  1
  O2-  O287  1  0.79385541  0.66581034  0.73212606  1
