# generated using pymatgen
data_Ca2Al2SiO7
_symmetry_space_group_name_H-M   'P 1'
_cell_length_a   15.45432653
_cell_length_b   15.45406542
_cell_length_c   15.28143460
_cell_angle_alpha   89.99729225
_cell_angle_beta   89.98882590
_cell_angle_gamma   90.00111245
_symmetry_Int_Tables_number   1
_chemical_formula_structural   Ca2Al2SiO7
_chemical_formula_sum   'Ca48 Al48 Si24 O168'
_cell_volume   3649.69815845
_cell_formula_units_Z   24
loop_
 _symmetry_equiv_pos_site_id
 _symmetry_equiv_pos_as_xyz
  1  'x, y, z'
loop_
 _atom_type_symbol
 _atom_type_oxidation_number
  Ca2+  2.0
  Al0+  0.0
  Si0+  0.0
  O2-  -2.0
loop_
 _atom_site_type_symbol
 _atom_site_label
 _atom_site_symmetry_multiplicity
 _atom_site_fract_x
 _atom_site_fract_y
 _atom_site_fract_z
 _atom_site_occupancy
  Ca2+  Ca0  1  0.17090190  0.08328669  0.17112956  1
  Ca2+  Ca1  1  0.18043179  0.08032583  0.50511721  1
  Ca2+  Ca2  1  0.17117009  0.08476687  0.83621087  1
  Ca2+  Ca3  1  0.16835789  0.58271405  0.16864734  1
  Ca2+  Ca4  1  0.16453003  0.58080112  0.50533186  1
  Ca2+  Ca5  1  0.17522459  0.57104300  0.84248605  1
  Ca2+  Ca6  1  0.66949282  0.07819920  0.17607307  1
  Ca2+  Ca7  1  0.66811745  0.07872712  0.50189840  1
  Ca2+  Ca8  1  0.66411548  0.06651895  0.83694243  1
  Ca2+  Ca9  1  0.67391618  0.58294813  0.16898084  1
  Ca2+  Ca10  1  0.67592641  0.59179607  0.50222138  1
  Ca2+  Ca11  1  0.67320636  0.59726928  0.83739696  1
  Ca2+  Ca12  1  0.08488776  0.32703969  0.15848770  1
  Ca2+  Ca13  1  0.08315298  0.33548823  0.49930729  1
  Ca2+  Ca14  1  0.09403365  0.33176092  0.83234947  1
  Ca2+  Ca15  1  0.07081227  0.82712354  0.16487547  1
  Ca2+  Ca16  1  0.07181758  0.82638923  0.49006516  1
  Ca2+  Ca17  1  0.06818636  0.83234964  0.82771704  1
  Ca2+  Ca18  1  0.58565303  0.32821479  0.16339053  1
  Ca2+  Ca19  1  0.58028012  0.32967991  0.49193150  1
  Ca2+  Ca20  1  0.56824680  0.33670786  0.82865658  1
  Ca2+  Ca21  1  0.58126366  0.83039435  0.16120570  1
  Ca2+  Ca22  1  0.57866278  0.83468231  0.50379903  1
  Ca2+  Ca23  1  0.58660568  0.82514694  0.82651352  1
  Ca2+  Ca24  1  0.33473316  0.41934820  0.16130172  1
  Ca2+  Ca25  1  0.32714392  0.41592340  0.50866481  1
  Ca2+  Ca26  1  0.33005442  0.41552565  0.84109373  1
  Ca2+  Ca27  1  0.33409379  0.92151071  0.17833161  1
  Ca2+  Ca28  1  0.34594618  0.92476077  0.50419352  1
  Ca2+  Ca29  1  0.34130367  0.92260994  0.83345417  1
  Ca2+  Ca30  1  0.82838625  0.42877068  0.17657377  1
  Ca2+  Ca31  1  0.82565320  0.42810070  0.50235203  1
  Ca2+  Ca32  1  0.83114296  0.43294228  0.83912307  1
  Ca2+  Ca33  1  0.83111281  0.91570528  0.16925850  1
  Ca2+  Ca34  1  0.83278995  0.91553437  0.50511801  1
  Ca2+  Ca35  1  0.82261881  0.90379438  0.83712237  1
  Ca2+  Ca36  1  0.42095277  0.17018399  0.16536714  1
  Ca2+  Ca37  1  0.41932218  0.16682347  0.49584586  1
  Ca2+  Ca38  1  0.41075089  0.17752788  0.82766446  1
  Ca2+  Ca39  1  0.42211261  0.66915348  0.15843912  1
  Ca2+  Ca40  1  0.42060652  0.67839273  0.49496658  1
  Ca2+  Ca41  1  0.42906203  0.66566629  0.82652683  1
  Ca2+  Ca42  1  0.92026277  0.16590759  0.16081251  1
  Ca2+  Ca43  1  0.91476716  0.16679703  0.49184265  1
  Ca2+  Ca44  1  0.92563824  0.16798699  0.83230379  1
  Ca2+  Ca45  1  0.90962970  0.67216221  0.16420568  1
  Ca2+  Ca46  1  0.91484214  0.67266252  0.49444200  1
  Ca2+  Ca47  1  0.90724318  0.67337518  0.82903931  1
  Al0+  Al48  1  0.00048951  0.00054693  -0.00985266  1
  Al0+  Al49  1  0.00045339  -0.00090988  0.33373939  1
  Al0+  Al50  1  0.00181018  0.00163073  0.66217970  1
  Al0+  Al51  1  0.00033576  0.50011531  0.00859702  1
  Al0+  Al52  1  0.00017890  0.49909619  0.33367789  1
  Al0+  Al53  1  -0.00070860  0.49829167  0.67637213  1
  Al0+  Al54  1  0.50082861  0.00002665  0.00576227  1
  Al0+  Al55  1  0.50037954  0.00246236  0.32905097  1
  Al0+  Al56  1  0.50175916  0.00130477  0.67445034  1
  Al0+  Al57  1  0.50046860  0.49966352  -0.00417458  1
  Al0+  Al58  1  0.49630102  0.49954355  0.33682723  1
  Al0+  Al59  1  0.50098121  0.49901305  0.65468767  1
  Al0+  Al60  1  0.25013775  0.24892366  -0.00220814  1
  Al0+  Al61  1  0.25080272  0.24972600  0.33736433  1
  Al0+  Al62  1  0.25056146  0.24876981  0.66823406  1
  Al0+  Al63  1  0.24841500  0.75152546  0.00263242  1
  Al0+  Al64  1  0.24811716  0.74946392  0.32614820  1
  Al0+  Al65  1  0.24926811  0.75094254  0.66505257  1
  Al0+  Al66  1  0.75176779  0.24855514  -0.00521992  1
  Al0+  Al67  1  0.74907560  0.24890104  0.33601869  1
  Al0+  Al68  1  0.75152778  0.25100166  0.66930912  1
  Al0+  Al69  1  0.74774086  0.75140552  0.00369688  1
  Al0+  Al70  1  0.74797129  0.75037930  0.33352575  1
  Al0+  Al71  1  0.75058219  0.75142972  0.66382388  1
  Al0+  Al72  1  0.56869240  0.68119131  0.98815043  1
  Al0+  Al73  1  0.82257349  0.06952870  0.34518127  1
  Al0+  Al74  1  0.67628181  0.42796989  0.34773205  1
  Al0+  Al75  1  0.67950183  0.93025811  0.01610514  1
  Al0+  Al76  1  0.92994690  0.81796084  0.98530076  1
  Al0+  Al77  1  0.57230768  0.67907647  0.64909203  1
  Al0+  Al78  1  0.42764522  0.82321053  0.65378277  1
  Al0+  Al79  1  0.68251417  0.93169843  0.67974436  1
  Al0+  Al80  1  0.81756925  0.57001172  0.68104960  1
  Al0+  Al81  1  0.43057209  0.82161532  0.31908763  1
  Al0+  Al82  1  0.32096347  0.07012771  0.34681720  1
  Al0+  Al83  1  0.18074685  0.43030928  0.68039324  1
  Al0+  Al84  1  0.82050500  0.57206240  0.34992860  1
  Al0+  Al85  1  0.92665437  0.82156269  0.31688618  1
  Al0+  Al86  1  0.81915255  0.57147428  0.01474462  1
  Al0+  Al87  1  0.43209445  0.31806684  0.98748706  1
  Al0+  Al88  1  0.32338344  0.57253130  0.01424890  1
  Al0+  Al89  1  0.32057070  0.06848516  0.68190880  1
  Al0+  Al90  1  0.42817919  0.31950155  0.65076590  1
  Al0+  Al91  1  0.07026217  0.18056688  0.98603475  1
  Al0+  Al92  1  0.93004042  0.82067924  0.65191804  1
  Al0+  Al93  1  0.18077293  0.42747756  0.01791784  1
  Al0+  Al94  1  0.57126319  0.18123134  0.32012169  1
  Al0+  Al95  1  0.07031968  0.67544692  0.31732348  1
  Si0+  Si96  1  0.92889915  0.31978257  0.31997389  1
  Si0+  Si97  1  0.92715250  0.32489287  0.98319480  1
  Si0+  Si98  1  0.07373521  0.67574726  0.98207498  1
  Si0+  Si99  1  0.07240919  0.18008938  0.32061379  1
  Si0+  Si100  1  0.17853659  0.92674415  0.34952024  1
  Si0+  Si101  1  0.17528141  0.92721522  0.68331035  1
  Si0+  Si102  1  0.67585457  0.42546264  0.68394925  1
  Si0+  Si103  1  0.42504783  0.32279407  0.31592806  1
  Si0+  Si104  1  0.67714140  0.92870406  0.35044288  1
  Si0+  Si105  1  0.82366780  0.07234620  0.01405114  1
  Si0+  Si106  1  0.82613363  0.07524333  0.68486060  1
  Si0+  Si107  1  0.32430017  0.57401833  0.68011763  1
  Si0+  Si108  1  0.07118558  0.18037101  0.64866784  1
  Si0+  Si109  1  0.92894444  0.32193422  0.65205386  1
  Si0+  Si110  1  0.31962133  0.06983166  0.01625233  1
  Si0+  Si111  1  0.31988854  0.57340412  0.34918235  1
  Si0+  Si112  1  0.67776647  0.42470981  0.01376121  1
  Si0+  Si113  1  0.57477319  0.17499017  0.98199623  1
  Si0+  Si114  1  0.07131125  0.67538449  0.65392008  1
  Si0+  Si115  1  0.57008534  0.67607008  0.31538754  1
  Si0+  Si116  1  0.42493722  0.82468842  0.98480051  1
  Si0+  Si117  1  0.17570361  0.92984890  0.01425657  1
  Si0+  Si118  1  0.17993314  0.42830549  0.34869277  1
  Si0+  Si119  1  0.57342544  0.17859143  0.65191256  1
  O2-  O120  1  0.25233992  -0.00516475  0.05749228  1
  O2-  O121  1  0.25006053  -0.00787111  0.39437688  1
  O2-  O122  1  0.24839502  -0.00912683  0.72853880  1
  O2-  O123  1  0.24937615  0.50313076  0.06699526  1
  O2-  O124  1  0.24876439  0.50145127  0.39045641  1
  O2-  O125  1  0.25654999  0.50468106  0.72499647  1
  O2-  O126  1  0.75238718  0.00826308  0.05998908  1
  O2-  O127  1  0.75100429  -0.00709076  0.39326107  1
  O2-  O128  1  0.75903000  0.00513464  0.72790767  1
  O2-  O129  1  0.74859656  0.49079416  0.05808077  1
  O2-  O130  1  0.74473484  0.50288018  0.39879339  1
  O2-  O131  1  0.74015863  0.49775639  0.72842272  1
  O2-  O132  1  -0.00041793  0.24822654  0.27736495  1
  O2-  O133  1  -0.00276372  0.24882511  0.60742986  1
  O2-  O134  1  -0.00227667  0.25764394  0.93892459  1
  O2-  O135  1  -0.00457169  0.74534780  0.26823207  1
  O2-  O136  1  0.00642609  0.74645645  0.60785537  1
  O2-  O137  1  0.00305727  0.74172451  0.93728441  1
  O2-  O138  1  0.49854815  0.25846957  0.27348616  1
  O2-  O139  1  0.50733243  0.24868597  0.60592612  1
  O2-  O140  1  0.50784266  0.24518364  0.93848047  1
  O2-  O141  1  0.50254074  0.74558153  0.27087265  1
  O2-  O142  1  0.49553391  0.74832465  0.60228054  1
  O2-  O143  1  0.49013848  0.75283718  0.94194682  1
  O2-  O144  1  0.06910135  0.17973779  0.09973064  1
  O2-  O145  1  0.07358710  0.18334136  0.42574925  1
  O2-  O146  1  0.07146837  0.18043584  0.75380725  1
  O2-  O147  1  0.07439068  0.67905782  0.08741500  1
  O2-  O148  1  0.07138863  0.67666652  0.43155305  1
  O2-  O149  1  0.07053427  0.67624468  0.75942078  1
  O2-  O150  1  0.57494690  0.17520234  0.08765389  1
  O2-  O151  1  0.56919144  0.18006845  0.43331628  1
  O2-  O152  1  0.57196640  0.17997919  0.75761451  1
  O2-  O153  1  0.56855085  0.68256893  0.10139546  1
  O2-  O154  1  0.56876996  0.67669645  0.42075328  1
  O2-  O155  1  0.57255650  0.68116567  0.76293964  1
  O2-  O156  1  0.18157703  0.42365474  0.24422103  1
  O2-  O157  1  0.17949864  0.43105874  0.56659074  1
  O2-  O158  1  0.18460795  0.42671863  0.90434074  1
  O2-  O159  1  0.17799155  0.93124657  0.24353735  1
  O2-  O160  1  0.17120264  0.93175563  0.57804414  1
  O2-  O161  1  0.17494111  0.93257297  0.90914628  1
  O2-  O162  1  0.68030979  0.42729436  0.23364552  1
  O2-  O163  1  0.68101153  0.41978133  0.57891134  1
  O2-  O164  1  0.67862464  0.42347191  0.90820215  1
  O2-  O165  1  0.67631879  0.93121452  0.24467830  1
  O2-  O166  1  0.68208035  0.93485509  0.56667262  1
  O2-  O167  1  0.68001366  0.92943196  0.90300678  1
  O2-  O168  1  0.43239525  0.31490867  0.10066429  1
  O2-  O169  1  0.42102058  0.31965379  0.42138789  1
  O2-  O170  1  0.42654326  0.31755709  0.76404860  1
  O2-  O171  1  0.42685766  0.82675664  0.09055789  1
  O2-  O172  1  0.43242486  0.82167237  0.43204392  1
  O2-  O173  1  0.42949530  0.82291811  0.76738114  1
  O2-  O174  1  0.92482346  0.32084705  0.08890277  1
  O2-  O175  1  0.93201662  0.31954530  0.42543420  1
  O2-  O176  1  0.92952238  0.32048027  0.75699318  1
  O2-  O177  1  0.93163855  0.82040713  0.09797982  1
  O2-  O178  1  0.93036167  0.82300562  0.43051988  1
  O2-  O179  1  0.92936118  0.81901665  0.76519186  1
  O2-  O180  1  0.31669796  0.07219377  0.23337885  1
  O2-  O181  1  0.31927524  0.06955535  0.56876541  1
  O2-  O182  1  0.31892038  0.07035963  0.91104960  1
  O2-  O183  1  0.32182741  0.57221689  0.24428315  1
  O2-  O184  1  0.31991383  0.57383248  0.57419270  1
  O2-  O185  1  0.32322926  0.57052340  0.90046888  1
  O2-  O186  1  0.82236103  0.07133334  0.23199716  1
  O2-  O187  1  0.82568485  0.07716091  0.57919679  1
  O2-  O188  1  0.82365174  0.07281777  0.90851721  1
  O2-  O189  1  0.81968459  0.56985034  0.23631336  1
  O2-  O190  1  0.82040619  0.56757657  0.56836196  1
  O2-  O191  1  0.81675194  0.57221370  0.90146743  1
  O2-  O192  1  0.04815208  0.08736895  0.27397996  1
  O2-  O193  1  0.04677804  0.08846195  0.59990267  1
  O2-  O194  1  0.03872167  0.08706899  0.92617195  1
  O2-  O195  1  0.04736305  0.57511669  0.26534826  1
  O2-  O196  1  0.04293788  0.58162344  0.60927649  1
  O2-  O197  1  0.05129388  0.57926125  0.94093392  1
  O2-  O198  1  0.53803123  0.08735439  0.26251449  1
  O2-  O199  1  0.54469191  0.08580269  0.60705737  1
  O2-  O200  1  0.54447905  0.08179425  0.93761530  1
  O2-  O201  1  0.54234182  0.58206578  0.27099053  1
  O2-  O202  1  0.55139115  0.57986498  0.59469317  1
  O2-  O203  1  0.54393924  0.58382588  0.93247966  1
  O2-  O204  1  0.16298207  0.21131869  0.27221810  1
  O2-  O205  1  0.16151540  0.21178582  0.60106092  1
  O2-  O206  1  0.16628801  0.21029414  0.93033522  1
  O2-  O207  1  0.16693360  0.70564854  0.26119347  1
  O2-  O208  1  0.16607045  0.69627732  0.60752538  1
  O2-  O209  1  0.16727456  0.70320778  0.93611850  1
  O2-  O210  1  0.66835533  0.20969379  0.26484980  1
  O2-  O211  1  0.66932186  0.20050733  0.60775149  1
  O2-  O212  1  0.66945976  0.19523206  0.93540713  1
  O2-  O213  1  0.66435260  0.70098403  0.27092258  1
  O2-  O214  1  0.66742491  0.71501463  0.59491840  1
  O2-  O215  1  0.66307659  0.71787746  0.93409015  1
  O2-  O216  1  0.08076728  0.44957800  0.07028344  1
  O2-  O217  1  0.08724498  0.45273494  0.39611829  1
  O2-  O218  1  0.08507935  0.45699373  0.73815650  1
  O2-  O219  1  0.08638126  0.96570735  0.06144954  1
  O2-  O220  1  0.08689686  0.95642433  0.39715262  1
  O2-  O221  1  0.08422436  0.96044730  0.73156208  1
  O2-  O222  1  0.58490399  0.45117377  0.05965457  1
  O2-  O223  1  0.57499769  0.44893577  0.39856965  1
  O2-  O224  1  0.57889605  0.44782025  0.72388713  1
  O2-  O225  1  0.58275191  0.95954895  0.07174913  1
  O2-  O226  1  0.58609587  0.96229215  0.39618971  1
  O2-  O227  1  0.58811383  0.96297655  0.73809040  1
  O2-  O228  1  0.21267443  0.32899271  0.06967295  1
  O2-  O229  1  0.20965406  0.33810691  0.39924841  1
  O2-  O230  1  0.21152425  0.33332680  0.73301948  1
  O2-  O231  1  0.19573329  0.83642698  0.06157572  1
  O2-  O232  1  0.19987496  0.83119536  0.39246125  1
  O2-  O233  1  0.19378050  0.83119708  0.72745299  1
  O2-  O234  1  0.70146054  0.32907727  0.05824100  1
  O2-  O235  1  0.70850222  0.33140808  0.40234937  1
  O2-  O236  1  0.70404352  0.33340852  0.73302333  1
  O2-  O237  1  0.71266791  0.83643111  0.07234106  1
  O2-  O238  1  0.69620058  0.83335726  0.39474490  1
  O2-  O239  1  0.71430069  0.83536796  0.73328638  1
  O2-  O240  1  0.44464216  0.41876751  0.27247074  1
  O2-  O241  1  0.45275224  0.41597623  0.59398607  1
  O2-  O242  1  0.45993805  0.41427244  0.93115039  1
  O2-  O243  1  0.46078137  0.91769638  0.26398151  1
  O2-  O244  1  0.46220706  0.92160695  0.60339384  1
  O2-  O245  1  0.45407450  0.91843993  0.94037224  1
  O2-  O246  1  0.95795965  0.41029056  0.27152166  1
  O2-  O247  1  0.96133812  0.41259110  0.60533950  1
  O2-  O248  1  0.95217184  0.41961757  0.93969259  1
  O2-  O249  1  0.95993413  0.91959186  0.26424842  1
  O2-  O250  1  0.95876850  0.91897571  0.59931316  1
  O2-  O251  1  0.96159400  0.91343770  0.92917223  1
  O2-  O252  1  0.33355676  0.29037496  0.26894168  1
  O2-  O253  1  0.33251154  0.28413551  0.59720965  1
  O2-  O254  1  0.33667079  0.28401894  0.93309639  1
  O2-  O255  1  0.33269359  0.79469976  0.26581177  1
  O2-  O256  1  0.32671902  0.80225813  0.60090814  1
  O2-  O257  1  0.32872747  0.80645125  0.94112823  1
  O2-  O258  1  0.83789937  0.29174679  0.27253523  1
  O2-  O259  1  0.83633815  0.29628748  0.60454112  1
  O2-  O260  1  0.83512454  0.29823897  0.93327625  1
  O2-  O261  1  0.82614624  0.79721728  0.26625001  1
  O2-  O262  1  0.83522400  0.78950674  0.59700571  1
  O2-  O263  1  0.83271823  0.78586449  0.93425913  1
  O2-  O264  1  0.41257542  0.04669115  0.06381364  1
  O2-  O265  1  0.41865022  0.04147048  0.39908799  1
  O2-  O266  1  0.41656432  0.04272481  0.73927710  1
  O2-  O267  1  0.42068820  0.53941398  0.06764259  1
  O2-  O268  1  0.41063420  0.54655833  0.39887981  1
  O2-  O269  1  0.41971865  0.54777010  0.72129313  1
  O2-  O270  1  0.91738486  0.04378503  0.05830651  1
  O2-  O271  1  0.92048804  0.04405428  0.40073699  1
  O2-  O272  1  0.92168292  0.05171423  0.72781414  1
  O2-  O273  1  0.91667740  0.54584949  0.06918952  1
  O2-  O274  1  0.91867760  0.53908612  0.40121585  1
  O2-  O275  1  0.91212580  0.53647541  0.73795635  1
  O2-  O276  1  0.28674361  0.15946072  0.06371369  1
  O2-  O277  1  0.28685975  0.16507053  0.40275901  1
  O2-  O278  1  0.28325729  0.16286633  0.73619829  1
  O2-  O279  1  0.29770989  0.67265338  0.06664908  1
  O2-  O280  1  0.29034292  0.66525412  0.39546794  1
  O2-  O281  1  0.30083258  0.66807238  0.72666298  1
  O2-  O282  1  0.80330735  0.16842234  0.05842472  1
  O2-  O283  1  0.79117726  0.16497074  0.40128989  1
  O2-  O284  1  0.80152725  0.16892017  0.73201904  1
  O2-  O285  1  0.78243513  0.66482103  0.06996145  1
  O2-  O286  1  0.79321489  0.67170478  0.40144633  1
  O2-  O287  1  0.78734773  0.66741409  0.73299756  1
