# generated using pymatgen
data_Ca2Al2SiO7
_symmetry_space_group_name_H-M   'P 1'
_cell_length_a   15.45761217
_cell_length_b   15.45787325
_cell_length_c   15.28355071
_cell_angle_alpha   90.00228384
_cell_angle_beta   89.99749329
_cell_angle_gamma   90.00488389
_symmetry_Int_Tables_number   1
_chemical_formula_structural   Ca2Al2SiO7
_chemical_formula_sum   'Ca48 Al48 Si24 O168'
_cell_volume   3651.87924691
_cell_formula_units_Z   24
loop_
 _symmetry_equiv_pos_site_id
 _symmetry_equiv_pos_as_xyz
  1  'x, y, z'
loop_
 _atom_type_symbol
 _atom_type_oxidation_number
  Ca2+  2.0
  Al0+  0.0
  Si0+  0.0
  O2-  -2.0
loop_
 _atom_site_type_symbol
 _atom_site_label
 _atom_site_symmetry_multiplicity
 _atom_site_fract_x
 _atom_site_fract_y
 _atom_site_fract_z
 _atom_site_occupancy
  Ca2+  Ca0  1  0.17054037  0.08570460  0.17048486  1
  Ca2+  Ca1  1  0.17231327  0.09131882  0.50656614  1
  Ca2+  Ca2  1  0.17030182  0.08037164  0.83519360  1
  Ca2+  Ca3  1  0.17233954  0.58360435  0.16742534  1
  Ca2+  Ca4  1  0.16497354  0.57380372  0.50582156  1
  Ca2+  Ca5  1  0.16608446  0.57682755  0.83821858  1
  Ca2+  Ca6  1  0.67008686  0.07398694  0.17194782  1
  Ca2+  Ca7  1  0.67643375  0.08321176  0.49795694  1
  Ca2+  Ca8  1  0.66787152  0.07785699  0.84344166  1
  Ca2+  Ca9  1  0.67864707  0.58528615  0.17357269  1
  Ca2+  Ca10  1  0.67050299  0.57839461  0.49970518  1
  Ca2+  Ca11  1  0.67313801  0.57282222  0.83756366  1
  Ca2+  Ca12  1  0.07344591  0.32596943  0.16670056  1
  Ca2+  Ca13  1  0.08079533  0.32545778  0.49502589  1
  Ca2+  Ca14  1  0.07504247  0.33172854  0.82515338  1
  Ca2+  Ca15  1  0.07100468  0.83895238  0.16137464  1
  Ca2+  Ca16  1  0.07368568  0.84008599  0.49871646  1
  Ca2+  Ca17  1  0.07685133  0.84033561  0.82869868  1
  Ca2+  Ca18  1  0.57763191  0.32394039  0.16195282  1
  Ca2+  Ca19  1  0.57638568  0.33646743  0.49500589  1
  Ca2+  Ca20  1  0.58482512  0.32637308  0.83027596  1
  Ca2+  Ca21  1  0.59281759  0.83157578  0.16409241  1
  Ca2+  Ca22  1  0.58565210  0.82768619  0.49023497  1
  Ca2+  Ca23  1  0.58274202  0.83408331  0.83188482  1
  Ca2+  Ca24  1  0.33619662  0.41725547  0.17068898  1
  Ca2+  Ca25  1  0.32654785  0.41174499  0.50525682  1
  Ca2+  Ca26  1  0.32398863  0.42090730  0.83652074  1
  Ca2+  Ca27  1  0.32664938  0.92836043  0.17013788  1
  Ca2+  Ca28  1  0.32451209  0.93029351  0.50796903  1
  Ca2+  Ca29  1  0.31782200  0.92393779  0.84039697  1
  Ca2+  Ca30  1  0.84314210  0.42486073  0.17209297  1
  Ca2+  Ca31  1  0.83810344  0.41890249  0.50489563  1
  Ca2+  Ca32  1  0.83447608  0.41521991  0.83904809  1
  Ca2+  Ca33  1  0.82712885  0.91482869  0.17558790  1
  Ca2+  Ca34  1  0.83643690  0.91679740  0.49688863  1
  Ca2+  Ca35  1  0.83246978  0.91488901  0.84045024  1
  Ca2+  Ca36  1  0.41680074  0.16373182  0.16365853  1
  Ca2+  Ca37  1  0.41177693  0.16950667  0.49264486  1
  Ca2+  Ca38  1  0.42083364  0.15244939  0.83411971  1
  Ca2+  Ca39  1  0.42467747  0.66552296  0.16109433  1
  Ca2+  Ca40  1  0.42592772  0.66861839  0.49046699  1
  Ca2+  Ca41  1  0.41360880  0.66615845  0.83118146  1
  Ca2+  Ca42  1  0.91175752  0.17397707  0.16392005  1
  Ca2+  Ca43  1  0.92887712  0.17244111  0.49066140  1
  Ca2+  Ca44  1  0.92360086  0.17653204  0.82418737  1
  Ca2+  Ca45  1  0.90836978  0.67422480  0.16282371  1
  Ca2+  Ca46  1  0.91190388  0.67642462  0.49421852  1
  Ca2+  Ca47  1  0.90998417  0.67769219  0.83338890  1
  Al0+  Al48  1  -0.00085761  0.00176741  -0.00193921  1
  Al0+  Al49  1  -0.00023092  -0.00069906  0.32771907  1
  Al0+  Al50  1  -0.00034379  0.00137277  0.66177040  1
  Al0+  Al51  1  0.00000662  0.50088793  0.00065032  1
  Al0+  Al52  1  0.00193580  0.50094984  0.33554982  1
  Al0+  Al53  1  0.00003979  0.50421631  0.66993433  1
  Al0+  Al54  1  0.49969072  -0.00241928  0.00325913  1
  Al0+  Al55  1  0.49777080  -0.00110260  0.34271505  1
  Al0+  Al56  1  0.50152339  -0.00095140  0.66658325  1
  Al0+  Al57  1  0.50016217  0.49830849  0.00103306  1
  Al0+  Al58  1  0.50147509  0.50132250  0.32390878  1
  Al0+  Al59  1  0.50422560  0.49912844  0.67089609  1
  Al0+  Al60  1  0.24984434  0.25145773  0.00239131  1
  Al0+  Al61  1  0.24966413  0.25113913  0.32718273  1
  Al0+  Al62  1  0.25250198  0.25249093  0.67564105  1
  Al0+  Al63  1  0.24939489  0.74896696  0.00825263  1
  Al0+  Al64  1  0.25140604  0.75057914  0.33488594  1
  Al0+  Al65  1  0.25080927  0.75262014  0.66673918  1
  Al0+  Al66  1  0.74660243  0.24923598  -0.00851226  1
  Al0+  Al67  1  0.74800504  0.24982253  0.33348782  1
  Al0+  Al68  1  0.74834381  0.25053024  0.66658197  1
  Al0+  Al69  1  0.74962778  0.74720860  -0.00001738  1
  Al0+  Al70  1  0.74976611  0.74674236  0.33489785  1
  Al0+  Al71  1  0.74965473  0.74925283  0.66266776  1
  Al0+  Al72  1  0.68085566  0.92809315  0.01187147  1
  Al0+  Al73  1  0.92713038  0.32393217  0.65140242  1
  Al0+  Al74  1  0.92847715  0.82066683  0.98681926  1
  Al0+  Al75  1  0.92675802  0.32244663  0.31919105  1
  Al0+  Al76  1  0.17469495  0.92903039  0.01716206  1
  Al0+  Al77  1  0.57011445  0.68095942  0.31775823  1
  Al0+  Al78  1  0.42936541  0.32025490  0.32042440  1
  Al0+  Al79  1  0.32048874  0.07064677  0.01685334  1
  Al0+  Al80  1  0.67962533  0.42804042  0.68082105  1
  Al0+  Al81  1  0.17631647  0.92927953  0.68120001  1
  Al0+  Al82  1  0.82289814  0.07327635  0.34771748  1
  Al0+  Al83  1  0.92844835  0.82081149  0.65178536  1
  Al0+  Al84  1  0.32181454  0.57004403  0.01418762  1
  Al0+  Al85  1  0.56718614  0.17721595  0.98678780  1
  Al0+  Al86  1  0.32273468  0.07276433  0.68347788  1
  Al0+  Al87  1  0.17801284  0.43053606  0.68019476  1
  Al0+  Al88  1  0.93064454  0.81809505  0.31882963  1
  Al0+  Al89  1  0.31788459  0.07236738  0.34816996  1
  Al0+  Al90  1  0.68008871  0.92781864  0.34992776  1
  Al0+  Al91  1  0.07291822  0.18165917  0.65263183  1
  Al0+  Al92  1  0.07123026  0.17835651  0.31662308  1
  Al0+  Al93  1  0.82232311  0.56848523  0.34878104  1
  Al0+  Al94  1  0.81973587  0.56784381  0.01326788  1
  Al0+  Al95  1  0.92935153  0.32191108  0.98561521  1
  Si0+  Si96  1  0.18174940  0.43096201  0.34738387  1
  Si0+  Si97  1  0.42813582  0.81866121  0.98561313  1
  Si0+  Si98  1  0.56928003  0.67858183  0.65197154  1
  Si0+  Si99  1  0.67609962  0.42806245  0.34743118  1
  Si0+  Si100  1  0.07558828  0.67659345  0.31694091  1
  Si0+  Si101  1  0.17713564  0.42860187  0.01941804  1
  Si0+  Si102  1  0.57120409  0.67743179  0.98242900  1
  Si0+  Si103  1  0.67789164  0.42484687  0.01782871  1
  Si0+  Si104  1  0.42701988  0.32343337  0.98043154  1
  Si0+  Si105  1  0.17698927  0.92662289  0.35052581  1
  Si0+  Si106  1  0.82024166  0.07111255  0.68088542  1
  Si0+  Si107  1  0.07513874  0.67898126  0.65089312  1
  Si0+  Si108  1  0.57105893  0.17614785  0.65016076  1
  Si0+  Si109  1  0.42699312  0.82316669  0.31629181  1
  Si0+  Si110  1  0.42901964  0.82188940  0.65160013  1
  Si0+  Si111  1  0.43218634  0.32211014  0.65452280  1
  Si0+  Si112  1  0.82088857  0.57361953  0.68398796  1
  Si0+  Si113  1  0.57127653  0.17484873  0.31856119  1
  Si0+  Si114  1  0.82093563  0.07411215  0.01302745  1
  Si0+  Si115  1  0.68057329  0.92749658  0.68151297  1
  Si0+  Si116  1  0.32406761  0.57227544  0.67987170  1
  Si0+  Si117  1  0.07337886  0.17897065  0.98165228  1
  Si0+  Si118  1  0.32433985  0.57155611  0.34771640  1
  Si0+  Si119  1  0.07387346  0.67907954  0.98407832  1
  O2-  O120  1  0.24459180  0.00318210  0.06678833  1
  O2-  O121  1  0.24267849  -0.00176594  0.39461164  1
  O2-  O122  1  0.24820707  0.00181275  0.73046980  1
  O2-  O123  1  0.24921500  0.49474601  0.06286638  1
  O2-  O124  1  0.25288792  0.50236029  0.39087709  1
  O2-  O125  1  0.25124871  0.50884560  0.72452959  1
  O2-  O126  1  0.75737549  0.00082206  0.05713435  1
  O2-  O127  1  0.75180432  0.00029151  0.39970300  1
  O2-  O128  1  0.75077215  -0.00169174  0.72423396  1
  O2-  O129  1  0.74863842  0.49049211  0.06186541  1
  O2-  O130  1  0.75093963  0.48910043  0.39327581  1
  O2-  O131  1  0.75938492  0.49776569  0.72689408  1
  O2-  O132  1  -0.00735060  0.24506057  0.26868433  1
  O2-  O133  1  0.00103565  0.25388400  0.60217829  1
  O2-  O134  1  0.00374055  0.24736735  0.93852331  1
  O2-  O135  1  0.00798956  0.74554049  0.27268488  1
  O2-  O136  1  0.00671197  0.74797591  0.60732620  1
  O2-  O137  1  0.00724254  0.74966007  0.93965789  1
  O2-  O138  1  0.50270541  0.24398361  0.27486354  1
  O2-  O139  1  0.49874550  0.24748542  0.61073738  1
  O2-  O140  1  0.49164801  0.25066444  0.93698436  1
  O2-  O141  1  0.49735777  0.75723677  0.27039456  1
  O2-  O142  1  0.49768271  0.74849572  0.60926847  1
  O2-  O143  1  0.49765219  0.74631659  0.94046153  1
  O2-  O144  1  0.07355494  0.18047429  0.08701987  1
  O2-  O145  1  0.07608658  0.18379199  0.43010914  1
  O2-  O146  1  0.06994180  0.18225591  0.76643820  1
  O2-  O147  1  0.07364855  0.67753158  0.08954711  1
  O2-  O148  1  0.07735784  0.67549869  0.42259319  1
  O2-  O149  1  0.07667899  0.67776720  0.75630422  1
  O2-  O150  1  0.56742764  0.17915299  0.09967334  1
  O2-  O151  1  0.57063164  0.17682295  0.42458306  1
  O2-  O152  1  0.57101594  0.17383491  0.75527468  1
  O2-  O153  1  0.57152609  0.67838328  0.08717462  1
  O2-  O154  1  0.56643566  0.67867359  0.43166663  1
  O2-  O155  1  0.56907708  0.67931911  0.75724209  1
  O2-  O156  1  0.18272202  0.43358283  0.24240424  1
  O2-  O157  1  0.18197395  0.43034775  0.56676394  1
  O2-  O158  1  0.17729172  0.43102928  0.91359209  1
  O2-  O159  1  0.18091007  0.92325258  0.24527271  1
  O2-  O160  1  0.18066044  0.92630333  0.56783950  1
  O2-  O161  1  0.17641049  0.92802664  0.90352790  1
  O2-  O162  1  0.67269140  0.43168414  0.24214020  1
  O2-  O163  1  0.67088316  0.43392216  0.56833728  1
  O2-  O164  1  0.67671924  0.42752384  0.91189931  1
  O2-  O165  1  0.68109261  0.92847296  0.23626313  1
  O2-  O166  1  0.67926100  0.92650092  0.57698078  1
  O2-  O167  1  0.68049358  0.92854181  0.89782268  1
  O2-  O168  1  0.43038214  0.32650864  0.08592577  1
  O2-  O169  1  0.42952725  0.32217637  0.43427134  1
  O2-  O170  1  0.43577216  0.32670040  0.75910022  1
  O2-  O171  1  0.43033138  0.81710374  0.09044346  1
  O2-  O172  1  0.42603648  0.81803605  0.42226874  1
  O2-  O173  1  0.43071838  0.82040458  0.75687652  1
  O2-  O174  1  0.93037555  0.32157975  0.09847477  1
  O2-  O175  1  0.93229770  0.32513339  0.43242694  1
  O2-  O176  1  0.92794071  0.32058049  0.76532742  1
  O2-  O177  1  0.92577232  0.81691616  0.09940122  1
  O2-  O178  1  0.93147759  0.81613780  0.43221962  1
  O2-  O179  1  0.92348923  0.81777593  0.76490958  1
  O2-  O180  1  0.31839847  0.07104944  0.23548968  1
  O2-  O181  1  0.32395281  0.07240781  0.56982525  1
  O2-  O182  1  0.32142838  0.06576327  0.90351851  1
  O2-  O183  1  0.32337172  0.57055788  0.24279445  1
  O2-  O184  1  0.32697550  0.56924559  0.57415339  1
  O2-  O185  1  0.32073149  0.56895875  0.90053828  1
  O2-  O186  1  0.81891991  0.07342009  0.23389685  1
  O2-  O187  1  0.81741015  0.07136997  0.57618210  1
  O2-  O188  1  0.81796739  0.07407350  0.90683015  1
  O2-  O189  1  0.82026598  0.56948994  0.23571385  1
  O2-  O190  1  0.81708402  0.57659796  0.57857721  1
  O2-  O191  1  0.81573561  0.56960651  0.89997111  1
  O2-  O192  1  0.05134668  0.07812541  0.26498822  1
  O2-  O193  1  0.04557184  0.08365576  0.59890208  1
  O2-  O194  1  0.04846086  0.08539061  0.93549238  1
  O2-  O195  1  0.05079448  0.58323590  0.27058352  1
  O2-  O196  1  0.04861809  0.58585804  0.60406085  1
  O2-  O197  1  0.04637882  0.58601529  0.93736254  1
  O2-  O198  1  0.54368878  0.08077782  0.27511244  1
  O2-  O199  1  0.54515821  0.08420225  0.60187528  1
  O2-  O200  1  0.53766456  0.07961697  0.93199844  1
  O2-  O201  1  0.53766174  0.58725782  0.25953939  1
  O2-  O202  1  0.54114391  0.58674725  0.60466998  1
  O2-  O203  1  0.54386639  0.58445188  0.93604027  1
  O2-  O204  1  0.16522284  0.21591835  0.26041513  1
  O2-  O205  1  0.17366384  0.21179219  0.60471023  1
  O2-  O206  1  0.16743576  0.20603495  0.93672330  1
  O2-  O207  1  0.17066519  0.70037373  0.27161940  1
  O2-  O208  1  0.16976011  0.70087882  0.60353365  1
  O2-  O209  1  0.16934190  0.70068351  0.93922693  1
  O2-  O210  1  0.66415292  0.19944157  0.27120262  1
  O2-  O211  1  0.66165127  0.20629646  0.60257826  1
  O2-  O212  1  0.66156859  0.20826415  0.92741509  1
  O2-  O213  1  0.66658920  0.71031153  0.26428221  1
  O2-  O214  1  0.65976428  0.70765631  0.60327812  1
  O2-  O215  1  0.66073762  0.70793680  0.93273832  1
  O2-  O216  1  0.08568298  0.45852014  0.06631400  1
  O2-  O217  1  0.09157532  0.45946091  0.39729192  1
  O2-  O218  1  0.08251983  0.46222000  0.73660133  1
  O2-  O219  1  0.07517859  0.95638442  0.06819736  1
  O2-  O220  1  0.08151182  0.94811436  0.39260946  1
  O2-  O221  1  0.07667807  0.95596008  0.73217868  1
  O2-  O222  1  0.58451043  0.45234710  0.06286254  1
  O2-  O223  1  0.58487153  0.46329407  0.39439006  1
  O2-  O224  1  0.58665882  0.46464158  0.74007680  1
  O2-  O225  1  0.58503335  0.95742331  0.06668127  1
  O2-  O226  1  0.58088924  0.95263684  0.40399734  1
  O2-  O227  1  0.58843012  0.95484013  0.72874833  1
  O2-  O228  1  0.20116719  0.33490694  0.06500788  1
  O2-  O229  1  0.21243772  0.34022878  0.39396845  1
  O2-  O230  1  0.21290638  0.33875564  0.73975768  1
  O2-  O231  1  0.20417968  0.83119296  0.07023080  1
  O2-  O232  1  0.20555839  0.83366943  0.39820346  1
  O2-  O233  1  0.20653934  0.83045695  0.73451901  1
  O2-  O234  1  0.69914740  0.32921210  0.06039396  1
  O2-  O235  1  0.69053057  0.33187765  0.39182878  1
  O2-  O236  1  0.70344115  0.32961564  0.73508277  1
  O2-  O237  1  0.70934824  0.83095954  0.06474710  1
  O2-  O238  1  0.70912706  0.82942884  0.40257228  1
  O2-  O239  1  0.70685914  0.83460835  0.72817610  1
  O2-  O240  1  0.46070015  0.41512439  0.26312402  1
  O2-  O241  1  0.46369667  0.41269322  0.60538920  1
  O2-  O242  1  0.45673418  0.41585560  0.93305203  1
  O2-  O243  1  0.45001225  0.91854914  0.27416168  1
  O2-  O244  1  0.46083398  0.91175447  0.60290552  1
  O2-  O245  1  0.45880912  0.90880227  0.93738849  1
  O2-  O246  1  0.96308173  0.41959928  0.26716834  1
  O2-  O247  1  0.95175947  0.42608058  0.60498176  1
  O2-  O248  1  0.96071856  0.41911199  0.93228073  1
  O2-  O249  1  0.95626434  0.91512219  0.26383606  1
  O2-  O250  1  0.95598043  0.91761256  0.59721154  1
  O2-  O251  1  0.95301405  0.91965089  0.93346613  1
  O2-  O252  1  0.33442737  0.29253503  0.26287471  1
  O2-  O253  1  0.33861741  0.29834469  0.60954066  1
  O2-  O254  1  0.33054222  0.30374797  0.93806170  1
  O2-  O255  1  0.33431647  0.79483508  0.26966152  1
  O2-  O256  1  0.33700087  0.79721170  0.60303491  1
  O2-  O257  1  0.33578803  0.78938414  0.93943197  1
  O2-  O258  1  0.82512126  0.30179480  0.26878964  1
  O2-  O259  1  0.82704312  0.29718255  0.60106805  1
  O2-  O260  1  0.83191619  0.29344737  0.93170463  1
  O2-  O261  1  0.83452113  0.78316062  0.26746969  1
  O2-  O262  1  0.83296844  0.78616587  0.59648318  1
  O2-  O263  1  0.83334815  0.78404250  0.93137836  1
  O2-  O264  1  0.41704547  0.03703494  0.07000775  1
  O2-  O265  1  0.41370995  0.04298099  0.40473210  1
  O2-  O266  1  0.42123271  0.03821829  0.73406062  1
  O2-  O267  1  0.41931390  0.54038293  0.06772318  1
  O2-  O268  1  0.41652180  0.54277003  0.39344755  1
  O2-  O269  1  0.41524544  0.54290088  0.72906499  1
  O2-  O270  1  0.91645554  0.05630712  0.05625706  1
  O2-  O271  1  0.92227809  0.04439855  0.39847688  1
  O2-  O272  1  0.91240740  0.04485367  0.72721117  1
  O2-  O273  1  0.91796806  0.54293064  0.06660246  1
  O2-  O274  1  0.92075584  0.54407667  0.40304180  1
  O2-  O275  1  0.91700111  0.55919666  0.72834693  1
  O2-  O276  1  0.29908297  0.17273768  0.06548766  1
  O2-  O277  1  0.28821191  0.17105926  0.39928390  1
  O2-  O278  1  0.30141787  0.17154927  0.73801457  1
  O2-  O279  1  0.29307042  0.66496075  0.07183355  1
  O2-  O280  1  0.29955421  0.66416975  0.39567254  1
  O2-  O281  1  0.30395618  0.66787218  0.72386781  1
  O2-  O282  1  0.78838467  0.16572351  0.05872350  1
  O2-  O283  1  0.79232372  0.17115179  0.40251627  1
  O2-  O284  1  0.78995261  0.16189878  0.72892176  1
  O2-  O285  1  0.78345174  0.66226519  0.06735965  1
  O2-  O286  1  0.78452021  0.66165134  0.40424765  1
  O2-  O287  1  0.78458486  0.66385049  0.73139800  1
