# generated using pymatgen
data_Ca2Al2SiO7
_symmetry_space_group_name_H-M   'P 1'
_cell_length_a   15.45356495
_cell_length_b   15.45362767
_cell_length_c   15.28027905
_cell_angle_alpha   89.99746157
_cell_angle_beta   90.00204930
_cell_angle_gamma   90.00025310
_symmetry_Int_Tables_number   1
_chemical_formula_structural   Ca2Al2SiO7
_chemical_formula_sum   'Ca48 Al48 Si24 O168'
_cell_volume   3649.13903621
_cell_formula_units_Z   24
loop_
 _symmetry_equiv_pos_site_id
 _symmetry_equiv_pos_as_xyz
  1  'x, y, z'
loop_
 _atom_type_symbol
 _atom_type_oxidation_number
  Ca2+  2.0
  Al0+  0.0
  Si0+  0.0
  O2-  -2.0
loop_
 _atom_site_type_symbol
 _atom_site_label
 _atom_site_symmetry_multiplicity
 _atom_site_fract_x
 _atom_site_fract_y
 _atom_site_fract_z
 _atom_site_occupancy
  Ca2+  Ca0  1  0.16198294  0.07431237  0.17189585  1
  Ca2+  Ca1  1  0.16692824  0.07678877  0.50733168  1
  Ca2+  Ca2  1  0.15846283  0.07291624  0.83565964  1
  Ca2+  Ca3  1  0.16290189  0.57724989  0.17270361  1
  Ca2+  Ca4  1  0.17046392  0.57053470  0.50723779  1
  Ca2+  Ca5  1  0.16733060  0.58061884  0.83580814  1
  Ca2+  Ca6  1  0.67258658  0.08660219  0.16961267  1
  Ca2+  Ca7  1  0.66990475  0.08576439  0.50799207  1
  Ca2+  Ca8  1  0.67934434  0.09063264  0.83603372  1
  Ca2+  Ca9  1  0.67331520  0.58472371  0.17077145  1
  Ca2+  Ca10  1  0.66969345  0.59055101  0.49911150  1
  Ca2+  Ca11  1  0.67480356  0.57685970  0.84445875  1
  Ca2+  Ca12  1  0.09051057  0.32060791  0.16264563  1
  Ca2+  Ca13  1  0.09437195  0.32423300  0.49756322  1
  Ca2+  Ca14  1  0.08509512  0.32055390  0.82683514  1
  Ca2+  Ca15  1  0.08195499  0.83225853  0.16085763  1
  Ca2+  Ca16  1  0.07458332  0.84439733  0.49685136  1
  Ca2+  Ca17  1  0.08403717  0.83223038  0.83032914  1
  Ca2+  Ca18  1  0.58077820  0.33299579  0.16123190  1
  Ca2+  Ca19  1  0.58227779  0.32026376  0.49601229  1
  Ca2+  Ca20  1  0.58026074  0.33332951  0.83027848  1
  Ca2+  Ca21  1  0.57063615  0.82989374  0.16566837  1
  Ca2+  Ca22  1  0.57221414  0.82823838  0.48747447  1
  Ca2+  Ca23  1  0.57616679  0.83645064  0.83214205  1
  Ca2+  Ca24  1  0.32989670  0.41453665  0.17118138  1
  Ca2+  Ca25  1  0.32390469  0.42031767  0.50638182  1
  Ca2+  Ca26  1  0.33222064  0.41839510  0.83399423  1
  Ca2+  Ca27  1  0.32361296  0.90865252  0.17052909  1
  Ca2+  Ca28  1  0.32197564  0.91712807  0.50651279  1
  Ca2+  Ca29  1  0.32493865  0.92276938  0.83827162  1
  Ca2+  Ca30  1  0.83267529  0.42952288  0.16890097  1
  Ca2+  Ca31  1  0.83494217  0.42469458  0.50084511  1
  Ca2+  Ca32  1  0.82546021  0.41946364  0.84514939  1
  Ca2+  Ca33  1  0.83857570  0.92163287  0.17044544  1
  Ca2+  Ca34  1  0.83543172  0.91874305  0.50661994  1
  Ca2+  Ca35  1  0.84123369  0.92666220  0.83362176  1
  Ca2+  Ca36  1  0.42245555  0.17262028  0.16108767  1
  Ca2+  Ca37  1  0.42624712  0.15607003  0.49773968  1
  Ca2+  Ca38  1  0.41956835  0.17040856  0.82651774  1
  Ca2+  Ca39  1  0.41392081  0.67714550  0.16281896  1
  Ca2+  Ca40  1  0.41851501  0.66901892  0.49336186  1
  Ca2+  Ca41  1  0.41145252  0.67154006  0.83067329  1
  Ca2+  Ca42  1  0.92843336  0.16291659  0.16140718  1
  Ca2+  Ca43  1  0.92935701  0.16226736  0.49797766  1
  Ca2+  Ca44  1  0.92393736  0.15779508  0.82872470  1
  Ca2+  Ca45  1  0.91819236  0.66806642  0.16271157  1
  Ca2+  Ca46  1  0.91452083  0.68015516  0.49181325  1
  Ca2+  Ca47  1  0.92208339  0.66850862  0.82966108  1
  Al0+  Al48  1  0.00027360  -0.00152485  0.00522651  1
  Al0+  Al49  1  0.00047197  0.00106574  0.32918635  1
  Al0+  Al50  1  -0.00143476  0.00010445  0.66557773  1
  Al0+  Al51  1  0.00041039  0.49920458  -0.00038204  1
  Al0+  Al52  1  -0.00172837  0.50004756  0.34498990  1
  Al0+  Al53  1  -0.00003467  0.49991091  0.67036917  1
  Al0+  Al54  1  0.50039203  0.00116463  -0.00480967  1
  Al0+  Al55  1  0.50133163  0.00009759  0.32248712  1
  Al0+  Al56  1  0.49910431  -0.00150582  0.66588836  1
  Al0+  Al57  1  0.49923062  0.49994289  0.00048584  1
  Al0+  Al58  1  0.50233334  0.49874961  0.33138466  1
  Al0+  Al59  1  0.50012191  0.50040624  0.66808642  1
  Al0+  Al60  1  0.25220764  0.24835350  -0.00992233  1
  Al0+  Al61  1  0.25158424  0.24813772  0.33365248  1
  Al0+  Al62  1  0.25122862  0.25077409  0.66859230  1
  Al0+  Al63  1  0.24863046  0.75007380  -0.00499631  1
  Al0+  Al64  1  0.24726640  0.74934879  0.33710721  1
  Al0+  Al65  1  0.24875520  0.74823586  0.67162798  1
  Al0+  Al66  1  0.75107561  0.25028609  0.01107433  1
  Al0+  Al67  1  0.75154547  0.25214419  0.33009857  1
  Al0+  Al68  1  0.75006064  0.25103267  0.66575991  1
  Al0+  Al69  1  0.74894725  0.75236519  0.00251439  1
  Al0+  Al70  1  0.74980523  0.75230399  0.32867806  1
  Al0+  Al71  1  0.74936242  0.75067099  0.66471782  1
  Al0+  Al72  1  0.06954213  0.17721539  0.98514387  1
  Al0+  Al73  1  0.57143518  0.67763770  0.31725613  1
  Al0+  Al74  1  0.18168034  0.92929364  0.01527908  1
  Al0+  Al75  1  0.81879015  0.57327618  0.34942902  1
  Al0+  Al76  1  0.42990139  0.32199816  0.98488514  1
  Al0+  Al77  1  0.57122624  0.17944219  0.65436997  1
  Al0+  Al78  1  0.57375483  0.17869693  0.31790766  1
  Al0+  Al79  1  0.07134905  0.18118270  0.31970149  1
  Al0+  Al80  1  0.93044550  0.82192410  0.31821175  1
  Al0+  Al81  1  0.17848357  0.92910308  0.34728473  1
  Al0+  Al82  1  0.17978045  0.42657353  0.34573906  1
  Al0+  Al83  1  0.93059483  0.81903087  0.65360025  1
  Al0+  Al84  1  0.82324214  0.57299447  0.01491173  1
  Al0+  Al85  1  0.17700443  0.93076128  0.68264954  1
  Al0+  Al86  1  0.42479384  0.81998866  0.31900393  1
  Al0+  Al87  1  0.42803383  0.82110787  0.98325665  1
  Al0+  Al88  1  0.32457887  0.07059859  0.68136096  1
  Al0+  Al89  1  0.17735302  0.42761297  0.68532869  1
  Al0+  Al90  1  0.32211650  0.57025597  0.68269200  1
  Al0+  Al91  1  0.06971577  0.67711558  0.98702382  1
  Al0+  Al92  1  0.82109920  0.06874997  0.01601320  1
  Al0+  Al93  1  0.81871286  0.07059919  0.67740168  1
  Al0+  Al94  1  0.67685369  0.42973864  0.01692076  1
  Al0+  Al95  1  0.07057090  0.18010304  0.65269594  1
  Si0+  Si96  1  0.92693940  0.82185377  0.98357717  1
  Si0+  Si97  1  0.32428037  0.07116772  0.34708993  1
  Si0+  Si98  1  0.57482361  0.17951099  0.98274287  1
  Si0+  Si99  1  0.57082824  0.67829019  0.65272339  1
  Si0+  Si100  1  0.81954738  0.57409777  0.68134755  1
  Si0+  Si101  1  0.82071110  0.07190842  0.34876970  1
  Si0+  Si102  1  0.92821010  0.32103429  0.98566610  1
  Si0+  Si103  1  0.67413067  0.92852851  0.01830092  1
  Si0+  Si104  1  0.18037273  0.42646624  0.01386760  1
  Si0+  Si105  1  0.32358272  0.07346125  0.01653719  1
  Si0+  Si106  1  0.31933124  0.57108692  0.01565629  1
  Si0+  Si107  1  0.42930187  0.32382248  0.64835501  1
  Si0+  Si108  1  0.68049291  0.42961183  0.68006737  1
  Si0+  Si109  1  0.32311842  0.57163375  0.34775483  1
  Si0+  Si110  1  0.42753291  0.81987155  0.65197290  1
  Si0+  Si111  1  0.06984207  0.67537101  0.32045174  1
  Si0+  Si112  1  0.67719108  0.42721556  0.35295334  1
  Si0+  Si113  1  0.42905756  0.32097042  0.31822154  1
  Si0+  Si114  1  0.67683405  0.92573066  0.68178727  1
  Si0+  Si115  1  0.07301674  0.67577929  0.64827916  1
  Si0+  Si116  1  0.92648524  0.32454456  0.65035743  1
  Si0+  Si117  1  0.92844162  0.32513790  0.31681147  1
  Si0+  Si118  1  0.67838244  0.93127775  0.34682441  1
  Si0+  Si119  1  0.57210703  0.67926360  0.98250359  1
  O2-  O120  1  0.25678167  0.00397633  0.06213970  1
  O2-  O121  1  0.25667351  0.00154017  0.39134277  1
  O2-  O122  1  0.24906387  0.00308003  0.73267012  1
  O2-  O123  1  0.24962464  0.49865680  0.05789360  1
  O2-  O124  1  0.25480552  0.50214808  0.39095226  1
  O2-  O125  1  0.24928286  0.50022457  0.73461542  1
  O2-  O126  1  0.74478554  -0.00470968  0.06253352  1
  O2-  O127  1  0.74746197  0.00320712  0.39101234  1
  O2-  O128  1  0.74317014  -0.00303778  0.72530169  1
  O2-  O129  1  0.74853498  0.50340811  0.06470940  1
  O2-  O130  1  0.74312114  0.49893647  0.39714278  1
  O2-  O131  1  0.75189735  0.49992320  0.72299311  1
  O2-  O132  1  -0.00111698  0.25829693  0.27272325  1
  O2-  O133  1  -0.00175270  0.25854117  0.60678596  1
  O2-  O134  1  -0.00597217  0.25158756  0.93889569  1
  O2-  O135  1  0.00485180  0.74603976  0.27394508  1
  O2-  O136  1  0.00516017  0.74528114  0.60440781  1
  O2-  O137  1  -0.00811382  0.74923794  0.94056651  1
  O2-  O138  1  0.49918557  0.25419527  0.27334068  1
  O2-  O139  1  0.49337561  0.24996732  0.60513896  1
  O2-  O140  1  0.50657227  0.24856193  0.93900689  1
  O2-  O141  1  0.49434494  0.74500349  0.26898442  1
  O2-  O142  1  0.49867197  0.74813719  0.61072795  1
  O2-  O143  1  0.50455021  0.74775407  0.93609352  1
  O2-  O144  1  0.07032230  0.17902734  0.09851040  1
  O2-  O145  1  0.07011966  0.18015221  0.43278810  1
  O2-  O146  1  0.06509563  0.17836079  0.76569491  1
  O2-  O147  1  0.07087342  0.67663704  0.10042242  1
  O2-  O148  1  0.06741172  0.67476743  0.42591141  1
  O2-  O149  1  0.06999479  0.67476437  0.75406040  1
  O2-  O150  1  0.57276138  0.17954105  0.08851037  1
  O2-  O151  1  0.57365764  0.17827953  0.43138006  1
  O2-  O152  1  0.57508140  0.18524593  0.76700362  1
  O2-  O153  1  0.57033722  0.68012256  0.08770584  1
  O2-  O154  1  0.57011509  0.68118237  0.43183460  1
  O2-  O155  1  0.57322774  0.67863400  0.75765766  1
  O2-  O156  1  0.18169879  0.42709999  0.23197396  1
  O2-  O157  1  0.17995687  0.42907927  0.57125963  1
  O2-  O158  1  0.18147855  0.42791844  0.90927219  1
  O2-  O159  1  0.17821157  0.92941829  0.23415596  1
  O2-  O160  1  0.17760986  0.93226712  0.56875796  1
  O2-  O161  1  0.18058614  0.92978067  0.90251704  1
  O2-  O162  1  0.67798191  0.42612210  0.24788000  1
  O2-  O163  1  0.68073923  0.43021140  0.57505474  1
  O2-  O164  1  0.67917179  0.43029508  0.90224134  1
  O2-  O165  1  0.67901632  0.93293293  0.24185244  1
  O2-  O166  1  0.67740645  0.92359736  0.57601517  1
  O2-  O167  1  0.67301412  0.92904857  0.91246821  1
  O2-  O168  1  0.42805252  0.31958912  0.09839198  1
  O2-  O169  1  0.42990976  0.32109832  0.42366754  1
  O2-  O170  1  0.43475152  0.32753511  0.75379595  1
  O2-  O171  1  0.42739171  0.81760943  0.09611714  1
  O2-  O172  1  0.42730056  0.81991895  0.43314805  1
  O2-  O173  1  0.43049093  0.81973197  0.75708900  1
  O2-  O174  1  0.93223107  0.32192968  0.09118062  1
  O2-  O175  1  0.92563458  0.32271155  0.42253996  1
  O2-  O176  1  0.92287565  0.32438611  0.75588414  1
  O2-  O177  1  0.92941177  0.82264958  0.08925394  1
  O2-  O178  1  0.92950106  0.82313134  0.43157981  1
  O2-  O179  1  0.92819672  0.81605627  0.76659776  1
  O2-  O180  1  0.32254105  0.07408242  0.24149934  1
  O2-  O181  1  0.32827108  0.06401460  0.56751748  1
  O2-  O182  1  0.32364868  0.07209151  0.91114710  1
  O2-  O183  1  0.32186941  0.57156447  0.24191297  1
  O2-  O184  1  0.32424002  0.56815502  0.56865006  1
  O2-  O185  1  0.31929387  0.57042247  0.91079210  1
  O2-  O186  1  0.82041754  0.06981189  0.24363024  1
  O2-  O187  1  0.81775538  0.06926749  0.56410176  1
  O2-  O188  1  0.82057850  0.06809627  0.90253942  1
  O2-  O189  1  0.81984379  0.57102524  0.23677161  1
  O2-  O190  1  0.81632715  0.57590766  0.57636196  1
  O2-  O191  1  0.82124384  0.57055185  0.90046747  1
  O2-  O192  1  0.03594698  0.08726454  0.26392424  1
  O2-  O193  1  0.03497213  0.08544835  0.59780132  1
  O2-  O194  1  0.03501758  0.08053446  0.93402136  1
  O2-  O195  1  0.04136529  0.58188003  0.27525591  1
  O2-  O196  1  0.04634647  0.58151494  0.60365524  1
  O2-  O197  1  0.04141389  0.58015844  0.93112432  1
  O2-  O198  1  0.54489582  0.08417183  0.25981170  1
  O2-  O199  1  0.54446256  0.08066951  0.60099187  1
  O2-  O200  1  0.55116466  0.08590318  0.93611809  1
  O2-  O201  1  0.55105819  0.57653406  0.26675043  1
  O2-  O202  1  0.54469127  0.58631818  0.60434507  1
  O2-  O203  1  0.54616358  0.58538599  0.93747204  1
  O2-  O204  1  0.16891277  0.20945620  0.26578056  1
  O2-  O205  1  0.16950013  0.20757839  0.60076838  1
  O2-  O206  1  0.16537151  0.20717445  0.93036269  1
  O2-  O207  1  0.16520232  0.69599282  0.27635477  1
  O2-  O208  1  0.16832416  0.69836486  0.60476746  1
  O2-  O209  1  0.16398395  0.70976999  0.93017141  1
  O2-  O210  1  0.67000320  0.21047098  0.26391560  1
  O2-  O211  1  0.66620130  0.21385147  0.59795682  1
  O2-  O212  1  0.66993407  0.20622535  0.94056731  1
  O2-  O213  1  0.66658267  0.71204330  0.26299613  1
  O2-  O214  1  0.66148036  0.70753320  0.60345945  1
  O2-  O215  1  0.66644298  0.70473480  0.93652612  1
  O2-  O216  1  0.08795142  0.45211797  0.06062383  1
  O2-  O217  1  0.08455792  0.45512344  0.40323123  1
  O2-  O218  1  0.07787561  0.45462868  0.73777924  1
  O2-  O219  1  0.08539369  0.95957644  0.06965835  1
  O2-  O220  1  0.08250063  0.96530002  0.39969073  1
  O2-  O221  1  0.07907425  0.96013128  0.73562006  1
  O2-  O222  1  0.57803525  0.45743963  0.06956303  1
  O2-  O223  1  0.58227526  0.44893175  0.39888547  1
  O2-  O224  1  0.58930544  0.45806441  0.72789089  1
  O2-  O225  1  0.58124480  0.95685669  0.06477976  1
  O2-  O226  1  0.58514437  0.95785473  0.39283373  1
  O2-  O227  1  0.58303415  0.94886935  0.72743364  1
  O2-  O228  1  0.21185607  0.33448384  0.05902680  1
  O2-  O229  1  0.21358010  0.33134107  0.40113682  1
  O2-  O230  1  0.20607625  0.32947805  0.73721640  1
  O2-  O231  1  0.21307016  0.83149662  0.06700231  1
  O2-  O232  1  0.20355500  0.83124479  0.40247012  1
  O2-  O233  1  0.20296184  0.83079730  0.73273851  1
  O2-  O234  1  0.70469907  0.33276990  0.07235250  1
  O2-  O235  1  0.70774072  0.33437348  0.39916709  1
  O2-  O236  1  0.70811486  0.33884907  0.72912197  1
  O2-  O237  1  0.69650200  0.83405676  0.06373234  1
  O2-  O238  1  0.70648708  0.83975765  0.39424578  1
  O2-  O239  1  0.70433723  0.83341442  0.73022886  1
  O2-  O240  1  0.45233572  0.41484234  0.27120305  1
  O2-  O241  1  0.46103406  0.41533589  0.60048638  1
  O2-  O242  1  0.45892096  0.41943221  0.93082550  1
  O2-  O243  1  0.45648731  0.91564997  0.26272247  1
  O2-  O244  1  0.45607059  0.91043226  0.60316684  1
  O2-  O245  1  0.45903514  0.91819795  0.92964386  1
  O2-  O246  1  0.95287324  0.42036224  0.27435890  1
  O2-  O247  1  0.94933527  0.41979724  0.60523728  1
  O2-  O248  1  0.95273361  0.41407958  0.93789028  1
  O2-  O249  1  0.96202396  0.91707577  0.26267667  1
  O2-  O250  1  0.95962719  0.91549808  0.59853141  1
  O2-  O251  1  0.95828560  0.91370634  0.93791013  1
  O2-  O252  1  0.33688856  0.29346440  0.27031407  1
  O2-  O253  1  0.33360944  0.30417734  0.60545016  1
  O2-  O254  1  0.33621415  0.29032249  0.92621629  1
  O2-  O255  1  0.32580377  0.79124352  0.26686732  1
  O2-  O256  1  0.33517125  0.79147049  0.60623850  1
  O2-  O257  1  0.33383200  0.78691747  0.92800915  1
  O2-  O258  1  0.83584214  0.29945241  0.26898657  1
  O2-  O259  1  0.83423966  0.29766866  0.60189164  1
  O2-  O260  1  0.83232736  0.29703686  0.94332421  1
  O2-  O261  1  0.83390226  0.79356867  0.26402295  1
  O2-  O262  1  0.83297722  0.78857425  0.59904326  1
  O2-  O263  1  0.83061652  0.80356218  0.93945532  1
  O2-  O264  1  0.41919632  0.05057018  0.06015583  1
  O2-  O265  1  0.41980810  0.04594986  0.38981934  1
  O2-  O266  1  0.42186288  0.04004258  0.73675434  1
  O2-  O267  1  0.41158595  0.54498788  0.06266419  1
  O2-  O268  1  0.41772081  0.54680343  0.39286469  1
  O2-  O269  1  0.42098127  0.54215442  0.73650700  1
  O2-  O270  1  0.91532419  0.03487038  0.07252029  1
  O2-  O271  1  0.91183790  0.04071910  0.39477525  1
  O2-  O272  1  0.91290396  0.03648192  0.73285301  1
  O2-  O273  1  0.92061382  0.54101580  0.06872244  1
  O2-  O274  1  0.91296498  0.54192683  0.40834866  1
  O2-  O275  1  0.91287199  0.55047340  0.72670141  1
  O2-  O276  1  0.29698528  0.16780503  0.06057944  1
  O2-  O277  1  0.29998934  0.16402819  0.39530545  1
  O2-  O278  1  0.30533488  0.17250093  0.72913244  1
  O2-  O279  1  0.28889542  0.66211055  0.06218002  1
  O2-  O280  1  0.29764829  0.66390096  0.39636607  1
  O2-  O281  1  0.29506296  0.66827086  0.73672077  1
  O2-  O282  1  0.79377011  0.16493592  0.07251472  1
  O2-  O283  1  0.79577907  0.16567298  0.39353836  1
  O2-  O284  1  0.78931226  0.16760140  0.73217207  1
  O2-  O285  1  0.79719888  0.67293348  0.06588393  1
  O2-  O286  1  0.78628487  0.67083974  0.40169393  1
  O2-  O287  1  0.78774233  0.66375149  0.73040188  1
