# generated using pymatgen
data_Ca2Al2SiO7
_symmetry_space_group_name_H-M   'P 1'
_cell_length_a   15.46592164
_cell_length_b   15.46464198
_cell_length_c   15.28924701
_cell_angle_alpha   89.99919234
_cell_angle_beta   89.98340241
_cell_angle_gamma   89.99525597
_symmetry_Int_Tables_number   1
_chemical_formula_structural   Ca2Al2SiO7
_chemical_formula_sum   'Ca48 Al48 Si24 O168'
_cell_volume   3656.80458608
_cell_formula_units_Z   24
loop_
 _symmetry_equiv_pos_site_id
 _symmetry_equiv_pos_as_xyz
  1  'x, y, z'
loop_
 _atom_type_symbol
 _atom_type_oxidation_number
  Ca2+  2.0
  Al0+  0.0
  Si0+  0.0
  O2-  -2.0
loop_
 _atom_site_type_symbol
 _atom_site_label
 _atom_site_symmetry_multiplicity
 _atom_site_fract_x
 _atom_site_fract_y
 _atom_site_fract_z
 _atom_site_occupancy
  Ca2+  Ca0  1  0.16863562  0.08061245  0.17038085  1
  Ca2+  Ca1  1  0.17238972  0.08425274  0.51138893  1
  Ca2+  Ca2  1  0.17060833  0.09118902  0.83572276  1
  Ca2+  Ca3  1  0.16406553  0.58275901  0.15902798  1
  Ca2+  Ca4  1  0.16625246  0.58536570  0.50427793  1
  Ca2+  Ca5  1  0.16594944  0.58185231  0.84318240  1
  Ca2+  Ca6  1  0.67080877  0.08597741  0.16661604  1
  Ca2+  Ca7  1  0.66695631  0.08497647  0.50719044  1
  Ca2+  Ca8  1  0.67680700  0.08803476  0.83379333  1
  Ca2+  Ca9  1  0.67552651  0.57153353  0.17184897  1
  Ca2+  Ca10  1  0.67976866  0.57286355  0.50727529  1
  Ca2+  Ca11  1  0.67947693  0.57224580  0.84022175  1
  Ca2+  Ca12  1  0.07191552  0.33873144  0.16031373  1
  Ca2+  Ca13  1  0.06914176  0.32850755  0.50046997  1
  Ca2+  Ca14  1  0.07049161  0.33704150  0.82920873  1
  Ca2+  Ca15  1  0.07136374  0.82522669  0.15874878  1
  Ca2+  Ca16  1  0.07566098  0.82693875  0.49752885  1
  Ca2+  Ca17  1  0.07779929  0.82006812  0.83452820  1
  Ca2+  Ca18  1  0.58859461  0.33350673  0.16163095  1
  Ca2+  Ca19  1  0.59842177  0.32393460  0.49894241  1
  Ca2+  Ca20  1  0.58196528  0.33856576  0.82914516  1
  Ca2+  Ca21  1  0.57241149  0.83112299  0.16118859  1
  Ca2+  Ca22  1  0.57854907  0.83222052  0.49280097  1
  Ca2+  Ca23  1  0.57893787  0.83356701  0.83415193  1
  Ca2+  Ca24  1  0.32924317  0.41628570  0.16262740  1
  Ca2+  Ca25  1  0.32852533  0.41608111  0.50480681  1
  Ca2+  Ca26  1  0.32402703  0.41994486  0.84847313  1
  Ca2+  Ca27  1  0.33483688  0.91122321  0.17075894  1
  Ca2+  Ca28  1  0.33394196  0.92193899  0.50695268  1
  Ca2+  Ca29  1  0.33306694  0.92249561  0.83758631  1
  Ca2+  Ca30  1  0.83222765  0.42262957  0.17045391  1
  Ca2+  Ca31  1  0.83072329  0.41916112  0.50446655  1
  Ca2+  Ca32  1  0.82827151  0.41569128  0.84067119  1
  Ca2+  Ca33  1  0.84382389  0.92150106  0.16835774  1
  Ca2+  Ca34  1  0.83616002  0.92334367  0.50592116  1
  Ca2+  Ca35  1  0.84448790  0.93065397  0.83887282  1
  Ca2+  Ca36  1  0.42736366  0.17454411  0.16111079  1
  Ca2+  Ca37  1  0.42887703  0.16324088  0.49761989  1
  Ca2+  Ca38  1  0.42215112  0.17348646  0.82685153  1
  Ca2+  Ca39  1  0.41364456  0.67342744  0.15643584  1
  Ca2+  Ca40  1  0.42074232  0.67355424  0.49292390  1
  Ca2+  Ca41  1  0.41235670  0.66860741  0.83414517  1
  Ca2+  Ca42  1  0.91157079  0.17925060  0.16004650  1
  Ca2+  Ca43  1  0.90389129  0.18126983  0.50117686  1
  Ca2+  Ca44  1  0.91363395  0.17627951  0.82697925  1
  Ca2+  Ca45  1  0.91213999  0.67174780  0.15679589  1
  Ca2+  Ca46  1  0.91652022  0.66307231  0.49523695  1
  Ca2+  Ca47  1  0.92380921  0.65535640  0.83069155  1
  Al0+  Al48  1  0.00273304  -0.00054429  0.00265846  1
  Al0+  Al49  1  0.00270295  -0.00185337  0.33364289  1
  Al0+  Al50  1  0.00237451  -0.00304942  0.66877815  1
  Al0+  Al51  1  0.00002067  0.49910677  0.00026639  1
  Al0+  Al52  1  0.00303680  0.49874454  0.33379536  1
  Al0+  Al53  1  0.00209589  0.50046940  0.65812526  1
  Al0+  Al54  1  0.50089084  0.00008651  -0.00405475  1
  Al0+  Al55  1  0.50104359  0.00152171  0.32474195  1
  Al0+  Al56  1  0.49739065  0.00194331  0.66881000  1
  Al0+  Al57  1  0.49945365  0.50061234  0.00342663  1
  Al0+  Al58  1  0.49892389  0.49803004  0.33939752  1
  Al0+  Al59  1  0.49942590  0.50281537  0.66733530  1
  Al0+  Al60  1  0.25323409  0.24999110  0.00411393  1
  Al0+  Al61  1  0.25234038  0.24919937  0.33541930  1
  Al0+  Al62  1  0.24997533  0.25077123  0.66772298  1
  Al0+  Al63  1  0.24874196  0.75222007  -0.00465478  1
  Al0+  Al64  1  0.24840455  0.75090735  0.33206735  1
  Al0+  Al65  1  0.24784995  0.75164042  0.66175606  1
  Al0+  Al66  1  0.75149725  0.24633917  0.00365979  1
  Al0+  Al67  1  0.75083233  0.24872316  0.32630324  1
  Al0+  Al68  1  0.74711029  0.24850859  0.66699231  1
  Al0+  Al69  1  0.74666336  0.75416235  -0.00238022  1
  Al0+  Al70  1  0.74924245  0.75077744  0.33247743  1
  Al0+  Al71  1  0.74793519  0.74942293  0.67030338  1
  Al0+  Al72  1  0.92790547  0.82101995  0.32064458  1
  Al0+  Al73  1  0.42825724  0.82119469  0.98370298  1
  Al0+  Al74  1  0.43025277  0.32227991  0.98727010  1
  Al0+  Al75  1  0.93123692  0.31963962  0.31777064  1
  Al0+  Al76  1  0.92936422  0.31917676  0.98692977  1
  Al0+  Al77  1  0.92757153  0.31941458  0.65164460  1
  Al0+  Al78  1  0.32014326  0.57349005  0.01398976  1
  Al0+  Al79  1  0.67915948  0.42729701  0.01557556  1
  Al0+  Al80  1  0.06996799  0.67947320  0.65099363  1
  Al0+  Al81  1  0.82225238  0.06786323  0.01516977  1
  Al0+  Al82  1  0.82241125  0.57254650  0.34826105  1
  Al0+  Al83  1  0.07297420  0.17674986  0.65367271  1
  Al0+  Al84  1  0.82119682  0.06873579  0.67841432  1
  Al0+  Al85  1  0.56826234  0.18033745  0.65407858  1
  Al0+  Al86  1  0.67900121  0.42615402  0.35005133  1
  Al0+  Al87  1  0.42964131  0.81935182  0.32064537  1
  Al0+  Al88  1  0.82193411  0.57271043  0.01412655  1
  Al0+  Al89  1  0.92519490  0.82383865  0.98396316  1
  Al0+  Al90  1  0.82393469  0.57108444  0.68218050  1
  Al0+  Al91  1  0.67916932  0.42795580  0.68246454  1
  Al0+  Al92  1  0.06684666  0.67927654  0.98567945  1
  Al0+  Al93  1  0.57084561  0.18100388  0.31792301  1
  Al0+  Al94  1  0.17794304  0.42696506  0.01529071  1
  Al0+  Al95  1  0.32003121  0.07149172  0.68127031  1
  Si0+  Si96  1  0.07439886  0.17712391  0.98678165  1
  Si0+  Si97  1  0.57150477  0.67851994  0.65077936  1
  Si0+  Si98  1  0.18165531  0.93025090  0.01639569  1
  Si0+  Si99  1  0.57096282  0.67590748  0.31749443  1
  Si0+  Si100  1  0.07556358  0.17745102  0.31778854  1
  Si0+  Si101  1  0.18037689  0.42730560  0.35074771  1
  Si0+  Si102  1  0.67653431  0.93034659  0.34626352  1
  Si0+  Si103  1  0.42994229  0.82042072  0.65154758  1
  Si0+  Si104  1  0.67512055  0.92693257  0.68284180  1
  Si0+  Si105  1  0.31963058  0.57323014  0.34911208  1
  Si0+  Si106  1  0.17919206  0.92593514  0.68539495  1
  Si0+  Si107  1  0.82185851  0.06875659  0.34756705  1
  Si0+  Si108  1  0.42739055  0.32525192  0.65033763  1
  Si0+  Si109  1  0.42458214  0.32325420  0.31691838  1
  Si0+  Si110  1  0.57188718  0.17875909  0.98112026  1
  Si0+  Si111  1  0.32239442  0.06960124  0.34777454  1
  Si0+  Si112  1  0.67435874  0.92931164  0.01781678  1
  Si0+  Si113  1  0.32034454  0.57399398  0.67946638  1
  Si0+  Si114  1  0.32373309  0.07112318  0.01734587  1
  Si0+  Si115  1  0.17969773  0.92887407  0.35021974  1
  Si0+  Si116  1  0.57138015  0.67742700  0.98219081  1
  Si0+  Si117  1  0.92562293  0.82195700  0.65095470  1
  Si0+  Si118  1  0.18095705  0.43010665  0.67974493  1
  Si0+  Si119  1  0.07219468  0.67792694  0.31554583  1
  O2-  O120  1  0.25278657  0.00072318  0.06049108  1
  O2-  O121  1  0.25058490  0.00034672  0.39184249  1
  O2-  O122  1  0.24198139  0.00065508  0.72891059  1
  O2-  O123  1  0.25032137  0.49985694  0.06479425  1
  O2-  O124  1  0.25097172  0.50013567  0.39212818  1
  O2-  O125  1  0.25263398  0.50075591  0.72114016  1
  O2-  O126  1  0.74912323  -0.00890574  0.06224685  1
  O2-  O127  1  0.75144124  -0.00342947  0.38941501  1
  O2-  O128  1  0.74855210  -0.00870030  0.72502403  1
  O2-  O129  1  0.75140352  0.49952618  0.06457513  1
  O2-  O130  1  0.75097939  0.49946673  0.39803956  1
  O2-  O131  1  0.75472420  0.49630662  0.73131750  1
  O2-  O132  1  0.00720245  0.24464433  0.27256509  1
  O2-  O133  1  -0.00348929  0.24256667  0.60209648  1
  O2-  O134  1  0.00665674  0.24566253  0.94255025  1
  O2-  O135  1  -0.00330193  0.74055133  0.27477536  1
  O2-  O136  1  -0.00973959  0.74976084  0.60580069  1
  O2-  O137  1  -0.01126009  0.74432657  0.93443794  1
  O2-  O138  1  0.49945635  0.26049847  0.27480273  1
  O2-  O139  1  0.49706116  0.25803062  0.60551452  1
  O2-  O140  1  0.50689067  0.25137999  0.93829363  1
  O2-  O141  1  0.49991592  0.74205612  0.27243123  1
  O2-  O142  1  0.50155698  0.75128242  0.60809820  1
  O2-  O143  1  0.50108648  0.74533147  0.93691088  1
  O2-  O144  1  0.07351699  0.17557820  0.09284251  1
  O2-  O145  1  0.07848039  0.17830036  0.42300727  1
  O2-  O146  1  0.07531342  0.18224141  0.76691176  1
  O2-  O147  1  0.07043742  0.68417958  0.09932887  1
  O2-  O148  1  0.07698949  0.68212371  0.42132591  1
  O2-  O149  1  0.07660815  0.68127357  0.76299985  1
  O2-  O150  1  0.56841761  0.17614150  0.08701169  1
  O2-  O151  1  0.56817410  0.17576515  0.43095521  1
  O2-  O152  1  0.56542866  0.17705534  0.76641436  1
  O2-  O153  1  0.56977082  0.68045152  0.08792890  1
  O2-  O154  1  0.56824142  0.68026290  0.42358008  1
  O2-  O155  1  0.56862717  0.67868717  0.75530852  1
  O2-  O156  1  0.18142318  0.42535239  0.24629544  1
  O2-  O157  1  0.18405219  0.43061761  0.57395718  1
  O2-  O158  1  0.17974470  0.42593175  0.90141773  1
  O2-  O159  1  0.18030455  0.92940748  0.24521185  1
  O2-  O160  1  0.18395384  0.92297153  0.57935764  1
  O2-  O161  1  0.18318261  0.93195753  0.91154822  1
  O2-  O162  1  0.67892178  0.42827033  0.23696095  1
  O2-  O163  1  0.67898317  0.43011843  0.56889879  1
  O2-  O164  1  0.67888257  0.42797651  0.90214050  1
  O2-  O165  1  0.67270583  0.93300436  0.24181246  1
  O2-  O166  1  0.67215946  0.92739918  0.57665830  1
  O2-  O167  1  0.66762098  0.93447835  0.91259779  1
  O2-  O168  1  0.42813984  0.31691740  0.10046087  1
  O2-  O169  1  0.41612269  0.31887786  0.42215232  1
  O2-  O170  1  0.42641847  0.32458294  0.75567564  1
  O2-  O171  1  0.42979884  0.82161253  0.09704573  1
  O2-  O172  1  0.43114288  0.82003734  0.43429483  1
  O2-  O173  1  0.42930211  0.81935051  0.75628404  1
  O2-  O174  1  0.93035109  0.31783940  0.10021689  1
  O2-  O175  1  0.93075085  0.31766984  0.43081436  1
  O2-  O176  1  0.92893420  0.31999698  0.76492359  1
  O2-  O177  1  0.93205635  0.82550297  0.09775995  1
  O2-  O178  1  0.93252059  0.82641966  0.43369231  1
  O2-  O179  1  0.92885826  0.82484024  0.75577600  1
  O2-  O180  1  0.32048784  0.06885181  0.24272777  1
  O2-  O181  1  0.32278668  0.06632888  0.56758716  1
  O2-  O182  1  0.32268628  0.07087324  0.91234559  1
  O2-  O183  1  0.31888117  0.57644887  0.24491266  1
  O2-  O184  1  0.31948284  0.57479172  0.57370322  1
  O2-  O185  1  0.31725897  0.57319902  0.89987422  1
  O2-  O186  1  0.82233040  0.06718131  0.24268385  1
  O2-  O187  1  0.81771912  0.06750832  0.56457116  1
  O2-  O188  1  0.82117009  0.06922573  0.90208154  1
  O2-  O189  1  0.82040438  0.57418931  0.23516062  1
  O2-  O190  1  0.82056785  0.57295421  0.56845247  1
  O2-  O191  1  0.82140951  0.56888823  0.90077934  1
  O2-  O192  1  0.05179825  0.08258665  0.27350336  1
  O2-  O193  1  0.05555640  0.07372813  0.60527865  1
  O2-  O194  1  0.05092987  0.08338028  0.94099440  1
  O2-  O195  1  0.05666452  0.58129810  0.27382117  1
  O2-  O196  1  0.04644675  0.58341850  0.59262821  1
  O2-  O197  1  0.04702954  0.57906515  0.93343739  1
  O2-  O198  1  0.53533791  0.08772146  0.26004623  1
  O2-  O199  1  0.53364893  0.08403400  0.59912278  1
  O2-  O200  1  0.54128756  0.08726338  0.93434146  1
  O2-  O201  1  0.54627764  0.58086030  0.27534789  1
  O2-  O202  1  0.54018640  0.58890725  0.60064660  1
  O2-  O203  1  0.54553340  0.58426710  0.93667873  1
  O2-  O204  1  0.16990445  0.20197935  0.27175383  1
  O2-  O205  1  0.17044801  0.20906719  0.59874392  1
  O2-  O206  1  0.16957554  0.20037892  0.94353524  1
  O2-  O207  1  0.16265906  0.71153079  0.26813305  1
  O2-  O208  1  0.16474149  0.71614443  0.59362292  1
  O2-  O209  1  0.16286420  0.71533335  0.93163628  1
  O2-  O210  1  0.66707687  0.20633799  0.26162577  1
  O2-  O211  1  0.66487131  0.20632533  0.59807472  1
  O2-  O212  1  0.66742244  0.19940436  0.93897192  1
  O2-  O213  1  0.66277544  0.70468531  0.27106100  1
  O2-  O214  1  0.66297494  0.70641686  0.60253574  1
  O2-  O215  1  0.66267823  0.70634747  0.93342550  1
  O2-  O216  1  0.08163198  0.45768579  0.07006609  1
  O2-  O217  1  0.08961211  0.45482833  0.39966947  1
  O2-  O218  1  0.08909963  0.45927683  0.72408270  1
  O2-  O219  1  0.09151335  0.95859604  0.06693537  1
  O2-  O220  1  0.08893314  0.95667764  0.39990907  1
  O2-  O221  1  0.08391409  0.94247697  0.72997181  1
  O2-  O222  1  0.58033724  0.45494779  0.06827156  1
  O2-  O223  1  0.57782821  0.44847532  0.40233136  1
  O2-  O224  1  0.57983630  0.46051044  0.73257227  1
  O2-  O225  1  0.58322795  0.96199765  0.06676523  1
  O2-  O226  1  0.58599137  0.96273994  0.39508647  1
  O2-  O227  1  0.58349584  0.95710250  0.73016910  1
  O2-  O228  1  0.20919369  0.32993001  0.07116516  1
  O2-  O229  1  0.21102681  0.33624999  0.39918068  1
  O2-  O230  1  0.20735040  0.33914953  0.72817503  1
  O2-  O231  1  0.21121364  0.83960066  0.06420708  1
  O2-  O232  1  0.20853914  0.83739602  0.39822462  1
  O2-  O233  1  0.21433499  0.83567266  0.73232629  1
  O2-  O234  1  0.70619040  0.32812526  0.06685989  1
  O2-  O235  1  0.71077882  0.32628583  0.39874279  1
  O2-  O236  1  0.70044249  0.32774281  0.73334946  1
  O2-  O237  1  0.69001479  0.83312697  0.06142234  1
  O2-  O238  1  0.69814417  0.83698410  0.39352333  1
  O2-  O239  1  0.69366333  0.83215178  0.72876279  1
  O2-  O240  1  0.44286566  0.42024481  0.27580368  1
  O2-  O241  1  0.44849508  0.42048071  0.60462428  1
  O2-  O242  1  0.45342348  0.42114829  0.93469220  1
  O2-  O243  1  0.46130537  0.91413012  0.26458534  1
  O2-  O244  1  0.45708851  0.91270089  0.60499170  1
  O2-  O245  1  0.46128384  0.91722175  0.92940502  1
  O2-  O246  1  0.96487473  0.41626256  0.26599495  1
  O2-  O247  1  0.96216656  0.41449280  0.59559071  1
  O2-  O248  1  0.95960135  0.41519341  0.93334034  1
  O2-  O249  1  0.96626647  0.91557795  0.26591809  1
  O2-  O250  1  0.95634904  0.91352059  0.60257813  1
  O2-  O251  1  0.96669964  0.91878223  0.93177907  1
  O2-  O252  1  0.33439555  0.29044785  0.26745298  1
  O2-  O253  1  0.33452296  0.29748835  0.60389254  1
  O2-  O254  1  0.33425342  0.28751488  0.93356185  1
  O2-  O255  1  0.33166426  0.79171950  0.26805503  1
  O2-  O256  1  0.33916399  0.79188493  0.60223871  1
  O2-  O257  1  0.33221343  0.79347393  0.92828205  1
  O2-  O258  1  0.83682856  0.28632388  0.26266649  1
  O2-  O259  1  0.82919456  0.29009821  0.59890532  1
  O2-  O260  1  0.83397597  0.28331223  0.93430982  1
  O2-  O261  1  0.82837228  0.80048267  0.26804443  1
  O2-  O262  1  0.82898521  0.80284476  0.60774207  1
  O2-  O263  1  0.82158615  0.81342909  0.93671712  1
  O2-  O264  1  0.41541426  0.04095027  0.06324482  1
  O2-  O265  1  0.41403306  0.03829810  0.39344298  1
  O2-  O266  1  0.41377685  0.03617706  0.73767118  1
  O2-  O267  1  0.41843747  0.54864025  0.06795225  1
  O2-  O268  1  0.41162180  0.54877063  0.39866044  1
  O2-  O269  1  0.41322467  0.55182033  0.72616905  1
  O2-  O270  1  0.91964744  0.03917301  0.06990624  1
  O2-  O271  1  0.91440863  0.04199031  0.39442155  1
  O2-  O272  1  0.91887524  0.04052887  0.73211760  1
  O2-  O273  1  0.92074869  0.54713167  0.06638333  1
  O2-  O274  1  0.92313770  0.54554261  0.39821341  1
  O2-  O275  1  0.92597080  0.54618966  0.72760159  1
  O2-  O276  1  0.29702362  0.16162119  0.06740312  1
  O2-  O277  1  0.29730329  0.16175344  0.39598383  1
  O2-  O278  1  0.29307223  0.16935832  0.73481084  1
  O2-  O279  1  0.28938367  0.67236977  0.06568652  1
  O2-  O280  1  0.28873336  0.66427343  0.39832570  1
  O2-  O281  1  0.29028689  0.66565185  0.72514691  1
  O2-  O282  1  0.78782784  0.16160627  0.07210354  1
  O2-  O283  1  0.79066794  0.16010253  0.39243433  1
  O2-  O284  1  0.78725049  0.16348746  0.73265612  1
  O2-  O285  1  0.79296563  0.67392829  0.06212375  1
  O2-  O286  1  0.79362555  0.67226436  0.40072504  1
  O2-  O287  1  0.79368673  0.66967232  0.73414260  1
