# generated using pymatgen
data_Ca2Al2SiO7
_symmetry_space_group_name_H-M   'P 1'
_cell_length_a   15.45466822
_cell_length_b   15.45612202
_cell_length_c   15.28156042
_cell_angle_alpha   90.01036570
_cell_angle_beta   90.00343593
_cell_angle_gamma   90.00147651
_symmetry_Int_Tables_number   1
_chemical_formula_structural   Ca2Al2SiO7
_chemical_formula_sum   'Ca48 Al48 Si24 O168'
_cell_volume   3650.29462353
_cell_formula_units_Z   24
loop_
 _symmetry_equiv_pos_site_id
 _symmetry_equiv_pos_as_xyz
  1  'x, y, z'
loop_
 _atom_type_symbol
 _atom_type_oxidation_number
  Ca2+  2.0
  Al0+  0.0
  Si0+  0.0
  O2-  -2.0
loop_
 _atom_site_type_symbol
 _atom_site_label
 _atom_site_symmetry_multiplicity
 _atom_site_fract_x
 _atom_site_fract_y
 _atom_site_fract_z
 _atom_site_occupancy
  Ca2+  Ca0  1  0.16815341  0.07093905  0.16982003  1
  Ca2+  Ca1  1  0.16075525  0.07073515  0.50581934  1
  Ca2+  Ca2  1  0.15976750  0.07020530  0.83558328  1
  Ca2+  Ca3  1  0.17049023  0.58472575  0.16789932  1
  Ca2+  Ca4  1  0.17153685  0.58278584  0.50693487  1
  Ca2+  Ca5  1  0.16047035  0.57473363  0.83847117  1
  Ca2+  Ca6  1  0.66747571  0.07336199  0.17468743  1
  Ca2+  Ca7  1  0.67348079  0.07643033  0.50381040  1
  Ca2+  Ca8  1  0.67314448  0.08333093  0.83357764  1
  Ca2+  Ca9  1  0.66271516  0.57970350  0.17039329  1
  Ca2+  Ca10  1  0.67140050  0.58403240  0.50051972  1
  Ca2+  Ca11  1  0.67728185  0.58589997  0.84168589  1
  Ca2+  Ca12  1  0.07759095  0.33754062  0.16215452  1
  Ca2+  Ca13  1  0.08076697  0.32871852  0.49846168  1
  Ca2+  Ca14  1  0.09030917  0.32845295  0.82282727  1
  Ca2+  Ca15  1  0.07716665  0.83229934  0.15938556  1
  Ca2+  Ca16  1  0.08207389  0.83171321  0.49527173  1
  Ca2+  Ca17  1  0.08747678  0.82155488  0.83020018  1
  Ca2+  Ca18  1  0.57967335  0.34267941  0.15939572  1
  Ca2+  Ca19  1  0.58175477  0.33604755  0.49560336  1
  Ca2+  Ca20  1  0.57203172  0.34372824  0.83326867  1
  Ca2+  Ca21  1  0.58643172  0.82059666  0.16385593  1
  Ca2+  Ca22  1  0.57321234  0.82996698  0.48825752  1
  Ca2+  Ca23  1  0.57764203  0.82697989  0.82874574  1
  Ca2+  Ca24  1  0.32998982  0.42169265  0.16905859  1
  Ca2+  Ca25  1  0.33205832  0.42520514  0.50601779  1
  Ca2+  Ca26  1  0.32482897  0.40926421  0.83810888  1
  Ca2+  Ca27  1  0.32144658  0.90507424  0.17255680  1
  Ca2+  Ca28  1  0.32574373  0.90875919  0.50507129  1
  Ca2+  Ca29  1  0.32243682  0.90842646  0.83373729  1
  Ca2+  Ca30  1  0.82492594  0.42421269  0.17237203  1
  Ca2+  Ca31  1  0.83032885  0.41915995  0.50459359  1
  Ca2+  Ca32  1  0.83114585  0.43300837  0.84124296  1
  Ca2+  Ca33  1  0.83308704  0.91121395  0.17356163  1
  Ca2+  Ca34  1  0.82856998  0.91298791  0.50248627  1
  Ca2+  Ca35  1  0.84346028  0.92360534  0.83620448  1
  Ca2+  Ca36  1  0.41935411  0.17344858  0.16000390  1
  Ca2+  Ca37  1  0.41400348  0.17483485  0.50010764  1
  Ca2+  Ca38  1  0.41292889  0.17916531  0.82883421  1
  Ca2+  Ca39  1  0.42495392  0.66266847  0.16898669  1
  Ca2+  Ca40  1  0.41698707  0.67569126  0.49123608  1
  Ca2+  Ca41  1  0.42407180  0.66771510  0.82971756  1
  Ca2+  Ca42  1  0.91405981  0.17519180  0.16685687  1
  Ca2+  Ca43  1  0.91891313  0.16804092  0.49758393  1
  Ca2+  Ca44  1  0.92226568  0.16895965  0.82434863  1
  Ca2+  Ca45  1  0.91783867  0.67867070  0.15683557  1
  Ca2+  Ca46  1  0.92388417  0.66465813  0.49729135  1
  Ca2+  Ca47  1  0.92359518  0.66356831  0.83155421  1
  Al0+  Al48  1  0.00018560  0.00210358  0.00370912  1
  Al0+  Al49  1  0.00185336  0.00076594  0.33282947  1
  Al0+  Al50  1  -0.00044834  -0.00013538  0.67040862  1
  Al0+  Al51  1  -0.00145498  0.50149458  0.00679285  1
  Al0+  Al52  1  -0.00036260  0.49768641  0.32845250  1
  Al0+  Al53  1  -0.00017499  0.50001170  0.66914749  1
  Al0+  Al54  1  0.50098697  0.00209976  -0.00172900  1
  Al0+  Al55  1  0.49797782  0.00131938  0.33360322  1
  Al0+  Al56  1  0.49916930  0.00134331  0.66381522  1
  Al0+  Al57  1  0.49913568  0.50075923  -0.00779557  1
  Al0+  Al58  1  0.49929105  0.50052514  0.33996583  1
  Al0+  Al59  1  0.50017804  0.50084102  0.66141189  1
  Al0+  Al60  1  0.25012851  0.24944184  0.00262818  1
  Al0+  Al61  1  0.24980535  0.24814748  0.33156381  1
  Al0+  Al62  1  0.25016422  0.24891898  0.65797269  1
  Al0+  Al63  1  0.24885049  0.74904185  0.00140592  1
  Al0+  Al64  1  0.25048912  0.74843555  0.33831935  1
  Al0+  Al65  1  0.25062266  0.74830092  0.66416829  1
  Al0+  Al66  1  0.74967069  0.24966641  0.00214939  1
  Al0+  Al67  1  0.75006654  0.25088205  0.33319456  1
  Al0+  Al68  1  0.74805945  0.24881608  0.67214298  1
  Al0+  Al69  1  0.75053469  0.75368185  -0.00702200  1
  Al0+  Al70  1  0.75098269  0.74931123  0.33215428  1
  Al0+  Al71  1  0.74986894  0.74951759  0.67163038  1
  Al0+  Al72  1  0.57067903  0.67881495  0.31921493  1
  Al0+  Al73  1  0.92942666  0.82430096  0.98308716  1
  Al0+  Al74  1  0.17998002  0.93004577  0.34804613  1
  Al0+  Al75  1  0.67838273  0.43127112  0.01380521  1
  Al0+  Al76  1  0.92818981  0.32077867  0.31943171  1
  Al0+  Al77  1  0.18166469  0.42877474  0.67753694  1
  Al0+  Al78  1  0.06995035  0.17713909  0.65288562  1
  Al0+  Al79  1  0.31925368  0.56845868  0.34756061  1
  Al0+  Al80  1  0.07156773  0.67802938  0.98525311  1
  Al0+  Al81  1  0.18002046  0.92774221  0.68109339  1
  Al0+  Al82  1  0.82082972  0.57536734  0.01795467  1
  Al0+  Al83  1  0.06975370  0.67715468  0.65233828  1
  Al0+  Al84  1  0.17860494  0.42693633  0.01424354  1
  Al0+  Al85  1  0.82020005  0.06996568  0.68002188  1
  Al0+  Al86  1  0.42927013  0.32131123  0.65037212  1
  Al0+  Al87  1  0.18026716  0.92841104  0.01437532  1
  Al0+  Al88  1  0.57048359  0.67954226  0.98474051  1
  Al0+  Al89  1  0.42937487  0.32000654  0.98739577  1
  Al0+  Al90  1  0.93080595  0.82056775  0.32224648  1
  Al0+  Al91  1  0.42984037  0.82039187  0.65323274  1
  Al0+  Al92  1  0.42668740  0.82277190  0.31715147  1
  Al0+  Al93  1  0.82114249  0.57085488  0.68020925  1
  Al0+  Al94  1  0.67888395  0.92687775  0.34560938  1
  Al0+  Al95  1  0.67934393  0.42917161  0.34839952  1
  Si0+  Si96  1  0.32279988  0.07208440  0.01592092  1
  Si0+  Si97  1  0.42980557  0.32113160  0.31847422  1
  Si0+  Si98  1  0.67753766  0.93100872  0.01377950  1
  Si0+  Si99  1  0.57384892  0.17608363  0.98218811  1
  Si0+  Si100  1  0.67641180  0.42765547  0.68389548  1
  Si0+  Si101  1  0.92721587  0.32123480  0.98524019  1
  Si0+  Si102  1  0.07316635  0.67647378  0.31740316  1
  Si0+  Si103  1  0.57171871  0.17932343  0.31869002  1
  Si0+  Si104  1  0.17592579  0.42554484  0.35003554  1
  Si0+  Si105  1  0.92663995  0.32161068  0.65295616  1
  Si0+  Si106  1  0.57471619  0.67903047  0.64841194  1
  Si0+  Si107  1  0.32281247  0.07255693  0.68269476  1
  Si0+  Si108  1  0.06979011  0.18169649  0.98613657  1
  Si0+  Si109  1  0.42751123  0.82413349  0.98405148  1
  Si0+  Si110  1  0.92832505  0.82218262  0.65068881  1
  Si0+  Si111  1  0.82165147  0.07171025  0.01733297  1
  Si0+  Si112  1  0.32249181  0.57177692  0.01484719  1
  Si0+  Si113  1  0.07222376  0.17791307  0.31428928  1
  Si0+  Si114  1  0.32271966  0.07527383  0.35145453  1
  Si0+  Si115  1  0.57366418  0.17827560  0.64837008  1
  Si0+  Si116  1  0.32310251  0.57181327  0.68451934  1
  Si0+  Si117  1  0.82127312  0.07221602  0.34919207  1
  Si0+  Si118  1  0.82369223  0.57186789  0.34993667  1
  Si0+  Si119  1  0.67588443  0.92824506  0.68388828  1
  O2-  O120  1  0.25977050  -0.00111005  0.06065699  1
  O2-  O121  1  0.25679425  0.00351260  0.39413597  1
  O2-  O122  1  0.25615265  0.00231786  0.72750880  1
  O2-  O123  1  0.25185942  0.50409998  0.05856878  1
  O2-  O124  1  0.24289726  0.49491088  0.39426842  1
  O2-  O125  1  0.25633949  0.50128063  0.72839660  1
  O2-  O126  1  0.75025959  0.00020744  0.05695614  1
  O2-  O127  1  0.75529412  0.00039339  0.39254640  1
  O2-  O128  1  0.74674100  -0.00523438  0.72861713  1
  O2-  O129  1  0.74775073  0.50347815  0.06710177  1
  O2-  O130  1  0.75563609  0.50226422  0.39447791  1
  O2-  O131  1  0.74489689  0.49675025  0.72617649  1
  O2-  O132  1  0.00537956  0.24890927  0.27091392  1
  O2-  O133  1  -0.00581277  0.25196633  0.60790055  1
  O2-  O134  1  0.00213082  0.25497240  0.94197024  1
  O2-  O135  1  0.00436541  0.74553223  0.27463078  1
  O2-  O136  1  -0.00467612  0.75251516  0.60580648  1
  O2-  O137  1  -0.00026359  0.75012078  0.93433643  1
  O2-  O138  1  0.50070936  0.25016303  0.27592299  1
  O2-  O139  1  0.50646802  0.24836784  0.60407178  1
  O2-  O140  1  0.50608973  0.24669198  0.94025969  1
  O2-  O141  1  0.50199991  0.75393443  0.26795255  1
  O2-  O142  1  0.50630716  0.74817041  0.60571926  1
  O2-  O143  1  0.49573902  0.75547470  0.93945466  1
  O2-  O144  1  0.06737319  0.18153808  0.09131929  1
  O2-  O145  1  0.07128192  0.17718756  0.41984293  1
  O2-  O146  1  0.06922428  0.17829183  0.76655981  1
  O2-  O147  1  0.07349543  0.68135664  0.09904239  1
  O2-  O148  1  0.07141065  0.67526321  0.42332180  1
  O2-  O149  1  0.06976163  0.67558637  0.76498954  1
  O2-  O150  1  0.57278383  0.17171927  0.08784739  1
  O2-  O151  1  0.57231240  0.18040221  0.42375183  1
  O2-  O152  1  0.57400348  0.17691374  0.75383380  1
  O2-  O153  1  0.56906351  0.67883212  0.09759472  1
  O2-  O154  1  0.56977438  0.67972115  0.43282347  1
  O2-  O155  1  0.57392854  0.67939450  0.75423044  1
  O2-  O156  1  0.17815087  0.42469741  0.24431113  1
  O2-  O157  1  0.18225401  0.43005778  0.56439921  1
  O2-  O158  1  0.18122210  0.42194666  0.90115656  1
  O2-  O159  1  0.17932657  0.93266259  0.23474915  1
  O2-  O160  1  0.17932757  0.92946982  0.56802672  1
  O2-  O161  1  0.18035288  0.92982633  0.90122299  1
  O2-  O162  1  0.67835980  0.42863869  0.23567442  1
  O2-  O163  1  0.67815439  0.42597518  0.57809879  1
  O2-  O164  1  0.68059914  0.43130628  0.90012098  1
  O2-  O165  1  0.68042764  0.92973989  0.23215806  1
  O2-  O166  1  0.67640359  0.92939364  0.57822661  1
  O2-  O167  1  0.67403141  0.93550047  0.90877834  1
  O2-  O168  1  0.42987817  0.31782850  0.10094457  1
  O2-  O169  1  0.43002127  0.31869114  0.42348729  1
  O2-  O170  1  0.42901539  0.31913724  0.76359112  1
  O2-  O171  1  0.42944051  0.82582511  0.08920427  1
  O2-  O172  1  0.42769961  0.82064340  0.43086717  1
  O2-  O173  1  0.43166052  0.81805686  0.76694771  1
  O2-  O174  1  0.92609860  0.31616917  0.09039321  1
  O2-  O175  1  0.92829151  0.31848622  0.43278163  1
  O2-  O176  1  0.92762570  0.31995271  0.75874698  1
  O2-  O177  1  0.93132726  0.82582252  0.09704554  1
  O2-  O178  1  0.93122953  0.82039105  0.43551667  1
  O2-  O179  1  0.93038399  0.82290144  0.75596531  1
  O2-  O180  1  0.32079089  0.08187930  0.24596423  1
  O2-  O181  1  0.32264464  0.07213183  0.57713227  1
  O2-  O182  1  0.32062021  0.07495864  0.91052444  1
  O2-  O183  1  0.32049221  0.56479955  0.23416681  1
  O2-  O184  1  0.32203397  0.57060693  0.57880682  1
  O2-  O185  1  0.32318351  0.57130454  0.90922810  1
  O2-  O186  1  0.81854565  0.07399256  0.24330558  1
  O2-  O187  1  0.81792139  0.07005671  0.56697788  1
  O2-  O188  1  0.82220924  0.07333072  0.91220059  1
  O2-  O189  1  0.82343553  0.57111591  0.24486648  1
  O2-  O190  1  0.82062468  0.56934197  0.56675966  1
  O2-  O191  1  0.82090412  0.57152557  0.90406287  1
  O2-  O192  1  0.04375531  0.08613689  0.26629883  1
  O2-  O193  1  0.03590370  0.08159259  0.59871412  1
  O2-  O194  1  0.03827557  0.09096966  0.93912773  1
  O2-  O195  1  0.05056122  0.58218371  0.27130707  1
  O2-  O196  1  0.03754274  0.58107727  0.59731896  1
  O2-  O197  1  0.04299420  0.57775558  0.93510262  1
  O2-  O198  1  0.54335287  0.08829690  0.26963714  1
  O2-  O199  1  0.54716623  0.08547536  0.60086234  1
  O2-  O200  1  0.54734968  0.08412560  0.93239082  1
  O2-  O201  1  0.53665990  0.58056909  0.26824501  1
  O2-  O202  1  0.55066439  0.58494091  0.60302823  1
  O2-  O203  1  0.53885920  0.58540330  0.92659396  1
  O2-  O204  1  0.16672132  0.20117818  0.26814147  1
  O2-  O205  1  0.16463394  0.20669695  0.59529904  1
  O2-  O206  1  0.16290527  0.20555105  0.94015903  1
  O2-  O207  1  0.16686808  0.70219686  0.27326865  1
  O2-  O208  1  0.16671459  0.70681767  0.59908200  1
  O2-  O209  1  0.17083283  0.70529947  0.93216896  1
  O2-  O210  1  0.66341303  0.20513767  0.27044970  1
  O2-  O211  1  0.66769752  0.20355448  0.60224795  1
  O2-  O212  1  0.66837964  0.20048743  0.93707726  1
  O2-  O213  1  0.66982450  0.70416710  0.26673671  1
  O2-  O214  1  0.66897437  0.70432161  0.60355642  1
  O2-  O215  1  0.66507847  0.71311187  0.92881611  1
  O2-  O216  1  0.08204777  0.45481720  0.06912366  1
  O2-  O217  1  0.08061679  0.44801167  0.39379840  1
  O2-  O218  1  0.08454052  0.45631469  0.73176896  1
  O2-  O219  1  0.08598661  0.96637426  0.06886337  1
  O2-  O220  1  0.08412342  0.96449271  0.40235616  1
  O2-  O221  1  0.08469020  0.96087249  0.73542062  1
  O2-  O222  1  0.57760262  0.45806601  0.06290583  1
  O2-  O223  1  0.58395662  0.45910185  0.40454588  1
  O2-  O224  1  0.58181689  0.45448534  0.72733039  1
  O2-  O225  1  0.58658616  0.96070655  0.06302121  1
  O2-  O226  1  0.58237648  0.96059838  0.39869173  1
  O2-  O227  1  0.58332665  0.95798037  0.73030717  1
  O2-  O228  1  0.21177232  0.33181545  0.07087573  1
  O2-  O229  1  0.20207168  0.33090376  0.39390074  1
  O2-  O230  1  0.21260905  0.33035193  0.72869456  1
  O2-  O231  1  0.20816014  0.83139753  0.06893985  1
  O2-  O232  1  0.20748311  0.83290396  0.40174487  1
  O2-  O233  1  0.21316292  0.83115266  0.73398600  1
  O2-  O234  1  0.70464180  0.33081744  0.06524740  1
  O2-  O235  1  0.70981480  0.33183104  0.40211938  1
  O2-  O236  1  0.69800884  0.33349007  0.73044810  1
  O2-  O237  1  0.70404280  0.83874850  0.05893692  1
  O2-  O238  1  0.70932088  0.83126962  0.40141210  1
  O2-  O239  1  0.69817026  0.83419724  0.72987105  1
  O2-  O240  1  0.45850540  0.41261761  0.27290259  1
  O2-  O241  1  0.45854960  0.41829179  0.59592760  1
  O2-  O242  1  0.45679136  0.41503629  0.92922367  1
  O2-  O243  1  0.44693975  0.92482475  0.26785035  1
  O2-  O244  1  0.45593968  0.91902128  0.60048012  1
  O2-  O245  1  0.45329516  0.91804460  0.93737296  1
  O2-  O246  1  0.95662724  0.41652409  0.26213231  1
  O2-  O247  1  0.95329395  0.41382669  0.60590201  1
  O2-  O248  1  0.95024317  0.41558304  0.94279402  1
  O2-  O249  1  0.95908453  0.91838098  0.26837673  1
  O2-  O250  1  0.95378229  0.91570830  0.60511329  1
  O2-  O251  1  0.95945158  0.92431081  0.93320061  1
  O2-  O252  1  0.33725305  0.29343933  0.27151686  1
  O2-  O253  1  0.33577271  0.28757868  0.59245589  1
  O2-  O254  1  0.33369883  0.28424835  0.93352574  1
  O2-  O255  1  0.32942711  0.78767709  0.26610783  1
  O2-  O256  1  0.33471497  0.78770217  0.59834283  1
  O2-  O257  1  0.33385736  0.79751171  0.93937004  1
  O2-  O258  1  0.83306125  0.28645318  0.26379210  1
  O2-  O259  1  0.83193671  0.29547474  0.60880010  1
  O2-  O260  1  0.83706848  0.28861430  0.93711572  1
  O2-  O261  1  0.83437611  0.79179928  0.26710467  1
  O2-  O262  1  0.83216505  0.79859901  0.60828936  1
  O2-  O263  1  0.82985773  0.80387275  0.92942084  1
  O2-  O264  1  0.41932269  0.05326682  0.05982408  1
  O2-  O265  1  0.41773797  0.05543991  0.39679066  1
  O2-  O266  1  0.41794790  0.05145800  0.72852524  1
  O2-  O267  1  0.41484425  0.54208806  0.06051987  1
  O2-  O268  1  0.41311672  0.53582373  0.40554228  1
  O2-  O269  1  0.41878867  0.54772272  0.72744981  1
  O2-  O270  1  0.91261654  0.04589257  0.06704508  1
  O2-  O271  1  0.91658959  0.05084919  0.39247504  1
  O2-  O272  1  0.91559996  0.04059830  0.73713241  1
  O2-  O273  1  0.91791228  0.54644912  0.07240770  1
  O2-  O274  1  0.91793981  0.54418132  0.39468455  1
  O2-  O275  1  0.91565681  0.53747585  0.73626405  1
  O2-  O276  1  0.29218194  0.16242713  0.06613628  1
  O2-  O277  1  0.29380727  0.16777002  0.39973598  1
  O2-  O278  1  0.29457409  0.16605282  0.72690182  1
  O2-  O279  1  0.29896094  0.66506240  0.06252497  1
  O2-  O280  1  0.28992225  0.66406509  0.40409160  1
  O2-  O281  1  0.29729072  0.66474401  0.73029675  1
  O2-  O282  1  0.79218558  0.16266817  0.06602400  1
  O2-  O283  1  0.79159123  0.16370706  0.39694043  1
  O2-  O284  1  0.78898436  0.16565417  0.73766910  1
  O2-  O285  1  0.79387669  0.67674803  0.06453221  1
  O2-  O286  1  0.79788612  0.66464074  0.39702624  1
  O2-  O287  1  0.79219191  0.66737409  0.73596212  1
