# generated using pymatgen
data_Ca2Al2SiO7
_symmetry_space_group_name_H-M   'P 1'
_cell_length_a   15.45451892
_cell_length_b   15.45427384
_cell_length_c   15.28058988
_cell_angle_alpha   89.98720456
_cell_angle_beta   90.00397282
_cell_angle_gamma   90.00063248
_symmetry_Int_Tables_number   1
_chemical_formula_structural   Ca2Al2SiO7
_chemical_formula_sum   'Ca48 Al48 Si24 O168'
_cell_volume   3649.59103900
_cell_formula_units_Z   24
loop_
 _symmetry_equiv_pos_site_id
 _symmetry_equiv_pos_as_xyz
  1  'x, y, z'
loop_
 _atom_type_symbol
 _atom_type_oxidation_number
  Ca2+  2.0
  Al0+  0.0
  Si0+  0.0
  O2-  -2.0
loop_
 _atom_site_type_symbol
 _atom_site_label
 _atom_site_symmetry_multiplicity
 _atom_site_fract_x
 _atom_site_fract_y
 _atom_site_fract_z
 _atom_site_occupancy
  Ca2+  Ca0  1  0.16645111  0.08136530  0.17979445  1
  Ca2+  Ca1  1  0.17159141  0.08252511  0.50051880  1
  Ca2+  Ca2  1  0.17181122  0.08732362  0.83698059  1
  Ca2+  Ca3  1  0.16892807  0.58478278  0.17341601  1
  Ca2+  Ca4  1  0.16390825  0.58018337  0.50447698  1
  Ca2+  Ca5  1  0.17565802  0.59060414  0.83709062  1
  Ca2+  Ca6  1  0.67122029  0.07745871  0.18248108  1
  Ca2+  Ca7  1  0.67502597  0.08891210  0.49791918  1
  Ca2+  Ca8  1  0.67344223  0.08428458  0.83348793  1
  Ca2+  Ca9  1  0.66532186  0.57603419  0.17220962  1
  Ca2+  Ca10  1  0.66355507  0.57929931  0.49860420  1
  Ca2+  Ca11  1  0.67178001  0.57606594  0.84826254  1
  Ca2+  Ca12  1  0.08423193  0.32520672  0.16920509  1
  Ca2+  Ca13  1  0.07130806  0.33160758  0.48791817  1
  Ca2+  Ca14  1  0.07663299  0.32944881  0.82803380  1
  Ca2+  Ca15  1  0.08802499  0.82546338  0.16545592  1
  Ca2+  Ca16  1  0.09188109  0.82349068  0.49494712  1
  Ca2+  Ca17  1  0.08520584  0.82041501  0.83062415  1
  Ca2+  Ca18  1  0.59043632  0.33184237  0.16860167  1
  Ca2+  Ca19  1  0.57598214  0.32964716  0.49189738  1
  Ca2+  Ca20  1  0.57891192  0.33730447  0.82901091  1
  Ca2+  Ca21  1  0.59081402  0.82127399  0.16579876  1
  Ca2+  Ca22  1  0.57851274  0.83278526  0.49152954  1
  Ca2+  Ca23  1  0.57802398  0.82316981  0.82804416  1
  Ca2+  Ca24  1  0.32550221  0.42356371  0.17169840  1
  Ca2+  Ca25  1  0.32574334  0.41942915  0.50519123  1
  Ca2+  Ca26  1  0.33783400  0.42878370  0.83635248  1
  Ca2+  Ca27  1  0.32531916  0.92413209  0.17750350  1
  Ca2+  Ca28  1  0.33416307  0.92634362  0.50174657  1
  Ca2+  Ca29  1  0.33763823  0.91908852  0.83075353  1
  Ca2+  Ca30  1  0.82745378  0.41926360  0.17147018  1
  Ca2+  Ca31  1  0.82842265  0.40474051  0.50026000  1
  Ca2+  Ca32  1  0.82850994  0.41923925  0.83970807  1
  Ca2+  Ca33  1  0.82922321  0.92327618  0.17828330  1
  Ca2+  Ca34  1  0.83102765  0.92839627  0.50042291  1
  Ca2+  Ca35  1  0.83689515  0.92254809  0.83362594  1
  Ca2+  Ca36  1  0.41995520  0.16384638  0.16821422  1
  Ca2+  Ca37  1  0.41466241  0.16760772  0.49359248  1
  Ca2+  Ca38  1  0.41811929  0.17560251  0.82266162  1
  Ca2+  Ca39  1  0.42712366  0.66171994  0.16269763  1
  Ca2+  Ca40  1  0.41696945  0.67172821  0.49694005  1
  Ca2+  Ca41  1  0.41711233  0.66602932  0.82656590  1
  Ca2+  Ca42  1  0.92369547  0.16708784  0.16684456  1
  Ca2+  Ca43  1  0.91445077  0.17296475  0.49101503  1
  Ca2+  Ca44  1  0.92087477  0.17101402  0.82611731  1
  Ca2+  Ca45  1  0.92717525  0.66128738  0.16266108  1
  Ca2+  Ca46  1  0.92949493  0.66656856  0.49289426  1
  Ca2+  Ca47  1  0.92785965  0.65649883  0.83109571  1
  Al0+  Al48  1  0.00208096  0.00025967  -0.00544153  1
  Al0+  Al49  1  0.00050325  -0.00094154  0.34020138  1
  Al0+  Al50  1  -0.00040633  -0.00234063  0.67325285  1
  Al0+  Al51  1  -0.00004035  0.49798879  -0.00137437  1
  Al0+  Al52  1  0.00000526  0.50082773  0.32744812  1
  Al0+  Al53  1  -0.00161937  0.49738456  0.65882200  1
  Al0+  Al54  1  0.50069588  0.00118893  -0.00142899  1
  Al0+  Al55  1  0.49893603  0.00083371  0.33504472  1
  Al0+  Al56  1  0.50033334  -0.00219243  0.66906825  1
  Al0+  Al57  1  0.49932023  0.49977004  0.00475316  1
  Al0+  Al58  1  0.50068025  0.50115837  0.33398038  1
  Al0+  Al59  1  0.49882998  0.49820933  0.66551951  1
  Al0+  Al60  1  0.25130822  0.25062486  -0.00502220  1
  Al0+  Al61  1  0.24838638  0.25428303  0.33706718  1
  Al0+  Al62  1  0.24949075  0.24965751  0.66817937  1
  Al0+  Al63  1  0.25055273  0.75233864  0.00090686  1
  Al0+  Al64  1  0.25176843  0.75200366  0.33135839  1
  Al0+  Al65  1  0.25209278  0.74926218  0.66230655  1
  Al0+  Al66  1  0.74994205  0.24883276  0.00251845  1
  Al0+  Al67  1  0.74716132  0.25251817  0.33185903  1
  Al0+  Al68  1  0.75011547  0.24867650  0.67053945  1
  Al0+  Al69  1  0.75084877  0.75084207  -0.00305667  1
  Al0+  Al70  1  0.74986304  0.74938216  0.33459816  1
  Al0+  Al71  1  0.75179535  0.74885384  0.66800587  1
  Al0+  Al72  1  0.32051770  0.07342368  0.34739749  1
  Al0+  Al73  1  0.07205627  0.17838845  0.98485634  1
  Al0+  Al74  1  0.82359442  0.57259223  0.01508424  1
  Al0+  Al75  1  0.17810540  0.92723004  0.34908034  1
  Al0+  Al76  1  0.42814582  0.32178478  0.65288965  1
  Al0+  Al77  1  0.82017078  0.07082493  0.68262297  1
  Al0+  Al78  1  0.67836508  0.42845976  0.01651918  1
  Al0+  Al79  1  0.92615758  0.32147820  0.31518572  1
  Al0+  Al80  1  0.92863188  0.31824013  0.65306051  1
  Al0+  Al81  1  0.17725631  0.43176528  0.34638567  1
  Al0+  Al82  1  0.82113654  0.07241476  0.34701189  1
  Al0+  Al83  1  0.57087779  0.67929267  0.32008254  1
  Al0+  Al84  1  0.07228210  0.68041156  0.31855223  1
  Al0+  Al85  1  0.07138988  0.17831128  0.32143251  1
  Al0+  Al86  1  0.07127674  0.67811239  0.98631505  1
  Al0+  Al87  1  0.56823256  0.17971614  0.32080022  1
  Al0+  Al88  1  0.43083635  0.82073026  0.65190342  1
  Al0+  Al89  1  0.32108990  0.07156442  0.68249791  1
  Al0+  Al90  1  0.31919477  0.57307633  0.01450450  1
  Al0+  Al91  1  0.67820497  0.92607394  0.34806618  1
  Al0+  Al92  1  0.06997372  0.68021147  0.65244225  1
  Al0+  Al93  1  0.31922415  0.56977035  0.67897729  1
  Al0+  Al94  1  0.67907145  0.43053154  0.34958953  1
  Al0+  Al95  1  0.57063382  0.67811623  0.98593919  1
  Si0+  Si96  1  0.82224631  0.06929301  0.01465811  1
  Si0+  Si97  1  0.17476001  0.42836220  0.68357615  1
  Si0+  Si98  1  0.92654050  0.31937159  0.98260732  1
  Si0+  Si99  1  0.32242094  0.57219794  0.34995243  1
  Si0+  Si100  1  0.57132269  0.17838020  0.65187719  1
  Si0+  Si101  1  0.82238510  0.57133661  0.68014336  1
  Si0+  Si102  1  0.57399008  0.67671391  0.65065004  1
  Si0+  Si103  1  0.82283387  0.57183722  0.35109887  1
  Si0+  Si104  1  0.67801986  0.93026248  0.01352312  1
  Si0+  Si105  1  0.42885523  0.82330525  0.31482289  1
  Si0+  Si106  1  0.17921755  0.92674441  0.68601995  1
  Si0+  Si107  1  0.42884991  0.82352017  0.98328882  1
  Si0+  Si108  1  0.92763509  0.82193957  0.31869767  1
  Si0+  Si109  1  0.42656954  0.32382757  0.31571486  1
  Si0+  Si110  1  0.42949941  0.31999562  0.98545729  1
  Si0+  Si111  1  0.17841923  0.42616821  0.01474893  1
  Si0+  Si112  1  0.92649402  0.82345851  0.64929325  1
  Si0+  Si113  1  0.67927048  0.43009741  0.68116262  1
  Si0+  Si114  1  0.57183932  0.17739973  0.98420452  1
  Si0+  Si115  1  0.07216342  0.17539999  0.65058468  1
  Si0+  Si116  1  0.67789416  0.92522878  0.68580252  1
  Si0+  Si117  1  0.32185518  0.07295650  0.01376446  1
  Si0+  Si118  1  0.92809421  0.82328731  0.98258351  1
  Si0+  Si119  1  0.17952257  0.93126223  0.01382200  1
  O2-  O120  1  0.24982377  0.00338267  0.05532569  1
  O2-  O121  1  0.24763484  0.00233167  0.39744516  1
  O2-  O122  1  0.24469673  -0.00118765  0.73110647  1
  O2-  O123  1  0.24107329  0.50078631  0.05880759  1
  O2-  O124  1  0.25034288  0.50751433  0.39404049  1
  O2-  O125  1  0.24460632  0.49578172  0.72848720  1
  O2-  O126  1  0.75101323  -0.00128225  0.05617746  1
  O2-  O127  1  0.74851843  0.00013863  0.39690853  1
  O2-  O128  1  0.74701100  -0.00589792  0.73008462  1
  O2-  O129  1  0.74922566  0.50278635  0.06473481  1
  O2-  O130  1  0.75542870  0.50275063  0.39750725  1
  O2-  O131  1  0.74835729  0.50328384  0.72254112  1
  O2-  O132  1  -0.00184263  0.24743283  0.26813566  1
  O2-  O133  1  0.00288470  0.24323027  0.60725566  1
  O2-  O134  1  -0.00331715  0.25220159  0.93799055  1
  O2-  O135  1  -0.00208050  0.75597004  0.27252797  1
  O2-  O136  1  -0.00441153  0.75528177  0.60575549  1
  O2-  O137  1  -0.00768279  0.74912235  0.93967895  1
  O2-  O138  1  0.49297831  0.25278706  0.27123818  1
  O2-  O139  1  0.49868040  0.24273625  0.60798563  1
  O2-  O140  1  0.50245953  0.25025092  0.94302207  1
  O2-  O141  1  0.49865052  0.75546521  0.27117740  1
  O2-  O142  1  0.50783897  0.74767986  0.60681826  1
  O2-  O143  1  0.49508252  0.75212165  0.93915268  1
  O2-  O144  1  0.07228422  0.17578245  0.09721444  1
  O2-  O145  1  0.07176900  0.18096650  0.43481314  1
  O2-  O146  1  0.07088907  0.17830055  0.75703551  1
  O2-  O147  1  0.07286762  0.68238902  0.09896363  1
  O2-  O148  1  0.07129264  0.68016735  0.43176823  1
  O2-  O149  1  0.06926330  0.68060572  0.76600165  1
  O2-  O150  1  0.57040599  0.17291058  0.08872937  1
  O2-  O151  1  0.56785571  0.18237708  0.43400650  1
  O2-  O152  1  0.57228482  0.18202850  0.75845843  1
  O2-  O153  1  0.56991136  0.67991552  0.09872268  1
  O2-  O154  1  0.56751492  0.67859449  0.43336494  1
  O2-  O155  1  0.57352684  0.67656287  0.75661582  1
  O2-  O156  1  0.18074567  0.43160606  0.23277800  1
  O2-  O157  1  0.17447809  0.43089599  0.57821285  1
  O2-  O158  1  0.18190210  0.42387555  0.90894143  1
  O2-  O159  1  0.18087933  0.92605645  0.23456951  1
  O2-  O160  1  0.17972848  0.92700579  0.58098479  1
  O2-  O161  1  0.18062228  0.93053471  0.90872032  1
  O2-  O162  1  0.67822366  0.43256454  0.23693619  1
  O2-  O163  1  0.67918850  0.42943463  0.57637833  1
  O2-  O164  1  0.67913320  0.42784376  0.90181563  1
  O2-  O165  1  0.68161785  0.92650406  0.23346744  1
  O2-  O166  1  0.67799080  0.92367229  0.58092856  1
  O2-  O167  1  0.67662388  0.93344747  0.90830531  1
  O2-  O168  1  0.42542594  0.31619559  0.09008879  1
  O2-  O169  1  0.42860043  0.32498354  0.42141991  1
  O2-  O170  1  0.43338738  0.32373842  0.76674763  1
  O2-  O171  1  0.43067759  0.82749766  0.08837918  1
  O2-  O172  1  0.42865490  0.82143106  0.42049263  1
  O2-  O173  1  0.43238642  0.81894983  0.76568314  1
  O2-  O174  1  0.92471234  0.31667729  0.08745055  1
  O2-  O175  1  0.92715206  0.31942830  0.42919323  1
  O2-  O176  1  0.92882034  0.31868198  0.76669359  1
  O2-  O177  1  0.93058169  0.82948447  0.08763861  1
  O2-  O178  1  0.92648846  0.81827365  0.42429938  1
  O2-  O179  1  0.92635950  0.82238625  0.75528249  1
  O2-  O180  1  0.32054571  0.07071141  0.23272048  1
  O2-  O181  1  0.32105877  0.07111621  0.57033124  1
  O2-  O182  1  0.32288635  0.07204479  0.90866922  1
  O2-  O183  1  0.32264350  0.56984132  0.24386697  1
  O2-  O184  1  0.31910114  0.56863745  0.56635840  1
  O2-  O185  1  0.32022663  0.57187477  0.90101153  1
  O2-  O186  1  0.82036111  0.06913229  0.23253712  1
  O2-  O187  1  0.81756178  0.07238481  0.57050927  1
  O2-  O188  1  0.82028152  0.06915049  0.90924376  1
  O2-  O189  1  0.82115835  0.57235160  0.24561973  1
  O2-  O190  1  0.82194368  0.57297326  0.57544946  1
  O2-  O191  1  0.82285626  0.56827001  0.90044183  1
  O2-  O192  1  0.04650516  0.07727892  0.27101651  1
  O2-  O193  1  0.04827881  0.07951416  0.61019892  1
  O2-  O194  1  0.04201051  0.08261014  0.92795585  1
  O2-  O195  1  0.04087162  0.58554665  0.26241263  1
  O2-  O196  1  0.03794290  0.58442715  0.59821457  1
  O2-  O197  1  0.04519153  0.57969495  0.93243242  1
  O2-  O198  1  0.53943525  0.08262074  0.26528367  1
  O2-  O199  1  0.55186560  0.08228627  0.61068760  1
  O2-  O200  1  0.54234905  0.08719883  0.93348899  1
  O2-  O201  1  0.53728814  0.58385917  0.26502605  1
  O2-  O202  1  0.54564676  0.58405049  0.60502835  1
  O2-  O203  1  0.54026985  0.58026574  0.93384302  1
  O2-  O204  1  0.16909456  0.21083438  0.26753611  1
  O2-  O205  1  0.16649374  0.19947332  0.60715021  1
  O2-  O206  1  0.16838787  0.21015505  0.92944607  1
  O2-  O207  1  0.16938160  0.71083229  0.26468074  1
  O2-  O208  1  0.16601355  0.71063238  0.59863609  1
  O2-  O209  1  0.16684167  0.71511527  0.93251244  1
  O2-  O210  1  0.66301680  0.21167446  0.26435170  1
  O2-  O211  1  0.66323431  0.20907397  0.60661461  1
  O2-  O212  1  0.66455152  0.20399608  0.93722543  1
  O2-  O213  1  0.66843721  0.70797339  0.26633639  1
  O2-  O214  1  0.66924349  0.69911881  0.60665205  1
  O2-  O215  1  0.66720292  0.70947082  0.93065656  1
  O2-  O216  1  0.08245465  0.44363933  0.05746290  1
  O2-  O217  1  0.08019051  0.46220058  0.39927098  1
  O2-  O218  1  0.08074508  0.45502303  0.72887463  1
  O2-  O219  1  0.08707658  0.95824788  0.06001948  1
  O2-  O220  1  0.07963638  0.94847513  0.40403562  1
  O2-  O221  1  0.08424784  0.94662346  0.73283154  1
  O2-  O222  1  0.57978602  0.45370918  0.06938623  1
  O2-  O223  1  0.58275752  0.46365947  0.40373640  1
  O2-  O224  1  0.58726065  0.45673453  0.72904170  1
  O2-  O225  1  0.58708767  0.96030238  0.06148532  1
  O2-  O226  1  0.57934777  0.95306316  0.39881753  1
  O2-  O227  1  0.58525775  0.95128419  0.73391655  1
  O2-  O228  1  0.21226882  0.33508282  0.06189661  1
  O2-  O229  1  0.20797268  0.33747914  0.40384183  1
  O2-  O230  1  0.19818656  0.33384289  0.72868151  1
  O2-  O231  1  0.20840204  0.84072544  0.06274190  1
  O2-  O232  1  0.21194678  0.83026552  0.40233075  1
  O2-  O233  1  0.21115854  0.83461341  0.73177948  1
  O2-  O234  1  0.70699826  0.32897888  0.06784540  1
  O2-  O235  1  0.70660241  0.33356498  0.40360641  1
  O2-  O236  1  0.70803206  0.33927409  0.73042666  1
  O2-  O237  1  0.70317224  0.83704685  0.05846187  1
  O2-  O238  1  0.70648193  0.82866699  0.40295552  1
  O2-  O239  1  0.70495270  0.83158942  0.73317559  1
  O2-  O240  1  0.45610756  0.41606362  0.26923117  1
  O2-  O241  1  0.46187697  0.41598175  0.59661778  1
  O2-  O242  1  0.45763864  0.41217555  0.93907562  1
  O2-  O243  1  0.45177592  0.91740969  0.26921100  1
  O2-  O244  1  0.46052102  0.91801675  0.59889247  1
  O2-  O245  1  0.45797756  0.91626083  0.93502145  1
  O2-  O246  1  0.95643660  0.41896165  0.26218687  1
  O2-  O247  1  0.95615528  0.41366502  0.59598011  1
  O2-  O248  1  0.95080161  0.41337110  0.93639940  1
  O2-  O249  1  0.95044604  0.91674929  0.27432076  1
  O2-  O250  1  0.95131398  0.91811168  0.60579665  1
  O2-  O251  1  0.96025989  0.91345125  0.93166324  1
  O2-  O252  1  0.33243642  0.30095926  0.27018949  1
  O2-  O253  1  0.32944499  0.29502908  0.60178966  1
  O2-  O254  1  0.34016486  0.29126494  0.93341367  1
  O2-  O255  1  0.33646561  0.79649341  0.26678389  1
  O2-  O256  1  0.33612434  0.78888902  0.59643147  1
  O2-  O257  1  0.33451758  0.80053409  0.93770292  1
  O2-  O258  1  0.82741991  0.29525677  0.26309398  1
  O2-  O259  1  0.83121099  0.28642444  0.60153213  1
  O2-  O260  1  0.83338292  0.29104409  0.93537168  1
  O2-  O261  1  0.83488472  0.79544168  0.27102998  1
  O2-  O262  1  0.83258001  0.79818231  0.60413994  1
  O2-  O263  1  0.83310378  0.80479205  0.93593201  1
  O2-  O264  1  0.41406464  0.04426728  0.06043480  1
  O2-  O265  1  0.41770700  0.04358458  0.40141468  1
  O2-  O266  1  0.41809567  0.03965880  0.73718296  1
  O2-  O267  1  0.41358039  0.53821920  0.06936466  1
  O2-  O268  1  0.41415496  0.54355410  0.39707807  1
  O2-  O269  1  0.41643793  0.53784515  0.73348833  1
  O2-  O270  1  0.91498961  0.04047490  0.05897067  1
  O2-  O271  1  0.91775950  0.04486298  0.40310223  1
  O2-  O272  1  0.91664218  0.04027706  0.73895389  1
  O2-  O273  1  0.92197815  0.54251215  0.06736865  1
  O2-  O274  1  0.91730158  0.54722465  0.39482727  1
  O2-  O275  1  0.91301994  0.53817394  0.72713214  1
  O2-  O276  1  0.29613364  0.16572803  0.05919599  1
  O2-  O277  1  0.29591574  0.17261705  0.39938140  1
  O2-  O278  1  0.29206615  0.16914884  0.73785557  1
  O2-  O279  1  0.29254609  0.67098023  0.06791064  1
  O2-  O280  1  0.30106169  0.66782533  0.39211878  1
  O2-  O281  1  0.28957904  0.66701985  0.73301024  1
  O2-  O282  1  0.79515019  0.16098888  0.06108055  1
  O2-  O283  1  0.78835359  0.16968137  0.39864386  1
  O2-  O284  1  0.78577480  0.16535796  0.74048969  1
  O2-  O285  1  0.80070630  0.67433972  0.06327239  1
  O2-  O286  1  0.79637146  0.66468427  0.39805377  1
  O2-  O287  1  0.80048688  0.66417793  0.72910439  1
