# generated using pymatgen
data_Ca2Al2SiO7
_symmetry_space_group_name_H-M   'P 1'
_cell_length_a   15.47524404
_cell_length_b   15.47977456
_cell_length_c   15.29678266
_cell_angle_alpha   89.97996807
_cell_angle_beta   89.99930670
_cell_angle_gamma   89.97252499
_symmetry_Int_Tables_number   1
_chemical_formula_structural   Ca2Al2SiO7
_chemical_formula_sum   'Ca48 Al48 Si24 O168'
_cell_volume   3664.39395118
_cell_formula_units_Z   24
loop_
 _symmetry_equiv_pos_site_id
 _symmetry_equiv_pos_as_xyz
  1  'x, y, z'
loop_
 _atom_type_symbol
 _atom_type_oxidation_number
  Ca2+  2.0
  Al0+  0.0
  Si0+  0.0
  O2-  -2.0
loop_
 _atom_site_type_symbol
 _atom_site_label
 _atom_site_symmetry_multiplicity
 _atom_site_fract_x
 _atom_site_fract_y
 _atom_site_fract_z
 _atom_site_occupancy
  Ca2+  Ca0  1  0.16884584  0.06988914  0.17673331  1
  Ca2+  Ca1  1  0.16674369  0.08059502  0.49472971  1
  Ca2+  Ca2  1  0.17008640  0.07279995  0.84348405  1
  Ca2+  Ca3  1  0.17565470  0.59234626  0.17170783  1
  Ca2+  Ca4  1  0.17896927  0.59653615  0.49960961  1
  Ca2+  Ca5  1  0.17396571  0.59426059  0.83839821  1
  Ca2+  Ca6  1  0.66659681  0.08280247  0.16728095  1
  Ca2+  Ca7  1  0.66407214  0.08195488  0.49952756  1
  Ca2+  Ca8  1  0.67198443  0.07536023  0.84881072  1
  Ca2+  Ca9  1  0.67226263  0.59883584  0.16957970  1
  Ca2+  Ca10  1  0.66350107  0.58644907  0.50308374  1
  Ca2+  Ca11  1  0.66946762  0.58984254  0.84385750  1
  Ca2+  Ca12  1  0.08486865  0.32692401  0.16887738  1
  Ca2+  Ca13  1  0.07772453  0.32822805  0.48775251  1
  Ca2+  Ca14  1  0.08206181  0.33229647  0.83227684  1
  Ca2+  Ca15  1  0.08454501  0.82992870  0.15987616  1
  Ca2+  Ca16  1  0.08163443  0.82575849  0.48992993  1
  Ca2+  Ca17  1  0.08433968  0.82477409  0.83805923  1
  Ca2+  Ca18  1  0.57865984  0.32269549  0.16951322  1
  Ca2+  Ca19  1  0.57618402  0.32587604  0.48819820  1
  Ca2+  Ca20  1  0.58627324  0.32776848  0.83651480  1
  Ca2+  Ca21  1  0.57080477  0.82877795  0.16130025  1
  Ca2+  Ca22  1  0.57561671  0.82126542  0.49129580  1
  Ca2+  Ca23  1  0.58397589  0.82472329  0.83746839  1
  Ca2+  Ca24  1  0.34106054  0.42921856  0.17214612  1
  Ca2+  Ca25  1  0.33971822  0.42816566  0.49910504  1
  Ca2+  Ca26  1  0.33164665  0.43082022  0.83808921  1
  Ca2+  Ca27  1  0.32630660  0.91102489  0.17453521  1
  Ca2+  Ca28  1  0.33117093  0.91358767  0.49079471  1
  Ca2+  Ca29  1  0.32773843  0.91069879  0.84265929  1
  Ca2+  Ca30  1  0.83391427  0.42267136  0.17002443  1
  Ca2+  Ca31  1  0.83347102  0.41553429  0.49972971  1
  Ca2+  Ca32  1  0.82976261  0.42753597  0.84414939  1
  Ca2+  Ca33  1  0.82769093  0.90637198  0.16860258  1
  Ca2+  Ca34  1  0.83478738  0.91266038  0.49831433  1
  Ca2+  Ca35  1  0.82690518  0.91886829  0.85010806  1
  Ca2+  Ca36  1  0.42263628  0.16166138  0.16412207  1
  Ca2+  Ca37  1  0.41838614  0.17353179  0.48263500  1
  Ca2+  Ca38  1  0.42404871  0.16392746  0.83370630  1
  Ca2+  Ca39  1  0.41686224  0.67307602  0.15954290  1
  Ca2+  Ca40  1  0.42334706  0.66418851  0.49019114  1
  Ca2+  Ca41  1  0.41863962  0.66786082  0.83359689  1
  Ca2+  Ca42  1  0.91565778  0.16949943  0.16591314  1
  Ca2+  Ca43  1  0.92384980  0.17484388  0.48726236  1
  Ca2+  Ca44  1  0.91401121  0.16287973  0.83598713  1
  Ca2+  Ca45  1  0.92744857  0.67763257  0.16150028  1
  Ca2+  Ca46  1  0.93117588  0.67041316  0.49000255  1
  Ca2+  Ca47  1  0.92378915  0.66845928  0.83435405  1
  Al0+  Al48  1  0.00064356  0.00186091  0.00296284  1
  Al0+  Al49  1  -0.00284107  0.00114595  0.33403728  1
  Al0+  Al50  1  -0.00002137  0.00137865  0.66794731  1
  Al0+  Al51  1  -0.00045249  0.49795756  0.00030118  1
  Al0+  Al52  1  -0.00060439  0.50135572  0.32783169  1
  Al0+  Al53  1  -0.00016168  0.49936712  0.66290000  1
  Al0+  Al54  1  0.50111901  0.00074008  -0.00729623  1
  Al0+  Al55  1  0.50188787  -0.00271820  0.33317540  1
  Al0+  Al56  1  0.50084942  -0.00063647  0.66736799  1
  Al0+  Al57  1  0.49924475  0.49727021  0.00020925  1
  Al0+  Al58  1  0.50479986  0.49597070  0.33091906  1
  Al0+  Al59  1  0.49998640  0.49831825  0.66979442  1
  Al0+  Al60  1  0.24918409  0.25134148  -0.00353173  1
  Al0+  Al61  1  0.24902373  0.25286159  0.32856488  1
  Al0+  Al62  1  0.24981674  0.25033071  0.66828801  1
  Al0+  Al63  1  0.25015721  0.74965697  -0.00018869  1
  Al0+  Al64  1  0.25146311  0.74991939  0.33866370  1
  Al0+  Al65  1  0.24976988  0.75245508  0.66719333  1
  Al0+  Al66  1  0.74948806  0.25091883  -0.00121288  1
  Al0+  Al67  1  0.74919385  0.25097295  0.32908051  1
  Al0+  Al68  1  0.74991811  0.25026881  0.66780670  1
  Al0+  Al69  1  0.75022411  0.75124705  0.00311498  1
  Al0+  Al70  1  0.75231698  0.74954210  0.33392027  1
  Al0+  Al71  1  0.74871210  0.75063233  0.66430577  1
  Al0+  Al72  1  0.32056823  0.57126416  0.68104479  1
  Al0+  Al73  1  0.57018791  0.67838928  0.65332452  1
  Al0+  Al74  1  0.32238722  0.07172964  0.34588414  1
  Al0+  Al75  1  0.67767928  0.92850481  0.01764182  1
  Al0+  Al76  1  0.57203169  0.67614106  0.31946564  1
  Al0+  Al77  1  0.17639861  0.92862109  0.35000387  1
  Al0+  Al78  1  0.07112550  0.67969359  0.65192977  1
  Al0+  Al79  1  0.42949643  0.81860183  0.31976475  1
  Al0+  Al80  1  0.42715287  0.32206873  0.31856590  1
  Al0+  Al81  1  0.82083850  0.57180590  0.01452976  1
  Al0+  Al82  1  0.18134245  0.92964266  0.01252742  1
  Al0+  Al83  1  0.31944871  0.56904175  0.01372775  1
  Al0+  Al84  1  0.07092400  0.67730730  0.98479903  1
  Al0+  Al85  1  0.57062616  0.67731498  0.98625608  1
  Al0+  Al86  1  0.92947806  0.82321839  0.98553129  1
  Al0+  Al87  1  0.07221683  0.17830272  0.31750936  1
  Al0+  Al88  1  0.92882546  0.82268721  0.31979969  1
  Al0+  Al89  1  0.56985701  0.17639646  0.31951834  1
  Al0+  Al90  1  0.07334780  0.68106607  0.31825714  1
  Al0+  Al91  1  0.42765123  0.82100798  0.98407282  1
  Al0+  Al92  1  0.82113221  0.07271376  0.01739885  1
  Al0+  Al93  1  0.92805235  0.32194912  0.31683918  1
  Al0+  Al94  1  0.57049582  0.18038216  0.98467157  1
  Al0+  Al95  1  0.32278373  0.56931638  0.34627559  1
  Si0+  Si96  1  0.82013806  0.07184541  0.68088616  1
  Si0+  Si97  1  0.92882290  0.32013260  0.98284557  1
  Si0+  Si98  1  0.67918224  0.92899010  0.68195045  1
  Si0+  Si99  1  0.82127733  0.57113732  0.35061615  1
  Si0+  Si100  1  0.17650767  0.42610640  0.68257375  1
  Si0+  Si101  1  0.57131971  0.17896116  0.65205160  1
  Si0+  Si102  1  0.32152056  0.07364156  0.68151248  1
  Si0+  Si103  1  0.17838773  0.93158208  0.68279018  1
  Si0+  Si104  1  0.81862876  0.07412379  0.35022524  1
  Si0+  Si105  1  0.92833075  0.32020843  0.65289956  1
  Si0+  Si106  1  0.42901935  0.31908194  0.65276025  1
  Si0+  Si107  1  0.17680809  0.42506658  0.01702896  1
  Si0+  Si108  1  0.67793120  0.42778168  0.01815758  1
  Si0+  Si109  1  0.07097564  0.17860688  0.65290755  1
  Si0+  Si110  1  0.32235863  0.07421211  0.01310223  1
  Si0+  Si111  1  0.68204559  0.42699585  0.35003222  1
  Si0+  Si112  1  0.68031403  0.92718278  0.35131613  1
  Si0+  Si113  1  0.42559569  0.32181306  0.97969029  1
  Si0+  Si114  1  0.67967588  0.42738666  0.68253987  1
  Si0+  Si115  1  0.42746427  0.82366319  0.64872411  1
  Si0+  Si116  1  0.07191758  0.17925923  0.98327488  1
  Si0+  Si117  1  0.17527301  0.42964942  0.34935536  1
  Si0+  Si118  1  0.82116992  0.57012381  0.68000016  1
  Si0+  Si119  1  0.92765504  0.82343392  0.65140047  1
  O2-  O120  1  0.25782599  0.00303816  0.05683176  1
  O2-  O121  1  0.24863592  0.00259300  0.39916833  1
  O2-  O122  1  0.25216425  0.00116453  0.72343236  1
  O2-  O123  1  0.24352320  0.49516435  0.05975617  1
  O2-  O124  1  0.24565158  0.49626647  0.39438702  1
  O2-  O125  1  0.24158869  0.49847332  0.72559909  1
  O2-  O126  1  0.75234518  -0.00156866  0.06766781  1
  O2-  O127  1  0.75029574  0.00063762  0.39358011  1
  O2-  O128  1  0.75132530  -0.00036899  0.72309888  1
  O2-  O129  1  0.74034980  0.50231913  0.06123014  1
  O2-  O130  1  0.75047133  0.49996381  0.39386747  1
  O2-  O131  1  0.74760341  0.50181550  0.72340112  1
  O2-  O132  1  0.00013153  0.25032287  0.26752397  1
  O2-  O133  1  0.00066451  0.25060954  0.61149916  1
  O2-  O134  1  -0.00023330  0.24921524  0.93977523  1
  O2-  O135  1  0.00725013  0.75888076  0.27039389  1
  O2-  O136  1  -0.00457936  0.75441096  0.60740380  1
  O2-  O137  1  -0.00215232  0.74849654  0.93414556  1
  O2-  O138  1  0.49022506  0.24079460  0.27146800  1
  O2-  O139  1  0.49791528  0.24636875  0.60974213  1
  O2-  O140  1  0.49435230  0.25275719  0.93544411  1
  O2-  O141  1  0.49605933  0.74240633  0.26996279  1
  O2-  O142  1  0.49341050  0.75090084  0.60734039  1
  O2-  O143  1  0.49920641  0.74829326  0.93377393  1
  O2-  O144  1  0.07495374  0.18204948  0.08713009  1
  O2-  O145  1  0.06871580  0.18102211  0.43265417  1
  O2-  O146  1  0.06956032  0.17810050  0.75804982  1
  O2-  O147  1  0.07146294  0.67798761  0.09732664  1
  O2-  O148  1  0.07041089  0.68009935  0.43278104  1
  O2-  O149  1  0.06923190  0.67967866  0.76454052  1
  O2-  O150  1  0.57016255  0.18242251  0.09684300  1
  O2-  O151  1  0.57249892  0.18079657  0.43443654  1
  O2-  O152  1  0.57289314  0.18083391  0.75679756  1
  O2-  O153  1  0.56796767  0.67800918  0.09882246  1
  O2-  O154  1  0.57143536  0.67846900  0.43416236  1
  O2-  O155  1  0.57439893  0.68027099  0.76552523  1
  O2-  O156  1  0.17287841  0.43139451  0.24417722  1
  O2-  O157  1  0.17721843  0.41829657  0.57800782  1
  O2-  O158  1  0.17849576  0.42116686  0.91081028  1
  O2-  O159  1  0.17733348  0.92885187  0.23703618  1
  O2-  O160  1  0.17466992  0.93403595  0.57841362  1
  O2-  O161  1  0.18158685  0.93274987  0.89815530  1
  O2-  O162  1  0.68441556  0.42285919  0.24586156  1
  O2-  O163  1  0.68219434  0.42214232  0.57787303  1
  O2-  O164  1  0.68265768  0.42542718  0.91144351  1
  O2-  O165  1  0.68101964  0.92542912  0.24731207  1
  O2-  O166  1  0.67861692  0.93090723  0.57685104  1
  O2-  O167  1  0.67929908  0.93133390  0.90253678  1
  O2-  O168  1  0.42393940  0.32070563  0.08443201  1
  O2-  O169  1  0.43306950  0.32343658  0.43337745  1
  O2-  O170  1  0.43006370  0.31711791  0.75767158  1
  O2-  O171  1  0.42609316  0.82055633  0.09680516  1
  O2-  O172  1  0.43322776  0.81886088  0.43420254  1
  O2-  O173  1  0.42810761  0.82677799  0.75390643  1
  O2-  O174  1  0.92856235  0.32016866  0.08703555  1
  O2-  O175  1  0.92776287  0.31953838  0.43184528  1
  O2-  O176  1  0.92685640  0.31986604  0.75782203  1
  O2-  O177  1  0.93246377  0.82281016  0.09817566  1
  O2-  O178  1  0.92666252  0.81683722  0.43452741  1
  O2-  O179  1  0.92678154  0.82509731  0.75638788  1
  O2-  O180  1  0.32288410  0.06877418  0.23271245  1
  O2-  O181  1  0.32108352  0.07843627  0.57730385  1
  O2-  O182  1  0.31763279  0.07638067  0.90639356  1
  O2-  O183  1  0.32336456  0.56779626  0.23387622  1
  O2-  O184  1  0.32318014  0.56773932  0.56823705  1
  O2-  O185  1  0.31840806  0.56716016  0.89986865  1
  O2-  O186  1  0.81578145  0.07904097  0.24631944  1
  O2-  O187  1  0.81949125  0.07506094  0.57609317  1
  O2-  O188  1  0.81813372  0.07326353  0.90217415  1
  O2-  O189  1  0.81980079  0.57072645  0.24611625  1
  O2-  O190  1  0.82169122  0.56652849  0.57507423  1
  O2-  O191  1  0.82168782  0.56727063  0.90005774  1
  O2-  O192  1  0.04250665  0.08055620  0.26731772  1
  O2-  O193  1  0.04142247  0.08798476  0.60469700  1
  O2-  O194  1  0.04406153  0.08873443  0.93370945  1
  O2-  O195  1  0.04073707  0.58490162  0.26608427  1
  O2-  O196  1  0.04159953  0.58193850  0.59910023  1
  O2-  O197  1  0.04402054  0.57722853  0.93261790  1
  O2-  O198  1  0.55166440  0.07626825  0.26919102  1
  O2-  O199  1  0.54765122  0.08538996  0.60679130  1
  O2-  O200  1  0.54175818  0.08570482  0.92562044  1
  O2-  O201  1  0.55723425  0.57477105  0.27085405  1
  O2-  O202  1  0.54386764  0.57852701  0.60291449  1
  O2-  O203  1  0.54589435  0.57659343  0.93444908  1
  O2-  O204  1  0.16886246  0.20639442  0.26296383  1
  O2-  O205  1  0.16345151  0.20545815  0.60716351  1
  O2-  O206  1  0.16209636  0.20926734  0.93187864  1
  O2-  O207  1  0.17382342  0.70357452  0.27063540  1
  O2-  O208  1  0.16768444  0.71280575  0.59977857  1
  O2-  O209  1  0.16711755  0.71096627  0.93063912  1
  O2-  O210  1  0.66389448  0.21404876  0.26625044  1
  O2-  O211  1  0.66290662  0.20950985  0.60539414  1
  O2-  O212  1  0.66583163  0.21587493  0.92887543  1
  O2-  O213  1  0.66911060  0.71040088  0.27061145  1
  O2-  O214  1  0.66686903  0.70969855  0.59820054  1
  O2-  O215  1  0.66979407  0.70661647  0.93468624  1
  O2-  O216  1  0.08172743  0.44506821  0.06056004  1
  O2-  O217  1  0.08122863  0.45527133  0.39630838  1
  O2-  O218  1  0.08074822  0.44808303  0.72705895  1
  O2-  O219  1  0.08652992  0.96346867  0.06567679  1
  O2-  O220  1  0.07714030  0.95770109  0.40385137  1
  O2-  O221  1  0.08759069  0.96282013  0.73142447  1
  O2-  O222  1  0.58123166  0.44237398  0.05962836  1
  O2-  O223  1  0.59045276  0.45182752  0.39973564  1
  O2-  O224  1  0.58715780  0.44976661  0.73024545  1
  O2-  O225  1  0.57876900  0.96144270  0.06553149  1
  O2-  O226  1  0.58957172  0.95461464  0.40125676  1
  O2-  O227  1  0.58776619  0.95779345  0.72968052  1
  O2-  O228  1  0.20437939  0.33185434  0.06294582  1
  O2-  O229  1  0.19741650  0.33458803  0.39457104  1
  O2-  O230  1  0.20513738  0.33408136  0.73286086  1
  O2-  O231  1  0.20987246  0.83337487  0.06545382  1
  O2-  O232  1  0.20839922  0.83241887  0.40674423  1
  O2-  O233  1  0.20535729  0.83981799  0.72990482  1
  O2-  O234  1  0.71202174  0.33758287  0.06423847  1
  O2-  O235  1  0.71325372  0.33687418  0.40091078  1
  O2-  O236  1  0.71182241  0.33716148  0.73252937  1
  O2-  O237  1  0.70338240  0.83037732  0.07046642  1
  O2-  O238  1  0.71310213  0.83747443  0.40173381  1
  O2-  O239  1  0.70648609  0.83684952  0.72865569  1
  O2-  O240  1  0.46893659  0.41315487  0.26217338  1
  O2-  O241  1  0.45950782  0.40998163  0.60626526  1
  O2-  O242  1  0.45428980  0.41373618  0.93198707  1
  O2-  O243  1  0.46111119  0.91524663  0.26782235  1
  O2-  O244  1  0.45764621  0.91646417  0.60254778  1
  O2-  O245  1  0.45383955  0.91950638  0.92892782  1
  O2-  O246  1  0.95372778  0.41994771  0.26446181  1
  O2-  O247  1  0.95327380  0.41145015  0.60363695  1
  O2-  O248  1  0.95785828  0.41038958  0.93264105  1
  O2-  O249  1  0.94033360  0.92556104  0.27367308  1
  O2-  O250  1  0.95346881  0.91800016  0.60605591  1
  O2-  O251  1  0.95857560  0.92240355  0.93256348  1
  O2-  O252  1  0.32617580  0.30915053  0.26823476  1
  O2-  O253  1  0.33612773  0.29360209  0.60667180  1
  O2-  O254  1  0.33250040  0.29633653  0.93110580  1
  O2-  O255  1  0.32949048  0.79573485  0.27123435  1
  O2-  O256  1  0.33237347  0.80266567  0.60502730  1
  O2-  O257  1  0.33093785  0.78974286  0.92899678  1
  O2-  O258  1  0.83137762  0.29185874  0.26402842  1
  O2-  O259  1  0.83705372  0.29023884  0.60492549  1
  O2-  O260  1  0.83792758  0.29208271  0.93326490  1
  O2-  O261  1  0.83418306  0.78586872  0.26700556  1
  O2-  O262  1  0.83372056  0.79955344  0.60522761  1
  O2-  O263  1  0.82996338  0.79639885  0.93424172  1
  O2-  O264  1  0.41866470  0.05474271  0.05258359  1
  O2-  O265  1  0.42109516  0.04260042  0.40101994  1
  O2-  O266  1  0.41493743  0.04713051  0.72755724  1
  O2-  O267  1  0.41584803  0.53573735  0.06614858  1
  O2-  O268  1  0.41993198  0.53353799  0.39894042  1
  O2-  O269  1  0.41565530  0.53554808  0.73598623  1
  O2-  O270  1  0.92248541  0.05410978  0.06552969  1
  O2-  O271  1  0.91072187  0.04999725  0.39949406  1
  O2-  O272  1  0.91341506  0.04790673  0.72790509  1
  O2-  O273  1  0.91509363  0.53312371  0.06720326  1
  O2-  O274  1  0.91298393  0.54097794  0.39783272  1
  O2-  O275  1  0.91190262  0.53856601  0.72770462  1
  O2-  O276  1  0.29456072  0.16747557  0.05756001  1
  O2-  O277  1  0.29539327  0.17298511  0.39653568  1
  O2-  O278  1  0.29269494  0.16411246  0.73193353  1
  O2-  O279  1  0.28936860  0.66538174  0.06587809  1
  O2-  O280  1  0.29473688  0.66494581  0.40406999  1
  O2-  O281  1  0.29182007  0.66964698  0.73270948  1
  O2-  O282  1  0.78937570  0.17116023  0.06719017  1
  O2-  O283  1  0.78720895  0.16479964  0.39980532  1
  O2-  O284  1  0.79150921  0.16334591  0.72957691  1
  O2-  O285  1  0.79541101  0.66852291  0.06862008  1
  O2-  O286  1  0.79295119  0.66167824  0.40078775  1
  O2-  O287  1  0.79564013  0.66361804  0.72477971  1
