# generated using pymatgen
data_Ca2Al2SiO7
_symmetry_space_group_name_H-M   'P 1'
_cell_length_a   15.46551787
_cell_length_b   15.46509860
_cell_length_c   15.28933189
_cell_angle_alpha   89.99754654
_cell_angle_beta   90.01560606
_cell_angle_gamma   89.99624395
_symmetry_Int_Tables_number   1
_chemical_formula_structural   Ca2Al2SiO7
_chemical_formula_sum   'Ca48 Al48 Si24 O168'
_cell_volume   3656.83740981
_cell_formula_units_Z   24
loop_
 _symmetry_equiv_pos_site_id
 _symmetry_equiv_pos_as_xyz
  1  'x, y, z'
loop_
 _atom_type_symbol
 _atom_type_oxidation_number
  Ca2+  2.0
  Al0+  0.0
  Si0+  0.0
  O2-  -2.0
loop_
 _atom_site_type_symbol
 _atom_site_label
 _atom_site_symmetry_multiplicity
 _atom_site_fract_x
 _atom_site_fract_y
 _atom_site_fract_z
 _atom_site_occupancy
  Ca2+  Ca0  1  0.17290047  0.08339779  0.17608878  1
  Ca2+  Ca1  1  0.16891906  0.08536168  0.50019997  1
  Ca2+  Ca2  1  0.16768128  0.08986183  0.83689828  1
  Ca2+  Ca3  1  0.17222054  0.57524577  0.17341570  1
  Ca2+  Ca4  1  0.17709171  0.58366390  0.50122281  1
  Ca2+  Ca5  1  0.17145695  0.57304287  0.84298769  1
  Ca2+  Ca6  1  0.66136377  0.07671741  0.17058184  1
  Ca2+  Ca7  1  0.66308912  0.08233801  0.50499688  1
  Ca2+  Ca8  1  0.67275992  0.08704872  0.84192431  1
  Ca2+  Ca9  1  0.66758930  0.57643125  0.17649875  1
  Ca2+  Ca10  1  0.65898830  0.57195236  0.50412481  1
  Ca2+  Ca11  1  0.65469702  0.57986187  0.83426449  1
  Ca2+  Ca12  1  0.07904455  0.32551731  0.15720724  1
  Ca2+  Ca13  1  0.08107734  0.31953031  0.49429143  1
  Ca2+  Ca14  1  0.07918609  0.32512992  0.83297548  1
  Ca2+  Ca15  1  0.08454033  0.83526776  0.16641327  1
  Ca2+  Ca16  1  0.08157882  0.83643683  0.49248044  1
  Ca2+  Ca17  1  0.07970324  0.83368240  0.82883834  1
  Ca2+  Ca18  1  0.59035077  0.32178344  0.16552737  1
  Ca2+  Ca19  1  0.59109157  0.32529929  0.49895142  1
  Ca2+  Ca20  1  0.58375643  0.32486160  0.82470260  1
  Ca2+  Ca21  1  0.57543135  0.83583634  0.15864242  1
  Ca2+  Ca22  1  0.57401876  0.83473434  0.49225336  1
  Ca2+  Ca23  1  0.57986241  0.82806456  0.83099146  1
  Ca2+  Ca24  1  0.32943092  0.42181751  0.17223113  1
  Ca2+  Ca25  1  0.34175695  0.42038635  0.50512622  1
  Ca2+  Ca26  1  0.32930380  0.40904395  0.83855824  1
  Ca2+  Ca27  1  0.33312686  0.91992948  0.17781633  1
  Ca2+  Ca28  1  0.33554776  0.91897735  0.49661465  1
  Ca2+  Ca29  1  0.33710765  0.91347260  0.83603443  1
  Ca2+  Ca30  1  0.83073411  0.41945922  0.17273335  1
  Ca2+  Ca31  1  0.82150275  0.41836607  0.49994875  1
  Ca2+  Ca32  1  0.82922048  0.41405490  0.83596538  1
  Ca2+  Ca33  1  0.81839607  0.92152950  0.16763949  1
  Ca2+  Ca34  1  0.82205613  0.92223302  0.50295510  1
  Ca2+  Ca35  1  0.82487352  0.93052992  0.84005083  1
  Ca2+  Ca36  1  0.42763420  0.15797988  0.16700247  1
  Ca2+  Ca37  1  0.42545360  0.17126746  0.49439683  1
  Ca2+  Ca38  1  0.43213711  0.16974161  0.82818110  1
  Ca2+  Ca39  1  0.41829666  0.67714125  0.16165147  1
  Ca2+  Ca40  1  0.41937166  0.67508610  0.49647825  1
  Ca2+  Ca41  1  0.42688465  0.67726738  0.82924079  1
  Ca2+  Ca42  1  0.92735833  0.16724613  0.15672528  1
  Ca2+  Ca43  1  0.92539605  0.15645276  0.49646760  1
  Ca2+  Ca44  1  0.92090063  0.16235980  0.83105418  1
  Ca2+  Ca45  1  0.91269392  0.66600412  0.16476032  1
  Ca2+  Ca46  1  0.91628119  0.66481139  0.49361557  1
  Ca2+  Ca47  1  0.91842009  0.66853463  0.83127736  1
  Al0+  Al48  1  0.00056026  -0.00095596  -0.00032407  1
  Al0+  Al49  1  -0.00010623  -0.00229104  0.32928967  1
  Al0+  Al50  1  -0.00037617  -0.00162989  0.66736209  1
  Al0+  Al51  1  0.00036334  0.49820999  0.00084727  1
  Al0+  Al52  1  0.00031772  0.49983786  0.33742808  1
  Al0+  Al53  1  0.00092160  0.49886464  0.66636477  1
  Al0+  Al54  1  0.49842395  0.00076459  -0.00610721  1
  Al0+  Al55  1  0.49820749  0.00050718  0.33435163  1
  Al0+  Al56  1  0.49747004  -0.00034119  0.66256778  1
  Al0+  Al57  1  0.49917852  0.50167979  0.00043235  1
  Al0+  Al58  1  0.49950174  0.49936404  0.34093725  1
  Al0+  Al59  1  0.49908614  0.50272414  0.66831174  1
  Al0+  Al60  1  0.24849947  0.24928057  0.00359799  1
  Al0+  Al61  1  0.25073096  0.24973456  0.33270644  1
  Al0+  Al62  1  0.24858479  0.24923411  0.66010664  1
  Al0+  Al63  1  0.25036109  0.74943560  -0.00377349  1
  Al0+  Al64  1  0.24851525  0.74882812  0.33663205  1
  Al0+  Al65  1  0.24917157  0.74930480  0.66593658  1
  Al0+  Al66  1  0.75373172  0.25207382  -0.00204829  1
  Al0+  Al67  1  0.75228279  0.25063615  0.33207163  1
  Al0+  Al68  1  0.75228525  0.25248730  0.67116300  1
  Al0+  Al69  1  0.75017267  0.75017533  -0.00172817  1
  Al0+  Al70  1  0.75091194  0.75140835  0.34005868  1
  Al0+  Al71  1  0.75165589  0.74930534  0.66398922  1
  Al0+  Al72  1  0.42898334  0.81890737  0.31875978  1
  Al0+  Al73  1  0.82228265  0.07355566  0.01648276  1
  Al0+  Al74  1  0.67693720  0.93071752  0.34681505  1
  Al0+  Al75  1  0.57438333  0.18024381  0.65236380  1
  Al0+  Al76  1  0.42672015  0.82107260  0.64825974  1
  Al0+  Al77  1  0.06834867  0.17810890  0.65132306  1
  Al0+  Al78  1  0.57149373  0.18035299  0.98778351  1
  Al0+  Al79  1  0.07180698  0.17713277  0.98409173  1
  Al0+  Al80  1  0.57147478  0.18024070  0.31942522  1
  Al0+  Al81  1  0.92968537  0.32302692  0.98388104  1
  Al0+  Al82  1  0.82105676  0.06995789  0.67959434  1
  Al0+  Al83  1  0.07137643  0.17753913  0.31791150  1
  Al0+  Al84  1  0.32053937  0.57052747  0.34763234  1
  Al0+  Al85  1  0.42806109  0.32070470  0.65367938  1
  Al0+  Al86  1  0.32135155  0.07262373  0.34984433  1
  Al0+  Al87  1  0.82200571  0.57210449  0.34828513  1
  Al0+  Al88  1  0.67914563  0.42704800  0.34843364  1
  Al0+  Al89  1  0.57267128  0.68004535  0.64930202  1
  Al0+  Al90  1  0.67727042  0.93019898  0.01324053  1
  Al0+  Al91  1  0.67899629  0.43203967  0.68328610  1
  Al0+  Al92  1  0.17911096  0.42821896  0.01412728  1
  Al0+  Al93  1  0.57322083  0.67777362  0.98709532  1
  Al0+  Al94  1  0.42762374  0.82224459  0.98490365  1
  Al0+  Al95  1  0.17778396  0.92944740  0.34772526  1
  Si0+  Si96  1  0.17929366  0.42801723  0.68174095  1
  Si0+  Si97  1  0.92704868  0.82055001  0.31660130  1
  Si0+  Si98  1  0.82200482  0.07097618  0.34731340  1
  Si0+  Si99  1  0.42811994  0.32301346  0.98775585  1
  Si0+  Si100  1  0.67769801  0.42976803  0.01426156  1
  Si0+  Si101  1  0.31982205  0.07023226  0.01293306  1
  Si0+  Si102  1  0.82200181  0.57143887  0.01308200  1
  Si0+  Si103  1  0.07025718  0.67738490  0.65195882  1
  Si0+  Si104  1  0.92892971  0.82039193  0.98470845  1
  Si0+  Si105  1  0.17824766  0.42764990  0.35192078  1
  Si0+  Si106  1  0.93086092  0.82013749  0.65134077  1
  Si0+  Si107  1  0.32111607  0.57265508  0.01692728  1
  Si0+  Si108  1  0.42796182  0.32473112  0.31618536  1
  Si0+  Si109  1  0.31928937  0.57232355  0.68484201  1
  Si0+  Si110  1  0.92872932  0.32446664  0.64740535  1
  Si0+  Si111  1  0.67596305  0.92740204  0.68268928  1
  Si0+  Si112  1  0.07082298  0.67851876  0.98628444  1
  Si0+  Si113  1  0.17871672  0.92589696  0.01300255  1
  Si0+  Si114  1  0.17921521  0.92866389  0.68252694  1
  Si0+  Si115  1  0.82504186  0.57280125  0.68557825  1
  Si0+  Si116  1  0.06990563  0.67816311  0.31841395  1
  Si0+  Si117  1  0.57309924  0.67754868  0.31820906  1
  Si0+  Si118  1  0.93050016  0.32276673  0.31657820  1
  Si0+  Si119  1  0.31962712  0.07231918  0.68242856  1
  O2-  O120  1  0.24934600  -0.00279261  0.05342763  1
  O2-  O121  1  0.24683407  0.00238653  0.39970036  1
  O2-  O122  1  0.25082961  -0.00170075  0.72530683  1
  O2-  O123  1  0.25434667  0.50217207  0.06099250  1
  O2-  O124  1  0.24988322  0.49253032  0.39689897  1
  O2-  O125  1  0.25200175  0.49671041  0.72579642  1
  O2-  O126  1  0.74550587  0.00557811  0.06470994  1
  O2-  O127  1  0.74920036  0.00807040  0.39316857  1
  O2-  O128  1  0.74015459  0.00107503  0.72576642  1
  O2-  O129  1  0.74825160  0.50302843  0.05431569  1
  O2-  O130  1  0.74738372  0.50359982  0.39780832  1
  O2-  O131  1  0.75346793  0.50830981  0.73032251  1
  O2-  O132  1  -0.00189288  0.25353478  0.27213863  1
  O2-  O133  1  -0.00773578  0.25077664  0.60373164  1
  O2-  O134  1  -0.00234638  0.24677874  0.93425595  1
  O2-  O135  1  -0.00254550  0.74740446  0.27544953  1
  O2-  O136  1  -0.00207436  0.74563353  0.60855697  1
  O2-  O137  1  0.00148041  0.75013936  0.94233239  1
  O2-  O138  1  0.49692923  0.25614029  0.27248651  1
  O2-  O139  1  0.50266879  0.25268795  0.60239171  1
  O2-  O140  1  0.49946846  0.25840986  0.94274058  1
  O2-  O141  1  0.50549347  0.74588897  0.27215034  1
  O2-  O142  1  0.50405159  0.75470536  0.59892954  1
  O2-  O143  1  0.50268376  0.75184884  0.93817280  1
  O2-  O144  1  0.07295570  0.17844885  0.09744620  1
  O2-  O145  1  0.06767021  0.17759239  0.43133864  1
  O2-  O146  1  0.06980874  0.17949695  0.76404185  1
  O2-  O147  1  0.07084871  0.67938453  0.09119783  1
  O2-  O148  1  0.06907544  0.67848581  0.42379094  1
  O2-  O149  1  0.07001397  0.67841682  0.75751371  1
  O2-  O150  1  0.56859478  0.17942006  0.10094114  1
  O2-  O151  1  0.57221567  0.18140522  0.43207747  1
  O2-  O152  1  0.57259424  0.18117853  0.76629806  1
  O2-  O153  1  0.57192501  0.67458464  0.10063082  1
  O2-  O154  1  0.57116963  0.67929706  0.42349694  1
  O2-  O155  1  0.57009778  0.68158620  0.76308317  1
  O2-  O156  1  0.17682497  0.43156064  0.24618652  1
  O2-  O157  1  0.17754006  0.43154981  0.57694500  1
  O2-  O158  1  0.18099194  0.43033375  0.90046069  1
  O2-  O159  1  0.17857214  0.92822663  0.23365627  1
  O2-  O160  1  0.17628637  0.92757471  0.57820937  1
  O2-  O161  1  0.17803145  0.92328768  0.90764819  1
  O2-  O162  1  0.68118773  0.42771972  0.23416217  1
  O2-  O163  1  0.68179254  0.43183541  0.57065887  1
  O2-  O164  1  0.67676515  0.43101139  0.90948958  1
  O2-  O165  1  0.67840397  0.92838130  0.23385722  1
  O2-  O166  1  0.67960898  0.92631549  0.57695210  1
  O2-  O167  1  0.68104343  0.92894863  0.89956670  1
  O2-  O168  1  0.42853496  0.32423120  0.09321858  1
  O2-  O169  1  0.42746184  0.32427820  0.42143419  1
  O2-  O170  1  0.42554355  0.31596905  0.76781862  1
  O2-  O171  1  0.42332544  0.81995578  0.09831704  1
  O2-  O172  1  0.42898960  0.81714089  0.43136718  1
  O2-  O173  1  0.42276484  0.81733171  0.76173516  1
  O2-  O174  1  0.93337537  0.32760498  0.09736171  1
  O2-  O175  1  0.93234558  0.32369720  0.42222273  1
  O2-  O176  1  0.93355585  0.32977699  0.75247381  1
  O2-  O177  1  0.92901699  0.81802923  0.08967420  1
  O2-  O178  1  0.92925742  0.82157649  0.42188504  1
  O2-  O179  1  0.93445669  0.81929149  0.75674311  1
  O2-  O180  1  0.32133054  0.06967607  0.23552236  1
  O2-  O181  1  0.31699717  0.07348623  0.57808547  1
  O2-  O182  1  0.31856397  0.07190121  0.90760269  1
  O2-  O183  1  0.31636352  0.56983182  0.23427529  1
  O2-  O184  1  0.31479321  0.57419316  0.57989296  1
  O2-  O185  1  0.31780212  0.57349601  0.91128906  1
  O2-  O186  1  0.82272620  0.06767381  0.24211510  1
  O2-  O187  1  0.82529599  0.06340088  0.56648671  1
  O2-  O188  1  0.82324486  0.06868405  0.90264423  1
  O2-  O189  1  0.82313418  0.57060242  0.23404487  1
  O2-  O190  1  0.83096449  0.57032400  0.58069493  1
  O2-  O191  1  0.82619038  0.57136536  0.90833902  1
  O2-  O192  1  0.04080672  0.08075898  0.26422660  1
  O2-  O193  1  0.03870753  0.08007836  0.59936790  1
  O2-  O194  1  0.04733587  0.07680507  0.93220843  1
  O2-  O195  1  0.04314440  0.58565656  0.27132497  1
  O2-  O196  1  0.04515824  0.58531379  0.60404490  1
  O2-  O197  1  0.04116008  0.58814543  0.93758109  1
  O2-  O198  1  0.53722477  0.08449801  0.26575820  1
  O2-  O199  1  0.54600676  0.08117675  0.60205830  1
  O2-  O200  1  0.53792042  0.08669761  0.93063318  1
  O2-  O201  1  0.54758484  0.58221489  0.27563993  1
  O2-  O202  1  0.53894503  0.58281217  0.59856697  1
  O2-  O203  1  0.54066324  0.58068522  0.93240577  1
  O2-  O204  1  0.16934212  0.20685078  0.26616631  1
  O2-  O205  1  0.16294942  0.21127929  0.59602198  1
  O2-  O206  1  0.16989256  0.20972713  0.93197395  1
  O2-  O207  1  0.16023575  0.70729857  0.26975280  1
  O2-  O208  1  0.16052248  0.70762202  0.60413006  1
  O2-  O209  1  0.16171576  0.70468876  0.93614530  1
  O2-  O210  1  0.66902159  0.21015723  0.26567059  1
  O2-  O211  1  0.67381019  0.20839714  0.60151951  1
  O2-  O212  1  0.66894051  0.20888775  0.93593016  1
  O2-  O213  1  0.66879222  0.70159477  0.27585976  1
  O2-  O214  1  0.67484298  0.69913305  0.59981410  1
  O2-  O215  1  0.67215863  0.70231306  0.93256889  1
  O2-  O216  1  0.08444947  0.46354225  0.06895104  1
  O2-  O217  1  0.08676685  0.45730346  0.39962997  1
  O2-  O218  1  0.08856489  0.45936350  0.72999613  1
  O2-  O219  1  0.08634818  0.95034940  0.06033206  1
  O2-  O220  1  0.07767988  0.95493307  0.39957690  1
  O2-  O221  1  0.08793771  0.95653057  0.73162457  1
  O2-  O222  1  0.58556907  0.45571260  0.06249167  1
  O2-  O223  1  0.58060284  0.45094389  0.40240704  1
  O2-  O224  1  0.58158686  0.46238140  0.73729300  1
  O2-  O225  1  0.57690720  0.95651993  0.06319023  1
  O2-  O226  1  0.58156380  0.96020438  0.40168787  1
  O2-  O227  1  0.57954202  0.94646586  0.72500333  1
  O2-  O228  1  0.20855741  0.33255982  0.07009216  1
  O2-  O229  1  0.19988951  0.33267885  0.39530254  1
  O2-  O230  1  0.20617912  0.33527607  0.72760168  1
  O2-  O231  1  0.20454846  0.83324288  0.06041531  1
  O2-  O232  1  0.20345191  0.83066171  0.40104461  1
  O2-  O233  1  0.20465996  0.83542501  0.73009168  1
  O2-  O234  1  0.70801946  0.33916559  0.06182940  1
  O2-  O235  1  0.71410264  0.33087588  0.40253896  1
  O2-  O236  1  0.71135477  0.33624242  0.73819904  1
  O2-  O237  1  0.71074569  0.83213925  0.06546809  1
  O2-  O238  1  0.71149453  0.83667676  0.40324605  1
  O2-  O239  1  0.70861875  0.83498656  0.72778321  1
  O2-  O240  1  0.45223288  0.41946765  0.27111341  1
  O2-  O241  1  0.45015984  0.42224122  0.60616034  1
  O2-  O242  1  0.44774553  0.41788897  0.94161333  1
  O2-  O243  1  0.45781080  0.91661246  0.26692445  1
  O2-  O244  1  0.44752279  0.92186063  0.59828323  1
  O2-  O245  1  0.45239905  0.91985290  0.92956880  1
  O2-  O246  1  0.95793070  0.41669080  0.27117205  1
  O2-  O247  1  0.96029798  0.41591675  0.59940934  1
  O2-  O248  1  0.96245877  0.42007092  0.92895284  1
  O2-  O249  1  0.95745191  0.90951709  0.26587047  1
  O2-  O250  1  0.96429129  0.90870889  0.60250750  1
  O2-  O251  1  0.95869307  0.91060166  0.93577459  1
  O2-  O252  1  0.33352489  0.30084564  0.27059633  1
  O2-  O253  1  0.33111951  0.29282102  0.59743986  1
  O2-  O254  1  0.33520951  0.29396567  0.94248975  1
  O2-  O255  1  0.33117349  0.78606014  0.26758001  1
  O2-  O256  1  0.32866037  0.78708620  0.59704411  1
  O2-  O257  1  0.33009020  0.79088115  0.92964087  1
  O2-  O258  1  0.83675656  0.29967647  0.27050317  1
  O2-  O259  1  0.83352446  0.30317555  0.60510338  1
  O2-  O260  1  0.83085655  0.30021454  0.93029507  1
  O2-  O261  1  0.83539974  0.79235505  0.26896450  1
  O2-  O262  1  0.83865733  0.79653481  0.60345172  1
  O2-  O263  1  0.83962675  0.79058734  0.93435226  1
  O2-  O264  1  0.41154982  0.04268123  0.05983429  1
  O2-  O265  1  0.41757331  0.04149642  0.40394315  1
  O2-  O266  1  0.41245983  0.04620515  0.72942444  1
  O2-  O267  1  0.41476770  0.54896581  0.06332378  1
  O2-  O268  1  0.41656481  0.54444946  0.40416436  1
  O2-  O269  1  0.41183724  0.54980793  0.73180316  1
  O2-  O270  1  0.91988947  0.03839286  0.06791365  1
  O2-  O271  1  0.91325961  0.03771792  0.39358816  1
  O2-  O272  1  0.91513984  0.03104728  0.73524881  1
  O2-  O273  1  0.91279059  0.54263241  0.06246794  1
  O2-  O274  1  0.91989666  0.54250580  0.40301616  1
  O2-  O275  1  0.91859141  0.54440612  0.73279880  1
  O2-  O276  1  0.29173340  0.16031761  0.06317375  1
  O2-  O277  1  0.29532443  0.17223305  0.40152681  1
  O2-  O278  1  0.28679895  0.16292509  0.72961444  1
  O2-  O279  1  0.29077521  0.66519852  0.06269962  1
  O2-  O280  1  0.28245013  0.66313209  0.40415983  1
  O2-  O281  1  0.28351670  0.66136477  0.73326556  1
  O2-  O282  1  0.80252579  0.17508893  0.06567591  1
  O2-  O283  1  0.80473072  0.16675938  0.39118488  1
  O2-  O284  1  0.80049125  0.16926277  0.73212085  1
  O2-  O285  1  0.79853404  0.66437246  0.06021131  1
  O2-  O286  1  0.80150247  0.67167269  0.40139140  1
  O2-  O287  1  0.80490067  0.66923187  0.72891449  1
