# generated using pymatgen
data_Ca2Al2SiO7
_symmetry_space_group_name_H-M   'P 1'
_cell_length_a   15.47142356
_cell_length_b   15.46905552
_cell_length_c   15.29183646
_cell_angle_alpha   89.98396339
_cell_angle_beta   89.99813057
_cell_angle_gamma   90.03673820
_symmetry_Int_Tables_number   1
_chemical_formula_structural   Ca2Al2SiO7
_chemical_formula_sum   'Ca48 Al48 Si24 O168'
_cell_volume   3659.76847845
_cell_formula_units_Z   24
loop_
 _symmetry_equiv_pos_site_id
 _symmetry_equiv_pos_as_xyz
  1  'x, y, z'
loop_
 _atom_type_symbol
 _atom_type_oxidation_number
  Ca2+  2.0
  Al0+  0.0
  Si0+  0.0
  O2-  -2.0
loop_
 _atom_site_type_symbol
 _atom_site_label
 _atom_site_symmetry_multiplicity
 _atom_site_fract_x
 _atom_site_fract_y
 _atom_site_fract_z
 _atom_site_occupancy
  Ca2+  Ca0  1  0.16699168  0.07470332  0.17115625  1
  Ca2+  Ca1  1  0.17490583  0.07035965  0.50746197  1
  Ca2+  Ca2  1  0.17191608  0.07118338  0.84243252  1
  Ca2+  Ca3  1  0.15687053  0.57060595  0.17109784  1
  Ca2+  Ca4  1  0.16072468  0.57657922  0.50803750  1
  Ca2+  Ca5  1  0.16297888  0.57798750  0.83389380  1
  Ca2+  Ca6  1  0.67048267  0.08728082  0.16930981  1
  Ca2+  Ca7  1  0.68035273  0.08501640  0.50510565  1
  Ca2+  Ca8  1  0.67103509  0.08511916  0.83407859  1
  Ca2+  Ca9  1  0.67850736  0.58864924  0.16850806  1
  Ca2+  Ca10  1  0.67818036  0.57965115  0.50921156  1
  Ca2+  Ca11  1  0.67685780  0.58740151  0.83829280  1
  Ca2+  Ca12  1  0.08214618  0.32935239  0.15579369  1
  Ca2+  Ca13  1  0.08763169  0.33550599  0.49600816  1
  Ca2+  Ca14  1  0.08700057  0.33230106  0.83397091  1
  Ca2+  Ca15  1  0.08815601  0.83137468  0.16680238  1
  Ca2+  Ca16  1  0.08915706  0.82317621  0.49947050  1
  Ca2+  Ca17  1  0.08332822  0.83017789  0.82062607  1
  Ca2+  Ca18  1  0.57746774  0.32532598  0.15647713  1
  Ca2+  Ca19  1  0.58275923  0.33707543  0.49908710  1
  Ca2+  Ca20  1  0.58549039  0.32949300  0.82837445  1
  Ca2+  Ca21  1  0.58123146  0.82898390  0.15766777  1
  Ca2+  Ca22  1  0.57524246  0.83545163  0.50074280  1
  Ca2+  Ca23  1  0.57490628  0.82822380  0.82799589  1
  Ca2+  Ca24  1  0.31965433  0.41254879  0.16828764  1
  Ca2+  Ca25  1  0.32058676  0.42382524  0.50744556  1
  Ca2+  Ca26  1  0.32193238  0.42059504  0.83199867  1
  Ca2+  Ca27  1  0.32337358  0.92697499  0.17013886  1
  Ca2+  Ca28  1  0.32557118  0.91999497  0.50824468  1
  Ca2+  Ca29  1  0.32489045  0.91756558  0.83598645  1
  Ca2+  Ca30  1  0.84197218  0.42739382  0.16673689  1
  Ca2+  Ca31  1  0.83094505  0.43005128  0.50731805  1
  Ca2+  Ca32  1  0.83464869  0.42801450  0.83557254  1
  Ca2+  Ca33  1  0.83135523  0.92599112  0.17304695  1
  Ca2+  Ca34  1  0.84067729  0.92618413  0.50624713  1
  Ca2+  Ca35  1  0.84313492  0.92236384  0.83280645  1
  Ca2+  Ca36  1  0.41721166  0.16074331  0.15870633  1
  Ca2+  Ca37  1  0.41102185  0.16335415  0.49730009  1
  Ca2+  Ca38  1  0.41863341  0.15682295  0.82994107  1
  Ca2+  Ca39  1  0.42626781  0.66752194  0.15858066  1
  Ca2+  Ca40  1  0.40530956  0.67326190  0.50147831  1
  Ca2+  Ca41  1  0.41835836  0.66809657  0.82174518  1
  Ca2+  Ca42  1  0.92211917  0.17568904  0.15488568  1
  Ca2+  Ca43  1  0.91568349  0.16582119  0.49591309  1
  Ca2+  Ca44  1  0.92259357  0.17174595  0.82933526  1
  Ca2+  Ca45  1  0.91955587  0.66234521  0.16425394  1
  Ca2+  Ca46  1  0.92498598  0.66345320  0.49838643  1
  Ca2+  Ca47  1  0.91982524  0.67051748  0.82329980  1
  Al0+  Al48  1  -0.00005689  0.00101530  0.00295650  1
  Al0+  Al49  1  0.00008563  -0.00106048  0.33970326  1
  Al0+  Al50  1  0.00099107  0.00188353  0.67034722  1
  Al0+  Al51  1  -0.00113706  0.50190155  0.00308749  1
  Al0+  Al52  1  -0.00180357  0.50005578  0.33728559  1
  Al0+  Al53  1  -0.00316811  0.49758937  0.67021079  1
  Al0+  Al54  1  0.50061453  -0.00109001  -0.00158604  1
  Al0+  Al55  1  0.50051255  0.00021240  0.33336313  1
  Al0+  Al56  1  0.50332608  -0.00039461  0.66208827  1
  Al0+  Al57  1  0.50314481  0.49900284  -0.00471655  1
  Al0+  Al58  1  0.49869959  0.49878318  0.32891883  1
  Al0+  Al59  1  0.49919636  0.49599050  0.67018482  1
  Al0+  Al60  1  0.25113848  0.25077344  0.00191481  1
  Al0+  Al61  1  0.24966378  0.25037236  0.33831702  1
  Al0+  Al62  1  0.25261939  0.24988947  0.67151285  1
  Al0+  Al63  1  0.25051386  0.75030679  0.00529734  1
  Al0+  Al64  1  0.25022298  0.74872741  0.32599533  1
  Al0+  Al65  1  0.25057837  0.74939565  0.66400540  1
  Al0+  Al66  1  0.74826983  0.25284267  -0.00831473  1
  Al0+  Al67  1  0.74855994  0.25090899  0.33422182  1
  Al0+  Al68  1  0.75102026  0.24874034  0.67195565  1
  Al0+  Al69  1  0.75060339  0.75056968  0.00041070  1
  Al0+  Al70  1  0.75019428  0.75119900  0.33746848  1
  Al0+  Al71  1  0.74893793  0.75242462  0.66406821  1
  Al0+  Al72  1  0.81955735  0.07226706  0.34447917  1
  Al0+  Al73  1  0.07260508  0.17805034  0.98521671  1
  Al0+  Al74  1  0.57294892  0.67903006  0.98617241  1
  Al0+  Al75  1  0.32182686  0.07055533  0.34889411  1
  Al0+  Al76  1  0.18023668  0.43188100  0.01422610  1
  Al0+  Al77  1  0.17644350  0.42808639  0.68261793  1
  Al0+  Al78  1  0.17990833  0.92848697  0.68158560  1
  Al0+  Al79  1  0.81924388  0.57348842  0.68257554  1
  Al0+  Al80  1  0.17863346  0.43042213  0.34613550  1
  Al0+  Al81  1  0.92762563  0.82449995  0.65130914  1
  Al0+  Al82  1  0.82222089  0.06991174  0.68229876  1
  Al0+  Al83  1  0.06913322  0.67736193  0.65278046  1
  Al0+  Al84  1  0.81905382  0.57193012  0.01513071  1
  Al0+  Al85  1  0.32407357  0.07016152  0.68215730  1
  Al0+  Al86  1  0.06932585  0.67801796  0.31778522  1
  Al0+  Al87  1  0.67856966  0.42791464  0.68187211  1
  Al0+  Al88  1  0.17543112  0.92693495  0.01760020  1
  Al0+  Al89  1  0.32233463  0.06961615  0.01452103  1
  Al0+  Al90  1  0.17894157  0.92535023  0.35071871  1
  Al0+  Al91  1  0.31991814  0.57212333  0.67938923  1
  Al0+  Al92  1  0.56930976  0.17789356  0.98460397  1
  Al0+  Al93  1  0.42992795  0.82007891  0.65241151  1
  Al0+  Al94  1  0.81982628  0.57144021  0.34803040  1
  Al0+  Al95  1  0.92977605  0.32399093  0.98332751  1
  Si0+  Si96  1  0.42981552  0.82191553  0.31549710  1
  Si0+  Si97  1  0.92814656  0.31822727  0.65003342  1
  Si0+  Si98  1  0.67748128  0.92884995  0.68318138  1
  Si0+  Si99  1  0.42893125  0.81953357  0.98392860  1
  Si0+  Si100  1  0.68072515  0.93021615  0.01328471  1
  Si0+  Si101  1  0.67733847  0.92753960  0.34991869  1
  Si0+  Si102  1  0.81999911  0.07405260  0.01393833  1
  Si0+  Si103  1  0.57234966  0.17998301  0.64856022  1
  Si0+  Si104  1  0.57142776  0.17997871  0.31885382  1
  Si0+  Si105  1  0.57152350  0.67490270  0.64879580  1
  Si0+  Si106  1  0.57213918  0.67886684  0.31892107  1
  Si0+  Si107  1  0.32524892  0.57056465  0.34617788  1
  Si0+  Si108  1  0.32549684  0.57256294  0.01656875  1
  Si0+  Si109  1  0.42767933  0.32061643  0.31768217  1
  Si0+  Si110  1  0.07092433  0.68032153  0.98767702  1
  Si0+  Si111  1  0.42825808  0.32062192  0.64932654  1
  Si0+  Si112  1  0.92682117  0.82347815  0.31602807  1
  Si0+  Si113  1  0.67736126  0.42687497  0.01795819  1
  Si0+  Si114  1  0.67544597  0.42861480  0.34711787  1
  Si0+  Si115  1  0.92880317  0.82187358  0.98864216  1
  Si0+  Si116  1  0.07080427  0.17876448  0.32111552  1
  Si0+  Si117  1  0.07332649  0.18059368  0.65130622  1
  Si0+  Si118  1  0.42719392  0.32297520  0.98092577  1
  Si0+  Si119  1  0.92777104  0.31988069  0.31995615  1
  O2-  O120  1  0.24578339  0.00268112  0.06468051  1
  O2-  O121  1  0.25203297  -0.00279708  0.39853152  1
  O2-  O122  1  0.25186434  -0.00027318  0.73218048  1
  O2-  O123  1  0.25607146  0.50548576  0.06209214  1
  O2-  O124  1  0.25196356  0.50724669  0.38984586  1
  O2-  O125  1  0.24453371  0.50488559  0.73033438  1
  O2-  O126  1  0.74900272  0.00329896  0.05678394  1
  O2-  O127  1  0.74709582  -0.00415000  0.39208767  1
  O2-  O128  1  0.75171471  -0.00914285  0.72801836  1
  O2-  O129  1  0.74544567  0.49567732  0.06262365  1
  O2-  O130  1  0.74197943  0.49856652  0.39122222  1
  O2-  O131  1  0.74440880  0.50449027  0.73257509  1
  O2-  O132  1  -0.00182854  0.24820264  0.27828757  1
  O2-  O133  1  0.00258950  0.25138929  0.60657839  1
  O2-  O134  1  0.00130524  0.25078645  0.93438070  1
  O2-  O135  1  -0.00502829  0.75452463  0.27117652  1
  O2-  O136  1  -0.00266554  0.74996985  0.60177024  1
  O2-  O137  1  0.00580322  0.75723273  0.94780635  1
  O2-  O138  1  0.49743801  0.24751825  0.27625536  1
  O2-  O139  1  0.49988051  0.24949323  0.60647876  1
  O2-  O140  1  0.49332816  0.25089151  0.93781331  1
  O2-  O141  1  0.50162028  0.74997008  0.27520233  1
  O2-  O142  1  0.50138538  0.74183418  0.60365760  1
  O2-  O143  1  0.49203393  0.74595317  0.93940954  1
  O2-  O144  1  0.06799696  0.17805659  0.09993055  1
  O2-  O145  1  0.06986607  0.18120882  0.42627843  1
  O2-  O146  1  0.07112568  0.18158306  0.75604530  1
  O2-  O147  1  0.06751081  0.67798686  0.09303485  1
  O2-  O148  1  0.06809650  0.67517315  0.43007687  1
  O2-  O149  1  0.06802986  0.67808109  0.76695939  1
  O2-  O150  1  0.57079002  0.17958585  0.09858352  1
  O2-  O151  1  0.57489609  0.18248042  0.42355523  1
  O2-  O152  1  0.57252364  0.17977320  0.75348917  1
  O2-  O153  1  0.57321223  0.68361957  0.10021303  1
  O2-  O154  1  0.57158228  0.67819549  0.42346680  1
  O2-  O155  1  0.57144107  0.67811236  0.75437441  1
  O2-  O156  1  0.17942730  0.42868111  0.23294839  1
  O2-  O157  1  0.17974258  0.42659177  0.56868005  1
  O2-  O158  1  0.17974649  0.43486386  0.90192365  1
  O2-  O159  1  0.17956671  0.92855756  0.23707272  1
  O2-  O160  1  0.18120280  0.92917686  0.56811444  1
  O2-  O161  1  0.17614644  0.92321317  0.90470873  1
  O2-  O162  1  0.67408562  0.42726343  0.24181364  1
  O2-  O163  1  0.68166961  0.42804920  0.56724429  1
  O2-  O164  1  0.67722097  0.42704660  0.91303925  1
  O2-  O165  1  0.67677224  0.92734834  0.24378718  1
  O2-  O166  1  0.67409789  0.93407880  0.57742110  1
  O2-  O167  1  0.68203746  0.92947988  0.90874274  1
  O2-  O168  1  0.43033710  0.32460801  0.08726988  1
  O2-  O169  1  0.43012486  0.32361960  0.42240913  1
  O2-  O170  1  0.42834897  0.32065767  0.75396306  1
  O2-  O171  1  0.43381464  0.81980564  0.08998393  1
  O2-  O172  1  0.43107935  0.82210823  0.42041663  1
  O2-  O173  1  0.43399323  0.82040115  0.76538580  1
  O2-  O174  1  0.93024312  0.32194270  0.09823022  1
  O2-  O175  1  0.92575539  0.31840241  0.42502837  1
  O2-  O176  1  0.92645563  0.31621541  0.75462564  1
  O2-  O177  1  0.92427208  0.82072352  0.09388629  1
  O2-  O178  1  0.92490206  0.82371508  0.42077979  1
  O2-  O179  1  0.92993906  0.82377618  0.76571781  1
  O2-  O180  1  0.32286379  0.07031486  0.23557296  1
  O2-  O181  1  0.32163976  0.06913070  0.56845238  1
  O2-  O182  1  0.32520809  0.06296729  0.90175409  1
  O2-  O183  1  0.33156312  0.56552804  0.24072645  1
  O2-  O184  1  0.32092148  0.56829602  0.56531829  1
  O2-  O185  1  0.32452253  0.57341152  0.91150894  1
  O2-  O186  1  0.81583511  0.07339248  0.23100416  1
  O2-  O187  1  0.81844517  0.07321853  0.56887791  1
  O2-  O188  1  0.82014171  0.07138400  0.90929687  1
  O2-  O189  1  0.81903165  0.57030624  0.23467251  1
  O2-  O190  1  0.81926712  0.56972271  0.56867177  1
  O2-  O191  1  0.81786582  0.57515937  0.90304143  1
  O2-  O192  1  0.04424250  0.08569853  0.27569525  1
  O2-  O193  1  0.04367935  0.08923259  0.60447595  1
  O2-  O194  1  0.04164864  0.07958190  0.93355662  1
  O2-  O195  1  0.03342395  0.58148981  0.26460158  1
  O2-  O196  1  0.03879020  0.57776820  0.60124141  1
  O2-  O197  1  0.03782761  0.59121860  0.93985208  1
  O2-  O198  1  0.54853740  0.08632947  0.27199421  1
  O2-  O199  1  0.54803568  0.08817360  0.59952001  1
  O2-  O200  1  0.54264160  0.08008957  0.93068992  1
  O2-  O201  1  0.54429130  0.58717983  0.26988149  1
  O2-  O202  1  0.54883387  0.57935671  0.60561906  1
  O2-  O203  1  0.55179536  0.57995588  0.93392950  1
  O2-  O204  1  0.16226019  0.20860325  0.27418883  1
  O2-  O205  1  0.16576601  0.20852414  0.60494315  1
  O2-  O206  1  0.17194887  0.20502751  0.93475828  1
  O2-  O207  1  0.16720121  0.70342445  0.26198593  1
  O2-  O208  1  0.16824194  0.70313500  0.59953930  1
  O2-  O209  1  0.16610492  0.70081842  0.94422528  1
  O2-  O210  1  0.66159686  0.21080568  0.26858847  1
  O2-  O211  1  0.66408314  0.21119838  0.60202971  1
  O2-  O212  1  0.66460621  0.20902567  0.92872645  1
  O2-  O213  1  0.66420006  0.70792038  0.27177877  1
  O2-  O214  1  0.66380363  0.70369682  0.60137922  1
  O2-  O215  1  0.66626664  0.71792738  0.93179138  1
  O2-  O216  1  0.08434936  0.46420705  0.06907138  1
  O2-  O217  1  0.08230374  0.45823193  0.40068065  1
  O2-  O218  1  0.07683255  0.44946665  0.73394956  1
  O2-  O219  1  0.07660997  0.95454428  0.07174831  1
  O2-  O220  1  0.08037994  0.95222882  0.40251826  1
  O2-  O221  1  0.08255877  0.95807589  0.73454244  1
  O2-  O222  1  0.58304375  0.45112637  0.06391518  1
  O2-  O223  1  0.58125150  0.45277137  0.39298006  1
  O2-  O224  1  0.57782593  0.44572603  0.73268971  1
  O2-  O225  1  0.58912182  0.95614919  0.06209139  1
  O2-  O226  1  0.58471206  0.95464121  0.39615477  1
  O2-  O227  1  0.58777577  0.96191696  0.73172004  1
  O2-  O228  1  0.20954555  0.33469554  0.06848297  1
  O2-  O229  1  0.21091776  0.33567211  0.40169366  1
  O2-  O230  1  0.21214728  0.33284405  0.73634422  1
  O2-  O231  1  0.20668762  0.82942507  0.07227595  1
  O2-  O232  1  0.20899891  0.82513880  0.39789935  1
  O2-  O233  1  0.20776883  0.82971470  0.73216139  1
  O2-  O234  1  0.70268370  0.33239729  0.06317624  1
  O2-  O235  1  0.70166598  0.33590365  0.39424255  1
  O2-  O236  1  0.71065154  0.33168843  0.73570599  1
  O2-  O237  1  0.71126926  0.84069715  0.06385808  1
  O2-  O238  1  0.69958681  0.83446128  0.39750848  1
  O2-  O239  1  0.69382794  0.83266827  0.72611945  1
  O2-  O240  1  0.45669397  0.41077684  0.26650576  1
  O2-  O241  1  0.45667747  0.41177966  0.59973967  1
  O2-  O242  1  0.45642003  0.41479362  0.93353646  1
  O2-  O243  1  0.46069249  0.91312281  0.26773563  1
  O2-  O244  1  0.46714696  0.91420757  0.59548966  1
  O2-  O245  1  0.46151593  0.90996537  0.93694558  1
  O2-  O246  1  0.95674738  0.41137408  0.27327266  1
  O2-  O247  1  0.95206783  0.41136745  0.60349327  1
  O2-  O248  1  0.95908489  0.42275251  0.93255853  1
  O2-  O249  1  0.95237636  0.91804668  0.27022537  1
  O2-  O250  1  0.95599568  0.92440874  0.60048472  1
  O2-  O251  1  0.94975226  0.91599421  0.94335035  1
  O2-  O252  1  0.33548360  0.29296877  0.27081691  1
  O2-  O253  1  0.33692912  0.29175305  0.60074131  1
  O2-  O254  1  0.33249992  0.30214277  0.93693998  1
  O2-  O255  1  0.33953603  0.79477011  0.26539507  1
  O2-  O256  1  0.33451208  0.79089226  0.59538456  1
  O2-  O257  1  0.33303353  0.79872141  0.94160760  1
  O2-  O258  1  0.83559532  0.29327448  0.27159458  1
  O2-  O259  1  0.83760335  0.28521559  0.60251588  1
  O2-  O260  1  0.83125561  0.29767008  0.93094062  1
  O2-  O261  1  0.83138624  0.79949930  0.27083926  1
  O2-  O262  1  0.82616755  0.80383024  0.59976495  1
  O2-  O263  1  0.83971960  0.78997377  0.93907134  1
  O2-  O264  1  0.42038830  0.03680592  0.06832647  1
  O2-  O265  1  0.42265587  0.04591040  0.39905852  1
  O2-  O266  1  0.42462748  0.04256620  0.72958020  1
  O2-  O267  1  0.42024383  0.54575641  0.06072158  1
  O2-  O268  1  0.41660139  0.54164320  0.39517253  1
  O2-  O269  1  0.41695486  0.54038799  0.73297507  1
  O2-  O270  1  0.91050808  0.04627571  0.06330989  1
  O2-  O271  1  0.91547113  0.04471443  0.40003092  1
  O2-  O272  1  0.91855010  0.04420637  0.73774416  1
  O2-  O273  1  0.91465846  0.54032571  0.07070559  1
  O2-  O274  1  0.91293741  0.53544969  0.40338127  1
  O2-  O275  1  0.91501638  0.54027863  0.73607590  1
  O2-  O276  1  0.30333222  0.17148082  0.06374821  1
  O2-  O277  1  0.29417987  0.16888355  0.40138461  1
  O2-  O278  1  0.30048025  0.16945020  0.73329311  1
  O2-  O279  1  0.30340671  0.66639443  0.06382342  1
  O2-  O280  1  0.30422834  0.66691033  0.38611817  1
  O2-  O281  1  0.29946131  0.67168180  0.73144665  1
  O2-  O282  1  0.79031488  0.16637764  0.05886388  1
  O2-  O283  1  0.78590714  0.16736809  0.40029843  1
  O2-  O284  1  0.78569530  0.16305329  0.73764489  1
  O2-  O285  1  0.78529088  0.66764067  0.07056223  1
  O2-  O286  1  0.79183196  0.66859023  0.40106357  1
  O2-  O287  1  0.79366378  0.67402556  0.73211867  1
