# generated using pymatgen
data_Ca2Al2SiO7
_symmetry_space_group_name_H-M   'P 1'
_cell_length_a   15.45854460
_cell_length_b   15.45778706
_cell_length_c   15.28414357
_cell_angle_alpha   90.00108406
_cell_angle_beta   90.00114206
_cell_angle_gamma   89.98852615
_symmetry_Int_Tables_number   1
_chemical_formula_structural   Ca2Al2SiO7
_chemical_formula_sum   'Ca48 Al48 Si24 O168'
_cell_volume   3652.22078022
_cell_formula_units_Z   24
loop_
 _symmetry_equiv_pos_site_id
 _symmetry_equiv_pos_as_xyz
  1  'x, y, z'
loop_
 _atom_type_symbol
 _atom_type_oxidation_number
  Ca2+  2.0
  Al0+  0.0
  Si0+  0.0
  O2-  -2.0
loop_
 _atom_site_type_symbol
 _atom_site_label
 _atom_site_symmetry_multiplicity
 _atom_site_fract_x
 _atom_site_fract_y
 _atom_site_fract_z
 _atom_site_occupancy
  Ca2+  Ca0  1  0.17566345  0.07337912  0.17845265  1
  Ca2+  Ca1  1  0.17150814  0.08497779  0.50308733  1
  Ca2+  Ca2  1  0.16565367  0.08589788  0.83492831  1
  Ca2+  Ca3  1  0.17106191  0.58810575  0.16771859  1
  Ca2+  Ca4  1  0.16887006  0.57772126  0.50472057  1
  Ca2+  Ca5  1  0.17275045  0.57684111  0.84163689  1
  Ca2+  Ca6  1  0.66166817  0.07855562  0.17456451  1
  Ca2+  Ca7  1  0.65974208  0.07486488  0.49819053  1
  Ca2+  Ca8  1  0.65718387  0.07300928  0.83949613  1
  Ca2+  Ca9  1  0.66916948  0.58649657  0.16445106  1
  Ca2+  Ca10  1  0.67211979  0.58556911  0.51071051  1
  Ca2+  Ca11  1  0.67500651  0.58985987  0.84046953  1
  Ca2+  Ca12  1  0.07561505  0.33040447  0.16070171  1
  Ca2+  Ca13  1  0.08127694  0.33157096  0.50472535  1
  Ca2+  Ca14  1  0.07550904  0.33470337  0.82545391  1
  Ca2+  Ca15  1  0.08933748  0.82358963  0.16362901  1
  Ca2+  Ca16  1  0.08431542  0.82708731  0.48863347  1
  Ca2+  Ca17  1  0.08227126  0.82401003  0.83238777  1
  Ca2+  Ca18  1  0.57575491  0.31977746  0.16136728  1
  Ca2+  Ca19  1  0.57071027  0.33093261  0.49028179  1
  Ca2+  Ca20  1  0.57264210  0.33488618  0.83104027  1
  Ca2+  Ca21  1  0.57593626  0.83855731  0.15998921  1
  Ca2+  Ca22  1  0.58560103  0.83318170  0.49781204  1
  Ca2+  Ca23  1  0.58641699  0.82823897  0.83319645  1
  Ca2+  Ca24  1  0.34531216  0.42227883  0.16674715  1
  Ca2+  Ca25  1  0.32937666  0.40970722  0.50810325  1
  Ca2+  Ca26  1  0.33147668  0.41477887  0.83914184  1
  Ca2+  Ca27  1  0.33622604  0.91817609  0.17737756  1
  Ca2+  Ca28  1  0.33563669  0.92044346  0.49433121  1
  Ca2+  Ca29  1  0.33492245  0.91633583  0.83954969  1
  Ca2+  Ca30  1  0.83506144  0.41895178  0.16553221  1
  Ca2+  Ca31  1  0.83272443  0.42296470  0.50856503  1
  Ca2+  Ca32  1  0.84077652  0.42391272  0.83849970  1
  Ca2+  Ca33  1  0.81798121  0.92297066  0.17493831  1
  Ca2+  Ca34  1  0.82237060  0.92192846  0.50337398  1
  Ca2+  Ca35  1  0.81966368  0.91652235  0.83951429  1
  Ca2+  Ca36  1  0.42355141  0.16741409  0.16282420  1
  Ca2+  Ca37  1  0.41826291  0.17519366  0.49152866  1
  Ca2+  Ca38  1  0.42130954  0.17476557  0.83284394  1
  Ca2+  Ca39  1  0.41974811  0.67952215  0.15604725  1
  Ca2+  Ca40  1  0.42555441  0.67170329  0.49433469  1
  Ca2+  Ca41  1  0.42794255  0.66533174  0.83488487  1
  Ca2+  Ca42  1  0.91225493  0.16925897  0.16160334  1
  Ca2+  Ca43  1  0.91670756  0.16711680  0.49761401  1
  Ca2+  Ca44  1  0.92108299  0.18015385  0.82554911  1
  Ca2+  Ca45  1  0.92837543  0.66330216  0.16018303  1
  Ca2+  Ca46  1  0.92132666  0.66598074  0.49651827  1
  Ca2+  Ca47  1  0.91798227  0.65846591  0.83130929  1
  Al0+  Al48  1  -0.00058949  -0.00186702  0.00111003  1
  Al0+  Al49  1  -0.00213779  -0.00082715  0.33900411  1
  Al0+  Al50  1  0.00016430  -0.00073075  0.66510769  1
  Al0+  Al51  1  0.00108047  0.49918044  -0.00178282  1
  Al0+  Al52  1  0.00187878  0.50028325  0.32998647  1
  Al0+  Al53  1  0.00201151  0.49909086  0.66953222  1
  Al0+  Al54  1  0.49766448  0.00030545  -0.00365653  1
  Al0+  Al55  1  0.49901740  -0.00009709  0.33735608  1
  Al0+  Al56  1  0.49750382  -0.00021696  0.67143441  1
  Al0+  Al57  1  0.50049484  0.50081156  -0.00092106  1
  Al0+  Al58  1  0.50127892  0.50121456  0.33108758  1
  Al0+  Al59  1  0.50093520  0.50238985  0.65773698  1
  Al0+  Al60  1  0.24879541  0.24850704  0.00024396  1
  Al0+  Al61  1  0.24665606  0.25253540  0.33176791  1
  Al0+  Al62  1  0.24900269  0.24938255  0.66569690  1
  Al0+  Al63  1  0.24935679  0.74756666  -0.00633361  1
  Al0+  Al64  1  0.25158078  0.74749602  0.33160020  1
  Al0+  Al65  1  0.25113460  0.75126069  0.66675728  1
  Al0+  Al66  1  0.75056853  0.25026178  -0.01018794  1
  Al0+  Al67  1  0.74891326  0.25234263  0.33442115  1
  Al0+  Al68  1  0.74918631  0.24978196  0.66270240  1
  Al0+  Al69  1  0.75126382  0.75138772  0.00985663  1
  Al0+  Al70  1  0.75317148  0.74991253  0.33696244  1
  Al0+  Al71  1  0.75046758  0.75058720  0.67073764  1
  Al0+  Al72  1  0.06994632  0.67936728  0.31999859  1
  Al0+  Al73  1  0.07020058  0.67906695  0.98398686  1
  Al0+  Al74  1  0.57218135  0.68201353  0.65317512  1
  Al0+  Al75  1  0.67726580  0.92813193  0.35001419  1
  Al0+  Al76  1  0.57010135  0.18000988  0.32008141  1
  Al0+  Al77  1  0.57121080  0.17790934  0.98353643  1
  Al0+  Al78  1  0.07008051  0.17774459  0.65043174  1
  Al0+  Al79  1  0.67800212  0.93115695  0.01532278  1
  Al0+  Al80  1  0.17980096  0.92595081  0.34779197  1
  Al0+  Al81  1  0.67935160  0.93156728  0.68315277  1
  Al0+  Al82  1  0.32199823  0.56993961  0.01342098  1
  Al0+  Al83  1  0.42452979  0.32325762  0.31671924  1
  Al0+  Al84  1  0.57424089  0.68031529  0.98698596  1
  Al0+  Al85  1  0.81996869  0.56893627  0.68031292  1
  Al0+  Al86  1  0.18241528  0.42939222  0.68084591  1
  Al0+  Al87  1  0.92986496  0.31999511  0.98661860  1
  Al0+  Al88  1  0.43037535  0.32061503  0.65297022  1
  Al0+  Al89  1  0.92811470  0.32311929  0.64943407  1
  Al0+  Al90  1  0.42784214  0.32191684  0.98479462  1
  Al0+  Al91  1  0.32007147  0.07335032  0.34874082  1
  Al0+  Al92  1  0.82222965  0.56973077  0.01622891  1
  Al0+  Al93  1  0.43211208  0.81853078  0.32198748  1
  Al0+  Al94  1  0.82043529  0.07490478  0.34890559  1
  Al0+  Al95  1  0.42792672  0.82178523  0.98394427  1
  Si0+  Si96  1  0.82355643  0.56892137  0.34813448  1
  Si0+  Si97  1  0.17659226  0.92651843  0.68304775  1
  Si0+  Si98  1  0.31808112  0.07007490  0.68356502  1
  Si0+  Si99  1  0.67895380  0.43112348  0.34780789  1
  Si0+  Si100  1  0.67767272  0.42601324  0.01613697  1
  Si0+  Si101  1  0.92717610  0.82338758  0.31655892  1
  Si0+  Si102  1  0.57060185  0.17499008  0.64948936  1
  Si0+  Si103  1  0.07239643  0.67961063  0.65195783  1
  Si0+  Si104  1  0.92944290  0.32143671  0.31870757  1
  Si0+  Si105  1  0.92846917  0.82246643  0.98458187  1
  Si0+  Si106  1  0.32408839  0.57440163  0.68240962  1
  Si0+  Si107  1  0.57673869  0.67759393  0.31660082  1
  Si0+  Si108  1  0.17650784  0.43027544  0.34815961  1
  Si0+  Si109  1  0.17879487  0.42709549  0.01834766  1
  Si0+  Si110  1  0.92918895  0.82009296  0.65244121  1
  Si0+  Si111  1  0.67540742  0.42716573  0.68143012  1
  Si0+  Si112  1  0.06971860  0.17684960  0.31827373  1
  Si0+  Si113  1  0.42644665  0.82349643  0.64817311  1
  Si0+  Si114  1  0.32204467  0.56990937  0.34793592  1
  Si0+  Si115  1  0.31858199  0.07049842  0.01445494  1
  Si0+  Si116  1  0.17753438  0.92729529  0.01328268  1
  Si0+  Si117  1  0.82261782  0.07338790  0.01356101  1
  Si0+  Si118  1  0.82418416  0.07304729  0.68496145  1
  Si0+  Si119  1  0.07159517  0.17483543  0.98588965  1
  O2-  O120  1  0.24817989  -0.00187136  0.05514584  1
  O2-  O121  1  0.24699279  0.00165135  0.39957530  1
  O2-  O122  1  0.24716094  -0.00215762  0.72528470  1
  O2-  O123  1  0.25035943  0.49252801  0.06280633  1
  O2-  O124  1  0.25436046  0.49489804  0.38919344  1
  O2-  O125  1  0.25817674  0.50323510  0.72653524  1
  O2-  O126  1  0.75124621  0.00898691  0.05914494  1
  O2-  O127  1  0.74911604  0.00186332  0.39859274  1
  O2-  O128  1  0.75141174  0.00943432  0.72997050  1
  O2-  O129  1  0.74622094  0.49530930  0.06183304  1
  O2-  O130  1  0.74820061  0.50376661  0.39085263  1
  O2-  O131  1  0.74720451  0.49197308  0.72666622  1
  O2-  O132  1  -0.00453016  0.24527499  0.27679655  1
  O2-  O133  1  -0.00421336  0.24704279  0.59923762  1
  O2-  O134  1  0.00304384  0.24306179  0.94206291  1
  O2-  O135  1  -0.00135890  0.75713314  0.27282935  1
  O2-  O136  1  0.00244335  0.75116406  0.60937034  1
  O2-  O137  1  -0.00615013  0.75206509  0.93737308  1
  O2-  O138  1  0.49423135  0.24789523  0.26965748  1
  O2-  O139  1  0.50806883  0.24946404  0.60593198  1
  O2-  O140  1  0.50169382  0.25271238  0.93400776  1
  O2-  O141  1  0.51050721  0.74874461  0.27422584  1
  O2-  O142  1  0.49600975  0.75493812  0.60593793  1
  O2-  O143  1  0.50207610  0.75129782  0.93553400  1
  O2-  O144  1  0.07112529  0.17413104  0.09174888  1
  O2-  O145  1  0.07166701  0.17946862  0.42290260  1
  O2-  O146  1  0.06924059  0.17811558  0.76439619  1
  O2-  O147  1  0.07095434  0.68092474  0.09720660  1
  O2-  O148  1  0.06690701  0.67656526  0.43370437  1
  O2-  O149  1  0.07293771  0.68137072  0.75682019  1
  O2-  O150  1  0.56969525  0.17665517  0.09701617  1
  O2-  O151  1  0.57027923  0.18482429  0.43394256  1
  O2-  O152  1  0.56625920  0.17304550  0.75484745  1
  O2-  O153  1  0.57236428  0.68248917  0.10071793  1
  O2-  O154  1  0.57544917  0.67524980  0.42250225  1
  O2-  O155  1  0.57323371  0.68238296  0.76567227  1
  O2-  O156  1  0.16927566  0.43273325  0.24362530  1
  O2-  O157  1  0.18200945  0.43222373  0.56706200  1
  O2-  O158  1  0.17851122  0.42815186  0.91271415  1
  O2-  O159  1  0.18221661  0.92650450  0.23372399  1
  O2-  O160  1  0.17665344  0.92312093  0.57857533  1
  O2-  O161  1  0.17541191  0.93007203  0.90779118  1
  O2-  O162  1  0.68091320  0.43081486  0.24289378  1
  O2-  O163  1  0.67572340  0.43144936  0.57534965  1
  O2-  O164  1  0.67827770  0.42649691  0.91058985  1
  O2-  O165  1  0.67849872  0.92787105  0.23665028  1
  O2-  O166  1  0.68063294  0.93121784  0.57035655  1
  O2-  O167  1  0.68085799  0.93048620  0.90192383  1
  O2-  O168  1  0.42821859  0.31816580  0.09795457  1
  O2-  O169  1  0.42706951  0.32411121  0.43063716  1
  O2-  O170  1  0.42980095  0.31917278  0.76576908  1
  O2-  O171  1  0.42659843  0.82276641  0.09757086  1
  O2-  O172  1  0.43052938  0.81409893  0.43526374  1
  O2-  O173  1  0.42355588  0.82340339  0.75335141  1
  O2-  O174  1  0.93135561  0.31891425  0.10061408  1
  O2-  O175  1  0.93261255  0.32605220  0.42318233  1
  O2-  O176  1  0.93266485  0.32432073  0.76278232  1
  O2-  O177  1  0.93351748  0.82458500  0.08986491  1
  O2-  O178  1  0.92595645  0.81872158  0.42258022  1
  O2-  O179  1  0.93107926  0.81933439  0.75759268  1
  O2-  O180  1  0.31774682  0.07220581  0.23476553  1
  O2-  O181  1  0.31853892  0.06962198  0.57876814  1
  O2-  O182  1  0.31561762  0.07198043  0.90899013  1
  O2-  O183  1  0.32080729  0.57120360  0.24306782  1
  O2-  O184  1  0.32038231  0.57686810  0.57635073  1
  O2-  O185  1  0.31867017  0.56988552  0.90022307  1
  O2-  O186  1  0.82043181  0.07460157  0.23490880  1
  O2-  O187  1  0.82635014  0.06885201  0.57966189  1
  O2-  O188  1  0.82683754  0.06899469  0.90826625  1
  O2-  O189  1  0.82595009  0.56600527  0.24331538  1
  O2-  O190  1  0.81996499  0.56973682  0.56640214  1
  O2-  O191  1  0.82309986  0.56790636  0.90325036  1
  O2-  O192  1  0.04538188  0.08325717  0.27259743  1
  O2-  O193  1  0.04638383  0.07734447  0.59842787  1
  O2-  O194  1  0.04771802  0.08100895  0.93889885  1
  O2-  O195  1  0.03563671  0.58491226  0.26354476  1
  O2-  O196  1  0.04385073  0.58809129  0.60541386  1
  O2-  O197  1  0.04031749  0.58245232  0.93095849  1
  O2-  O198  1  0.54510844  0.07987410  0.27074130  1
  O2-  O199  1  0.53704559  0.08359902  0.60345273  1
  O2-  O200  1  0.53546680  0.08310776  0.92856630  1
  O2-  O201  1  0.54970846  0.58487665  0.27027024  1
  O2-  O202  1  0.54396629  0.58663183  0.59461178  1
  O2-  O203  1  0.54799438  0.58136136  0.93460178  1
  O2-  O204  1  0.15900599  0.20841766  0.26823439  1
  O2-  O205  1  0.16706465  0.20978022  0.59720485  1
  O2-  O206  1  0.16458035  0.20023566  0.93912912  1
  O2-  O207  1  0.16705505  0.70716367  0.26629333  1
  O2-  O208  1  0.16464555  0.70717653  0.60458359  1
  O2-  O209  1  0.16394197  0.71140821  0.92645978  1
  O2-  O210  1  0.66759576  0.21271591  0.26663648  1
  O2-  O211  1  0.66738375  0.19140956  0.60731646  1
  O2-  O212  1  0.66995615  0.20032858  0.92901896  1
  O2-  O213  1  0.67279525  0.69845096  0.27394528  1
  O2-  O214  1  0.66875152  0.71430742  0.59918529  1
  O2-  O215  1  0.67421231  0.70927113  0.93751303  1
  O2-  O216  1  0.08669952  0.45692828  0.06489711  1
  O2-  O217  1  0.08804433  0.46564408  0.39852810  1
  O2-  O218  1  0.08714753  0.46227326  0.73562614  1
  O2-  O219  1  0.08610826  0.95395602  0.06275957  1
  O2-  O220  1  0.07901250  0.94774151  0.39846547  1
  O2-  O221  1  0.08459412  0.95316792  0.73114633  1
  O2-  O222  1  0.58467108  0.45104789  0.06327861  1
  O2-  O223  1  0.58686615  0.45824943  0.39597691  1
  O2-  O224  1  0.58222750  0.45660594  0.72611257  1
  O2-  O225  1  0.57948665  0.96135528  0.06538157  1
  O2-  O226  1  0.57982703  0.95509181  0.40515531  1
  O2-  O227  1  0.58091872  0.95905046  0.73597337  1
  O2-  O228  1  0.19851644  0.33114505  0.06307567  1
  O2-  O229  1  0.19728454  0.33686063  0.39511724  1
  O2-  O230  1  0.21029024  0.33196635  0.73462867  1
  O2-  O231  1  0.20437127  0.83445817  0.05761352  1
  O2-  O232  1  0.21124122  0.82812044  0.40143984  1
  O2-  O233  1  0.20585351  0.83511924  0.73192074  1
  O2-  O234  1  0.70680588  0.33207652  0.06046176  1
  O2-  O235  1  0.70793533  0.34123417  0.39737763  1
  O2-  O236  1  0.69439132  0.33061721  0.72409215  1
  O2-  O237  1  0.71079519  0.83722696  0.07271521  1
  O2-  O238  1  0.70950275  0.82962135  0.40331306  1
  O2-  O239  1  0.71543468  0.83670954  0.73679374  1
  O2-  O240  1  0.45895951  0.42094553  0.26555485  1
  O2-  O241  1  0.45527093  0.41811500  0.59721261  1
  O2-  O242  1  0.45349789  0.42099463  0.93280608  1
  O2-  O243  1  0.45589435  0.91751311  0.27053785  1
  O2-  O244  1  0.45255053  0.91776815  0.60423825  1
  O2-  O245  1  0.45333383  0.91983225  0.92981582  1
  O2-  O246  1  0.96381811  0.41016395  0.26874113  1
  O2-  O247  1  0.96309656  0.42029593  0.59659559  1
  O2-  O248  1  0.96492443  0.41434074  0.93224086  1
  O2-  O249  1  0.94784813  0.91867682  0.27255072  1
  O2-  O250  1  0.95490530  0.91199755  0.60480518  1
  O2-  O251  1  0.95621396  0.91471451  0.93562605  1
  O2-  O252  1  0.32316918  0.30354112  0.26656927  1
  O2-  O253  1  0.33465163  0.28613780  0.60015864  1
  O2-  O254  1  0.32866532  0.29109049  0.93373693  1
  O2-  O255  1  0.33716487  0.78440233  0.26699888  1
  O2-  O256  1  0.33269665  0.79758582  0.60166525  1
  O2-  O257  1  0.33074250  0.79235889  0.92914412  1
  O2-  O258  1  0.83621018  0.29934875  0.27219103  1
  O2-  O259  1  0.82720876  0.30071795  0.59809206  1
  O2-  O260  1  0.83458142  0.29508896  0.92818119  1
  O2-  O261  1  0.83508269  0.79379840  0.26958903  1
  O2-  O262  1  0.83919284  0.78895874  0.60435707  1
  O2-  O263  1  0.83379200  0.79824744  0.94201024  1
  O2-  O264  1  0.41016122  0.04276092  0.06080492  1
  O2-  O265  1  0.41670273  0.04426398  0.40405335  1
  O2-  O266  1  0.40872509  0.04176908  0.73302899  1
  O2-  O267  1  0.41938388  0.54360904  0.06866635  1
  O2-  O268  1  0.41585127  0.54695438  0.39471037  1
  O2-  O269  1  0.41975528  0.55106145  0.72401363  1
  O2-  O270  1  0.91541887  0.04566879  0.06225298  1
  O2-  O271  1  0.91870323  0.04730983  0.40324311  1
  O2-  O272  1  0.91693621  0.04358321  0.73139212  1
  O2-  O273  1  0.91873435  0.53521686  0.06958575  1
  O2-  O274  1  0.91365504  0.53565987  0.39626961  1
  O2-  O275  1  0.91752661  0.54025681  0.73347003  1
  O2-  O276  1  0.29007126  0.16130446  0.06371769  1
  O2-  O277  1  0.28919715  0.17251837  0.40005865  1
  O2-  O278  1  0.28765966  0.16041132  0.73184128  1
  O2-  O279  1  0.28566592  0.66628320  0.06585239  1
  O2-  O280  1  0.28958860  0.65861120  0.39807167  1
  O2-  O281  1  0.29591705  0.66718347  0.72910818  1
  O2-  O282  1  0.80204258  0.16980080  0.05555006  1
  O2-  O283  1  0.79461134  0.17421577  0.40209011  1
  O2-  O284  1  0.80400902  0.17016433  0.72610504  1
  O2-  O285  1  0.79566008  0.66619253  0.07278296  1
  O2-  O286  1  0.80250030  0.66253518  0.39497303  1
  O2-  O287  1  0.79008512  0.66514212  0.73495953  1
