# generated using pymatgen
data_Ca2Al2SiO7
_symmetry_space_group_name_H-M   'P 1'
_cell_length_a   15.46466673
_cell_length_b   15.46432390
_cell_length_c   15.28932227
_cell_angle_alpha   90.00325436
_cell_angle_beta   90.00356695
_cell_angle_gamma   89.99132600
_symmetry_Int_Tables_number   1
_chemical_formula_structural   Ca2Al2SiO7
_chemical_formula_sum   'Ca48 Al48 Si24 O168'
_cell_volume   3656.45077475
_cell_formula_units_Z   24
loop_
 _symmetry_equiv_pos_site_id
 _symmetry_equiv_pos_as_xyz
  1  'x, y, z'
loop_
 _atom_type_symbol
 _atom_type_oxidation_number
  Ca2+  2.0
  Al0+  0.0
  Si0+  0.0
  O2-  -2.0
loop_
 _atom_site_type_symbol
 _atom_site_label
 _atom_site_symmetry_multiplicity
 _atom_site_fract_x
 _atom_site_fract_y
 _atom_site_fract_z
 _atom_site_occupancy
  Ca2+  Ca0  1  0.16500344  0.08635091  0.17279207  1
  Ca2+  Ca1  1  0.16536732  0.08529157  0.50291730  1
  Ca2+  Ca2  1  0.17053632  0.08096037  0.83668192  1
  Ca2+  Ca3  1  0.16629690  0.57903060  0.17232770  1
  Ca2+  Ca4  1  0.17134047  0.57631412  0.50859648  1
  Ca2+  Ca5  1  0.17277772  0.59708351  0.83397991  1
  Ca2+  Ca6  1  0.65966495  0.07148821  0.16809126  1
  Ca2+  Ca7  1  0.66858144  0.07231450  0.50894369  1
  Ca2+  Ca8  1  0.66343016  0.07255378  0.83774137  1
  Ca2+  Ca9  1  0.67770025  0.58838590  0.16890865  1
  Ca2+  Ca10  1  0.67564688  0.58405314  0.50771763  1
  Ca2+  Ca11  1  0.66682685  0.57781255  0.84028158  1
  Ca2+  Ca12  1  0.07219598  0.33723733  0.16902238  1
  Ca2+  Ca13  1  0.07675448  0.32931673  0.48752422  1
  Ca2+  Ca14  1  0.07205645  0.33682432  0.83280355  1
  Ca2+  Ca15  1  0.07147309  0.82504498  0.15484534  1
  Ca2+  Ca16  1  0.08144259  0.82417582  0.50016383  1
  Ca2+  Ca17  1  0.07388338  0.82310556  0.83056895  1
  Ca2+  Ca18  1  0.58129545  0.33182260  0.15810874  1
  Ca2+  Ca19  1  0.57208804  0.34760733  0.49983786  1
  Ca2+  Ca20  1  0.59012580  0.33242024  0.82703750  1
  Ca2+  Ca21  1  0.59389867  0.82390061  0.16311338  1
  Ca2+  Ca22  1  0.59385047  0.82423635  0.49985026  1
  Ca2+  Ca23  1  0.58824549  0.82369972  0.82807410  1
  Ca2+  Ca24  1  0.32661203  0.41452549  0.17481556  1
  Ca2+  Ca25  1  0.33074409  0.41558738  0.50601786  1
  Ca2+  Ca26  1  0.33637868  0.42227427  0.83066022  1
  Ca2+  Ca27  1  0.33140151  0.91952688  0.17035006  1
  Ca2+  Ca28  1  0.33402265  0.91481056  0.50748316  1
  Ca2+  Ca29  1  0.33632656  0.91149786  0.83509249  1
  Ca2+  Ca30  1  0.83667662  0.42528983  0.16880930  1
  Ca2+  Ca31  1  0.83041814  0.42431243  0.50604054  1
  Ca2+  Ca32  1  0.82351667  0.42584985  0.83864638  1
  Ca2+  Ca33  1  0.82246095  0.90824779  0.16842783  1
  Ca2+  Ca34  1  0.82285105  0.92391136  0.50623370  1
  Ca2+  Ca35  1  0.82412526  0.91664113  0.83720948  1
  Ca2+  Ca36  1  0.42240759  0.17412725  0.16379416  1
  Ca2+  Ca37  1  0.41825175  0.17991013  0.49615323  1
  Ca2+  Ca38  1  0.42641126  0.17402271  0.83004171  1
  Ca2+  Ca39  1  0.43405723  0.66389105  0.16329144  1
  Ca2+  Ca40  1  0.43106844  0.66372157  0.50259752  1
  Ca2+  Ca41  1  0.42922527  0.66783142  0.82219317  1
  Ca2+  Ca42  1  0.91306749  0.18135021  0.16302159  1
  Ca2+  Ca43  1  0.91693222  0.17261640  0.49245070  1
  Ca2+  Ca44  1  0.90628568  0.17270866  0.83113473  1
  Ca2+  Ca45  1  0.91584206  0.66655362  0.15590707  1
  Ca2+  Ca46  1  0.91654424  0.65690687  0.49853003  1
  Ca2+  Ca47  1  0.92031875  0.65912838  0.83246980  1
  Al0+  Al48  1  0.00046760  0.00037281  -0.00253646  1
  Al0+  Al49  1  0.00039349  -0.00192481  0.33074470  1
  Al0+  Al50  1  0.00175898  -0.00009675  0.67054118  1
  Al0+  Al51  1  0.00240896  0.49815386  -0.00543337  1
  Al0+  Al52  1  0.00263501  0.49863639  0.33853794  1
  Al0+  Al53  1  0.00004668  0.49708359  0.66507915  1
  Al0+  Al54  1  0.49888152  0.00325531  0.00219450  1
  Al0+  Al55  1  0.49733903  -0.00127960  0.33939195  1
  Al0+  Al56  1  0.49814086  0.00151767  0.66775545  1
  Al0+  Al57  1  0.49701430  0.50039264  0.00091423  1
  Al0+  Al58  1  0.50057168  0.50207867  0.32206348  1
  Al0+  Al59  1  0.49722840  0.50039410  0.66608742  1
  Al0+  Al60  1  0.25022374  0.25026343  0.00028523  1
  Al0+  Al61  1  0.25039146  0.24936465  0.33002659  1
  Al0+  Al62  1  0.25006086  0.24897642  0.66586665  1
  Al0+  Al63  1  0.24936904  0.75143258  0.00244719  1
  Al0+  Al64  1  0.25190930  0.75105685  0.33372706  1
  Al0+  Al65  1  0.24828350  0.74914730  0.66213267  1
  Al0+  Al66  1  0.74846096  0.24883181  -0.00544147  1
  Al0+  Al67  1  0.74832599  0.24990270  0.32920501  1
  Al0+  Al68  1  0.75058346  0.24959282  0.66877416  1
  Al0+  Al69  1  0.74973626  0.75058583  -0.00165962  1
  Al0+  Al70  1  0.75131250  0.74941441  0.33950721  1
  Al0+  Al71  1  0.75395938  0.75234580  0.66943194  1
  Al0+  Al72  1  0.07221037  0.67762238  0.98596303  1
  Al0+  Al73  1  0.92696041  0.82188911  0.98416892  1
  Al0+  Al74  1  0.07018878  0.17713265  0.31867120  1
  Al0+  Al75  1  0.06851582  0.67810369  0.65059768  1
  Al0+  Al76  1  0.67928188  0.93038595  0.01487778  1
  Al0+  Al77  1  0.92861884  0.32052459  0.98413869  1
  Al0+  Al78  1  0.43060895  0.32131485  0.31846410  1
  Al0+  Al79  1  0.57299663  0.68174619  0.31883472  1
  Al0+  Al80  1  0.82105247  0.56893747  0.01444793  1
  Al0+  Al81  1  0.82111245  0.56874239  0.34700800  1
  Al0+  Al82  1  0.42881061  0.82227128  0.65230827  1
  Al0+  Al83  1  0.67738194  0.92973583  0.68390315  1
  Al0+  Al84  1  0.67681244  0.43169907  0.67920471  1
  Al0+  Al85  1  0.67643076  0.42686691  0.01607202  1
  Al0+  Al86  1  0.18216085  0.42934263  0.34730303  1
  Al0+  Al87  1  0.31815504  0.57091765  0.67917232  1
  Al0+  Al88  1  0.82412034  0.57158322  0.68272350  1
  Al0+  Al89  1  0.56986733  0.17936103  0.98624787  1
  Al0+  Al90  1  0.92690785  0.32293839  0.31876687  1
  Al0+  Al91  1  0.42927237  0.32056688  0.65378458  1
  Al0+  Al92  1  0.57006276  0.67918381  0.98611570  1
  Al0+  Al93  1  0.57462672  0.67956827  0.65193791  1
  Al0+  Al94  1  0.67901096  0.92967155  0.34813428  1
  Al0+  Al95  1  0.82313666  0.07157297  0.68140348  1
  Si0+  Si96  1  0.17754958  0.92741826  0.34895605  1
  Si0+  Si97  1  0.42657030  0.82357004  0.31569231  1
  Si0+  Si98  1  0.17842925  0.92963478  0.01594170  1
  Si0+  Si99  1  0.31935538  0.07215835  0.01667515  1
  Si0+  Si100  1  0.82269272  0.07332941  0.34675507  1
  Si0+  Si101  1  0.31899620  0.07010244  0.34998876  1
  Si0+  Si102  1  0.42763348  0.82309837  0.98693981  1
  Si0+  Si103  1  0.18061783  0.42727230  0.01498372  1
  Si0+  Si104  1  0.42586839  0.32188227  0.98253665  1
  Si0+  Si105  1  0.32437693  0.57337776  0.34969367  1
  Si0+  Si106  1  0.07353674  0.17828566  0.98199597  1
  Si0+  Si107  1  0.92871960  0.31878015  0.65071010  1
  Si0+  Si108  1  0.57285464  0.17874400  0.64912061  1
  Si0+  Si109  1  0.07197349  0.17811891  0.65319742  1
  Si0+  Si110  1  0.17844283  0.42521592  0.68443975  1
  Si0+  Si111  1  0.31971195  0.07286460  0.68254939  1
  Si0+  Si112  1  0.93043728  0.81917782  0.32023814  1
  Si0+  Si113  1  0.31994628  0.57335076  0.01650145  1
  Si0+  Si114  1  0.07345662  0.67898767  0.32034603  1
  Si0+  Si115  1  0.82405208  0.07249227  0.01809681  1
  Si0+  Si116  1  0.57043685  0.17420313  0.31839648  1
  Si0+  Si117  1  0.67545128  0.42616750  0.34683886  1
  Si0+  Si118  1  0.17991436  0.92831694  0.68247566  1
  Si0+  Si119  1  0.93004098  0.82535097  0.64790584  1
  O2-  O120  1  0.24796669  0.00160880  0.05932155  1
  O2-  O121  1  0.24741544  -0.00079036  0.39194951  1
  O2-  O122  1  0.25373462  -0.00307352  0.72462980  1
  O2-  O123  1  0.24941871  0.50081415  0.05705138  1
  O2-  O124  1  0.25706070  0.50349349  0.39403582  1
  O2-  O125  1  0.24323164  0.49721058  0.72888573  1
  O2-  O126  1  0.75648642  0.00296434  0.06286593  1
  O2-  O127  1  0.75029523  0.00924834  0.39156153  1
  O2-  O128  1  0.75022913  0.00174945  0.73256979  1
  O2-  O129  1  0.74882217  0.49812500  0.06699498  1
  O2-  O130  1  0.74727384  0.49148400  0.39060624  1
  O2-  O131  1  0.74493640  0.50647046  0.73032852  1
  O2-  O132  1  -0.00327639  0.24739223  0.26940054  1
  O2-  O133  1  -0.00066132  0.24602518  0.61044361  1
  O2-  O134  1  0.00200982  0.24280089  0.93741159  1
  O2-  O135  1  0.00151561  0.74808638  0.27805429  1
  O2-  O136  1  -0.00882529  0.74966665  0.60278434  1
  O2-  O137  1  -0.00312273  0.74631103  0.93645124  1
  O2-  O138  1  0.50836518  0.24888485  0.27364104  1
  O2-  O139  1  0.50751276  0.25064395  0.60496230  1
  O2-  O140  1  0.50132810  0.26033046  0.93994757  1
  O2-  O141  1  0.49687551  0.75680840  0.27259888  1
  O2-  O142  1  0.50473065  0.75508879  0.60189962  1
  O2-  O143  1  0.49533852  0.75532302  0.94217228  1
  O2-  O144  1  0.07664602  0.17966439  0.08722447  1
  O2-  O145  1  0.06955149  0.17669089  0.43273104  1
  O2-  O146  1  0.07591843  0.17972378  0.75811415  1
  O2-  O147  1  0.07493977  0.68062890  0.10032096  1
  O2-  O148  1  0.07527690  0.68166469  0.42527578  1
  O2-  O149  1  0.07136250  0.68276305  0.76313382  1
  O2-  O150  1  0.56309215  0.17559793  0.09955207  1
  O2-  O151  1  0.56640684  0.17052015  0.42363812  1
  O2-  O152  1  0.56909241  0.17775733  0.75467426  1
  O2-  O153  1  0.56999307  0.68142716  0.09954837  1
  O2-  O154  1  0.57314843  0.68115602  0.43138588  1
  O2-  O155  1  0.57013721  0.67819943  0.76536771  1
  O2-  O156  1  0.18168215  0.43246077  0.23370516  1
  O2-  O157  1  0.18079930  0.42307272  0.57880034  1
  O2-  O158  1  0.18392836  0.42166333  0.91028563  1
  O2-  O159  1  0.17941004  0.92620891  0.24387220  1
  O2-  O160  1  0.17831977  0.93156952  0.57702160  1
  O2-  O161  1  0.18134054  0.92985513  0.91098088  1
  O2-  O162  1  0.67502834  0.42679452  0.24156064  1
  O2-  O163  1  0.67929578  0.43041679  0.56496713  1
  O2-  O164  1  0.67681977  0.42877639  0.90272926  1
  O2-  O165  1  0.68029212  0.92947009  0.23489734  1
  O2-  O166  1  0.67886309  0.93271091  0.56976889  1
  O2-  O167  1  0.67583788  0.93289535  0.90270456  1
  O2-  O168  1  0.42084490  0.31708805  0.08817081  1
  O2-  O169  1  0.42920575  0.31978095  0.43154561  1
  O2-  O170  1  0.42435593  0.31540286  0.76643091  1
  O2-  O171  1  0.42518871  0.82209189  0.09277644  1
  O2-  O172  1  0.42210007  0.82385508  0.42047860  1
  O2-  O173  1  0.42623577  0.81946927  0.76611599  1
  O2-  O174  1  0.93246775  0.32162035  0.09715449  1
  O2-  O175  1  0.92952687  0.32121629  0.43255637  1
  O2-  O176  1  0.93098312  0.31857357  0.75568215  1
  O2-  O177  1  0.93083262  0.82253797  0.09880187  1
  O2-  O178  1  0.93346063  0.82175796  0.42509355  1
  O2-  O179  1  0.93614566  0.83133228  0.75269069  1
  O2-  O180  1  0.31946651  0.06806109  0.24460208  1
  O2-  O181  1  0.31552566  0.07604057  0.57748657  1
  O2-  O182  1  0.31760989  0.07305876  0.91164833  1
  O2-  O183  1  0.32057042  0.57426828  0.24364412  1
  O2-  O184  1  0.31711976  0.56828338  0.56607727  1
  O2-  O185  1  0.31963472  0.57505602  0.91163453  1
  O2-  O186  1  0.82432888  0.07162535  0.24147950  1
  O2-  O187  1  0.82405652  0.07037798  0.56703441  1
  O2-  O188  1  0.82390123  0.07026399  0.91275237  1
  O2-  O189  1  0.82287880  0.57237515  0.23423936  1
  O2-  O190  1  0.82589702  0.56488251  0.56876912  1
  O2-  O191  1  0.82099394  0.56725309  0.90161806  1
  O2-  O192  1  0.04750022  0.07682884  0.26582176  1
  O2-  O193  1  0.04893305  0.08458491  0.60680354  1
  O2-  O194  1  0.05396880  0.08291241  0.93735899  1
  O2-  O195  1  0.04846707  0.58592748  0.27567641  1
  O2-  O196  1  0.04311365  0.57889792  0.59821109  1
  O2-  O197  1  0.05324847  0.57834091  0.93240155  1
  O2-  O198  1  0.53596276  0.08324341  0.27121271  1
  O2-  O199  1  0.54116278  0.08714923  0.60275346  1
  O2-  O200  1  0.52940263  0.08631044  0.93076917  1
  O2-  O201  1  0.54208254  0.58749048  0.26038209  1
  O2-  O202  1  0.53972834  0.58283462  0.59911818  1
  O2-  O203  1  0.53533073  0.58304656  0.93398798  1
  O2-  O204  1  0.16820566  0.20569102  0.26537948  1
  O2-  O205  1  0.16240822  0.20734699  0.60355235  1
  O2-  O206  1  0.16650931  0.20705691  0.93515901  1
  O2-  O207  1  0.16492795  0.70816523  0.27232527  1
  O2-  O208  1  0.16276278  0.71340348  0.59452493  1
  O2-  O209  1  0.16919592  0.71394507  0.93366135  1
  O2-  O210  1  0.66617750  0.19105005  0.27387538  1
  O2-  O211  1  0.66802848  0.19912498  0.60470015  1
  O2-  O212  1  0.66720192  0.20026578  0.93078091  1
  O2-  O213  1  0.66956991  0.71622802  0.26673191  1
  O2-  O214  1  0.67489657  0.70639594  0.60093113  1
  O2-  O215  1  0.66578367  0.70934203  0.93304146  1
  O2-  O216  1  0.08853251  0.45381548  0.06132789  1
  O2-  O217  1  0.08730660  0.45938290  0.40443220  1
  O2-  O218  1  0.08371818  0.44784368  0.72775474  1
  O2-  O219  1  0.08659602  0.95696081  0.06362433  1
  O2-  O220  1  0.08568001  0.95377232  0.39703936  1
  O2-  O221  1  0.09124274  0.96013735  0.73290433  1
  O2-  O222  1  0.57509699  0.45187613  0.06597845  1
  O2-  O223  1  0.58167399  0.45652093  0.39024630  1
  O2-  O224  1  0.57647292  0.45181201  0.73122902  1
  O2-  O225  1  0.58243003  0.96443172  0.06882776  1
  O2-  O226  1  0.58070798  0.95554108  0.40131334  1
  O2-  O227  1  0.57797756  0.95894621  0.73485595  1
  O2-  O228  1  0.21143357  0.33683813  0.06469462  1
  O2-  O229  1  0.21168925  0.33125338  0.39928159  1
  O2-  O230  1  0.20759860  0.33296183  0.73162682  1
  O2-  O231  1  0.20763058  0.83940647  0.06646602  1
  O2-  O232  1  0.20708652  0.83635531  0.39759701  1
  O2-  O233  1  0.20635931  0.83651975  0.72902714  1
  O2-  O234  1  0.70164084  0.32537795  0.06451121  1
  O2-  O235  1  0.69385307  0.33001187  0.39146939  1
  O2-  O236  1  0.70725536  0.33290842  0.73024994  1
  O2-  O237  1  0.71071220  0.83399340  0.06885223  1
  O2-  O238  1  0.71650811  0.83682033  0.40377432  1
  O2-  O239  1  0.70647336  0.83159364  0.73533271  1
  O2-  O240  1  0.45441886  0.41770143  0.26126656  1
  O2-  O241  1  0.45410214  0.41742415  0.59818565  1
  O2-  O242  1  0.44213079  0.41849675  0.94085739  1
  O2-  O243  1  0.44916093  0.91887988  0.27139218  1
  O2-  O244  1  0.44768452  0.92471894  0.60239558  1
  O2-  O245  1  0.44956866  0.91810572  0.94293520  1
  O2-  O246  1  0.96430418  0.41927703  0.26654599  1
  O2-  O247  1  0.95909636  0.40875218  0.60198088  1
  O2-  O248  1  0.96528757  0.41333128  0.92762400  1
  O2-  O249  1  0.95807084  0.90984673  0.27053674  1
  O2-  O250  1  0.96560029  0.91588345  0.59985523  1
  O2-  O251  1  0.96038235  0.91919977  0.93136064  1
  O2-  O252  1  0.33613059  0.28495658  0.26362055  1
  O2-  O253  1  0.33400344  0.28364927  0.59890988  1
  O2-  O254  1  0.33561325  0.28759649  0.93447259  1
  O2-  O255  1  0.33289171  0.79786329  0.26769312  1
  O2-  O256  1  0.33090809  0.79294092  0.59811811  1
  O2-  O257  1  0.33337268  0.79886572  0.94174378  1
  O2-  O258  1  0.82779968  0.29820997  0.26478249  1
  O2-  O259  1  0.83727248  0.29144470  0.60269241  1
  O2-  O260  1  0.83282171  0.29042843  0.92939623  1
  O2-  O261  1  0.83911160  0.78999921  0.27406471  1
  O2-  O262  1  0.83407603  0.80809487  0.60493558  1
  O2-  O263  1  0.82867898  0.79829345  0.93181824  1
  O2-  O264  1  0.40918365  0.04350842  0.06689982  1
  O2-  O265  1  0.40906110  0.04262127  0.40042136  1
  O2-  O266  1  0.41208445  0.05031669  0.73043861  1
  O2-  O267  1  0.41047469  0.54486538  0.06573817  1
  O2-  O268  1  0.41946492  0.54788570  0.39110124  1
  O2-  O269  1  0.41291040  0.53867731  0.73498312  1
  O2-  O270  1  0.91989918  0.05061339  0.06217317  1
  O2-  O271  1  0.91537251  0.04308388  0.39330011  1
  O2-  O272  1  0.92250119  0.04602739  0.73476828  1
  O2-  O273  1  0.92245791  0.54066202  0.06376724  1
  O2-  O274  1  0.91802428  0.53981204  0.40157748  1
  O2-  O275  1  0.92078404  0.53549853  0.73485961  1
  O2-  O276  1  0.29013225  0.16335909  0.06528634  1
  O2-  O277  1  0.29027273  0.16150243  0.39703135  1
  O2-  O278  1  0.28507203  0.16102496  0.73311912  1
  O2-  O279  1  0.29153502  0.66437678  0.06589953  1
  O2-  O280  1  0.29825861  0.66720240  0.39489822  1
  O2-  O281  1  0.28536115  0.66733459  0.73278279  1
  O2-  O282  1  0.79658768  0.16623305  0.06178171  1
  O2-  O283  1  0.80192728  0.16879468  0.39165817  1
  O2-  O284  1  0.79645149  0.17009567  0.73387289  1
  O2-  O285  1  0.79396045  0.66894548  0.06548809  1
  O2-  O286  1  0.79045376  0.66409043  0.40334858  1
  O2-  O287  1  0.81056143  0.67486558  0.72856350  1
