# generated using pymatgen
data_Ca2Al2SiO7
_symmetry_space_group_name_H-M   'P 1'
_cell_length_a   15.46233942
_cell_length_b   15.46447887
_cell_length_c   15.28696122
_cell_angle_alpha   89.98657307
_cell_angle_beta   89.99253223
_cell_angle_gamma   90.02736043
_symmetry_Int_Tables_number   1
_chemical_formula_structural   Ca2Al2SiO7
_chemical_formula_sum   'Ca48 Al48 Si24 O168'
_cell_volume   3655.37208301
_cell_formula_units_Z   24
loop_
 _symmetry_equiv_pos_site_id
 _symmetry_equiv_pos_as_xyz
  1  'x, y, z'
loop_
 _atom_type_symbol
 _atom_type_oxidation_number
  Ca2+  2.0
  Al0+  0.0
  Si0+  0.0
  O2-  -2.0
loop_
 _atom_site_type_symbol
 _atom_site_label
 _atom_site_symmetry_multiplicity
 _atom_site_fract_x
 _atom_site_fract_y
 _atom_site_fract_z
 _atom_site_occupancy
  Ca2+  Ca0  1  0.17679308  0.08851337  0.16755957  1
  Ca2+  Ca1  1  0.17780437  0.09243734  0.50522126  1
  Ca2+  Ca2  1  0.17638339  0.09724978  0.83596927  1
  Ca2+  Ca3  1  0.17158925  0.57730498  0.17813554  1
  Ca2+  Ca4  1  0.17622614  0.57095323  0.50415915  1
  Ca2+  Ca5  1  0.17087776  0.57668879  0.83150273  1
  Ca2+  Ca6  1  0.67462750  0.07958456  0.17217071  1
  Ca2+  Ca7  1  0.67385937  0.09009202  0.50658253  1
  Ca2+  Ca8  1  0.67495920  0.08105296  0.83919577  1
  Ca2+  Ca9  1  0.67351482  0.58116658  0.16941295  1
  Ca2+  Ca10  1  0.66846546  0.58625305  0.49963694  1
  Ca2+  Ca11  1  0.66902609  0.57270107  0.84271884  1
  Ca2+  Ca12  1  0.07831152  0.33212644  0.16534883  1
  Ca2+  Ca13  1  0.08260816  0.33510825  0.49792894  1
  Ca2+  Ca14  1  0.08155583  0.32419205  0.82697665  1
  Ca2+  Ca15  1  0.07590224  0.83027367  0.15696943  1
  Ca2+  Ca16  1  0.08157824  0.83178681  0.49640839  1
  Ca2+  Ca17  1  0.07476129  0.83490915  0.83185094  1
  Ca2+  Ca18  1  0.58551305  0.32812826  0.16530142  1
  Ca2+  Ca19  1  0.57698981  0.32229987  0.49715201  1
  Ca2+  Ca20  1  0.57979002  0.32739245  0.82421857  1
  Ca2+  Ca21  1  0.58290934  0.82891427  0.16059448  1
  Ca2+  Ca22  1  0.58613335  0.82900094  0.49549302  1
  Ca2+  Ca23  1  0.58338340  0.84152025  0.83285978  1
  Ca2+  Ca24  1  0.32411561  0.42207653  0.17731266  1
  Ca2+  Ca25  1  0.32769913  0.41959918  0.50853947  1
  Ca2+  Ca26  1  0.33192341  0.41226153  0.83111476  1
  Ca2+  Ca27  1  0.33967276  0.92521599  0.16629337  1
  Ca2+  Ca28  1  0.33516283  0.92846935  0.50264603  1
  Ca2+  Ca29  1  0.33695412  0.92986894  0.83921387  1
  Ca2+  Ca30  1  0.83157940  0.42201782  0.17198181  1
  Ca2+  Ca31  1  0.83731692  0.41879130  0.49758172  1
  Ca2+  Ca32  1  0.82510409  0.42064761  0.84281545  1
  Ca2+  Ca33  1  0.83613517  0.92592661  0.16601744  1
  Ca2+  Ca34  1  0.82533560  0.93046614  0.50705813  1
  Ca2+  Ca35  1  0.82343160  0.92430935  0.83925161  1
  Ca2+  Ca36  1  0.42099920  0.15877351  0.16395280  1
  Ca2+  Ca37  1  0.42502167  0.16107694  0.49757967  1
  Ca2+  Ca38  1  0.42091938  0.16833949  0.82191155  1
  Ca2+  Ca39  1  0.41931009  0.67062014  0.16166334  1
  Ca2+  Ca40  1  0.41817602  0.66455276  0.49200643  1
  Ca2+  Ca41  1  0.41419479  0.67384080  0.82789957  1
  Ca2+  Ca42  1  0.91941237  0.16638872  0.16142129  1
  Ca2+  Ca43  1  0.91961103  0.16812745  0.49304723  1
  Ca2+  Ca44  1  0.92671640  0.15422344  0.82894701  1
  Ca2+  Ca45  1  0.91134123  0.66858405  0.15942515  1
  Ca2+  Ca46  1  0.91534598  0.66774245  0.49140065  1
  Ca2+  Ca47  1  0.90587833  0.67347082  0.83446846  1
  Al0+  Al48  1  0.00189740  -0.00257799  -0.00614575  1
  Al0+  Al49  1  -0.00083300  0.00015906  0.33615235  1
  Al0+  Al50  1  -0.00001351  -0.00086269  0.66154002  1
  Al0+  Al51  1  0.00165380  0.49852283  0.00087186  1
  Al0+  Al52  1  -0.00090909  0.50016143  0.33635862  1
  Al0+  Al53  1  0.00218615  0.50177635  0.67107826  1
  Al0+  Al54  1  0.50066281  -0.00065708  0.00294539  1
  Al0+  Al55  1  0.49993838  -0.00184561  0.33261775  1
  Al0+  Al56  1  0.49938618  -0.00196250  0.66740944  1
  Al0+  Al57  1  0.49870844  0.49905123  0.00393680  1
  Al0+  Al58  1  0.50181124  0.49966580  0.33020803  1
  Al0+  Al59  1  0.50068357  0.50226580  0.66635638  1
  Al0+  Al60  1  0.25058552  0.25059227  0.00234058  1
  Al0+  Al61  1  0.24952246  0.24889949  0.34070619  1
  Al0+  Al62  1  0.24748524  0.25224626  0.66686143  1
  Al0+  Al63  1  0.25067766  0.75084563  -0.00616569  1
  Al0+  Al64  1  0.24879747  0.75055054  0.33457294  1
  Al0+  Al65  1  0.24937625  0.74927796  0.66788037  1
  Al0+  Al66  1  0.75030369  0.25043028  0.00619915  1
  Al0+  Al67  1  0.75042716  0.25073378  0.32840105  1
  Al0+  Al68  1  0.75219954  0.25253522  0.66791120  1
  Al0+  Al69  1  0.74939040  0.74869550  0.00028191  1
  Al0+  Al70  1  0.74869909  0.74972410  0.33167695  1
  Al0+  Al71  1  0.74929921  0.75266371  0.66836968  1
  Al0+  Al72  1  0.17817538  0.42887570  0.34893313  1
  Al0+  Al73  1  0.82207258  0.07423761  0.68117087  1
  Al0+  Al74  1  0.07100486  0.18028172  0.98751467  1
  Al0+  Al75  1  0.57139934  0.67775843  0.31812422  1
  Al0+  Al76  1  0.42990949  0.82138044  0.98462837  1
  Al0+  Al77  1  0.82499462  0.06996406  0.01561343  1
  Al0+  Al78  1  0.57010677  0.17790943  0.31799999  1
  Al0+  Al79  1  0.32373131  0.57170772  0.68336344  1
  Al0+  Al80  1  0.32332103  0.57233334  0.34655491  1
  Al0+  Al81  1  0.82089011  0.07276035  0.34741374  1
  Al0+  Al82  1  0.67817619  0.92949832  0.01705508  1
  Al0+  Al83  1  0.92803530  0.81901919  0.98511417  1
  Al0+  Al84  1  0.67895356  0.92850580  0.68127028  1
  Al0+  Al85  1  0.57210270  0.17723804  0.65339988  1
  Al0+  Al86  1  0.31884577  0.07013936  0.67966288  1
  Al0+  Al87  1  0.82165264  0.56918206  0.01427052  1
  Al0+  Al88  1  0.67577273  0.42702417  0.01648733  1
  Al0+  Al89  1  0.06919535  0.17899689  0.65131041  1
  Al0+  Al90  1  0.81857106  0.57139407  0.34740960  1
  Al0+  Al91  1  0.17860882  0.42906804  0.68544817  1
  Al0+  Al92  1  0.32000614  0.07161462  0.01316002  1
  Al0+  Al93  1  0.32163375  0.06874643  0.34764505  1
  Al0+  Al94  1  0.42902831  0.32255311  0.65206186  1
  Al0+  Al95  1  0.93047587  0.32157793  0.31929304  1
  Si0+  Si96  1  0.67786842  0.42675341  0.35195503  1
  Si0+  Si97  1  0.42628641  0.82071850  0.31626655  1
  Si0+  Si98  1  0.07342312  0.67538884  0.98168991  1
  Si0+  Si99  1  0.92886956  0.82158210  0.31860428  1
  Si0+  Si100  1  0.42713973  0.82063655  0.65045814  1
  Si0+  Si101  1  0.92794173  0.81897593  0.64881234  1
  Si0+  Si102  1  0.57157260  0.17931931  0.98663877  1
  Si0+  Si103  1  0.31959161  0.57344061  0.01463744  1
  Si0+  Si104  1  0.67897558  0.92847455  0.34936212  1
  Si0+  Si105  1  0.42648388  0.32070068  0.31670110  1
  Si0+  Si106  1  0.17561978  0.92751341  0.34902189  1
  Si0+  Si107  1  0.42883467  0.32116418  0.98717840  1
  Si0+  Si108  1  0.17702259  0.92599432  0.68303852  1
  Si0+  Si109  1  0.07114732  0.67899295  0.65008794  1
  Si0+  Si110  1  0.82123040  0.57267650  0.68031175  1
  Si0+  Si111  1  0.18089676  0.42882498  0.01575714  1
  Si0+  Si112  1  0.57009509  0.67655907  0.98196743  1
  Si0+  Si113  1  0.57182100  0.68026168  0.65256570  1
  Si0+  Si114  1  0.06989253  0.68021261  0.31947099  1
  Si0+  Si115  1  0.92824882  0.32636060  0.65107705  1
  Si0+  Si116  1  0.92758740  0.32258030  0.98339638  1
  Si0+  Si117  1  0.17906378  0.92569030  0.01457884  1
  Si0+  Si118  1  0.67932122  0.43051963  0.67915322  1
  Si0+  Si119  1  0.07290180  0.17637290  0.31634814  1
  O2-  O120  1  0.24613937  -0.00465530  0.05929984  1
  O2-  O121  1  0.24429517  -0.00409018  0.39283458  1
  O2-  O122  1  0.24276325  -0.00303439  0.72728452  1
  O2-  O123  1  0.24765246  0.50408612  0.05719267  1
  O2-  O124  1  0.25552834  0.49686251  0.39653173  1
  O2-  O125  1  0.25473278  0.49770123  0.73469308  1
  O2-  O126  1  0.75126468  0.00029329  0.06692141  1
  O2-  O127  1  0.74329873  0.00086721  0.39361229  1
  O2-  O128  1  0.74607449  0.00573664  0.72963216  1
  O2-  O129  1  0.75067573  0.49705323  0.06493568  1
  O2-  O130  1  0.74453459  0.49775887  0.39665378  1
  O2-  O131  1  0.75250176  0.49971581  0.72129585  1
  O2-  O132  1  0.00432911  0.24542714  0.27293151  1
  O2-  O133  1  -0.00769402  0.25307072  0.60746417  1
  O2-  O134  1  -0.00852029  0.24972629  0.93935276  1
  O2-  O135  1  0.00056914  0.75152174  0.27582803  1
  O2-  O136  1  -0.00034480  0.74875427  0.60604943  1
  O2-  O137  1  0.00108255  0.74115206  0.93833629  1
  O2-  O138  1  0.49306578  0.25084462  0.27073546  1
  O2-  O139  1  0.49739701  0.24669105  0.60254512  1
  O2-  O140  1  0.50265869  0.25298298  0.94544944  1
  O2-  O141  1  0.49248954  0.74902783  0.27315727  1
  O2-  O142  1  0.49894247  0.74937202  0.60981660  1
  O2-  O143  1  0.50393433  0.74660940  0.93609230  1
  O2-  O144  1  0.07399343  0.18474167  0.10065604  1
  O2-  O145  1  0.07162283  0.17476590  0.42175537  1
  O2-  O146  1  0.06888503  0.18023202  0.76468710  1
  O2-  O147  1  0.07655532  0.67707934  0.08756427  1
  O2-  O148  1  0.06882132  0.68280616  0.42465660  1
  O2-  O149  1  0.07029694  0.68002044  0.75503167  1
  O2-  O150  1  0.56909955  0.17883876  0.09177861  1
  O2-  O151  1  0.57018134  0.17897337  0.43099940  1
  O2-  O152  1  0.57225665  0.18042704  0.76750241  1
  O2-  O153  1  0.56692775  0.67605435  0.08748913  1
  O2-  O154  1  0.57405237  0.68281065  0.43180752  1
  O2-  O155  1  0.57348544  0.67988129  0.75731221  1
  O2-  O156  1  0.17848144  0.43192528  0.23435835  1
  O2-  O157  1  0.17502997  0.43400449  0.57245925  1
  O2-  O158  1  0.18240872  0.42809935  0.91117298  1
  O2-  O159  1  0.17315407  0.92555296  0.24360418  1
  O2-  O160  1  0.17948119  0.92265142  0.57715649  1
  O2-  O161  1  0.18066821  0.92323177  0.90930979  1
  O2-  O162  1  0.67940935  0.42749841  0.24652964  1
  O2-  O163  1  0.67888143  0.43238333  0.57442501  1
  O2-  O164  1  0.67504521  0.42898266  0.90198011  1
  O2-  O165  1  0.68075022  0.92757836  0.24406133  1
  O2-  O166  1  0.68431654  0.92049940  0.56789293  1
  O2-  O167  1  0.67786478  0.93373623  0.90363332  1
  O2-  O168  1  0.42644010  0.32078284  0.09218410  1
  O2-  O169  1  0.42870083  0.32106107  0.42194448  1
  O2-  O170  1  0.43388892  0.32230093  0.76648628  1
  O2-  O171  1  0.42799791  0.81741881  0.09773296  1
  O2-  O172  1  0.42641448  0.82166160  0.42205747  1
  O2-  O173  1  0.42596172  0.82010931  0.75533675  1
  O2-  O174  1  0.93185228  0.32641388  0.08874779  1
  O2-  O175  1  0.93174074  0.32168742  0.43259473  1
  O2-  O176  1  0.92915966  0.33140009  0.75648991  1
  O2-  O177  1  0.93264561  0.81872526  0.09868141  1
  O2-  O178  1  0.93034073  0.81967084  0.42398774  1
  O2-  O179  1  0.92761252  0.81624506  0.75364464  1
  O2-  O180  1  0.32082490  0.06690163  0.23431649  1
  O2-  O181  1  0.31971627  0.06612644  0.56651601  1
  O2-  O182  1  0.31928833  0.07328660  0.90028663  1
  O2-  O183  1  0.31795097  0.57344798  0.23226666  1
  O2-  O184  1  0.32154562  0.57356427  0.57008166  1
  O2-  O185  1  0.31982082  0.57296457  0.90996411  1
  O2-  O186  1  0.82428864  0.06844943  0.23474787  1
  O2-  O187  1  0.82187770  0.07191856  0.56718850  1
  O2-  O188  1  0.82393249  0.06873713  0.90222144  1
  O2-  O189  1  0.81888551  0.57179310  0.23505002  1
  O2-  O190  1  0.82030983  0.57437260  0.57521449  1
  O2-  O191  1  0.81914166  0.56738470  0.89975880  1
  O2-  O192  1  0.04683289  0.08223165  0.27090705  1
  O2-  O193  1  0.04379773  0.08099199  0.59618305  1
  O2-  O194  1  0.04823554  0.08196776  0.93308161  1
  O2-  O195  1  0.04121602  0.58912951  0.27223434  1
  O2-  O196  1  0.04232965  0.58736610  0.60328327  1
  O2-  O197  1  0.05105232  0.58048193  0.93671047  1
  O2-  O198  1  0.53952086  0.08046589  0.26495495  1
  O2-  O199  1  0.54539111  0.07786309  0.60087046  1
  O2-  O200  1  0.54137102  0.08851947  0.93988875  1
  O2-  O201  1  0.54724700  0.57978511  0.26331186  1
  O2-  O202  1  0.54712016  0.58866171  0.60360083  1
  O2-  O203  1  0.54126190  0.58282482  0.93669828  1
  O2-  O204  1  0.16765198  0.20225809  0.27246453  1
  O2-  O205  1  0.16494514  0.21212915  0.59773767  1
  O2-  O206  1  0.16632040  0.21760894  0.93382624  1
  O2-  O207  1  0.16184966  0.70702620  0.27089188  1
  O2-  O208  1  0.16249861  0.70817911  0.60209542  1
  O2-  O209  1  0.16459023  0.70478739  0.93268162  1
  O2-  O210  1  0.66548247  0.21035643  0.26315885  1
  O2-  O211  1  0.67049501  0.21017197  0.60171345  1
  O2-  O212  1  0.66486480  0.20533020  0.94094332  1
  O2-  O213  1  0.66628662  0.71293315  0.26269045  1
  O2-  O214  1  0.66306539  0.71055463  0.60398423  1
  O2-  O215  1  0.66506663  0.69791439  0.93755655  1
  O2-  O216  1  0.08790338  0.45295962  0.06228286  1
  O2-  O217  1  0.08287315  0.46350877  0.40293899  1
  O2-  O218  1  0.08244567  0.46411462  0.74083447  1
  O2-  O219  1  0.08520873  0.94961522  0.05974650  1
  O2-  O220  1  0.08289509  0.95158013  0.39774350  1
  O2-  O221  1  0.08136819  0.94806869  0.72526445  1
  O2-  O222  1  0.57817733  0.45656592  0.07104869  1
  O2-  O223  1  0.58357907  0.45120068  0.39630991  1
  O2-  O224  1  0.58979297  0.46151563  0.72875477  1
  O2-  O225  1  0.58055613  0.95713408  0.07131226  1
  O2-  O226  1  0.58356692  0.94823056  0.39356395  1
  O2-  O227  1  0.57797482  0.94814459  0.73086808  1
  O2-  O228  1  0.21377697  0.34045885  0.06584354  1
  O2-  O229  1  0.20057440  0.32964286  0.40151263  1
  O2-  O230  1  0.20396406  0.33052899  0.73842389  1
  O2-  O231  1  0.20506767  0.83205134  0.06157890  1
  O2-  O232  1  0.20063787  0.83413671  0.39655051  1
  O2-  O233  1  0.20271960  0.83330843  0.73038086  1
  O2-  O234  1  0.70171485  0.32927542  0.07057902  1
  O2-  O235  1  0.70694973  0.33450768  0.39759125  1
  O2-  O236  1  0.70541721  0.33968139  0.72911695  1
  O2-  O237  1  0.70344599  0.82880019  0.06553853  1
  O2-  O238  1  0.70926940  0.83657464  0.39597386  1
  O2-  O239  1  0.71271010  0.83246924  0.73760870  1
  O2-  O240  1  0.45258710  0.41406298  0.26950900  1
  O2-  O241  1  0.46076483  0.42054716  0.59936924  1
  O2-  O242  1  0.45299395  0.41443790  0.94019213  1
  O2-  O243  1  0.45554419  0.91247634  0.26892645  1
  O2-  O244  1  0.45487844  0.91141125  0.60131300  1
  O2-  O245  1  0.46119355  0.91859605  0.93157173  1
  O2-  O246  1  0.96291238  0.41841727  0.26530960  1
  O2-  O247  1  0.95865509  0.41906971  0.60411487  1
  O2-  O248  1  0.95760886  0.41466651  0.93531764  1
  O2-  O249  1  0.95755823  0.91333294  0.27158522  1
  O2-  O250  1  0.95599163  0.90975470  0.59977169  1
  O2-  O251  1  0.96234708  0.91249324  0.92728751  1
  O2-  O252  1  0.33102616  0.29651055  0.27316025  1
  O2-  O253  1  0.32822475  0.30066075  0.60333005  1
  O2-  O254  1  0.33860719  0.29060184  0.93855855  1
  O2-  O255  1  0.33125594  0.79868185  0.27049117  1
  O2-  O256  1  0.33520365  0.79250344  0.60283247  1
  O2-  O257  1  0.33358528  0.79155674  0.92867534  1
  O2-  O258  1  0.83400047  0.29423251  0.26409646  1
  O2-  O259  1  0.83309347  0.30686544  0.60584372  1
  O2-  O260  1  0.83086514  0.30316637  0.94121946  1
  O2-  O261  1  0.83814481  0.79238874  0.27137060  1
  O2-  O262  1  0.83709516  0.78820781  0.60104740  1
  O2-  O263  1  0.83158549  0.78795267  0.92994051  1
  O2-  O264  1  0.41520328  0.03891025  0.06771918  1
  O2-  O265  1  0.41709278  0.03423630  0.40181077  1
  O2-  O266  1  0.41504066  0.03810313  0.73315802  1
  O2-  O267  1  0.41061016  0.54498934  0.06249701  1
  O2-  O268  1  0.42440229  0.54971299  0.39538024  1
  O2-  O269  1  0.42359435  0.54818211  0.73574749  1
  O2-  O270  1  0.92374362  0.03779198  0.06623297  1
  O2-  O271  1  0.91664515  0.03947076  0.40210246  1
  O2-  O272  1  0.91986651  0.03822044  0.73052164  1
  O2-  O273  1  0.92216160  0.54465391  0.06538398  1
  O2-  O274  1  0.91486793  0.54161558  0.40227049  1
  O2-  O275  1  0.91346698  0.54917273  0.72779407  1
  O2-  O276  1  0.28794536  0.16683458  0.06942608  1
  O2-  O277  1  0.29380777  0.16502664  0.40262021  1
  O2-  O278  1  0.28974187  0.16747913  0.73187558  1
  O2-  O279  1  0.29212364  0.66584466  0.06062954  1
  O2-  O280  1  0.29228802  0.67015037  0.39950757  1
  O2-  O281  1  0.28973644  0.66911849  0.73611402  1
  O2-  O282  1  0.80047398  0.16983342  0.06647900  1
  O2-  O283  1  0.79190001  0.17062103  0.39857028  1
  O2-  O284  1  0.80163551  0.17481916  0.73333474  1
  O2-  O285  1  0.79395293  0.66763499  0.06588188  1
  O2-  O286  1  0.78794451  0.66832814  0.40178711  1
  O2-  O287  1  0.79021592  0.66295516  0.72824858  1
