# generated using pymatgen
data_Ca2Al2SiO7
_symmetry_space_group_name_H-M   'P 1'
_cell_length_a   15.45793420
_cell_length_b   15.45871870
_cell_length_c   15.28349467
_cell_angle_alpha   90.01253474
_cell_angle_beta   89.97700574
_cell_angle_gamma   89.99931489
_symmetry_Int_Tables_number   1
_chemical_formula_structural   Ca2Al2SiO7
_chemical_formula_sum   'Ca48 Al48 Si24 O168'
_cell_volume   3652.14131132
_cell_formula_units_Z   24
loop_
 _symmetry_equiv_pos_site_id
 _symmetry_equiv_pos_as_xyz
  1  'x, y, z'
loop_
 _atom_type_symbol
 _atom_type_oxidation_number
  Ca2+  2.0
  Al0+  0.0
  Si0+  0.0
  O2-  -2.0
loop_
 _atom_site_type_symbol
 _atom_site_label
 _atom_site_symmetry_multiplicity
 _atom_site_fract_x
 _atom_site_fract_y
 _atom_site_fract_z
 _atom_site_occupancy
  Ca2+  Ca0  1  0.17399699  0.08508779  0.16562373  1
  Ca2+  Ca1  1  0.16611759  0.08008653  0.50330041  1
  Ca2+  Ca2  1  0.17182237  0.08199537  0.83995915  1
  Ca2+  Ca3  1  0.17546497  0.58159467  0.16553927  1
  Ca2+  Ca4  1  0.17786747  0.59378124  0.50461348  1
  Ca2+  Ca5  1  0.17554009  0.58452104  0.83859250  1
  Ca2+  Ca6  1  0.67331157  0.07560424  0.17596331  1
  Ca2+  Ca7  1  0.67026068  0.06922009  0.50048087  1
  Ca2+  Ca8  1  0.66438427  0.07495470  0.83316687  1
  Ca2+  Ca9  1  0.66972477  0.57794115  0.16127671  1
  Ca2+  Ca10  1  0.67278934  0.58086027  0.51280775  1
  Ca2+  Ca11  1  0.67444090  0.57748241  0.83265158  1
  Ca2+  Ca12  1  0.07541846  0.33752065  0.16053856  1
  Ca2+  Ca13  1  0.06855370  0.33640888  0.49798780  1
  Ca2+  Ca14  1  0.07357890  0.34541451  0.83359575  1
  Ca2+  Ca15  1  0.07139125  0.83237358  0.16135715  1
  Ca2+  Ca16  1  0.07253237  0.82755165  0.49936036  1
  Ca2+  Ca17  1  0.07182975  0.82457191  0.82659231  1
  Ca2+  Ca18  1  0.58043469  0.33218581  0.15680932  1
  Ca2+  Ca19  1  0.57853101  0.34207840  0.50170998  1
  Ca2+  Ca20  1  0.57484369  0.34773571  0.83001230  1
  Ca2+  Ca21  1  0.57585339  0.83528096  0.16268892  1
  Ca2+  Ca22  1  0.58643086  0.82832115  0.49694331  1
  Ca2+  Ca23  1  0.57958159  0.82451400  0.82705391  1
  Ca2+  Ca24  1  0.33282249  0.42553661  0.16707328  1
  Ca2+  Ca25  1  0.33344429  0.42809655  0.50954973  1
  Ca2+  Ca26  1  0.33240612  0.42521733  0.84263540  1
  Ca2+  Ca27  1  0.34062723  0.91821035  0.17048209  1
  Ca2+  Ca28  1  0.33500394  0.91361079  0.50253113  1
  Ca2+  Ca29  1  0.33401592  0.92152468  0.84301614  1
  Ca2+  Ca30  1  0.83495379  0.41677872  0.16778394  1
  Ca2+  Ca31  1  0.82858922  0.41843581  0.51190095  1
  Ca2+  Ca32  1  0.83118004  0.42471219  0.84217892  1
  Ca2+  Ca33  1  0.83145519  0.91943635  0.17771296  1
  Ca2+  Ca34  1  0.82850870  0.91157609  0.50547141  1
  Ca2+  Ca35  1  0.82875252  0.90604308  0.83560568  1
  Ca2+  Ca36  1  0.41978429  0.17045230  0.15459384  1
  Ca2+  Ca37  1  0.41912582  0.17452280  0.49983798  1
  Ca2+  Ca38  1  0.41261718  0.17967458  0.83180985  1
  Ca2+  Ca39  1  0.41187563  0.67281978  0.16259945  1
  Ca2+  Ca40  1  0.42350113  0.66353977  0.49585319  1
  Ca2+  Ca41  1  0.42057078  0.66118315  0.82656483  1
  Ca2+  Ca42  1  0.91135563  0.17590999  0.16361219  1
  Ca2+  Ca43  1  0.90572619  0.17707403  0.49643511  1
  Ca2+  Ca44  1  0.91475621  0.18124453  0.83006831  1
  Ca2+  Ca45  1  0.90981150  0.67698647  0.15909038  1
  Ca2+  Ca46  1  0.91593437  0.67092047  0.50038843  1
  Ca2+  Ca47  1  0.91465094  0.66855761  0.82497112  1
  Al0+  Al48  1  -0.00068047  -0.00025518  -0.00475782  1
  Al0+  Al49  1  0.00257317  0.00247269  0.33386765  1
  Al0+  Al50  1  0.00011386  0.00113541  0.66497859  1
  Al0+  Al51  1  0.00145561  0.50226715  0.00552110  1
  Al0+  Al52  1  0.00160628  0.49920861  0.32871108  1
  Al0+  Al53  1  0.00254165  0.50081166  0.65896069  1
  Al0+  Al54  1  0.50011706  -0.00064034  -0.00057052  1
  Al0+  Al55  1  0.50130436  0.00047419  0.33559224  1
  Al0+  Al56  1  0.50054980  0.00265695  0.67092549  1
  Al0+  Al57  1  0.50194049  0.50032713  0.00522032  1
  Al0+  Al58  1  0.49981240  0.50091529  0.33477796  1
  Al0+  Al59  1  0.49938915  0.50188717  0.66392007  1
  Al0+  Al60  1  0.25060237  0.24852008  0.00520640  1
  Al0+  Al61  1  0.24863086  0.25123843  0.33515482  1
  Al0+  Al62  1  0.25040729  0.25072083  0.66067439  1
  Al0+  Al63  1  0.24781938  0.75262397  0.00063388  1
  Al0+  Al64  1  0.25148202  0.75068933  0.33329716  1
  Al0+  Al65  1  0.24824247  0.75273455  0.66936569  1
  Al0+  Al66  1  0.74996152  0.24740998  -0.00226922  1
  Al0+  Al67  1  0.74850696  0.24902206  0.33294921  1
  Al0+  Al68  1  0.74636902  0.24604260  0.66657976  1
  Al0+  Al69  1  0.74688438  0.74913496  0.00075787  1
  Al0+  Al70  1  0.74894300  0.74667998  0.33124935  1
  Al0+  Al71  1  0.74680666  0.74954349  0.66746051  1
  Al0+  Al72  1  0.68058522  0.42633386  0.01536632  1
  Al0+  Al73  1  0.17886314  0.42832033  0.01530408  1
  Al0+  Al74  1  0.32311040  0.57372001  0.01538433  1
  Al0+  Al75  1  0.92687811  0.82096604  0.98621036  1
  Al0+  Al76  1  0.82172987  0.57197121  0.01577901  1
  Al0+  Al77  1  0.31974449  0.57212101  0.67989918  1
  Al0+  Al78  1  0.32107353  0.06895889  0.01351415  1
  Al0+  Al79  1  0.43098035  0.82040032  0.32096968  1
  Al0+  Al80  1  0.92753806  0.32059671  0.65460925  1
  Al0+  Al81  1  0.42805199  0.82131083  0.98621591  1
  Al0+  Al82  1  0.56839234  0.67993962  0.65334305  1
  Al0+  Al83  1  0.43015936  0.32148414  0.65263607  1
  Al0+  Al84  1  0.42987929  0.32095214  0.98836623  1
  Al0+  Al85  1  0.07344629  0.67819366  0.65133973  1
  Al0+  Al86  1  0.92827745  0.31953714  0.31851146  1
  Al0+  Al87  1  0.82363633  0.56940834  0.67930129  1
  Al0+  Al88  1  0.82310326  0.07168207  0.34823668  1
  Al0+  Al89  1  0.67918481  0.92834859  0.68222577  1
  Al0+  Al90  1  0.31965947  0.57072473  0.34904591  1
  Al0+  Al91  1  0.92940608  0.32185823  0.98660859  1
  Al0+  Al92  1  0.67847103  0.42633935  0.68049561  1
  Al0+  Al93  1  0.67965188  0.92672828  0.34814255  1
  Al0+  Al94  1  0.92714041  0.82049603  0.65173924  1
  Al0+  Al95  1  0.92871243  0.82010115  0.31992492  1
  Si0+  Si96  1  0.67925969  0.92908546  0.01534055  1
  Si0+  Si97  1  0.57078699  0.17402084  0.64755110  1
  Si0+  Si98  1  0.07233307  0.17796383  0.98368478  1
  Si0+  Si99  1  0.57027100  0.67806701  0.98257260  1
  Si0+  Si100  1  0.07357362  0.67930630  0.31434597  1
  Si0+  Si101  1  0.82273581  0.56992590  0.34753721  1
  Si0+  Si102  1  0.32013765  0.07262489  0.68121074  1
  Si0+  Si103  1  0.17771980  0.93063946  0.68260657  1
  Si0+  Si104  1  0.82216698  0.06992840  0.01358796  1
  Si0+  Si105  1  0.32232495  0.07290158  0.34979358  1
  Si0+  Si106  1  0.42769404  0.82515650  0.65231153  1
  Si0+  Si107  1  0.17918935  0.42588518  0.68111808  1
  Si0+  Si108  1  0.07259217  0.17769950  0.64937691  1
  Si0+  Si109  1  0.56840503  0.17973609  0.31855918  1
  Si0+  Si110  1  0.67951953  0.42868270  0.34809790  1
  Si0+  Si111  1  0.17722142  0.42732280  0.35289505  1
  Si0+  Si112  1  0.17575615  0.92922867  0.01734141  1
  Si0+  Si113  1  0.57267403  0.17667325  0.98218777  1
  Si0+  Si114  1  0.07536787  0.17783933  0.31485306  1
  Si0+  Si115  1  0.57246979  0.67480187  0.31379287  1
  Si0+  Si116  1  0.42848481  0.32197333  0.31814181  1
  Si0+  Si117  1  0.07185096  0.67886158  0.98427623  1
  Si0+  Si118  1  0.82338972  0.07126570  0.68562291  1
  Si0+  Si119  1  0.18013245  0.92975463  0.34883655  1
  O2-  O120  1  0.24822750  -0.00636274  0.06273871  1
  O2-  O121  1  0.25155062  0.00143154  0.39148923  1
  O2-  O122  1  0.24985846  0.00133091  0.72352580  1
  O2-  O123  1  0.25274004  0.49923072  0.06470249  1
  O2-  O124  1  0.24546344  0.49609655  0.39699814  1
  O2-  O125  1  0.24560382  0.49650035  0.72521353  1
  O2-  O126  1  0.75322433  -0.00270403  0.05654636  1
  O2-  O127  1  0.75795016  -0.00715680  0.39750801  1
  O2-  O128  1  0.75773851  -0.00063638  0.72967202  1
  O2-  O129  1  0.75533909  0.49465016  0.06686458  1
  O2-  O130  1  0.75284476  0.49746825  0.38917331  1
  O2-  O131  1  0.75729605  0.49156603  0.72882080  1
  O2-  O132  1  0.00378175  0.24437979  0.27271689  1
  O2-  O133  1  0.00161743  0.24473445  0.60681570  1
  O2-  O134  1  0.00655767  0.24922825  0.93968782  1
  O2-  O135  1  0.00100746  0.74427492  0.27044642  1
  O2-  O136  1  -0.00255344  0.74673312  0.60196248  1
  O2-  O137  1  -0.00064102  0.74406762  0.94090098  1
  O2-  O138  1  0.49726338  0.24970569  0.27521488  1
  O2-  O139  1  0.50712715  0.24871491  0.60495588  1
  O2-  O140  1  0.50673350  0.24886202  0.93970479  1
  O2-  O141  1  0.50571727  0.74699261  0.27222326  1
  O2-  O142  1  0.49404713  0.75566188  0.60699317  1
  O2-  O143  1  0.49647505  0.74217896  0.93898149  1
  O2-  O144  1  0.06984132  0.17454060  0.08923665  1
  O2-  O145  1  0.08086199  0.17928615  0.42019810  1
  O2-  O146  1  0.07556142  0.17597903  0.75468423  1
  O2-  O147  1  0.07359349  0.68313759  0.09012419  1
  O2-  O148  1  0.07491251  0.68209167  0.41981688  1
  O2-  O149  1  0.07758246  0.68232411  0.76464254  1
  O2-  O150  1  0.57088304  0.17438884  0.08835272  1
  O2-  O151  1  0.56619611  0.17976268  0.42350048  1
  O2-  O152  1  0.56609182  0.16666132  0.75252610  1
  O2-  O153  1  0.57328212  0.68187746  0.08841533  1
  O2-  O154  1  0.57176635  0.67190938  0.41935612  1
  O2-  O155  1  0.56707901  0.67994400  0.76630834  1
  O2-  O156  1  0.17903291  0.42547512  0.24758144  1
  O2-  O157  1  0.18282346  0.42242875  0.57541861  1
  O2-  O158  1  0.17912067  0.42967291  0.90151018  1
  O2-  O159  1  0.18041219  0.93095794  0.24386478  1
  O2-  O160  1  0.17848967  0.93210069  0.57704237  1
  O2-  O161  1  0.17497614  0.93276846  0.91172526  1
  O2-  O162  1  0.67794835  0.42784417  0.24319551  1
  O2-  O163  1  0.67916096  0.42975502  0.56591664  1
  O2-  O164  1  0.68004926  0.42855894  0.90244051  1
  O2-  O165  1  0.67706906  0.93183702  0.23412910  1
  O2-  O166  1  0.67675267  0.93096957  0.56935529  1
  O2-  O167  1  0.67848081  0.93019930  0.91024029  1
  O2-  O168  1  0.43169278  0.31704426  0.10214715  1
  O2-  O169  1  0.43022146  0.32113374  0.42340307  1
  O2-  O170  1  0.42713414  0.31940812  0.76547502  1
  O2-  O171  1  0.43298769  0.82392412  0.09947117  1
  O2-  O172  1  0.43058265  0.82033655  0.43404630  1
  O2-  O173  1  0.42911852  0.82638072  0.75785488  1
  O2-  O174  1  0.92874614  0.31702475  0.09976645  1
  O2-  O175  1  0.92743333  0.31881739  0.43168385  1
  O2-  O176  1  0.92993238  0.32034100  0.76764569  1
  O2-  O177  1  0.92885734  0.82368925  0.09974778  1
  O2-  O178  1  0.93018704  0.81820876  0.43253124  1
  O2-  O179  1  0.93037008  0.82052106  0.76539195  1
  O2-  O180  1  0.32263910  0.07370964  0.24487468  1
  O2-  O181  1  0.31927287  0.07204015  0.57554568  1
  O2-  O182  1  0.31853819  0.06902461  0.90019230  1
  O2-  O183  1  0.31897057  0.56975570  0.23631030  1
  O2-  O184  1  0.31970314  0.57150866  0.56642316  1
  O2-  O185  1  0.32179206  0.57278430  0.90181399  1
  O2-  O186  1  0.81838911  0.07255086  0.23405306  1
  O2-  O187  1  0.82211168  0.07214741  0.58007419  1
  O2-  O188  1  0.82106722  0.07059857  0.90864664  1
  O2-  O189  1  0.82111536  0.57020819  0.24253287  1
  O2-  O190  1  0.82057601  0.56895987  0.56487837  1
  O2-  O191  1  0.82044029  0.57324697  0.90261945  1
  O2-  O192  1  0.05486595  0.08316039  0.26901734  1
  O2-  O193  1  0.04883189  0.08409735  0.60192910  1
  O2-  O194  1  0.04457894  0.08614894  0.93437666  1
  O2-  O195  1  0.05301668  0.58376583  0.27069419  1
  O2-  O196  1  0.05338797  0.57976540  0.59472122  1
  O2-  O197  1  0.05160231  0.58378176  0.94058004  1
  O2-  O198  1  0.54054838  0.08832143  0.27024850  1
  O2-  O199  1  0.53623790  0.08448745  0.59745068  1
  O2-  O200  1  0.54251815  0.08488761  0.93507723  1
  O2-  O201  1  0.54218514  0.58282149  0.26642593  1
  O2-  O202  1  0.53700093  0.58571438  0.59522260  1
  O2-  O203  1  0.54948915  0.58277773  0.93928009  1
  O2-  O204  1  0.16836890  0.20630237  0.26703953  1
  O2-  O205  1  0.16497006  0.20346217  0.59984320  1
  O2-  O206  1  0.16756656  0.19964663  0.93989025  1
  O2-  O207  1  0.16514852  0.71057675  0.26773491  1
  O2-  O208  1  0.16928716  0.71627841  0.59658595  1
  O2-  O209  1  0.16339152  0.70874486  0.93624738  1
  O2-  O210  1  0.65950391  0.20772075  0.27012439  1
  O2-  O211  1  0.66606687  0.19214247  0.60260119  1
  O2-  O212  1  0.66703465  0.19633962  0.93596345  1
  O2-  O213  1  0.66645445  0.69694668  0.26744348  1
  O2-  O214  1  0.66374766  0.71117433  0.59769327  1
  O2-  O215  1  0.66095296  0.71030617  0.93489016  1
  O2-  O216  1  0.08270826  0.45855572  0.07219479  1
  O2-  O217  1  0.08245103  0.45291663  0.39677774  1
  O2-  O218  1  0.08430684  0.45012610  0.72368123  1
  O2-  O219  1  0.08351832  0.96032894  0.06414253  1
  O2-  O220  1  0.08986325  0.95895333  0.39866955  1
  O2-  O221  1  0.08673585  0.96024623  0.73067438  1
  O2-  O222  1  0.58415158  0.45743110  0.07167748  1
  O2-  O223  1  0.58799484  0.45828623  0.39542806  1
  O2-  O224  1  0.58223136  0.46299951  0.73145998  1
  O2-  O225  1  0.58899150  0.96115050  0.06322094  1
  O2-  O226  1  0.58373061  0.96257971  0.40272271  1
  O2-  O227  1  0.58390143  0.96431971  0.73728307  1
  O2-  O228  1  0.20411398  0.32938637  0.06930735  1
  O2-  O229  1  0.20221216  0.33334417  0.39925383  1
  O2-  O230  1  0.20535342  0.33221463  0.72696893  1
  O2-  O231  1  0.19611009  0.83513877  0.06344693  1
  O2-  O232  1  0.20975184  0.83925442  0.39717147  1
  O2-  O233  1  0.20496491  0.84051735  0.73245724  1
  O2-  O234  1  0.70445582  0.32518931  0.06635280  1
  O2-  O235  1  0.70387004  0.33605712  0.39496428  1
  O2-  O236  1  0.69259306  0.32310781  0.72840636  1
  O2-  O237  1  0.70286219  0.83697448  0.06296227  1
  O2-  O238  1  0.70152531  0.82525202  0.39720679  1
  O2-  O239  1  0.70577651  0.83181703  0.73741754  1
  O2-  O240  1  0.45845836  0.41324209  0.27172196  1
  O2-  O241  1  0.46098435  0.41653710  0.59603803  1
  O2-  O242  1  0.45897462  0.41901889  0.93686102  1
  O2-  O243  1  0.45999525  0.91900596  0.26845967  1
  O2-  O244  1  0.45361503  0.91928836  0.60700443  1
  O2-  O245  1  0.46256639  0.91668630  0.93159852  1
  O2-  O246  1  0.95954235  0.41611536  0.26424686  1
  O2-  O247  1  0.95876427  0.41492450  0.59656350  1
  O2-  O248  1  0.95979925  0.42022617  0.93665301  1
  O2-  O249  1  0.96103714  0.91845264  0.26917015  1
  O2-  O250  1  0.95864440  0.91924650  0.59999486  1
  O2-  O251  1  0.95850228  0.91671394  0.93084237  1
  O2-  O252  1  0.33506838  0.29546729  0.27406595  1
  O2-  O253  1  0.33576893  0.28675818  0.59500298  1
  O2-  O254  1  0.33371847  0.28611023  0.93618537  1
  O2-  O255  1  0.33385572  0.79154439  0.26654814  1
  O2-  O256  1  0.33244076  0.80350747  0.60869988  1
  O2-  O257  1  0.32724293  0.80168490  0.93614070  1
  O2-  O258  1  0.83129340  0.28764250  0.26517847  1
  O2-  O259  1  0.83027382  0.28795012  0.60161924  1
  O2-  O260  1  0.83417390  0.28689970  0.93243264  1
  O2-  O261  1  0.83127652  0.79069518  0.26609764  1
  O2-  O262  1  0.82788780  0.79470011  0.60097506  1
  O2-  O263  1  0.82883794  0.79186126  0.93520450  1
  O2-  O264  1  0.41812138  0.03893280  0.06809201  1
  O2-  O265  1  0.41336142  0.04548159  0.39832257  1
  O2-  O266  1  0.41139369  0.04706411  0.72956796  1
  O2-  O267  1  0.42119315  0.54778227  0.06958469  1
  O2-  O268  1  0.41707705  0.53892088  0.40154815  1
  O2-  O269  1  0.41582584  0.53969560  0.73201854  1
  O2-  O270  1  0.91484660  0.04425111  0.06024436  1
  O2-  O271  1  0.92552650  0.05536216  0.39752950  1
  O2-  O272  1  0.91917615  0.05120765  0.72960442  1
  O2-  O273  1  0.92113999  0.55134679  0.06927714  1
  O2-  O274  1  0.91667560  0.54506341  0.39173625  1
  O2-  O275  1  0.92562192  0.54819060  0.72771342  1
  O2-  O276  1  0.28996159  0.16322671  0.07170183  1
  O2-  O277  1  0.29325589  0.16457270  0.39782300  1
  O2-  O278  1  0.29012431  0.16437389  0.72739377  1
  O2-  O279  1  0.29093764  0.67221636  0.06767174  1
  O2-  O280  1  0.28935462  0.66825481  0.40178830  1
  O2-  O281  1  0.29126816  0.66977968  0.73324826  1
  O2-  O282  1  0.79246379  0.16038068  0.06235766  1
  O2-  O283  1  0.78474276  0.16697677  0.40218674  1
  O2-  O284  1  0.79260204  0.16285492  0.73316915  1
  O2-  O285  1  0.78460609  0.66803280  0.07039295  1
  O2-  O286  1  0.79351579  0.66093355  0.39504912  1
  O2-  O287  1  0.78945631  0.66590746  0.73176692  1
