# generated using pymatgen
data_Ca2Al2SiO7
_symmetry_space_group_name_H-M   'P 1'
_cell_length_a   15.46685146
_cell_length_b   15.46421502
_cell_length_c   15.28926356
_cell_angle_alpha   90.00035974
_cell_angle_beta   89.99087756
_cell_angle_gamma   89.99500987
_symmetry_Int_Tables_number   1
_chemical_formula_structural   Ca2Al2SiO7
_chemical_formula_sum   'Ca48 Al48 Si24 O168'
_cell_volume   3656.92753269
_cell_formula_units_Z   24
loop_
 _symmetry_equiv_pos_site_id
 _symmetry_equiv_pos_as_xyz
  1  'x, y, z'
loop_
 _atom_type_symbol
 _atom_type_oxidation_number
  Ca2+  2.0
  Al0+  0.0
  Si0+  0.0
  O2-  -2.0
loop_
 _atom_site_type_symbol
 _atom_site_label
 _atom_site_symmetry_multiplicity
 _atom_site_fract_x
 _atom_site_fract_y
 _atom_site_fract_z
 _atom_site_occupancy
  Ca2+  Ca0  1  0.16422260  0.08895365  0.16836992  1
  Ca2+  Ca1  1  0.17340278  0.08449122  0.50588265  1
  Ca2+  Ca2  1  0.17194750  0.08645473  0.83476656  1
  Ca2+  Ca3  1  0.18091739  0.58375984  0.17246632  1
  Ca2+  Ca4  1  0.17968721  0.57941415  0.50930916  1
  Ca2+  Ca5  1  0.18012631  0.57843364  0.83526250  1
  Ca2+  Ca6  1  0.66478585  0.07382946  0.17315130  1
  Ca2+  Ca7  1  0.65531775  0.07336331  0.50557409  1
  Ca2+  Ca8  1  0.66342035  0.07087669  0.83841732  1
  Ca2+  Ca9  1  0.66498532  0.57954433  0.15963675  1
  Ca2+  Ca10  1  0.66578926  0.58637467  0.50439947  1
  Ca2+  Ca11  1  0.66666113  0.58426280  0.84488301  1
  Ca2+  Ca12  1  0.07907180  0.32238208  0.15653685  1
  Ca2+  Ca13  1  0.08864735  0.33053857  0.49760499  1
  Ca2+  Ca14  1  0.07899801  0.33590654  0.83262619  1
  Ca2+  Ca15  1  0.07446291  0.83415009  0.16391083  1
  Ca2+  Ca16  1  0.06854260  0.84044579  0.49550623  1
  Ca2+  Ca17  1  0.07330107  0.83122062  0.82780298  1
  Ca2+  Ca18  1  0.58275141  0.33054796  0.15867359  1
  Ca2+  Ca19  1  0.57834275  0.32078297  0.49902179  1
  Ca2+  Ca20  1  0.57488126  0.33447189  0.82809226  1
  Ca2+  Ca21  1  0.58304527  0.83138688  0.16414224  1
  Ca2+  Ca22  1  0.57554664  0.83396258  0.50014123  1
  Ca2+  Ca23  1  0.58788404  0.82424084  0.82603828  1
  Ca2+  Ca24  1  0.34495407  0.42892089  0.16700644  1
  Ca2+  Ca25  1  0.33172030  0.42526557  0.51122410  1
  Ca2+  Ca26  1  0.34179338  0.42346910  0.83760318  1
  Ca2+  Ca27  1  0.33186922  0.91611900  0.17453107  1
  Ca2+  Ca28  1  0.34162037  0.92005513  0.50837823  1
  Ca2+  Ca29  1  0.34272054  0.92349075  0.83139508  1
  Ca2+  Ca30  1  0.83362853  0.41594692  0.16258087  1
  Ca2+  Ca31  1  0.83092501  0.41835059  0.50490644  1
  Ca2+  Ca32  1  0.82470084  0.42262012  0.84625139  1
  Ca2+  Ca33  1  0.82129349  0.91825375  0.16921371  1
  Ca2+  Ca34  1  0.82272101  0.91132604  0.50499774  1
  Ca2+  Ca35  1  0.82162468  0.91796158  0.83948529  1
  Ca2+  Ca36  1  0.42469907  0.17387932  0.16151602  1
  Ca2+  Ca37  1  0.42387838  0.16434815  0.50198175  1
  Ca2+  Ca38  1  0.42063377  0.17748433  0.82386565  1
  Ca2+  Ca39  1  0.41756383  0.66949666  0.15942275  1
  Ca2+  Ca40  1  0.41489399  0.67182740  0.49898690  1
  Ca2+  Ca41  1  0.42718926  0.66622535  0.82662499  1
  Ca2+  Ca42  1  0.92650153  0.16534576  0.15550857  1
  Ca2+  Ca43  1  0.92603825  0.16678005  0.49258635  1
  Ca2+  Ca44  1  0.91637787  0.16488641  0.83656479  1
  Ca2+  Ca45  1  0.90987784  0.67119931  0.16218861  1
  Ca2+  Ca46  1  0.91654489  0.67976766  0.49707598  1
  Ca2+  Ca47  1  0.91142806  0.67103995  0.82586922  1
  Al0+  Al48  1  0.00068615  -0.00159216  -0.00222344  1
  Al0+  Al49  1  -0.00131080  0.00079508  0.32439822  1
  Al0+  Al50  1  -0.00064510  0.00131143  0.66244260  1
  Al0+  Al51  1  0.00218646  0.49951483  0.00112039  1
  Al0+  Al52  1  0.00041885  0.50069521  0.33529830  1
  Al0+  Al53  1  0.00050832  0.50048277  0.66838991  1
  Al0+  Al54  1  0.49686413  0.00047413  0.00641156  1
  Al0+  Al55  1  0.49929955  -0.00114097  0.32860144  1
  Al0+  Al56  1  0.50059113  -0.00146809  0.67222597  1
  Al0+  Al57  1  0.50141587  0.50224858  0.00170115  1
  Al0+  Al58  1  0.50183242  0.50084782  0.34062424  1
  Al0+  Al59  1  0.50126059  0.49884558  0.66059607  1
  Al0+  Al60  1  0.25067557  0.24958219  -0.00683494  1
  Al0+  Al61  1  0.25050631  0.25114804  0.32869969  1
  Al0+  Al62  1  0.24790826  0.24985024  0.67073715  1
  Al0+  Al63  1  0.24823537  0.75155635  0.00277469  1
  Al0+  Al64  1  0.24853487  0.75129854  0.33599607  1
  Al0+  Al65  1  0.24872935  0.74873745  0.66934704  1
  Al0+  Al66  1  0.75231751  0.24812915  0.00244773  1
  Al0+  Al67  1  0.75079295  0.24937050  0.33079585  1
  Al0+  Al68  1  0.75253651  0.24949589  0.66206862  1
  Al0+  Al69  1  0.74858135  0.75053135  0.00483354  1
  Al0+  Al70  1  0.74857680  0.75038644  0.33334648  1
  Al0+  Al71  1  0.75008872  0.75098076  0.66145945  1
  Al0+  Al72  1  0.57225160  0.67766111  0.65099935  1
  Al0+  Al73  1  0.07175576  0.18122151  0.31983474  1
  Al0+  Al74  1  0.57051356  0.17833334  0.31884474  1
  Al0+  Al75  1  0.32070495  0.57099244  0.01395679  1
  Al0+  Al76  1  0.32156289  0.57258886  0.34912238  1
  Al0+  Al77  1  0.67841368  0.42793144  0.01332244  1
  Al0+  Al78  1  0.67827625  0.92983919  0.35065032  1
  Al0+  Al79  1  0.92974766  0.82182072  0.65371676  1
  Al0+  Al80  1  0.32408621  0.57130091  0.68429126  1
  Al0+  Al81  1  0.67647334  0.92935505  0.01705989  1
  Al0+  Al82  1  0.17776366  0.42820117  0.68326711  1
  Al0+  Al83  1  0.82377743  0.57163113  0.01419364  1
  Al0+  Al84  1  0.92780012  0.32223280  0.98345447  1
  Al0+  Al85  1  0.92715640  0.81979897  0.31646747  1
  Al0+  Al86  1  0.07087303  0.17714271  0.98011612  1
  Al0+  Al87  1  0.68042814  0.92961424  0.68004998  1
  Al0+  Al88  1  0.42777068  0.82017288  0.65465977  1
  Al0+  Al89  1  0.32068046  0.06898818  0.68001143  1
  Al0+  Al90  1  0.42636137  0.32105952  0.65094765  1
  Al0+  Al91  1  0.42806409  0.81909564  0.31971149  1
  Al0+  Al92  1  0.43284344  0.32122650  0.98765843  1
  Al0+  Al93  1  0.56935146  0.68347572  0.98873840  1
  Al0+  Al94  1  0.57238933  0.17828783  0.65436988  1
  Al0+  Al95  1  0.82288317  0.06958728  0.01486180  1
  Si0+  Si96  1  0.57162499  0.67592871  0.31501255  1
  Si0+  Si97  1  0.07072203  0.67689636  0.65027366  1
  Si0+  Si98  1  0.92761243  0.32456271  0.31694109  1
  Si0+  Si99  1  0.92958970  0.81737243  0.98517272  1
  Si0+  Si100  1  0.17897325  0.92932903  0.01546756  1
  Si0+  Si101  1  0.17835492  0.42804968  0.34842632  1
  Si0+  Si102  1  0.82485783  0.07376602  0.68153242  1
  Si0+  Si103  1  0.81896551  0.57049300  0.67853479  1
  Si0+  Si104  1  0.07081249  0.67820415  0.31702430  1
  Si0+  Si105  1  0.31927140  0.07284135  0.01680706  1
  Si0+  Si106  1  0.68103967  0.42618140  0.67876203  1
  Si0+  Si107  1  0.68024923  0.42649727  0.35070802  1
  Si0+  Si108  1  0.31961758  0.07117391  0.34646944  1
  Si0+  Si109  1  0.17629771  0.93035569  0.34756477  1
  Si0+  Si110  1  0.42394005  0.82371414  0.98417900  1
  Si0+  Si111  1  0.82253439  0.07199690  0.35020756  1
  Si0+  Si112  1  0.07039463  0.17918976  0.65072876  1
  Si0+  Si113  1  0.17948671  0.42653519  0.01790913  1
  Si0+  Si114  1  0.07426370  0.67841173  0.98562999  1
  Si0+  Si115  1  0.42989912  0.32326636  0.31733332  1
  Si0+  Si116  1  0.17375377  0.92816930  0.68240864  1
  Si0+  Si117  1  0.92994249  0.32312729  0.65081728  1
  Si0+  Si118  1  0.82173292  0.57065370  0.34987237  1
  Si0+  Si119  1  0.57305025  0.17487386  0.98478984  1
  O2-  O120  1  0.24931280  0.00047178  0.05865774  1
  O2-  O121  1  0.24820188  0.00037407  0.38915919  1
  O2-  O122  1  0.24716701  -0.00831422  0.72649232  1
  O2-  O123  1  0.24794623  0.49496036  0.06290008  1
  O2-  O124  1  0.24671006  0.49636432  0.39294540  1
  O2-  O125  1  0.25473902  0.49520865  0.73268169  1
  O2-  O126  1  0.74572616  0.00460964  0.06668643  1
  O2-  O127  1  0.75262726  0.00630029  0.39663075  1
  O2-  O128  1  0.75411599  0.00683439  0.72408758  1
  O2-  O129  1  0.75488504  0.49606726  0.06380088  1
  O2-  O130  1  0.75216309  0.49800377  0.39203104  1
  O2-  O131  1  0.74733803  0.50134176  0.72083581  1
  O2-  O132  1  -0.00336986  0.25573219  0.27470905  1
  O2-  O133  1  0.00096310  0.25202372  0.60876431  1
  O2-  O134  1  -0.00164471  0.24946257  0.93154616  1
  O2-  O135  1  0.00084569  0.74373231  0.26984578  1
  O2-  O136  1  0.00691150  0.74995747  0.60564845  1
  O2-  O137  1  -0.00348797  0.74218478  0.94314045  1
  O2-  O138  1  0.49915209  0.25602769  0.27224971  1
  O2-  O139  1  0.49852322  0.24804122  0.60274641  1
  O2-  O140  1  0.50911310  0.24791748  0.94122368  1
  O2-  O141  1  0.49998352  0.74237874  0.27242756  1
  O2-  O142  1  0.49631563  0.74634082  0.60233058  1
  O2-  O143  1  0.49567192  0.75843343  0.94161742  1
  O2-  O144  1  0.07123777  0.17847766  0.09406516  1
  O2-  O145  1  0.07220897  0.18174984  0.43338929  1
  O2-  O146  1  0.06773943  0.17513732  0.75492191  1
  O2-  O147  1  0.07773370  0.68405251  0.09070844  1
  O2-  O148  1  0.06819330  0.67947919  0.42251505  1
  O2-  O149  1  0.06642973  0.67606983  0.75602898  1
  O2-  O150  1  0.56753382  0.17371130  0.09072509  1
  O2-  O151  1  0.56753719  0.17852641  0.43173836  1
  O2-  O152  1  0.57336246  0.18085640  0.76778627  1
  O2-  O153  1  0.56718580  0.68281132  0.10198913  1
  O2-  O154  1  0.57270237  0.67586409  0.42043219  1
  O2-  O155  1  0.57670990  0.67941431  0.76444826  1
  O2-  O156  1  0.17685728  0.42921034  0.24320224  1
  O2-  O157  1  0.17543680  0.43172993  0.56896621  1
  O2-  O158  1  0.17935316  0.42882413  0.91267700  1
  O2-  O159  1  0.17695219  0.92987981  0.24229103  1
  O2-  O160  1  0.16842787  0.93351283  0.57676916  1
  O2-  O161  1  0.17842292  0.92729491  0.91058809  1
  O2-  O162  1  0.67937859  0.42602973  0.24608558  1
  O2-  O163  1  0.68696453  0.42430681  0.57325228  1
  O2-  O164  1  0.67712800  0.43261692  0.89941343  1
  O2-  O165  1  0.67930652  0.92992877  0.23783151  1
  O2-  O166  1  0.68121962  0.92948100  0.56679864  1
  O2-  O167  1  0.67871224  0.92735355  0.90336302  1
  O2-  O168  1  0.43319314  0.31911546  0.10143704  1
  O2-  O169  1  0.42862422  0.32115422  0.42252805  1
  O2-  O170  1  0.43053189  0.32127506  0.76455645  1
  O2-  O171  1  0.42058377  0.82142842  0.09004362  1
  O2-  O172  1  0.42831978  0.82109837  0.43228906  1
  O2-  O173  1  0.43079805  0.82110509  0.76810742  1
  O2-  O174  1  0.93369900  0.32348255  0.09735572  1
  O2-  O175  1  0.92796636  0.32510175  0.42311598  1
  O2-  O176  1  0.92827085  0.32485217  0.75493471  1
  O2-  O177  1  0.93229627  0.81730176  0.09036500  1
  O2-  O178  1  0.92925174  0.81939187  0.42973886  1
  O2-  O179  1  0.93002468  0.81911157  0.76704196  1
  O2-  O180  1  0.31733669  0.07084437  0.24120687  1
  O2-  O181  1  0.31773167  0.06878657  0.56618250  1
  O2-  O182  1  0.32041128  0.07126018  0.91194952  1
  O2-  O183  1  0.32116714  0.57146753  0.23563907  1
  O2-  O184  1  0.31948223  0.57187582  0.57036429  1
  O2-  O185  1  0.31981303  0.57231076  0.90166360  1
  O2-  O186  1  0.82265964  0.07007430  0.24508004  1
  O2-  O187  1  0.82914513  0.07372938  0.57592724  1
  O2-  O188  1  0.82473613  0.06314559  0.90110396  1
  O2-  O189  1  0.82365076  0.56988968  0.24535923  1
  O2-  O190  1  0.82051058  0.56813266  0.57291398  1
  O2-  O191  1  0.82102229  0.57472553  0.90025116  1
  O2-  O192  1  0.04251265  0.08550789  0.26361842  1
  O2-  O193  1  0.04134251  0.08912232  0.59982517  1
  O2-  O194  1  0.04344654  0.07748076  0.92865650  1
  O2-  O195  1  0.04840040  0.58311668  0.27230750  1
  O2-  O196  1  0.03952125  0.58593446  0.60154664  1
  O2-  O197  1  0.05517456  0.58411725  0.94111633  1
  O2-  O198  1  0.53568947  0.08464175  0.26281269  1
  O2-  O199  1  0.54090750  0.08021190  0.60315733  1
  O2-  O200  1  0.54022222  0.08276656  0.93954015  1
  O2-  O201  1  0.54882456  0.58024475  0.27194728  1
  O2-  O202  1  0.55037019  0.57850535  0.59676504  1
  O2-  O203  1  0.53936400  0.58699218  0.93523853  1
  O2-  O204  1  0.16769675  0.21091258  0.26307889  1
  O2-  O205  1  0.16218089  0.20551966  0.60314483  1
  O2-  O206  1  0.16938235  0.20516128  0.92829291  1
  O2-  O207  1  0.16330838  0.70714073  0.27107238  1
  O2-  O208  1  0.16578529  0.69785083  0.60657400  1
  O2-  O209  1  0.16166046  0.71498313  0.93503084  1
  O2-  O210  1  0.66874435  0.20626065  0.26670100  1
  O2-  O211  1  0.67020137  0.20683038  0.59825092  1
  O2-  O212  1  0.66968344  0.19138192  0.94381965  1
  O2-  O213  1  0.66456139  0.70397570  0.26987312  1
  O2-  O214  1  0.66868597  0.70918259  0.59500610  1
  O2-  O215  1  0.66712498  0.71222043  0.93543128  1
  O2-  O216  1  0.08621186  0.45150287  0.06462999  1
  O2-  O217  1  0.08403712  0.45132593  0.39568349  1
  O2-  O218  1  0.08057464  0.46223616  0.73705798  1
  O2-  O219  1  0.08757234  0.95686278  0.06368455  1
  O2-  O220  1  0.08446058  0.96122095  0.39356204  1
  O2-  O221  1  0.08258802  0.96000588  0.73082271  1
  O2-  O222  1  0.58398333  0.46269448  0.07090945  1
  O2-  O223  1  0.58973899  0.45458296  0.40028335  1
  O2-  O224  1  0.58687308  0.44853709  0.72167432  1
  O2-  O225  1  0.57674773  0.95438651  0.07025866  1
  O2-  O226  1  0.58011712  0.96239017  0.40086032  1
  O2-  O227  1  0.58547172  0.95801851  0.73718765  1
  O2-  O228  1  0.20532348  0.33167851  0.06114838  1
  O2-  O229  1  0.20472657  0.33390266  0.39395653  1
  O2-  O230  1  0.19547946  0.32737027  0.73400856  1
  O2-  O231  1  0.20600019  0.83886100  0.06645275  1
  O2-  O232  1  0.19961151  0.83825788  0.39582896  1
  O2-  O233  1  0.19102103  0.83214600  0.72607259  1
  O2-  O234  1  0.70177147  0.32814774  0.06603385  1
  O2-  O235  1  0.70938671  0.33485089  0.39857693  1
  O2-  O236  1  0.71326684  0.33641916  0.72698591  1
  O2-  O237  1  0.71003159  0.83359921  0.07165350  1
  O2-  O238  1  0.71079805  0.83240028  0.40223458  1
  O2-  O239  1  0.71643209  0.83348851  0.73230472  1
  O2-  O240  1  0.45778116  0.41769041  0.27424006  1
  O2-  O241  1  0.45595152  0.41747159  0.59562309  1
  O2-  O242  1  0.46291823  0.41795823  0.93479432  1
  O2-  O243  1  0.45790858  0.91483140  0.26357511  1
  O2-  O244  1  0.45897103  0.91818301  0.60238754  1
  O2-  O245  1  0.44643293  0.91997668  0.94285343  1
  O2-  O246  1  0.95239065  0.41891832  0.27212652  1
  O2-  O247  1  0.95799876  0.41471893  0.60186696  1
  O2-  O248  1  0.95719165  0.42186908  0.93163532  1
  O2-  O249  1  0.96053000  0.91451649  0.26131791  1
  O2-  O250  1  0.95962059  0.91785276  0.59733245  1
  O2-  O251  1  0.96322125  0.90645643  0.93709747  1
  O2-  O252  1  0.33685915  0.29808197  0.27007988  1
  O2-  O253  1  0.32660006  0.29298433  0.60073624  1
  O2-  O254  1  0.33721964  0.29006947  0.93329815  1
  O2-  O255  1  0.32870426  0.79310409  0.26733393  1
  O2-  O256  1  0.32581183  0.79923585  0.60388596  1
  O2-  O257  1  0.33061239  0.79784921  0.93827919  1
  O2-  O258  1  0.83418583  0.30035150  0.27115020  1
  O2-  O259  1  0.83988750  0.29500269  0.59973131  1
  O2-  O260  1  0.82780835  0.29681272  0.93158497  1
  O2-  O261  1  0.83116197  0.78688465  0.26364478  1
  O2-  O262  1  0.83697804  0.78658999  0.59622817  1
  O2-  O263  1  0.83669127  0.79243894  0.93986315  1
  O2-  O264  1  0.40998547  0.04679867  0.06741292  1
  O2-  O265  1  0.41074171  0.04147614  0.39282337  1
  O2-  O266  1  0.41539425  0.03959335  0.73789990  1
  O2-  O267  1  0.41628740  0.54043023  0.06944893  1
  O2-  O268  1  0.41842847  0.54387172  0.40302588  1
  O2-  O269  1  0.42505042  0.54383285  0.73218721  1
  O2-  O270  1  0.92024828  0.03509002  0.06776510  1
  O2-  O271  1  0.91708966  0.04405979  0.39418167  1
  O2-  O272  1  0.91745476  0.04587878  0.72834403  1
  O2-  O273  1  0.92396427  0.54868261  0.06734779  1
  O2-  O274  1  0.91413885  0.54518581  0.39884105  1
  O2-  O275  1  0.91049200  0.54321091  0.72603753  1
  O2-  O276  1  0.28954232  0.16420482  0.06398874  1
  O2-  O277  1  0.29174499  0.16373973  0.39269133  1
  O2-  O278  1  0.28716116  0.16384064  0.73498902  1
  O2-  O279  1  0.28601171  0.66717375  0.06803192  1
  O2-  O280  1  0.28713846  0.66838550  0.40278091  1
  O2-  O281  1  0.29227013  0.66917289  0.73722801  1
  O2-  O282  1  0.80694898  0.17124127  0.06525341  1
  O2-  O283  1  0.80250447  0.16819453  0.39418973  1
  O2-  O284  1  0.80232802  0.16874596  0.72617006  1
  O2-  O285  1  0.79051964  0.66716726  0.06996116  1
  O2-  O286  1  0.79147204  0.66171532  0.39718232  1
  O2-  O287  1  0.79331520  0.66299123  0.72445421  1
