# generated using pymatgen
data_Ca2Al2SiO7
_symmetry_space_group_name_H-M   'P 1'
_cell_length_a   15.45892013
_cell_length_b   15.45899813
_cell_length_c   15.28423049
_cell_angle_alpha   90.00126419
_cell_angle_beta   89.99817924
_cell_angle_gamma   90.00726976
_symmetry_Int_Tables_number   1
_chemical_formula_structural   Ca2Al2SiO7
_chemical_formula_sum   'Ca48 Al48 Si24 O168'
_cell_volume   3652.61646444
_cell_formula_units_Z   24
loop_
 _symmetry_equiv_pos_site_id
 _symmetry_equiv_pos_as_xyz
  1  'x, y, z'
loop_
 _atom_type_symbol
 _atom_type_oxidation_number
  Ca2+  2.0
  Al0+  0.0
  Si0+  0.0
  O2-  -2.0
loop_
 _atom_site_type_symbol
 _atom_site_label
 _atom_site_symmetry_multiplicity
 _atom_site_fract_x
 _atom_site_fract_y
 _atom_site_fract_z
 _atom_site_occupancy
  Ca2+  Ca0  1  0.17832903  0.07956904  0.17214363  1
  Ca2+  Ca1  1  0.16889694  0.07776315  0.50443564  1
  Ca2+  Ca2  1  0.16940895  0.07698569  0.83526815  1
  Ca2+  Ca3  1  0.16929798  0.57467495  0.17786658  1
  Ca2+  Ca4  1  0.17474687  0.59116619  0.50113146  1
  Ca2+  Ca5  1  0.17329987  0.58649938  0.83402226  1
  Ca2+  Ca6  1  0.66822951  0.06866040  0.17594728  1
  Ca2+  Ca7  1  0.67087503  0.07702963  0.49565246  1
  Ca2+  Ca8  1  0.66661006  0.07413701  0.84060944  1
  Ca2+  Ca9  1  0.67714897  0.59406049  0.16972824  1
  Ca2+  Ca10  1  0.67190784  0.58272848  0.50633858  1
  Ca2+  Ca11  1  0.66726258  0.58882019  0.83628018  1
  Ca2+  Ca12  1  0.08256863  0.34151416  0.16710897  1
  Ca2+  Ca13  1  0.08434140  0.32752817  0.49021751  1
  Ca2+  Ca14  1  0.08711071  0.32876697  0.82970816  1
  Ca2+  Ca15  1  0.07848666  0.82723529  0.17076569  1
  Ca2+  Ca16  1  0.08416793  0.82368175  0.49390313  1
  Ca2+  Ca17  1  0.08331072  0.82916727  0.82144636  1
  Ca2+  Ca18  1  0.57503036  0.33276634  0.16788477  1
  Ca2+  Ca19  1  0.57959398  0.33451070  0.49402336  1
  Ca2+  Ca20  1  0.58415879  0.33291082  0.82559929  1
  Ca2+  Ca21  1  0.57844272  0.83488038  0.16044652  1
  Ca2+  Ca22  1  0.57404407  0.83011053  0.49486770  1
  Ca2+  Ca23  1  0.57592164  0.82565788  0.83190804  1
  Ca2+  Ca24  1  0.32352024  0.42123514  0.17796753  1
  Ca2+  Ca25  1  0.33459902  0.42954851  0.49810129  1
  Ca2+  Ca26  1  0.32844605  0.42808868  0.83640807  1
  Ca2+  Ca27  1  0.34509629  0.92435090  0.17250694  1
  Ca2+  Ca28  1  0.33270068  0.91502091  0.50351034  1
  Ca2+  Ca29  1  0.33323702  0.91418267  0.83533319  1
  Ca2+  Ca30  1  0.83488089  0.42760509  0.17513501  1
  Ca2+  Ca31  1  0.83171256  0.41876107  0.49930477  1
  Ca2+  Ca32  1  0.82537524  0.42366386  0.83705187  1
  Ca2+  Ca33  1  0.82079867  0.91429457  0.17878918  1
  Ca2+  Ca34  1  0.83308942  0.91310518  0.49647649  1
  Ca2+  Ca35  1  0.82571133  0.91562664  0.84096495  1
  Ca2+  Ca36  1  0.40562742  0.16962090  0.16592262  1
  Ca2+  Ca37  1  0.41385995  0.17425171  0.48889223  1
  Ca2+  Ca38  1  0.41289482  0.16692043  0.83371277  1
  Ca2+  Ca39  1  0.41915046  0.67840000  0.16161376  1
  Ca2+  Ca40  1  0.41373986  0.67331477  0.49417929  1
  Ca2+  Ca41  1  0.42325866  0.67473818  0.82185071  1
  Ca2+  Ca42  1  0.91074454  0.17234255  0.16851256  1
  Ca2+  Ca43  1  0.92086778  0.17048716  0.49088862  1
  Ca2+  Ca44  1  0.92501318  0.17005304  0.82314152  1
  Ca2+  Ca45  1  0.91667999  0.66228978  0.16792100  1
  Ca2+  Ca46  1  0.92887774  0.66642350  0.48856780  1
  Ca2+  Ca47  1  0.92211775  0.66454115  0.83060909  1
  Al0+  Al48  1  0.00127250  0.00148368  0.00017229  1
  Al0+  Al49  1  0.00011890  -0.00083465  0.33066367  1
  Al0+  Al50  1  0.00133010  0.00214322  0.66712862  1
  Al0+  Al51  1  -0.00183603  0.49917737  0.00334816  1
  Al0+  Al52  1  -0.00041129  0.49600264  0.33423383  1
  Al0+  Al53  1  -0.00102926  0.49940584  0.66375644  1
  Al0+  Al54  1  0.49973343  0.00155105  0.00221224  1
  Al0+  Al55  1  0.50151066  -0.00042035  0.34047749  1
  Al0+  Al56  1  0.50167905  0.00186654  0.66417990  1
  Al0+  Al57  1  0.50029820  0.49899955  -0.00343294  1
  Al0+  Al58  1  0.49901028  0.49854882  0.32938022  1
  Al0+  Al59  1  0.50094560  0.49951893  0.67290782  1
  Al0+  Al60  1  0.24829244  0.24926742  0.00464338  1
  Al0+  Al61  1  0.25024234  0.24927566  0.33581268  1
  Al0+  Al62  1  0.25015965  0.24998839  0.66243503  1
  Al0+  Al63  1  0.24763925  0.75103678  -0.00230198  1
  Al0+  Al64  1  0.25116543  0.75019229  0.32435141  1
  Al0+  Al65  1  0.24897473  0.75184178  0.66914404  1
  Al0+  Al66  1  0.74965968  0.25223222  -0.00250643  1
  Al0+  Al67  1  0.75090572  0.24750152  0.33101096  1
  Al0+  Al68  1  0.74980355  0.25074567  0.67126368  1
  Al0+  Al69  1  0.75031932  0.75063724  0.00320590  1
  Al0+  Al70  1  0.75040359  0.74890201  0.34237341  1
  Al0+  Al71  1  0.74901924  0.75099299  0.66588898  1
  Al0+  Al72  1  0.31872192  0.06819603  0.01268653  1
  Al0+  Al73  1  0.06997146  0.67857907  0.65440237  1
  Al0+  Al74  1  0.18075870  0.43083950  0.01219074  1
  Al0+  Al75  1  0.82262346  0.07123421  0.34793778  1
  Al0+  Al76  1  0.32080763  0.06982409  0.34836128  1
  Al0+  Al77  1  0.82065121  0.56984054  0.34886335  1
  Al0+  Al78  1  0.17984207  0.93073377  0.67896150  1
  Al0+  Al79  1  0.07177458  0.17958194  0.65235486  1
  Al0+  Al80  1  0.92753426  0.82051977  0.31859439  1
  Al0+  Al81  1  0.07148179  0.67719852  0.31659096  1
  Al0+  Al82  1  0.57179709  0.67682517  0.64998474  1
  Al0+  Al83  1  0.42794647  0.82350032  0.98376563  1
  Al0+  Al84  1  0.68108457  0.93114587  0.01259041  1
  Al0+  Al85  1  0.32188479  0.57318870  0.34598645  1
  Al0+  Al86  1  0.43053965  0.82167382  0.31913289  1
  Al0+  Al87  1  0.31971190  0.57180648  0.68065833  1
  Al0+  Al88  1  0.92861876  0.31882350  0.31882410  1
  Al0+  Al89  1  0.57271687  0.67904862  0.98551914  1
  Al0+  Al90  1  0.42831516  0.32078573  0.31920394  1
  Al0+  Al91  1  0.81822438  0.56915149  0.01342001  1
  Al0+  Al92  1  0.17846088  0.42885037  0.35027715  1
  Al0+  Al93  1  0.42924323  0.82158427  0.65033491  1
  Al0+  Al94  1  0.67970637  0.42960212  0.67994677  1
  Al0+  Al95  1  0.67852946  0.92655624  0.35219826  1
  Si0+  Si96  1  0.92996317  0.82218865  0.98596317  1
  Si0+  Si97  1  0.17710819  0.42622893  0.68205341  1
  Si0+  Si98  1  0.92667009  0.32033329  0.65045357  1
  Si0+  Si99  1  0.82302142  0.57312842  0.68345107  1
  Si0+  Si100  1  0.92705275  0.82369333  0.65235593  1
  Si0+  Si101  1  0.57123781  0.18088494  0.98514671  1
  Si0+  Si102  1  0.82054360  0.07101253  0.68262504  1
  Si0+  Si103  1  0.06863770  0.67720373  0.98472199  1
  Si0+  Si104  1  0.82431277  0.07452509  0.01481938  1
  Si0+  Si105  1  0.57272189  0.67623307  0.31838351  1
  Si0+  Si106  1  0.92860159  0.32189358  0.98292526  1
  Si0+  Si107  1  0.57334756  0.17944417  0.65189916  1
  Si0+  Si108  1  0.07123049  0.17967983  0.98474429  1
  Si0+  Si109  1  0.07323306  0.17683879  0.31392398  1
  Si0+  Si110  1  0.67551533  0.42463580  0.01842963  1
  Si0+  Si111  1  0.42636504  0.31982571  0.98411971  1
  Si0+  Si112  1  0.42955707  0.32050581  0.65310325  1
  Si0+  Si113  1  0.67824264  0.92949631  0.68400106  1
  Si0+  Si114  1  0.67748196  0.42653905  0.34720073  1
  Si0+  Si115  1  0.17790965  0.92736720  0.34808778  1
  Si0+  Si116  1  0.57154689  0.17792374  0.31651667  1
  Si0+  Si117  1  0.17446361  0.92551774  0.01818629  1
  Si0+  Si118  1  0.32345985  0.57402826  0.01574074  1
  Si0+  Si119  1  0.32363506  0.07436233  0.68284447  1
  O2-  O120  1  0.24905000  -0.01098352  0.05982958  1
  O2-  O121  1  0.24685198  -0.00510931  0.39387501  1
  O2-  O122  1  0.25655977  0.00388819  0.72626596  1
  O2-  O123  1  0.25466370  0.50545992  0.05914203  1
  O2-  O124  1  0.24775562  0.50414529  0.39818327  1
  O2-  O125  1  0.24259554  0.49774700  0.72661051  1
  O2-  O126  1  0.75697195  0.00532699  0.05815773  1
  O2-  O127  1  0.75472484  -0.00333363  0.39976064  1
  O2-  O128  1  0.75177719  -0.00129455  0.72633441  1
  O2-  O129  1  0.73996319  0.49769284  0.06035746  1
  O2-  O130  1  0.74380195  0.49613080  0.39319988  1
  O2-  O131  1  0.75190427  0.50650062  0.72736858  1
  O2-  O132  1  0.00342872  0.24481812  0.27001658  1
  O2-  O133  1  -0.00078525  0.25609356  0.60658234  1
  O2-  O134  1  -0.00273861  0.24790649  0.94153432  1
  O2-  O135  1  -0.00356817  0.74673662  0.26634981  1
  O2-  O136  1  -0.00682138  0.75209691  0.61008235  1
  O2-  O137  1  0.00273540  0.75361926  0.94230055  1
  O2-  O138  1  0.50117546  0.24440889  0.27128428  1
  O2-  O139  1  0.50037432  0.24871121  0.61124309  1
  O2-  O140  1  0.50184623  0.25319804  0.94115101  1
  O2-  O141  1  0.50472282  0.74564095  0.27424297  1
  O2-  O142  1  0.49881783  0.74734718  0.60015390  1
  O2-  O143  1  0.49545851  0.74595055  0.93544067  1
  O2-  O144  1  0.07121273  0.17919090  0.08911160  1
  O2-  O145  1  0.07290570  0.17764019  0.41975268  1
  O2-  O146  1  0.07016936  0.18089920  0.76643931  1
  O2-  O147  1  0.06670606  0.67539378  0.08905616  1
  O2-  O148  1  0.07228753  0.68072308  0.43031813  1
  O2-  O149  1  0.06748519  0.67922556  0.76861480  1
  O2-  O150  1  0.57330027  0.18236363  0.08950893  1
  O2-  O151  1  0.57224104  0.18141683  0.42259315  1
  O2-  O152  1  0.57411292  0.17931748  0.75758197  1
  O2-  O153  1  0.57421801  0.68201677  0.09890623  1
  O2-  O154  1  0.57066582  0.67472599  0.42392492  1
  O2-  O155  1  0.57243697  0.68072975  0.76372043  1
  O2-  O156  1  0.18128623  0.42930527  0.23612481  1
  O2-  O157  1  0.17915912  0.42284759  0.57752089  1
  O2-  O158  1  0.18229025  0.43027725  0.89845092  1
  O2-  O159  1  0.17732223  0.93031885  0.24218622  1
  O2-  O160  1  0.17772310  0.93290012  0.56640667  1
  O2-  O161  1  0.16876920  0.92873357  0.91259111  1
  O2-  O162  1  0.67877729  0.42601017  0.24146984  1
  O2-  O163  1  0.68281424  0.42484706  0.56730323  1
  O2-  O164  1  0.67968745  0.41842071  0.91288593  1
  O2-  O165  1  0.67742842  0.92948700  0.23825506  1
  O2-  O166  1  0.67823246  0.93149770  0.57968757  1
  O2-  O167  1  0.68346811  0.93383072  0.89877332  1
  O2-  O168  1  0.42610788  0.31804606  0.08878679  1
  O2-  O169  1  0.43207644  0.32076904  0.43269840  1
  O2-  O170  1  0.42904951  0.31753685  0.75890379  1
  O2-  O171  1  0.43168586  0.82515574  0.09716706  1
  O2-  O172  1  0.42994086  0.82183594  0.43201026  1
  O2-  O173  1  0.43188623  0.82294821  0.76412436  1
  O2-  O174  1  0.92728480  0.32132107  0.08742914  1
  O2-  O175  1  0.92733459  0.31580234  0.43199688  1
  O2-  O176  1  0.92573494  0.31771884  0.75678217  1
  O2-  O177  1  0.93049468  0.82288316  0.09021499  1
  O2-  O178  1  0.93172902  0.81984487  0.43244769  1
  O2-  O179  1  0.92741437  0.82442117  0.75894714  1
  O2-  O180  1  0.31901073  0.06963658  0.23490725  1
  O2-  O181  1  0.32299848  0.07692600  0.57780692  1
  O2-  O182  1  0.31505013  0.07233888  0.89939774  1
  O2-  O183  1  0.32253214  0.57066304  0.23212260  1
  O2-  O184  1  0.32071536  0.57063006  0.56825526  1
  O2-  O185  1  0.32143885  0.57228055  0.90967463  1
  O2-  O186  1  0.81715600  0.07289311  0.23404647  1
  O2-  O187  1  0.81917706  0.07319467  0.57835333  1
  O2-  O188  1  0.82433230  0.07401695  0.90849496  1
  O2-  O189  1  0.81871102  0.56882024  0.23541377  1
  O2-  O190  1  0.82423591  0.57102419  0.57845673  1
  O2-  O191  1  0.82139559  0.56617858  0.90001341  1
  O2-  O192  1  0.04959677  0.08323473  0.26737859  1
  O2-  O193  1  0.03843483  0.08433413  0.59837253  1
  O2-  O194  1  0.04591868  0.08693588  0.93618674  1
  O2-  O195  1  0.04314706  0.57758497  0.26694967  1
  O2-  O196  1  0.04301100  0.58114830  0.60039040  1
  O2-  O197  1  0.03515245  0.58729406  0.93632322  1
  O2-  O198  1  0.54653286  0.08354668  0.27345398  1
  O2-  O199  1  0.54905438  0.08788865  0.60348092  1
  O2-  O200  1  0.54113855  0.09052931  0.93611203  1
  O2-  O201  1  0.55020710  0.58287537  0.27026285  1
  O2-  O202  1  0.54807019  0.57506629  0.60286237  1
  O2-  O203  1  0.55311311  0.57646923  0.93495469  1
  O2-  O204  1  0.16615471  0.20513364  0.26833854  1
  O2-  O205  1  0.16860480  0.20696037  0.59759385  1
  O2-  O206  1  0.16137035  0.21175684  0.93614675  1
  O2-  O207  1  0.16728762  0.70792164  0.25945897  1
  O2-  O208  1  0.16527827  0.71234401  0.60182751  1
  O2-  O209  1  0.16205476  0.70067555  0.93785942  1
  O2-  O210  1  0.66359192  0.20437586  0.26816807  1
  O2-  O211  1  0.66441370  0.21021066  0.60529467  1
  O2-  O212  1  0.66355545  0.20660225  0.93518030  1
  O2-  O213  1  0.66735979  0.70291138  0.27618000  1
  O2-  O214  1  0.67120350  0.70554418  0.59925539  1
  O2-  O215  1  0.67051163  0.71201284  0.93190744  1
  O2-  O216  1  0.08365335  0.45958164  0.06522405  1
  O2-  O217  1  0.07839755  0.44918932  0.40135726  1
  O2-  O218  1  0.08110744  0.44727878  0.72626722  1
  O2-  O219  1  0.08357004  0.95809903  0.06632074  1
  O2-  O220  1  0.08463707  0.95282064  0.39410845  1
  O2-  O221  1  0.08389960  0.96386456  0.73586144  1
  O2-  O222  1  0.57884471  0.44369126  0.06019542  1
  O2-  O223  1  0.58299469  0.44924630  0.39196734  1
  O2-  O224  1  0.58349576  0.45414574  0.73791881  1
  O2-  O225  1  0.58607998  0.96503591  0.06639346  1
  O2-  O226  1  0.58440407  0.96230841  0.40864939  1
  O2-  O227  1  0.58794919  0.96261222  0.73175038  1
  O2-  O228  1  0.21032298  0.33486510  0.06703299  1
  O2-  O229  1  0.20964136  0.33117866  0.40208372  1
  O2-  O230  1  0.20731459  0.33361210  0.72961074  1
  O2-  O231  1  0.19262987  0.82945377  0.06129075  1
  O2-  O232  1  0.20431952  0.83327658  0.39093028  1
  O2-  O233  1  0.20758761  0.83543475  0.73696475  1
  O2-  O234  1  0.70507813  0.33239608  0.06545582  1
  O2-  O235  1  0.70441290  0.33322430  0.39283022  1
  O2-  O236  1  0.71296735  0.33417773  0.73835759  1
  O2-  O237  1  0.71204294  0.83613444  0.06738283  1
  O2-  O238  1  0.70469905  0.82964601  0.40789776  1
  O2-  O239  1  0.70517659  0.83720522  0.73123334  1
  O2-  O240  1  0.46018080  0.41509637  0.26083866  1
  O2-  O241  1  0.45930920  0.41179576  0.60770893  1
  O2-  O242  1  0.44967634  0.41275973  0.93633012  1
  O2-  O243  1  0.46430738  0.91936173  0.26849550  1
  O2-  O244  1  0.45863919  0.92124073  0.59973719  1
  O2-  O245  1  0.45982921  0.92194517  0.93155367  1
  O2-  O246  1  0.95890528  0.41442224  0.26316708  1
  O2-  O247  1  0.94581557  0.41566211  0.60674339  1
  O2-  O248  1  0.95985753  0.41208178  0.93431034  1
  O2-  O249  1  0.95516685  0.91897353  0.26402657  1
  O2-  O250  1  0.95396144  0.91686647  0.60738280  1
  O2-  O251  1  0.95444678  0.91581573  0.93830123  1
  O2-  O252  1  0.33222533  0.28771622  0.26531739  1
  O2-  O253  1  0.33883045  0.29349631  0.60419887  1
  O2-  O254  1  0.33655737  0.28554085  0.93639643  1
  O2-  O255  1  0.33488008  0.79531474  0.26131971  1
  O2-  O256  1  0.32902504  0.79615101  0.60159893  1
  O2-  O257  1  0.32550944  0.80172871  0.93447800  1
  O2-  O258  1  0.83278726  0.28724733  0.26217819  1
  O2-  O259  1  0.83469170  0.28903234  0.60499665  1
  O2-  O260  1  0.83605027  0.29615656  0.93424699  1
  O2-  O261  1  0.82701650  0.79274113  0.26995812  1
  O2-  O262  1  0.83256656  0.80226963  0.60769319  1
  O2-  O263  1  0.83924409  0.79237581  0.93752679  1
  O2-  O264  1  0.41699828  0.04574701  0.06659203  1
  O2-  O265  1  0.41754816  0.04410474  0.40314548  1
  O2-  O266  1  0.41911643  0.05215646  0.72768846  1
  O2-  O267  1  0.41800044  0.54842957  0.05878192  1
  O2-  O268  1  0.41937927  0.53970542  0.39852328  1
  O2-  O269  1  0.41427004  0.53758622  0.73729715  1
  O2-  O270  1  0.91880163  0.05250505  0.05975054  1
  O2-  O271  1  0.92302871  0.04733889  0.39874566  1
  O2-  O272  1  0.91285248  0.04531264  0.73076840  1
  O2-  O273  1  0.91253456  0.53396568  0.06840568  1
  O2-  O274  1  0.91564612  0.53520882  0.40208560  1
  O2-  O275  1  0.91576884  0.54429172  0.73106476  1
  O2-  O276  1  0.28322303  0.16257476  0.06834666  1
  O2-  O277  1  0.28956947  0.16567511  0.40250547  1
  O2-  O278  1  0.29514265  0.16737354  0.72981468  1
  O2-  O279  1  0.29801828  0.66859908  0.05907934  1
  O2-  O280  1  0.29395557  0.67284990  0.39629376  1
  O2-  O281  1  0.28773539  0.66688141  0.73690939  1
  O2-  O282  1  0.79758273  0.16891023  0.05818632  1
  O2-  O283  1  0.78967512  0.16806838  0.40241210  1
  O2-  O284  1  0.79095841  0.16144079  0.73282450  1
  O2-  O285  1  0.79231300  0.66657819  0.06745297  1
  O2-  O286  1  0.79409067  0.66502144  0.40613115  1
  O2-  O287  1  0.79965923  0.66801564  0.72906667  1
