# generated using pymatgen
data_Ca2Al2SiO7
_symmetry_space_group_name_H-M   'P 1'
_cell_length_a   15.45643226
_cell_length_b   15.45626596
_cell_length_c   15.28290581
_cell_angle_alpha   89.99677235
_cell_angle_beta   90.00690404
_cell_angle_gamma   90.00244352
_symmetry_Int_Tables_number   1
_chemical_formula_structural   Ca2Al2SiO7
_chemical_formula_sum   'Ca48 Al48 Si24 O168'
_cell_volume   3651.06671924
_cell_formula_units_Z   24
loop_
 _symmetry_equiv_pos_site_id
 _symmetry_equiv_pos_as_xyz
  1  'x, y, z'
loop_
 _atom_type_symbol
 _atom_type_oxidation_number
  Ca2+  2.0
  Al0+  0.0
  Si0+  0.0
  O2-  -2.0
loop_
 _atom_site_type_symbol
 _atom_site_label
 _atom_site_symmetry_multiplicity
 _atom_site_fract_x
 _atom_site_fract_y
 _atom_site_fract_z
 _atom_site_occupancy
  Ca2+  Ca0  1  0.17242276  0.07868042  0.18187670  1
  Ca2+  Ca1  1  0.16924249  0.08264087  0.51031990  1
  Ca2+  Ca2  1  0.17074832  0.08558947  0.82947236  1
  Ca2+  Ca3  1  0.17716885  0.58775056  0.17417969  1
  Ca2+  Ca4  1  0.16640646  0.58200011  0.50541273  1
  Ca2+  Ca5  1  0.16835086  0.57851084  0.83290304  1
  Ca2+  Ca6  1  0.65912587  0.08252611  0.17114171  1
  Ca2+  Ca7  1  0.66434120  0.08054931  0.50431296  1
  Ca2+  Ca8  1  0.65766922  0.07230611  0.83604911  1
  Ca2+  Ca9  1  0.67079972  0.56784775  0.17117262  1
  Ca2+  Ca10  1  0.67361917  0.57897894  0.50777637  1
  Ca2+  Ca11  1  0.67679557  0.58197791  0.83869993  1
  Ca2+  Ca12  1  0.08070403  0.33072074  0.16906203  1
  Ca2+  Ca13  1  0.07684357  0.32918534  0.49876540  1
  Ca2+  Ca14  1  0.07942731  0.33207483  0.81760252  1
  Ca2+  Ca15  1  0.08756140  0.83053566  0.16915633  1
  Ca2+  Ca16  1  0.09780181  0.82499274  0.49716457  1
  Ca2+  Ca17  1  0.08266198  0.82568748  0.82328594  1
  Ca2+  Ca18  1  0.59204163  0.32446923  0.16308213  1
  Ca2+  Ca19  1  0.57707482  0.33194626  0.49246403  1
  Ca2+  Ca20  1  0.57939019  0.33293030  0.82991222  1
  Ca2+  Ca21  1  0.58002518  0.83327508  0.15983520  1
  Ca2+  Ca22  1  0.58075421  0.83044060  0.50424982  1
  Ca2+  Ca23  1  0.58058324  0.83050184  0.82062855  1
  Ca2+  Ca24  1  0.33769272  0.43078029  0.17120255  1
  Ca2+  Ca25  1  0.32896451  0.41865984  0.50767823  1
  Ca2+  Ca26  1  0.32969365  0.41713846  0.83240603  1
  Ca2+  Ca27  1  0.32674601  0.92372958  0.17821687  1
  Ca2+  Ca28  1  0.32555465  0.92805300  0.50633633  1
  Ca2+  Ca29  1  0.33283813  0.91746583  0.82694030  1
  Ca2+  Ca30  1  0.82560751  0.41169916  0.16978012  1
  Ca2+  Ca31  1  0.83338666  0.41327923  0.50464615  1
  Ca2+  Ca32  1  0.83484134  0.42723608  0.83634183  1
  Ca2+  Ca33  1  0.82508397  0.91734908  0.16752333  1
  Ca2+  Ca34  1  0.82776952  0.91863584  0.50789912  1
  Ca2+  Ca35  1  0.81894217  0.91373809  0.83571989  1
  Ca2+  Ca36  1  0.42589970  0.16231103  0.16525889  1
  Ca2+  Ca37  1  0.41492887  0.16764836  0.49791618  1
  Ca2+  Ca38  1  0.41996919  0.17103222  0.82524694  1
  Ca2+  Ca39  1  0.41239337  0.66543871  0.16225698  1
  Ca2+  Ca40  1  0.41501609  0.67194635  0.49797387  1
  Ca2+  Ca41  1  0.42433874  0.67050616  0.82268721  1
  Ca2+  Ca42  1  0.91967840  0.17103055  0.16853957  1
  Ca2+  Ca43  1  0.92694853  0.17448061  0.49407140  1
  Ca2+  Ca44  1  0.92359606  0.17653096  0.82264544  1
  Ca2+  Ca45  1  0.92217587  0.66230300  0.16563859  1
  Ca2+  Ca46  1  0.92857024  0.66178493  0.49997463  1
  Ca2+  Ca47  1  0.91710696  0.66212937  0.82262718  1
  Al0+  Al48  1  -0.00104661  -0.00182517  -0.00194713  1
  Al0+  Al49  1  -0.00278959  -0.00270003  0.33232452  1
  Al0+  Al50  1  -0.00019310  -0.00042143  0.66955109  1
  Al0+  Al51  1  0.00190336  0.49948186  0.00389765  1
  Al0+  Al52  1  0.00019220  0.50225825  0.32157992  1
  Al0+  Al53  1  -0.00025086  0.50054793  0.66663279  1
  Al0+  Al54  1  0.49829261  -0.00013692  -0.00064334  1
  Al0+  Al55  1  0.49753683  -0.00105907  0.33357496  1
  Al0+  Al56  1  0.49886242  -0.00085099  0.67010065  1
  Al0+  Al57  1  0.49969851  0.49984035  0.00616808  1
  Al0+  Al58  1  0.50194927  0.50132587  0.34154963  1
  Al0+  Al59  1  0.50162574  0.49908621  0.65883160  1
  Al0+  Al60  1  0.25092917  0.24915819  0.00183830  1
  Al0+  Al61  1  0.25136791  0.25349676  0.33003307  1
  Al0+  Al62  1  0.25156689  0.25082911  0.66848062  1
  Al0+  Al63  1  0.24870870  0.75062479  0.00121402  1
  Al0+  Al64  1  0.25135098  0.75138834  0.33520588  1
  Al0+  Al65  1  0.25169229  0.75224590  0.66363927  1
  Al0+  Al66  1  0.75205129  0.24753067  -0.00551560  1
  Al0+  Al67  1  0.74830358  0.24858859  0.33055015  1
  Al0+  Al68  1  0.74930798  0.25005864  0.66508443  1
  Al0+  Al69  1  0.75053514  0.75089878  0.00999379  1
  Al0+  Al70  1  0.74980465  0.74817795  0.33195539  1
  Al0+  Al71  1  0.75052792  0.74917659  0.66944265  1
  Al0+  Al72  1  0.68055776  0.93075088  0.67893505  1
  Al0+  Al73  1  0.92786590  0.32271765  0.65241620  1
  Al0+  Al74  1  0.32122502  0.07395992  0.34786830  1
  Al0+  Al75  1  0.92836274  0.32063490  0.31597110  1
  Al0+  Al76  1  0.42935936  0.82204925  0.64986548  1
  Al0+  Al77  1  0.67974552  0.42705206  0.01357200  1
  Al0+  Al78  1  0.07189591  0.68199845  0.31815064  1
  Al0+  Al79  1  0.42942813  0.32140248  0.65352246  1
  Al0+  Al80  1  0.07154009  0.17787935  0.65331998  1
  Al0+  Al81  1  0.18000133  0.43104831  0.67766006  1
  Al0+  Al82  1  0.07302478  0.17724049  0.31860367  1
  Al0+  Al83  1  0.17666577  0.93083798  0.34830600  1
  Al0+  Al84  1  0.17723837  0.92735152  0.68387202  1
  Al0+  Al85  1  0.07088611  0.68010790  0.65507490  1
  Al0+  Al86  1  0.57409384  0.67826704  0.65194715  1
  Al0+  Al87  1  0.56723134  0.17916122  0.32068167  1
  Al0+  Al88  1  0.82372074  0.57181583  0.01793386  1
  Al0+  Al89  1  0.57086788  0.17839773  0.98431222  1
  Al0+  Al90  1  0.32109805  0.57147055  0.34970075  1
  Al0+  Al91  1  0.31887823  0.57124089  0.01095381  1
  Al0+  Al92  1  0.68211380  0.42683512  0.34925847  1
  Al0+  Al93  1  0.67708010  0.93115459  0.01510276  1
  Al0+  Al94  1  0.82002531  0.56790826  0.67778877  1
  Al0+  Al95  1  0.32059987  0.07237289  0.68407341  1
  Si0+  Si96  1  0.93130934  0.32094687  0.98340581  1
  Si0+  Si97  1  0.82260420  0.07445676  0.68334043  1
  Si0+  Si98  1  0.32435685  0.57279267  0.68144162  1
  Si0+  Si99  1  0.67746653  0.92699715  0.34817461  1
  Si0+  Si100  1  0.17828905  0.42563347  0.01793762  1
  Si0+  Si101  1  0.07240719  0.17741216  0.98506328  1
  Si0+  Si102  1  0.17770984  0.92934221  0.01523715  1
  Si0+  Si103  1  0.42823642  0.32671955  0.31553623  1
  Si0+  Si104  1  0.92696595  0.82213177  0.65213835  1
  Si0+  Si105  1  0.42790635  0.82014010  0.98538798  1
  Si0+  Si106  1  0.82294329  0.57201578  0.35037810  1
  Si0+  Si107  1  0.92761840  0.82056278  0.98474824  1
  Si0+  Si108  1  0.42763267  0.32354586  0.98420372  1
  Si0+  Si109  1  0.67541161  0.42561004  0.68271288  1
  Si0+  Si110  1  0.81923067  0.06986204  0.34752009  1
  Si0+  Si111  1  0.92306329  0.82215187  0.31475198  1
  Si0+  Si112  1  0.82371877  0.07047107  0.01643537  1
  Si0+  Si113  1  0.57299404  0.67783188  0.31620701  1
  Si0+  Si114  1  0.07106762  0.68007684  0.98462260  1
  Si0+  Si115  1  0.57117104  0.67884445  0.98850014  1
  Si0+  Si116  1  0.43176522  0.81858576  0.31681448  1
  Si0+  Si117  1  0.31961419  0.07123250  0.01607853  1
  Si0+  Si118  1  0.57095999  0.17728129  0.65085873  1
  Si0+  Si119  1  0.17613066  0.43001136  0.34853756  1
  O2-  O120  1  0.24577144  0.00285159  0.05734058  1
  O2-  O121  1  0.23956107  0.01189594  0.39572898  1
  O2-  O122  1  0.24748658  0.00082605  0.73474839  1
  O2-  O123  1  0.24668710  0.49544701  0.06035421  1
  O2-  O124  1  0.24694276  0.49578695  0.39368124  1
  O2-  O125  1  0.25528692  0.50496091  0.72622987  1
  O2-  O126  1  0.75038440  0.00711095  0.06223240  1
  O2-  O127  1  0.74936736  -0.00288836  0.38920409  1
  O2-  O128  1  0.75362964  0.00600878  0.72791114  1
  O2-  O129  1  0.75236620  0.49792558  0.06549935  1
  O2-  O130  1  0.75831260  0.50035523  0.39488410  1
  O2-  O131  1  0.74468135  0.49429684  0.72570546  1
  O2-  O132  1  0.00233303  0.24959054  0.26590259  1
  O2-  O133  1  -0.00260330  0.24771151  0.60428385  1
  O2-  O134  1  0.00478165  0.25147240  0.94266043  1
  O2-  O135  1  -0.00433618  0.75633225  0.27192958  1
  O2-  O136  1  0.00060393  0.75923414  0.60798884  1
  O2-  O137  1  -0.00526934  0.74562044  0.94288970  1
  O2-  O138  1  0.49337427  0.25407722  0.27167981  1
  O2-  O139  1  0.50551607  0.24825258  0.60666901  1
  O2-  O140  1  0.49776027  0.25586292  0.94033736  1
  O2-  O141  1  0.50174767  0.74774581  0.27202564  1
  O2-  O142  1  0.49923978  0.74703124  0.60077075  1
  O2-  O143  1  0.50056489  0.74983673  0.94502761  1
  O2-  O144  1  0.07110721  0.17610233  0.08994042  1
  O2-  O145  1  0.06985833  0.17712651  0.43135289  1
  O2-  O146  1  0.06957091  0.18133858  0.76808526  1
  O2-  O147  1  0.07406251  0.68463125  0.08957470  1
  O2-  O148  1  0.07090410  0.68137913  0.43090388  1
  O2-  O149  1  0.06824038  0.67908630  0.76896341  1
  O2-  O150  1  0.56747519  0.17657536  0.09751149  1
  O2-  O151  1  0.56774469  0.17813759  0.43334766  1
  O2-  O152  1  0.56978884  0.17774145  0.75679865  1
  O2-  O153  1  0.56812588  0.68086480  0.09395625  1
  O2-  O154  1  0.57567743  0.68120329  0.42062874  1
  O2-  O155  1  0.57384518  0.67959380  0.76667108  1
  O2-  O156  1  0.17790998  0.43248134  0.24224707  1
  O2-  O157  1  0.17946160  0.43277228  0.56482460  1
  O2-  O158  1  0.17707413  0.42507404  0.91236810  1
  O2-  O159  1  0.18207178  0.92913060  0.23329120  1
  O2-  O160  1  0.17908287  0.92742459  0.57099533  1
  O2-  O161  1  0.17801730  0.92711690  0.91077365  1
  O2-  O162  1  0.68235255  0.42740449  0.23586607  1
  O2-  O163  1  0.67643482  0.42499183  0.57725703  1
  O2-  O164  1  0.67901680  0.43079128  0.90013288  1
  O2-  O165  1  0.67735257  0.92769782  0.24264324  1
  O2-  O166  1  0.68242159  0.93216735  0.56539004  1
  O2-  O167  1  0.67772143  0.92934698  0.90241916  1
  O2-  O168  1  0.42500264  0.32263822  0.08959878  1
  O2-  O169  1  0.43033358  0.32777021  0.42090859  1
  O2-  O170  1  0.43148452  0.32222141  0.76729890  1
  O2-  O171  1  0.42736362  0.81993177  0.09097854  1
  O2-  O172  1  0.43455499  0.81893291  0.42099329  1
  O2-  O173  1  0.43157091  0.81990570  0.76464745  1
  O2-  O174  1  0.93088134  0.31882725  0.08833487  1
  O2-  O175  1  0.92865972  0.31916531  0.42899887  1
  O2-  O176  1  0.93017936  0.32302609  0.76682014  1
  O2-  O177  1  0.93045961  0.82438381  0.08965409  1
  O2-  O178  1  0.91424632  0.82067319  0.41948969  1
  O2-  O179  1  0.92456914  0.81828337  0.75826145  1
  O2-  O180  1  0.32490861  0.06638987  0.23326358  1
  O2-  O181  1  0.32118058  0.07206411  0.57096221  1
  O2-  O182  1  0.31941977  0.07257698  0.91155753  1
  O2-  O183  1  0.32047602  0.57206398  0.23573995  1
  O2-  O184  1  0.32246924  0.57126746  0.57599044  1
  O2-  O185  1  0.31724001  0.57290912  0.89827001  1
  O2-  O186  1  0.81817001  0.06871358  0.24193565  1
  O2-  O187  1  0.82097538  0.07328440  0.57758230  1
  O2-  O188  1  0.82742147  0.06585531  0.91135312  1
  O2-  O189  1  0.81872588  0.57400114  0.24477007  1
  O2-  O190  1  0.82066824  0.56783848  0.56493018  1
  O2-  O191  1  0.82389211  0.57214424  0.90426222  1
  O2-  O192  1  0.04185846  0.07821335  0.26582906  1
  O2-  O193  1  0.04522551  0.07796185  0.60285888  1
  O2-  O194  1  0.04227959  0.08601223  0.93780485  1
  O2-  O195  1  0.04302524  0.58752576  0.25857853  1
  O2-  O196  1  0.03568684  0.58641187  0.59959591  1
  O2-  O197  1  0.04993485  0.58464293  0.94154110  1
  O2-  O198  1  0.53649053  0.08172177  0.26552420  1
  O2-  O199  1  0.54379712  0.08431571  0.60559465  1
  O2-  O200  1  0.53533572  0.08247984  0.93101260  1
  O2-  O201  1  0.54413538  0.58526141  0.27124368  1
  O2-  O202  1  0.55088454  0.57985923  0.59791979  1
  O2-  O203  1  0.54373227  0.58676862  0.94208755  1
  O2-  O204  1  0.17193984  0.20517217  0.26395295  1
  O2-  O205  1  0.16936416  0.20780133  0.60306182  1
  O2-  O206  1  0.16626440  0.20212488  0.94013506  1
  O2-  O207  1  0.16819648  0.71631941  0.26355997  1
  O2-  O208  1  0.16826248  0.70628163  0.60139703  1
  O2-  O209  1  0.16073236  0.71344012  0.93616003  1
  O2-  O210  1  0.66376681  0.20769774  0.26491425  1
  O2-  O211  1  0.66615497  0.19790943  0.60609722  1
  O2-  O212  1  0.66939747  0.20209874  0.93055133  1
  O2-  O213  1  0.66404688  0.70629735  0.26698557  1
  O2-  O214  1  0.67045396  0.71202865  0.59787084  1
  O2-  O215  1  0.66476907  0.70693343  0.94521824  1
  O2-  O216  1  0.08552324  0.45080060  0.06504256  1
  O2-  O217  1  0.08218803  0.45932241  0.39069604  1
  O2-  O218  1  0.08533483  0.46384536  0.73474579  1
  O2-  O219  1  0.08440331  0.95416843  0.06132471  1
  O2-  O220  1  0.07283498  0.94247919  0.39512333  1
  O2-  O221  1  0.07713206  0.95111751  0.73729096  1
  O2-  O222  1  0.58191412  0.45443811  0.06887931  1
  O2-  O223  1  0.58692628  0.45987996  0.40350855  1
  O2-  O224  1  0.58154951  0.45167806  0.72790524  1
  O2-  O225  1  0.57962755  0.96047881  0.06903032  1
  O2-  O226  1  0.58640000  0.95585486  0.39468744  1
  O2-  O227  1  0.58484601  0.96007372  0.73498900  1
  O2-  O228  1  0.20398456  0.33212013  0.06483652  1
  O2-  O229  1  0.19813755  0.33494488  0.39193857  1
  O2-  O230  1  0.21111051  0.33626531  0.73489332  1
  O2-  O231  1  0.20858355  0.83889635  0.06386091  1
  O2-  O232  1  0.21595430  0.83638935  0.40015943  1
  O2-  O233  1  0.20968341  0.82919322  0.73735406  1
  O2-  O234  1  0.70971744  0.32693514  0.06331282  1
  O2-  O235  1  0.70994646  0.32907759  0.40175614  1
  O2-  O236  1  0.69874386  0.33115291  0.72868206  1
  O2-  O237  1  0.70919833  0.83662669  0.07266481  1
  O2-  O238  1  0.70538133  0.83455366  0.39369427  1
  O2-  O239  1  0.71281385  0.83533581  0.73490779  1
  O2-  O240  1  0.45939897  0.41979646  0.27058083  1
  O2-  O241  1  0.45700560  0.41661332  0.59559439  1
  O2-  O242  1  0.45211474  0.41800886  0.93904088  1
  O2-  O243  1  0.46092906  0.90950903  0.26738171  1
  O2-  O244  1  0.46219638  0.91929663  0.59800455  1
  O2-  O245  1  0.45483915  0.91185781  0.93843280  1
  O2-  O246  1  0.95424080  0.41872618  0.26031438  1
  O2-  O247  1  0.95951276  0.41875208  0.59856823  1
  O2-  O248  1  0.95871964  0.41440021  0.93868572  1
  O2-  O249  1  0.94473855  0.91610569  0.26727912  1
  O2-  O250  1  0.94471520  0.91829822  0.60905171  1
  O2-  O251  1  0.95767353  0.91076321  0.93491493  1
  O2-  O252  1  0.33322154  0.30901659  0.26901529  1
  O2-  O253  1  0.33377844  0.29071830  0.59917575  1
  O2-  O254  1  0.33396371  0.29545202  0.93815635  1
  O2-  O255  1  0.34028909  0.79038866  0.26862677  1
  O2-  O256  1  0.33142860  0.79640967  0.59617019  1
  O2-  O257  1  0.33620428  0.79131685  0.93841955  1
  O2-  O258  1  0.83188129  0.28569686  0.26214299  1
  O2-  O259  1  0.82830204  0.29646743  0.60075239  1
  O2-  O260  1  0.84087016  0.29244167  0.93417639  1
  O2-  O261  1  0.83162590  0.79200561  0.26427920  1
  O2-  O262  1  0.83597683  0.79239337  0.60381517  1
  O2-  O263  1  0.83314289  0.79596260  0.94084524  1
  O2-  O264  1  0.40999451  0.03892601  0.06321676  1
  O2-  O265  1  0.41590422  0.03541071  0.40163994  1
  O2-  O266  1  0.41776905  0.04058677  0.73849987  1
  O2-  O267  1  0.41498850  0.54363832  0.06830108  1
  O2-  O268  1  0.41813621  0.54482464  0.40364507  1
  O2-  O269  1  0.41861214  0.54555234  0.72566257  1
  O2-  O270  1  0.91509329  0.03888664  0.06520189  1
  O2-  O271  1  0.91047208  0.04244202  0.39548246  1
  O2-  O272  1  0.91554404  0.05009620  0.73092887  1
  O2-  O273  1  0.92321990  0.54468333  0.06967071  1
  O2-  O274  1  0.91990908  0.55070942  0.38981281  1
  O2-  O275  1  0.91503526  0.53720207  0.73519344  1
  O2-  O276  1  0.29575326  0.16383611  0.06433912  1
  O2-  O277  1  0.30615797  0.17776790  0.39300559  1
  O2-  O278  1  0.29301031  0.17014726  0.73937531  1
  O2-  O279  1  0.28586280  0.66702300  0.06750635  1
  O2-  O280  1  0.28954371  0.66775994  0.40185934  1
  O2-  O281  1  0.30070199  0.66698086  0.72623423  1
  O2-  O282  1  0.80290527  0.16594295  0.05935262  1
  O2-  O283  1  0.78887335  0.15993476  0.39513701  1
  O2-  O284  1  0.79720444  0.16806503  0.73030285  1
  O2-  O285  1  0.79697963  0.66967715  0.07250268  1
  O2-  O286  1  0.79351948  0.66481071  0.39625110  1
  O2-  O287  1  0.79069982  0.66434010  0.73392589  1
