# generated using pymatgen
data_Ca2Al2SiO7
_symmetry_space_group_name_H-M   'P 1'
_cell_length_a   15.45384082
_cell_length_b   15.45485568
_cell_length_c   15.28059627
_cell_angle_alpha   89.99992054
_cell_angle_beta   90.00458829
_cell_angle_gamma   90.00477165
_symmetry_Int_Tables_number   1
_chemical_formula_structural   Ca2Al2SiO7
_chemical_formula_sum   'Ca48 Al48 Si24 O168'
_cell_volume   3649.56990856
_cell_formula_units_Z   24
loop_
 _symmetry_equiv_pos_site_id
 _symmetry_equiv_pos_as_xyz
  1  'x, y, z'
loop_
 _atom_type_symbol
 _atom_type_oxidation_number
  Ca2+  2.0
  Al0+  0.0
  Si0+  0.0
  O2-  -2.0
loop_
 _atom_site_type_symbol
 _atom_site_label
 _atom_site_symmetry_multiplicity
 _atom_site_fract_x
 _atom_site_fract_y
 _atom_site_fract_z
 _atom_site_occupancy
  Ca2+  Ca0  1  0.17302880  0.07323031  0.17518848  1
  Ca2+  Ca1  1  0.17243645  0.08494179  0.50512830  1
  Ca2+  Ca2  1  0.17735992  0.08460617  0.83775232  1
  Ca2+  Ca3  1  0.16830392  0.58172627  0.17225945  1
  Ca2+  Ca4  1  0.15950377  0.57918596  0.50210096  1
  Ca2+  Ca5  1  0.17161804  0.58524854  0.83772362  1
  Ca2+  Ca6  1  0.67353995  0.07058663  0.17291451  1
  Ca2+  Ca7  1  0.67615400  0.08335257  0.50444256  1
  Ca2+  Ca8  1  0.67037570  0.08382998  0.83629504  1
  Ca2+  Ca9  1  0.66763562  0.57689226  0.16693582  1
  Ca2+  Ca10  1  0.66457928  0.58034316  0.50930152  1
  Ca2+  Ca11  1  0.65528315  0.57178992  0.83542565  1
  Ca2+  Ca12  1  0.08210833  0.32742977  0.16543498  1
  Ca2+  Ca13  1  0.08820847  0.31972196  0.49287577  1
  Ca2+  Ca14  1  0.07599350  0.32777027  0.82792313  1
  Ca2+  Ca15  1  0.08603018  0.83525489  0.16155842  1
  Ca2+  Ca16  1  0.09053995  0.82336087  0.49236147  1
  Ca2+  Ca17  1  0.08241857  0.83418811  0.83262919  1
  Ca2+  Ca18  1  0.58478781  0.32893728  0.16016081  1
  Ca2+  Ca19  1  0.57953168  0.32996816  0.50424992  1
  Ca2+  Ca20  1  0.57921078  0.33048285  0.82231779  1
  Ca2+  Ca21  1  0.57380120  0.84469673  0.16199307  1
  Ca2+  Ca22  1  0.57989578  0.83508995  0.49393764  1
  Ca2+  Ca23  1  0.57764364  0.83382126  0.83086600  1
  Ca2+  Ca24  1  0.32784613  0.42677399  0.17105643  1
  Ca2+  Ca25  1  0.32773822  0.41188986  0.50354393  1
  Ca2+  Ca26  1  0.33741226  0.42278481  0.83750647  1
  Ca2+  Ca27  1  0.32936166  0.92159818  0.17195316  1
  Ca2+  Ca28  1  0.33249887  0.92439750  0.49801535  1
  Ca2+  Ca29  1  0.33048278  0.92705969  0.84407532  1
  Ca2+  Ca30  1  0.83282215  0.41175518  0.16544041  1
  Ca2+  Ca31  1  0.82617221  0.41794646  0.50720863  1
  Ca2+  Ca32  1  0.82119438  0.41210668  0.83898908  1
  Ca2+  Ca33  1  0.82393723  0.91190761  0.17201560  1
  Ca2+  Ca34  1  0.83284339  0.92723074  0.50143155  1
  Ca2+  Ca35  1  0.82972073  0.92026860  0.83908618  1
  Ca2+  Ca36  1  0.41331781  0.16089307  0.16398763  1
  Ca2+  Ca37  1  0.41534175  0.16376673  0.49952697  1
  Ca2+  Ca38  1  0.42083693  0.16748312  0.82274552  1
  Ca2+  Ca39  1  0.41118299  0.68131013  0.16117410  1
  Ca2+  Ca40  1  0.42379916  0.67488582  0.49470421  1
  Ca2+  Ca41  1  0.41734778  0.67267219  0.83078554  1
  Ca2+  Ca42  1  0.92302874  0.16303224  0.16418164  1
  Ca2+  Ca43  1  0.92452940  0.15807192  0.49616708  1
  Ca2+  Ca44  1  0.92015441  0.16782840  0.82699799  1
  Ca2+  Ca45  1  0.92469521  0.67313784  0.16136208  1
  Ca2+  Ca46  1  0.92676921  0.66755729  0.49520459  1
  Ca2+  Ca47  1  0.92090825  0.67593585  0.82895253  1
  Al0+  Al48  1  0.00204867  -0.00058946  -0.00328917  1
  Al0+  Al49  1  0.00015229  -0.00192565  0.33453902  1
  Al0+  Al50  1  -0.00169322  0.00001866  0.66826343  1
  Al0+  Al51  1  -0.00144065  0.49817155  -0.00614094  1
  Al0+  Al52  1  -0.00014927  0.49983078  0.33243840  1
  Al0+  Al53  1  -0.00138847  0.50159232  0.66561333  1
  Al0+  Al54  1  0.50196060  0.00051487  0.00056201  1
  Al0+  Al55  1  0.50089792  0.00036356  0.33673015  1
  Al0+  Al56  1  0.49981605  0.00121285  0.66602124  1
  Al0+  Al57  1  0.49988696  0.49925942  0.01163125  1
  Al0+  Al58  1  0.50012375  0.49983257  0.33196464  1
  Al0+  Al59  1  0.49816023  0.50130567  0.66123982  1
  Al0+  Al60  1  0.25121561  0.25199629  0.00229098  1
  Al0+  Al61  1  0.24944748  0.25218604  0.33314325  1
  Al0+  Al62  1  0.24803453  0.25054977  0.66632550  1
  Al0+  Al63  1  0.25203310  0.75029828  0.00093789  1
  Al0+  Al64  1  0.25325625  0.74973215  0.32889192  1
  Al0+  Al65  1  0.24857662  0.74937006  0.66257722  1
  Al0+  Al66  1  0.75043182  0.25007915  0.00104561  1
  Al0+  Al67  1  0.74884109  0.25076013  0.33645670  1
  Al0+  Al68  1  0.74844285  0.25057114  0.67120445  1
  Al0+  Al69  1  0.75143360  0.74735183  -0.00118898  1
  Al0+  Al70  1  0.74996706  0.74641130  0.33748906  1
  Al0+  Al71  1  0.75019721  0.75030083  0.66257271  1
  Al0+  Al72  1  0.56990968  0.67992275  0.65473359  1
  Al0+  Al73  1  0.07069096  0.67972110  0.65275282  1
  Al0+  Al74  1  0.32012964  0.07253410  0.34986550  1
  Al0+  Al75  1  0.17849066  0.92959313  0.01400618  1
  Al0+  Al76  1  0.67991201  0.42829683  0.01477703  1
  Al0+  Al77  1  0.92848168  0.31966491  0.98525523  1
  Al0+  Al78  1  0.42781607  0.32165648  0.65201111  1
  Al0+  Al79  1  0.17878008  0.43154588  0.34685629  1
  Al0+  Al80  1  0.68114408  0.92708517  0.01123060  1
  Al0+  Al81  1  0.57227293  0.17782008  0.65098454  1
  Al0+  Al82  1  0.07108974  0.67831826  0.31788470  1
  Al0+  Al83  1  0.32068944  0.57073492  0.01341766  1
  Al0+  Al84  1  0.07148272  0.17720607  0.31888168  1
  Al0+  Al85  1  0.32267283  0.07329147  0.01459291  1
  Al0+  Al86  1  0.17885026  0.92633165  0.34886329  1
  Al0+  Al87  1  0.82111630  0.07039774  0.68281103  1
  Al0+  Al88  1  0.06917150  0.17960290  0.65384125  1
  Al0+  Al89  1  0.42993109  0.82209914  0.98534792  1
  Al0+  Al90  1  0.31997503  0.07109040  0.68136368  1
  Al0+  Al91  1  0.67857093  0.43228803  0.67985993  1
  Al0+  Al92  1  0.92768450  0.82157589  0.98638155  1
  Al0+  Al93  1  0.43283890  0.82169312  0.31873477  1
  Al0+  Al94  1  0.67852554  0.92693304  0.34958473  1
  Al0+  Al95  1  0.82157126  0.07192445  0.34729212  1
  Si0+  Si96  1  0.57418983  0.67540827  0.31421515  1
  Si0+  Si97  1  0.42970737  0.32307002  0.98801761  1
  Si0+  Si98  1  0.82342934  0.57371398  0.68455844  1
  Si0+  Si99  1  0.92726074  0.82265807  0.64798815  1
  Si0+  Si100  1  0.82277284  0.07186030  0.01539940  1
  Si0+  Si101  1  0.17707785  0.42909695  0.68226180  1
  Si0+  Si102  1  0.82094627  0.56929775  0.34859310  1
  Si0+  Si103  1  0.42882102  0.32239318  0.31560965  1
  Si0+  Si104  1  0.31946314  0.57156550  0.67972810  1
  Si0+  Si105  1  0.57048267  0.17988749  0.98642927  1
  Si0+  Si106  1  0.67799288  0.92625470  0.68383682  1
  Si0+  Si107  1  0.92635831  0.32149174  0.31795807  1
  Si0+  Si108  1  0.82422507  0.57108958  0.01615902  1
  Si0+  Si109  1  0.67731888  0.42876015  0.35010759  1
  Si0+  Si110  1  0.07254660  0.67777606  0.98308697  1
  Si0+  Si111  1  0.42742866  0.82326628  0.65003814  1
  Si0+  Si112  1  0.57146877  0.67560343  0.98548581  1
  Si0+  Si113  1  0.07376763  0.17841395  0.98294454  1
  Si0+  Si114  1  0.92675017  0.32215128  0.65015833  1
  Si0+  Si115  1  0.17851717  0.92540314  0.68320195  1
  Si0+  Si116  1  0.32296429  0.57199384  0.35180994  1
  Si0+  Si117  1  0.57177163  0.18122280  0.31763056  1
  Si0+  Si118  1  0.17513323  0.42872483  0.01520819  1
  Si0+  Si119  1  0.92709250  0.82041886  0.31743378  1
  O2-  O120  1  0.25012761  0.00188266  0.06353899  1
  O2-  O121  1  0.24573536  0.00264424  0.39979879  1
  O2-  O122  1  0.24668560  -0.00539516  0.72727603  1
  O2-  O123  1  0.24245875  0.49888007  0.05877695  1
  O2-  O124  1  0.25298120  0.50535637  0.39687527  1
  O2-  O125  1  0.24828309  0.50075646  0.72322803  1
  O2-  O126  1  0.75938388  -0.00201101  0.05860072  1
  O2-  O127  1  0.75091554  -0.00113446  0.39823362  1
  O2-  O128  1  0.74507875  -0.00376226  0.72852888  1
  O2-  O129  1  0.75598467  0.50188948  0.06121544  1
  O2-  O130  1  0.74778296  0.50049931  0.39099041  1
  O2-  O131  1  0.75254996  0.50718926  0.72840880  1
  O2-  O132  1  -0.00712694  0.25025788  0.27447852  1
  O2-  O133  1  -0.00570494  0.25358628  0.60507206  1
  O2-  O134  1  0.00344973  0.24577737  0.93858765  1
  O2-  O135  1  -0.00022459  0.75631434  0.27196819  1
  O2-  O136  1  -0.00277941  0.75461672  0.60491027  1
  O2-  O137  1  0.00470242  0.74801842  0.94022722  1
  O2-  O138  1  0.49883713  0.25006003  0.27389067  1
  O2-  O139  1  0.49704728  0.24717366  0.60111285  1
  O2-  O140  1  0.49672669  0.24906108  0.94541361  1
  O2-  O141  1  0.50912705  0.74746791  0.27122484  1
  O2-  O142  1  0.49986917  0.75773927  0.60682776  1
  O2-  O143  1  0.50588268  0.74687309  0.94057500  1
  O2-  O144  1  0.07343721  0.17977069  0.08851228  1
  O2-  O145  1  0.07188635  0.18048985  0.43204245  1
  O2-  O146  1  0.06921416  0.18342392  0.76713860  1
  O2-  O147  1  0.07031247  0.67469580  0.08858607  1
  O2-  O148  1  0.06661054  0.67627365  0.43105995  1
  O2-  O149  1  0.07110673  0.67997825  0.76597998  1
  O2-  O150  1  0.57251459  0.18187715  0.09189616  1
  O2-  O151  1  0.57410878  0.18495202  0.42228011  1
  O2-  O152  1  0.57186178  0.18014735  0.76530257  1
  O2-  O153  1  0.57060323  0.67409128  0.09101201  1
  O2-  O154  1  0.57199255  0.67173497  0.41996896  1
  O2-  O155  1  0.56556573  0.67800207  0.76789097  1
  O2-  O156  1  0.18021512  0.43318976  0.23347268  1
  O2-  O157  1  0.17652434  0.42981664  0.57723341  1
  O2-  O158  1  0.17611967  0.42840993  0.90924140  1
  O2-  O159  1  0.18081526  0.92692756  0.23547223  1
  O2-  O160  1  0.18048483  0.92294274  0.57789479  1
  O2-  O161  1  0.17948735  0.93065498  0.89992100  1
  O2-  O162  1  0.67786271  0.42790167  0.24485390  1
  O2-  O163  1  0.68062280  0.43439427  0.56635591  1
  O2-  O164  1  0.67706932  0.42960493  0.90195369  1
  O2-  O165  1  0.67991183  0.92820438  0.23554262  1
  O2-  O166  1  0.68061451  0.92476408  0.57850198  1
  O2-  O167  1  0.68038616  0.93010012  0.89812169  1
  O2-  O168  1  0.43189635  0.32386655  0.09327455  1
  O2-  O169  1  0.43113456  0.32605752  0.42035263  1
  O2-  O170  1  0.43005426  0.32451080  0.76627424  1
  O2-  O171  1  0.43109984  0.82185364  0.09812708  1
  O2-  O172  1  0.43418100  0.81808078  0.43224727  1
  O2-  O173  1  0.42636069  0.82112933  0.75584989  1
  O2-  O174  1  0.92951105  0.31853546  0.09852565  1
  O2-  O175  1  0.92552731  0.32417688  0.42340859  1
  O2-  O176  1  0.92905679  0.32235417  0.75601742  1
  O2-  O177  1  0.92562131  0.81738400  0.09925323  1
  O2-  O178  1  0.92500207  0.81574687  0.42297762  1
  O2-  O179  1  0.92622853  0.82081601  0.75387015  1
  O2-  O180  1  0.32036205  0.07137075  0.23634764  1
  O2-  O181  1  0.31837754  0.07068963  0.56876924  1
  O2-  O182  1  0.32195915  0.07475868  0.90065487  1
  O2-  O183  1  0.32336745  0.56868125  0.24605690  1
  O2-  O184  1  0.31838345  0.57195044  0.57488502  1
  O2-  O185  1  0.32172233  0.56817117  0.89955458  1
  O2-  O186  1  0.81817143  0.07401017  0.23338198  1
  O2-  O187  1  0.82204809  0.06859764  0.57007182  1
  O2-  O188  1  0.81917870  0.07359141  0.90967524  1
  O2-  O189  1  0.82050043  0.56888388  0.24347278  1
  O2-  O190  1  0.82475163  0.57064279  0.57857194  1
  O2-  O191  1  0.82491258  0.57073691  0.91088713  1
  O2-  O192  1  0.04211728  0.07988302  0.26520963  1
  O2-  O193  1  0.04010728  0.08185186  0.60174131  1
  O2-  O194  1  0.05063137  0.08504271  0.93592995  1
  O2-  O195  1  0.03547855  0.58310810  0.26312360  1
  O2-  O196  1  0.03850628  0.58307569  0.59836074  1
  O2-  O197  1  0.04614994  0.58482426  0.93529192  1
  O2-  O198  1  0.54617865  0.08817255  0.27223276  1
  O2-  O199  1  0.54800976  0.07833211  0.59871390  1
  O2-  O200  1  0.54557237  0.08853529  0.93756965  1
  O2-  O201  1  0.54597557  0.58224759  0.26730545  1
  O2-  O202  1  0.53599214  0.58685118  0.59597056  1
  O2-  O203  1  0.53950800  0.58227601  0.94141403  1
  O2-  O204  1  0.16598334  0.21452352  0.26426232  1
  O2-  O205  1  0.16402609  0.21326740  0.59918465  1
  O2-  O206  1  0.16696077  0.20830276  0.93725522  1
  O2-  O207  1  0.16981966  0.70287444  0.26604147  1
  O2-  O208  1  0.16724505  0.70700682  0.59644747  1
  O2-  O209  1  0.16650836  0.70238579  0.93761675  1
  O2-  O210  1  0.66199043  0.21333041  0.26865129  1
  O2-  O211  1  0.66954732  0.21176185  0.59883402  1
  O2-  O212  1  0.66137758  0.21031477  0.93895716  1
  O2-  O213  1  0.67040322  0.69504408  0.27144635  1
  O2-  O214  1  0.66839257  0.70380845  0.60009023  1
  O2-  O215  1  0.66664745  0.69436879  0.94025785  1
  O2-  O216  1  0.08089301  0.45278381  0.06023542  1
  O2-  O217  1  0.08185921  0.46119444  0.40114558  1
  O2-  O218  1  0.08512248  0.45814597  0.72943523  1
  O2-  O219  1  0.07892312  0.95560351  0.06647790  1
  O2-  O220  1  0.07756874  0.94561385  0.39884469  1
  O2-  O221  1  0.08361912  0.94935589  0.72694264  1
  O2-  O222  1  0.58635839  0.45966153  0.07419266  1
  O2-  O223  1  0.58517221  0.45704206  0.39617870  1
  O2-  O224  1  0.58093857  0.46475746  0.73179610  1
  O2-  O225  1  0.58725917  0.96317291  0.06636561  1
  O2-  O226  1  0.58208676  0.95736688  0.40339134  1
  O2-  O227  1  0.58294107  0.94957940  0.72773073  1
  O2-  O228  1  0.20258983  0.33656467  0.06274592  1
  O2-  O229  1  0.21166478  0.33627855  0.40137031  1
  O2-  O230  1  0.20475988  0.33866133  0.73158940  1
  O2-  O231  1  0.20485118  0.83025208  0.06472893  1
  O2-  O232  1  0.21278654  0.82831398  0.40043121  1
  O2-  O233  1  0.20437505  0.83142115  0.72953534  1
  O2-  O234  1  0.71223322  0.33252818  0.07024693  1
  O2-  O235  1  0.70534652  0.33817611  0.39875553  1
  O2-  O236  1  0.70827783  0.33647519  0.73543157  1
  O2-  O237  1  0.70741414  0.82885644  0.06443599  1
  O2-  O238  1  0.70380092  0.82665002  0.40100992  1
  O2-  O239  1  0.70490517  0.83235511  0.72946001  1
  O2-  O240  1  0.45930290  0.41380815  0.26735518  1
  O2-  O241  1  0.45772686  0.41810409  0.59557194  1
  O2-  O242  1  0.46173558  0.41423508  0.94173887  1
  O2-  O243  1  0.46328402  0.91902973  0.26555885  1
  O2-  O244  1  0.45081726  0.91697754  0.60437663  1
  O2-  O245  1  0.46280111  0.91815575  0.93078741  1
  O2-  O246  1  0.95469824  0.41366592  0.27000679  1
  O2-  O247  1  0.95139212  0.41651461  0.60515923  1
  O2-  O248  1  0.95628182  0.41617155  0.92838124  1
  O2-  O249  1  0.94551330  0.91562059  0.27278921  1
  O2-  O250  1  0.95175959  0.91657649  0.60355162  1
  O2-  O251  1  0.95637398  0.91829536  0.93065355  1
  O2-  O252  1  0.33671010  0.29744763  0.26804954  1
  O2-  O253  1  0.32842676  0.29615919  0.60046989  1
  O2-  O254  1  0.33557912  0.30291413  0.94136696  1
  O2-  O255  1  0.33797582  0.78824747  0.26304575  1
  O2-  O256  1  0.33605583  0.79259323  0.60290799  1
  O2-  O257  1  0.33415027  0.78904710  0.93058728  1
  O2-  O258  1  0.83122423  0.29912554  0.27229513  1
  O2-  O259  1  0.83226546  0.29866649  0.60640062  1
  O2-  O260  1  0.83143846  0.28892935  0.93141991  1
  O2-  O261  1  0.83465627  0.78769758  0.27148573  1
  O2-  O262  1  0.83492682  0.79589734  0.60006543  1
  O2-  O263  1  0.83293267  0.78735012  0.92934351  1
  O2-  O264  1  0.42138389  0.04535208  0.06608042  1
  O2-  O265  1  0.41849394  0.04294738  0.40180119  1
  O2-  O266  1  0.41872290  0.04358491  0.73355263  1
  O2-  O267  1  0.41288521  0.53675825  0.07343348  1
  O2-  O268  1  0.41688948  0.54377882  0.39658970  1
  O2-  O269  1  0.41063696  0.54274879  0.72722824  1
  O2-  O270  1  0.91892998  0.05199184  0.05687036  1
  O2-  O271  1  0.91959293  0.04388601  0.40039429  1
  O2-  O272  1  0.91715070  0.03896632  0.73863597  1
  O2-  O273  1  0.91757861  0.54371224  0.06240557  1
  O2-  O274  1  0.91125027  0.53889648  0.39722034  1
  O2-  O275  1  0.91633036  0.54705311  0.73199250  1
  O2-  O276  1  0.29784336  0.17342305  0.06668924  1
  O2-  O277  1  0.29554251  0.17305778  0.39963129  1
  O2-  O278  1  0.28774611  0.16825083  0.73468627  1
  O2-  O279  1  0.29176308  0.66678858  0.06791233  1
  O2-  O280  1  0.30067845  0.66632394  0.39569271  1
  O2-  O281  1  0.29083215  0.66312188  0.72805316  1
  O2-  O282  1  0.79215255  0.16291893  0.06319156  1
  O2-  O283  1  0.79155207  0.17004497  0.40128310  1
  O2-  O284  1  0.79131428  0.16737916  0.73673309  1
  O2-  O285  1  0.79795371  0.66327480  0.06439547  1
  O2-  O286  1  0.79576136  0.65998503  0.39936491  1
  O2-  O287  1  0.80013330  0.66904568  0.72750615  1
