# generated using pymatgen
data_Ca2Al2SiO7
_symmetry_space_group_name_H-M   'P 1'
_cell_length_a   15.47449513
_cell_length_b   15.46940845
_cell_length_c   15.29518306
_cell_angle_alpha   90.01129280
_cell_angle_beta   90.00562380
_cell_angle_gamma   90.01655880
_symmetry_Int_Tables_number   1
_chemical_formula_structural   Ca2Al2SiO7
_chemical_formula_sum   'Ca48 Al48 Si24 O168'
_cell_volume   3661.38034384
_cell_formula_units_Z   24
loop_
 _symmetry_equiv_pos_site_id
 _symmetry_equiv_pos_as_xyz
  1  'x, y, z'
loop_
 _atom_type_symbol
 _atom_type_oxidation_number
  Ca2+  2.0
  Al0+  0.0
  Si0+  0.0
  O2-  -2.0
loop_
 _atom_site_type_symbol
 _atom_site_label
 _atom_site_symmetry_multiplicity
 _atom_site_fract_x
 _atom_site_fract_y
 _atom_site_fract_z
 _atom_site_occupancy
  Ca2+  Ca0  1  0.17231983  0.07271648  0.17624526  1
  Ca2+  Ca1  1  0.17292633  0.08133671  0.49698266  1
  Ca2+  Ca2  1  0.16854999  0.07590515  0.84140334  1
  Ca2+  Ca3  1  0.17745263  0.58393909  0.17586940  1
  Ca2+  Ca4  1  0.17264931  0.58808605  0.50060817  1
  Ca2+  Ca5  1  0.16610609  0.58887846  0.83395803  1
  Ca2+  Ca6  1  0.65863174  0.07263272  0.17268755  1
  Ca2+  Ca7  1  0.66090232  0.07727175  0.50555335  1
  Ca2+  Ca8  1  0.66696103  0.07453460  0.83006063  1
  Ca2+  Ca9  1  0.67217790  0.57833655  0.17470311  1
  Ca2+  Ca10  1  0.67184693  0.57551841  0.50236614  1
  Ca2+  Ca11  1  0.67633118  0.57747913  0.84167978  1
  Ca2+  Ca12  1  0.06773097  0.33738269  0.16356784  1
  Ca2+  Ca13  1  0.07275546  0.33145911  0.49057054  1
  Ca2+  Ca14  1  0.07323360  0.33377413  0.83054043  1
  Ca2+  Ca15  1  0.08452104  0.83712454  0.16346939  1
  Ca2+  Ca16  1  0.07547081  0.83233269  0.49806868  1
  Ca2+  Ca17  1  0.07513601  0.82902859  0.82281085  1
  Ca2+  Ca18  1  0.58628217  0.33411973  0.16734507  1
  Ca2+  Ca19  1  0.59051684  0.32468854  0.49075821  1
  Ca2+  Ca20  1  0.59320055  0.33036605  0.82752600  1
  Ca2+  Ca21  1  0.59087889  0.82259551  0.16545644  1
  Ca2+  Ca22  1  0.58332632  0.83145909  0.48701832  1
  Ca2+  Ca23  1  0.59436508  0.83005981  0.83269021  1
  Ca2+  Ca24  1  0.33478903  0.42039048  0.17783424  1
  Ca2+  Ca25  1  0.34383449  0.42240497  0.49662717  1
  Ca2+  Ca26  1  0.33003714  0.41834145  0.83696609  1
  Ca2+  Ca27  1  0.32367485  0.91478245  0.17952594  1
  Ca2+  Ca28  1  0.33605410  0.91801642  0.49608832  1
  Ca2+  Ca29  1  0.32586745  0.91651232  0.84018091  1
  Ca2+  Ca30  1  0.82741663  0.42302597  0.17237058  1
  Ca2+  Ca31  1  0.82531743  0.42255985  0.50180730  1
  Ca2+  Ca32  1  0.82565971  0.42489647  0.83911458  1
  Ca2+  Ca33  1  0.82007901  0.91550089  0.17136385  1
  Ca2+  Ca34  1  0.82046539  0.92057559  0.50798137  1
  Ca2+  Ca35  1  0.82778703  0.91710311  0.83242284  1
  Ca2+  Ca36  1  0.41912029  0.16524404  0.17314176  1
  Ca2+  Ca37  1  0.42778350  0.17119270  0.48883354  1
  Ca2+  Ca38  1  0.42643530  0.16970424  0.82568033  1
  Ca2+  Ca39  1  0.43091082  0.66452524  0.17050015  1
  Ca2+  Ca40  1  0.42580987  0.67180812  0.48708897  1
  Ca2+  Ca41  1  0.42751449  0.66803266  0.83304380  1
  Ca2+  Ca42  1  0.90827569  0.18202124  0.16431044  1
  Ca2+  Ca43  1  0.90942521  0.17165835  0.49305984  1
  Ca2+  Ca44  1  0.90687975  0.17177027  0.82938978  1
  Ca2+  Ca45  1  0.91304106  0.66242485  0.16316860  1
  Ca2+  Ca46  1  0.91356091  0.66480446  0.49890306  1
  Ca2+  Ca47  1  0.91603763  0.66879932  0.82379466  1
  Al0+  Al48  1  0.00130521  0.00084433  0.00398623  1
  Al0+  Al49  1  -0.00004049  -0.00175160  0.33569938  1
  Al0+  Al50  1  0.00073955  0.00014029  0.66596388  1
  Al0+  Al51  1  0.00106163  0.49959359  -0.00345581  1
  Al0+  Al52  1  0.00049912  0.50076228  0.33158629  1
  Al0+  Al53  1  0.00291341  0.49867435  0.66510307  1
  Al0+  Al54  1  0.49868267  0.00129221  0.00162939  1
  Al0+  Al55  1  0.49565679  0.00018855  0.33261380  1
  Al0+  Al56  1  0.49831076  0.00185210  0.66905897  1
  Al0+  Al57  1  0.49989449  0.50051823  -0.00347309  1
  Al0+  Al58  1  0.50047382  0.49918248  0.33472881  1
  Al0+  Al59  1  0.49702797  0.50161213  0.67247642  1
  Al0+  Al60  1  0.25001977  0.25017573  -0.00107739  1
  Al0+  Al61  1  0.24857656  0.24743215  0.33306701  1
  Al0+  Al62  1  0.24964642  0.25135396  0.66750223  1
  Al0+  Al63  1  0.25072404  0.75092705  0.00308698  1
  Al0+  Al64  1  0.24836021  0.74797837  0.33923095  1
  Al0+  Al65  1  0.25030061  0.74940290  0.66447283  1
  Al0+  Al66  1  0.74892544  0.25114965  -0.00384326  1
  Al0+  Al67  1  0.75033270  0.25007065  0.32457237  1
  Al0+  Al68  1  0.74927128  0.24845733  0.66771306  1
  Al0+  Al69  1  0.75188060  0.75062670  0.00118653  1
  Al0+  Al70  1  0.75271279  0.75088760  0.33677706  1
  Al0+  Al71  1  0.75052105  0.74937777  0.66772292  1
  Al0+  Al72  1  0.67762036  0.42947537  0.68148335  1
  Al0+  Al73  1  0.57241332  0.67979638  0.98522191  1
  Al0+  Al74  1  0.32179564  0.56885584  0.34693859  1
  Al0+  Al75  1  0.07182642  0.67777687  0.64973186  1
  Al0+  Al76  1  0.57458752  0.67966419  0.32025248  1
  Al0+  Al77  1  0.67901235  0.42752966  0.34750514  1
  Al0+  Al78  1  0.57022206  0.18100281  0.65328474  1
  Al0+  Al79  1  0.82337777  0.56987965  0.68188029  1
  Al0+  Al80  1  0.82349176  0.57158376  0.34947761  1
  Al0+  Al81  1  0.17664835  0.92634097  0.35260316  1
  Al0+  Al82  1  0.67588534  0.92827226  0.68103157  1
  Al0+  Al83  1  0.67803985  0.93035295  0.34527500  1
  Al0+  Al84  1  0.82300176  0.57095386  0.01489591  1
  Al0+  Al85  1  0.42829795  0.32132062  0.31883798  1
  Al0+  Al86  1  0.32008735  0.07161226  0.35017614  1
  Al0+  Al87  1  0.67749336  0.42818466  0.01640014  1
  Al0+  Al88  1  0.92931283  0.32172459  0.31930235  1
  Al0+  Al89  1  0.67957958  0.93017592  0.01457531  1
  Al0+  Al90  1  0.92852787  0.32115306  0.98250335  1
  Al0+  Al91  1  0.92717067  0.82182933  0.65002993  1
  Al0+  Al92  1  0.42687777  0.82040246  0.31935958  1
  Al0+  Al93  1  0.17946120  0.92924580  0.01308713  1
  Al0+  Al94  1  0.57162217  0.17789757  0.31618418  1
  Al0+  Al95  1  0.82290792  0.07104223  0.68007811  1
  Si0+  Si96  1  0.93043195  0.82256249  0.98618479  1
  Si0+  Si97  1  0.07357184  0.68026819  0.98652979  1
  Si0+  Si98  1  0.82104334  0.07199987  0.34605559  1
  Si0+  Si99  1  0.07192425  0.17874836  0.98308202  1
  Si0+  Si100  1  0.42715916  0.32167082  0.98368091  1
  Si0+  Si101  1  0.18083422  0.92897593  0.68197346  1
  Si0+  Si102  1  0.56951294  0.17752509  0.98245907  1
  Si0+  Si103  1  0.17984914  0.42808239  0.01418517  1
  Si0+  Si104  1  0.57029238  0.67869471  0.65359058  1
  Si0+  Si105  1  0.93031770  0.31841454  0.65114760  1
  Si0+  Si106  1  0.42585477  0.32334351  0.65125417  1
  Si0+  Si107  1  0.17723868  0.42760417  0.34855535  1
  Si0+  Si108  1  0.31951957  0.57272877  0.68440644  1
  Si0+  Si109  1  0.32047999  0.57082239  0.01458202  1
  Si0+  Si110  1  0.82244547  0.07278861  0.01672206  1
  Si0+  Si111  1  0.32153663  0.07387463  0.01688855  1
  Si0+  Si112  1  0.07457457  0.17829631  0.65163172  1
  Si0+  Si113  1  0.17982296  0.42759796  0.68231739  1
  Si0+  Si114  1  0.93002306  0.82188215  0.31677209  1
  Si0+  Si115  1  0.07035371  0.67919867  0.31710746  1
  Si0+  Si116  1  0.42869696  0.82104913  0.65396712  1
  Si0+  Si117  1  0.07082322  0.17578638  0.31598570  1
  Si0+  Si118  1  0.31956474  0.07288312  0.68336242  1
  Si0+  Si119  1  0.42744491  0.82183605  0.98410080  1
  O2-  O120  1  0.25434587  0.00319538  0.05898284  1
  O2-  O121  1  0.25036382  -0.00261793  0.40101366  1
  O2-  O122  1  0.24950494  0.00129928  0.72622203  1
  O2-  O123  1  0.25072766  0.49838662  0.05643019  1
  O2-  O124  1  0.25018692  0.49066363  0.39397527  1
  O2-  O125  1  0.24874673  0.50058077  0.72552136  1
  O2-  O126  1  0.75332838  0.00558274  0.06146476  1
  O2-  O127  1  0.74916705  0.00826488  0.39126219  1
  O2-  O128  1  0.75215798  -0.00264207  0.72967530  1
  O2-  O129  1  0.74963253  0.50069129  0.06448024  1
  O2-  O130  1  0.74968664  0.50073407  0.39707410  1
  O2-  O131  1  0.74868932  0.50159789  0.73254885  1
  O2-  O132  1  0.00302598  0.24512055  0.27203267  1
  O2-  O133  1  -0.00087173  0.24426557  0.60959097  1
  O2-  O134  1  0.00190877  0.24398225  0.93580711  1
  O2-  O135  1  0.00017174  0.74998681  0.27383247  1
  O2-  O136  1  -0.00329009  0.74644753  0.60025420  1
  O2-  O137  1  0.00113453  0.74986392  0.94534487  1
  O2-  O138  1  0.50106471  0.25213038  0.26610148  1
  O2-  O139  1  0.49870506  0.25958229  0.60875789  1
  O2-  O140  1  0.50005562  0.25225796  0.94227451  1
  O2-  O141  1  0.50335068  0.75323648  0.26964066  1
  O2-  O142  1  0.50535532  0.75610652  0.61314732  1
  O2-  O143  1  0.49929337  0.75759168  0.93814600  1
  O2-  O144  1  0.07390826  0.18146739  0.08798348  1
  O2-  O145  1  0.06966787  0.17703805  0.42206065  1
  O2-  O146  1  0.07976778  0.18184772  0.75670732  1
  O2-  O147  1  0.07704145  0.68049519  0.09136760  1
  O2-  O148  1  0.06998042  0.67798366  0.42173980  1
  O2-  O149  1  0.07604347  0.68246005  0.76408987  1
  O2-  O150  1  0.56770449  0.17401424  0.08679508  1
  O2-  O151  1  0.57145004  0.17838419  0.42986795  1
  O2-  O152  1  0.56599642  0.17975398  0.76706629  1
  O2-  O153  1  0.57000280  0.67833190  0.09751551  1
  O2-  O154  1  0.57237850  0.68065340  0.43439739  1
  O2-  O155  1  0.56618626  0.67748046  0.75903563  1
  O2-  O156  1  0.17590599  0.43235374  0.24254931  1
  O2-  O157  1  0.18092850  0.42373705  0.57795667  1
  O2-  O158  1  0.18170138  0.42767912  0.90870485  1
  O2-  O159  1  0.17629836  0.92863999  0.23860735  1
  O2-  O160  1  0.18295415  0.92907350  0.57772964  1
  O2-  O161  1  0.18109204  0.92997774  0.89929062  1
  O2-  O162  1  0.68096218  0.42851977  0.23407787  1
  O2-  O163  1  0.67791126  0.42922868  0.56849789  1
  O2-  O164  1  0.67928515  0.42893491  0.90262466  1
  O2-  O165  1  0.68224402  0.92901787  0.23195895  1
  O2-  O166  1  0.67217951  0.93147337  0.56790868  1
  O2-  O167  1  0.68110583  0.93143646  0.90165612  1
  O2-  O168  1  0.42170535  0.32154681  0.08775342  1
  O2-  O169  1  0.42760854  0.31928877  0.43249323  1
  O2-  O170  1  0.42035810  0.31995008  0.75728036  1
  O2-  O171  1  0.42289183  0.81868290  0.08852511  1
  O2-  O172  1  0.42824039  0.81732712  0.43372904  1
  O2-  O173  1  0.42325249  0.81802118  0.75936492  1
  O2-  O174  1  0.93219165  0.32115202  0.09523417  1
  O2-  O175  1  0.93203578  0.31987593  0.43277507  1
  O2-  O176  1  0.93397328  0.31834151  0.75637620  1
  O2-  O177  1  0.93241066  0.82379505  0.09130124  1
  O2-  O178  1  0.93121795  0.82379059  0.42129329  1
  O2-  O179  1  0.93264647  0.82392266  0.76449587  1
  O2-  O180  1  0.31527065  0.07279494  0.23641799  1
  O2-  O181  1  0.31823729  0.07439538  0.57924515  1
  O2-  O182  1  0.31968675  0.07462103  0.91052191  1
  O2-  O183  1  0.31799843  0.56902863  0.23335984  1
  O2-  O184  1  0.32110965  0.57252501  0.57995703  1
  O2-  O185  1  0.31756309  0.57095315  0.90892839  1
  O2-  O186  1  0.82366919  0.06823933  0.24031693  1
  O2-  O187  1  0.82210483  0.07267165  0.56678518  1
  O2-  O188  1  0.82371595  0.07043222  0.91120351  1
  O2-  O189  1  0.82599119  0.56972163  0.23594686  1
  O2-  O190  1  0.82354505  0.56585033  0.56894287  1
  O2-  O191  1  0.82445300  0.57067150  0.90141471  1
  O2-  O192  1  0.04487641  0.08198879  0.27052798  1
  O2-  O193  1  0.05379390  0.08473000  0.60612356  1
  O2-  O194  1  0.04904980  0.08333798  0.93844393  1
  O2-  O195  1  0.04483423  0.58764477  0.26761577  1
  O2-  O196  1  0.05209701  0.57633701  0.59935274  1
  O2-  O197  1  0.05027275  0.58749664  0.93844668  1
  O2-  O198  1  0.53697907  0.08129721  0.26290129  1
  O2-  O199  1  0.53422526  0.08505006  0.60132833  1
  O2-  O200  1  0.53755538  0.08720165  0.93309486  1
  O2-  O201  1  0.54174747  0.58245840  0.26827387  1
  O2-  O202  1  0.53380081  0.58911443  0.60741365  1
  O2-  O203  1  0.53607809  0.58518324  0.92905690  1
  O2-  O204  1  0.16413580  0.19979001  0.26973116  1
  O2-  O205  1  0.16374653  0.21225235  0.60222800  1
  O2-  O206  1  0.16506493  0.20645483  0.93509468  1
  O2-  O207  1  0.16240487  0.70672195  0.27025580  1
  O2-  O208  1  0.16979639  0.70969831  0.59722788  1
  O2-  O209  1  0.16468670  0.70972372  0.93731081  1
  O2-  O210  1  0.66985605  0.20154065  0.26076196  1
  O2-  O211  1  0.66797226  0.20661247  0.59991137  1
  O2-  O212  1  0.66176120  0.20333649  0.93525776  1
  O2-  O213  1  0.67295691  0.70893586  0.26729405  1
  O2-  O214  1  0.66429987  0.69785268  0.60895343  1
  O2-  O215  1  0.66922002  0.71162404  0.93169694  1
  O2-  O216  1  0.08850525  0.45657329  0.06039288  1
  O2-  O217  1  0.08697949  0.45944196  0.39682944  1
  O2-  O218  1  0.08870454  0.45402000  0.73146006  1
  O2-  O219  1  0.08384879  0.95953019  0.06889472  1
  O2-  O220  1  0.07923593  0.95865285  0.40546818  1
  O2-  O221  1  0.08900132  0.95583074  0.72916422  1
  O2-  O222  1  0.57637323  0.45406549  0.06409949  1
  O2-  O223  1  0.58010424  0.45149868  0.39995892  1
  O2-  O224  1  0.57758979  0.45492638  0.73448478  1
  O2-  O225  1  0.58114747  0.95906250  0.06544799  1
  O2-  O226  1  0.57949920  0.95553567  0.39597125  1
  O2-  O227  1  0.57870815  0.95982890  0.73678259  1
  O2-  O228  1  0.20650552  0.33610451  0.06103397  1
  O2-  O229  1  0.19444861  0.33153539  0.39155126  1
  O2-  O230  1  0.21002092  0.33765423  0.73373546  1
  O2-  O231  1  0.20934418  0.83294633  0.06783716  1
  O2-  O232  1  0.20210318  0.82794735  0.40506622  1
  O2-  O233  1  0.21176996  0.83767634  0.72933876  1
  O2-  O234  1  0.70476297  0.32804659  0.06521225  1
  O2-  O235  1  0.71120398  0.32823768  0.39684126  1
  O2-  O236  1  0.70780523  0.33115808  0.73303233  1
  O2-  O237  1  0.71325258  0.83476536  0.06779293  1
  O2-  O238  1  0.71276068  0.83628398  0.40039384  1
  O2-  O239  1  0.70268317  0.82921083  0.73291338  1
  O2-  O240  1  0.45226430  0.42082398  0.26652509  1
  O2-  O241  1  0.44519765  0.42039770  0.61064905  1
  O2-  O242  1  0.45037332  0.41409947  0.93486273  1
  O2-  O243  1  0.44445922  0.92106541  0.26863175  1
  O2-  O244  1  0.44902648  0.91577552  0.61011678  1
  O2-  O245  1  0.44718168  0.91800394  0.93974369  1
  O2-  O246  1  0.96569841  0.41614893  0.26407347  1
  O2-  O247  1  0.96364528  0.40812911  0.60412206  1
  O2-  O248  1  0.96593277  0.41569432  0.92755302  1
  O2-  O249  1  0.95934542  0.91298323  0.26808426  1
  O2-  O250  1  0.96018224  0.91966136  0.59778119  1
  O2-  O251  1  0.96009292  0.91441652  0.93916407  1
  O2-  O252  1  0.32818168  0.29313179  0.26666690  1
  O2-  O253  1  0.33359397  0.29460021  0.60442716  1
  O2-  O254  1  0.33582568  0.29185729  0.93364100  1
  O2-  O255  1  0.32838786  0.78687447  0.26888552  1
  O2-  O256  1  0.33988208  0.78804172  0.60472121  1
  O2-  O257  1  0.33525647  0.79077585  0.93534865  1
  O2-  O258  1  0.83575053  0.29121402  0.26046640  1
  O2-  O259  1  0.83834367  0.29175654  0.60515056  1
  O2-  O260  1  0.83213056  0.29045385  0.92804265  1
  O2-  O261  1  0.83873180  0.79419708  0.26900264  1
  O2-  O262  1  0.82718359  0.79727905  0.59868669  1
  O2-  O263  1  0.83934221  0.79596572  0.93786594  1
  O2-  O264  1  0.41519582  0.05097959  0.06175434  1
  O2-  O265  1  0.41780643  0.04484310  0.40405235  1
  O2-  O266  1  0.40986413  0.04469356  0.73312816  1
  O2-  O267  1  0.41223906  0.54319625  0.05963062  1
  O2-  O268  1  0.41716939  0.54074929  0.40375358  1
  O2-  O269  1  0.40923882  0.54480497  0.73614272  1
  O2-  O270  1  0.91631907  0.04923409  0.06289594  1
  O2-  O271  1  0.91340214  0.04487259  0.39345292  1
  O2-  O272  1  0.92328702  0.04753230  0.73371594  1
  O2-  O273  1  0.92319681  0.54249274  0.06497356  1
  O2-  O274  1  0.92211069  0.54134045  0.40094111  1
  O2-  O275  1  0.92324539  0.54064050  0.73271974  1
  O2-  O276  1  0.29349177  0.16684423  0.06237355  1
  O2-  O277  1  0.28767653  0.16871913  0.40486629  1
  O2-  O278  1  0.29024187  0.16434849  0.73183096  1
  O2-  O279  1  0.29022261  0.66101337  0.06236371  1
  O2-  O280  1  0.28607561  0.66174557  0.40404042  1
  O2-  O281  1  0.28906085  0.66343318  0.73310565  1
  O2-  O282  1  0.79649490  0.16721157  0.05932353  1
  O2-  O283  1  0.80071341  0.16773624  0.38823421  1
  O2-  O284  1  0.79172278  0.16747312  0.73542965  1
  O2-  O285  1  0.79845534  0.67064118  0.06579178  1
  O2-  O286  1  0.79852361  0.67055537  0.40147463  1
  O2-  O287  1  0.79922709  0.67016765  0.73222882  1
