# generated using pymatgen
data_Ca2Al2SiO7
_symmetry_space_group_name_H-M   'P 1'
_cell_length_a   15.45560212
_cell_length_b   15.45583279
_cell_length_c   15.28183201
_cell_angle_alpha   90.01417904
_cell_angle_beta   90.00627929
_cell_angle_gamma   90.01877339
_symmetry_Int_Tables_number   1
_chemical_formula_structural   Ca2Al2SiO7
_chemical_formula_sum   'Ca48 Al48 Si24 O168'
_cell_volume   3650.51150761
_cell_formula_units_Z   24
loop_
 _symmetry_equiv_pos_site_id
 _symmetry_equiv_pos_as_xyz
  1  'x, y, z'
loop_
 _atom_type_symbol
 _atom_type_oxidation_number
  Ca2+  2.0
  Al0+  0.0
  Si0+  0.0
  O2-  -2.0
loop_
 _atom_site_type_symbol
 _atom_site_label
 _atom_site_symmetry_multiplicity
 _atom_site_fract_x
 _atom_site_fract_y
 _atom_site_fract_z
 _atom_site_occupancy
  Ca2+  Ca0  1  0.16666902  0.08303907  0.16312551  1
  Ca2+  Ca1  1  0.17524873  0.07752025  0.50935080  1
  Ca2+  Ca2  1  0.17618485  0.07733480  0.84132009  1
  Ca2+  Ca3  1  0.17742679  0.57715639  0.17655591  1
  Ca2+  Ca4  1  0.16816873  0.57547160  0.50354302  1
  Ca2+  Ca5  1  0.16167949  0.58041581  0.83193082  1
  Ca2+  Ca6  1  0.66691256  0.06930262  0.17311129  1
  Ca2+  Ca7  1  0.66924279  0.07620999  0.50193224  1
  Ca2+  Ca8  1  0.66554130  0.07158273  0.83611851  1
  Ca2+  Ca9  1  0.66511967  0.58089117  0.16992688  1
  Ca2+  Ca10  1  0.66000504  0.57283858  0.50055931  1
  Ca2+  Ca11  1  0.66897226  0.57425506  0.84318884  1
  Ca2+  Ca12  1  0.07900114  0.32981920  0.16296997  1
  Ca2+  Ca13  1  0.07363973  0.34146313  0.49441242  1
  Ca2+  Ca14  1  0.07860266  0.32948180  0.82475648  1
  Ca2+  Ca15  1  0.08167553  0.83537914  0.15879392  1
  Ca2+  Ca16  1  0.09143704  0.82727800  0.50063111  1
  Ca2+  Ca17  1  0.08846251  0.83022308  0.82565722  1
  Ca2+  Ca18  1  0.57977479  0.34132220  0.16520058  1
  Ca2+  Ca19  1  0.58046878  0.33640950  0.49055119  1
  Ca2+  Ca20  1  0.58711081  0.33414459  0.82871433  1
  Ca2+  Ca21  1  0.58503342  0.82443045  0.15735511  1
  Ca2+  Ca22  1  0.58211061  0.83259673  0.49487723  1
  Ca2+  Ca23  1  0.57625470  0.83835256  0.82869125  1
  Ca2+  Ca24  1  0.33052565  0.42163352  0.17972836  1
  Ca2+  Ca25  1  0.32675304  0.41974844  0.50048863  1
  Ca2+  Ca26  1  0.32541293  0.41668248  0.83530488  1
  Ca2+  Ca27  1  0.33437787  0.91684301  0.16260014  1
  Ca2+  Ca28  1  0.33372404  0.92245853  0.51259695  1
  Ca2+  Ca29  1  0.33055306  0.92012459  0.83817024  1
  Ca2+  Ca30  1  0.82388259  0.41894194  0.17042555  1
  Ca2+  Ca31  1  0.82535606  0.40855424  0.50444321  1
  Ca2+  Ca32  1  0.82712978  0.41989686  0.83693792  1
  Ca2+  Ca33  1  0.82241393  0.92039767  0.17397874  1
  Ca2+  Ca34  1  0.82261943  0.91957785  0.50022104  1
  Ca2+  Ca35  1  0.82034053  0.90949222  0.83817680  1
  Ca2+  Ca36  1  0.41264154  0.17311808  0.16370642  1
  Ca2+  Ca37  1  0.41610298  0.17140061  0.49632134  1
  Ca2+  Ca38  1  0.41461360  0.16040594  0.83123253  1
  Ca2+  Ca39  1  0.42911777  0.66633863  0.16107522  1
  Ca2+  Ca40  1  0.42004116  0.67157072  0.49275266  1
  Ca2+  Ca41  1  0.42120136  0.68034025  0.83102873  1
  Ca2+  Ca42  1  0.91707659  0.16904139  0.16379524  1
  Ca2+  Ca43  1  0.91358948  0.17625033  0.49255594  1
  Ca2+  Ca44  1  0.92306290  0.17107649  0.82817705  1
  Ca2+  Ca45  1  0.91680688  0.66427452  0.16178486  1
  Ca2+  Ca46  1  0.92402393  0.66446938  0.50005784  1
  Ca2+  Ca47  1  0.92033928  0.66361139  0.82922961  1
  Al0+  Al48  1  0.00126921  0.00018909  -0.00366571  1
  Al0+  Al49  1  0.00000389  0.00021552  0.33765390  1
  Al0+  Al50  1  -0.00017207  0.00024335  0.66684018  1
  Al0+  Al51  1  -0.00192366  0.49977050  0.00321830  1
  Al0+  Al52  1  -0.00043086  0.49942175  0.32875465  1
  Al0+  Al53  1  0.00025291  0.50028652  0.66169834  1
  Al0+  Al54  1  0.49878317  0.00257115  0.00621330  1
  Al0+  Al55  1  0.49796536  -0.00031358  0.33587980  1
  Al0+  Al56  1  0.50162628  0.00120758  0.66791441  1
  Al0+  Al57  1  0.49854692  0.49988186  -0.00403452  1
  Al0+  Al58  1  0.49979539  0.50237497  0.33322916  1
  Al0+  Al59  1  0.49960967  0.50033074  0.67162119  1
  Al0+  Al60  1  0.24859199  0.24845659  -0.00151027  1
  Al0+  Al61  1  0.24854329  0.24913147  0.33312152  1
  Al0+  Al62  1  0.25065865  0.25130549  0.67337484  1
  Al0+  Al63  1  0.25038213  0.74973115  0.00007603  1
  Al0+  Al64  1  0.25126681  0.74993610  0.33438761  1
  Al0+  Al65  1  0.25147983  0.74996505  0.65994245  1
  Al0+  Al66  1  0.74835957  0.25154233  0.00153784  1
  Al0+  Al67  1  0.75067881  0.24910448  0.33298098  1
  Al0+  Al68  1  0.74958351  0.24941707  0.66715191  1
  Al0+  Al69  1  0.75183436  0.74690226  0.00289947  1
  Al0+  Al70  1  0.75110278  0.74946224  0.33440089  1
  Al0+  Al71  1  0.75084882  0.74870612  0.66841307  1
  Al0+  Al72  1  0.92982192  0.31881171  0.65287472  1
  Al0+  Al73  1  0.57113675  0.68092596  0.32034397  1
  Al0+  Al74  1  0.82220790  0.57011124  0.01597296  1
  Al0+  Al75  1  0.43204736  0.82191846  0.65201118  1
  Al0+  Al76  1  0.67735647  0.92676076  0.34881610  1
  Al0+  Al77  1  0.07061094  0.68066921  0.65209599  1
  Al0+  Al78  1  0.67882208  0.92927608  0.01351097  1
  Al0+  Al79  1  0.32073408  0.07235836  0.01890152  1
  Al0+  Al80  1  0.32239130  0.57194781  0.34872756  1
  Al0+  Al81  1  0.43031453  0.82222260  0.98499888  1
  Al0+  Al82  1  0.67802630  0.42845528  0.68002010  1
  Al0+  Al83  1  0.92728635  0.32120479  0.31665778  1
  Al0+  Al84  1  0.68014493  0.43102950  0.34636138  1
  Al0+  Al85  1  0.67664664  0.42844222  0.01663775  1
  Al0+  Al86  1  0.42939868  0.31992847  0.32165571  1
  Al0+  Al87  1  0.17795288  0.42769210  0.34734085  1
  Al0+  Al88  1  0.17788498  0.43136186  0.68085370  1
  Al0+  Al89  1  0.82200463  0.07115296  0.34810752  1
  Al0+  Al90  1  0.32167035  0.07172688  0.68205659  1
  Al0+  Al91  1  0.17867761  0.92676852  0.68060839  1
  Al0+  Al92  1  0.57362288  0.67767711  0.98253139  1
  Al0+  Al93  1  0.17861914  0.92729250  0.01534186  1
  Al0+  Al94  1  0.07051356  0.17907075  0.98414473  1
  Al0+  Al95  1  0.68134021  0.92863909  0.68055322  1
  Si0+  Si96  1  0.31992795  0.07139975  0.34866838  1
  Si0+  Si97  1  0.07138949  0.67789283  0.98670612  1
  Si0+  Si98  1  0.82189882  0.07338359  0.68397699  1
  Si0+  Si99  1  0.07226355  0.67957204  0.31628264  1
  Si0+  Si100  1  0.93126695  0.82130241  0.31896103  1
  Si0+  Si101  1  0.31952653  0.57042623  0.01304295  1
  Si0+  Si102  1  0.07154751  0.17596280  0.31676280  1
  Si0+  Si103  1  0.57136673  0.17642027  0.31650036  1
  Si0+  Si104  1  0.82403624  0.57278584  0.35178205  1
  Si0+  Si105  1  0.57117745  0.17993294  0.98599397  1
  Si0+  Si106  1  0.17853960  0.42844014  0.01418034  1
  Si0+  Si107  1  0.42765077  0.32125803  0.98387477  1
  Si0+  Si108  1  0.17823267  0.92838271  0.34845617  1
  Si0+  Si109  1  0.92486948  0.82373955  0.64914952  1
  Si0+  Si110  1  0.32245344  0.57263027  0.68496601  1
  Si0+  Si111  1  0.42788995  0.32326028  0.65276367  1
  Si0+  Si112  1  0.57044318  0.18056170  0.65176626  1
  Si0+  Si113  1  0.92750971  0.32231936  0.98232502  1
  Si0+  Si114  1  0.82284277  0.07226697  0.01395329  1
  Si0+  Si115  1  0.82243127  0.57064335  0.68132396  1
  Si0+  Si116  1  0.57308881  0.67679655  0.65015140  1
  Si0+  Si117  1  0.42640941  0.82438154  0.31563617  1
  Si0+  Si118  1  0.07413065  0.17802804  0.64962172  1
  Si0+  Si119  1  0.92965623  0.82100217  0.98597280  1
  O2-  O120  1  0.24967227  -0.00136830  0.06794282  1
  O2-  O121  1  0.25142440  -0.00253943  0.38945787  1
  O2-  O122  1  0.24838012  0.00035223  0.73070462  1
  O2-  O123  1  0.24986312  0.49848469  0.05609303  1
  O2-  O124  1  0.24945857  0.50008971  0.39753306  1
  O2-  O125  1  0.25283454  0.50471922  0.72985963  1
  O2-  O126  1  0.75471290  0.00373599  0.05889341  1
  O2-  O127  1  0.74750000  0.00143852  0.39753384  1
  O2-  O128  1  0.75970522  -0.00084671  0.72846555  1
  O2-  O129  1  0.74735793  0.50160757  0.06596712  1
  O2-  O130  1  0.75666867  0.50287401  0.39565007  1
  O2-  O131  1  0.75104931  0.50490769  0.72524774  1
  O2-  O132  1  0.00320150  0.24562759  0.27291654  1
  O2-  O133  1  0.00468518  0.24481252  0.60403603  1
  O2-  O134  1  -0.00477101  0.25323099  0.93755456  1
  O2-  O135  1  0.00168444  0.75077369  0.27406282  1
  O2-  O136  1  -0.00167331  0.75900610  0.60571105  1
  O2-  O137  1  0.00170328  0.75020431  0.94458112  1
  O2-  O138  1  0.50440536  0.24684767  0.27199755  1
  O2-  O139  1  0.49977556  0.25288271  0.61086951  1
  O2-  O140  1  0.50080507  0.25171713  0.94286387  1
  O2-  O141  1  0.49818783  0.75805706  0.27391395  1
  O2-  O142  1  0.50672700  0.74714243  0.60522679  1
  O2-  O143  1  0.50604119  0.75451345  0.93349426  1
  O2-  O144  1  0.06950022  0.18200225  0.09757481  1
  O2-  O145  1  0.07217619  0.17376967  0.42215511  1
  O2-  O146  1  0.07218514  0.18015710  0.75520687  1
  O2-  O147  1  0.07089834  0.67762197  0.09199401  1
  O2-  O148  1  0.07195663  0.68036812  0.42128752  1
  O2-  O149  1  0.06707549  0.67878116  0.76569753  1
  O2-  O150  1  0.57143373  0.18034232  0.09087777  1
  O2-  O151  1  0.56836600  0.17522851  0.42246479  1
  O2-  O152  1  0.57144006  0.18076601  0.75718223  1
  O2-  O153  1  0.57032983  0.67682050  0.09629191  1
  O2-  O154  1  0.56908187  0.68134254  0.43379883  1
  O2-  O155  1  0.57173486  0.67645416  0.75539091  1
  O2-  O156  1  0.17985554  0.42953502  0.23295591  1
  O2-  O157  1  0.17855672  0.43211806  0.56826240  1
  O2-  O158  1  0.17784957  0.43065994  0.90883839  1
  O2-  O159  1  0.17575281  0.92814848  0.24361095  1
  O2-  O160  1  0.18188977  0.92909963  0.56619566  1
  O2-  O161  1  0.17838906  0.92630179  0.90245658  1
  O2-  O162  1  0.67961252  0.43331598  0.23380150  1
  O2-  O163  1  0.67686348  0.42808731  0.56693889  1
  O2-  O164  1  0.67990811  0.42688428  0.90271055  1
  O2-  O165  1  0.67984019  0.92690892  0.23511792  1
  O2-  O166  1  0.68111681  0.93087187  0.56781823  1
  O2-  O167  1  0.67968550  0.93177190  0.90012402  1
  O2-  O168  1  0.42593751  0.32199274  0.08897442  1
  O2-  O169  1  0.42929133  0.31683209  0.43507153  1
  O2-  O170  1  0.42827310  0.32376663  0.75810249  1
  O2-  O171  1  0.42953885  0.81765292  0.09869981  1
  O2-  O172  1  0.42469814  0.82499005  0.42131298  1
  O2-  O173  1  0.43235528  0.82233101  0.76481626  1
  O2-  O174  1  0.92889752  0.32195721  0.08779699  1
  O2-  O175  1  0.92815387  0.32055626  0.42995299  1
  O2-  O176  1  0.93063897  0.31737579  0.76624936  1
  O2-  O177  1  0.93138101  0.82182832  0.09141404  1
  O2-  O178  1  0.93347773  0.82034196  0.42396435  1
  O2-  O179  1  0.92152546  0.82052758  0.75475170  1
  O2-  O180  1  0.31965780  0.07301339  0.24403741  1
  O2-  O181  1  0.32126402  0.07246776  0.56767789  1
  O2-  O182  1  0.31939877  0.07364550  0.90586494  1
  O2-  O183  1  0.31993677  0.57108530  0.23437082  1
  O2-  O184  1  0.32396297  0.56952555  0.57961639  1
  O2-  O185  1  0.31699077  0.56936262  0.90781254  1
  O2-  O186  1  0.82366683  0.06650388  0.23415111  1
  O2-  O187  1  0.81793645  0.07562599  0.57868455  1
  O2-  O188  1  0.82108424  0.07158941  0.90817674  1
  O2-  O189  1  0.82425479  0.57351298  0.24640459  1
  O2-  O190  1  0.82296573  0.57060582  0.57578564  1
  O2-  O191  1  0.82784675  0.56625726  0.90230850  1
  O2-  O192  1  0.04441083  0.08235154  0.27011414  1
  O2-  O193  1  0.05144539  0.08277560  0.60465925  1
  O2-  O194  1  0.04126497  0.08242816  0.92883690  1
  O2-  O195  1  0.04462387  0.58847750  0.26753260  1
  O2-  O196  1  0.03612297  0.58654783  0.59514927  1
  O2-  O197  1  0.04152851  0.58615363  0.93914990  1
  O2-  O198  1  0.54190901  0.08343277  0.27025279  1
  O2-  O199  1  0.54158930  0.09011128  0.60258338  1
  O2-  O200  1  0.54168699  0.08886378  0.93804167  1
  O2-  O201  1  0.53745144  0.58607988  0.26475389  1
  O2-  O202  1  0.54376261  0.58308266  0.60509123  1
  O2-  O203  1  0.53962620  0.58073778  0.92868303  1
  O2-  O204  1  0.16471539  0.20146807  0.26959366  1
  O2-  O205  1  0.16862512  0.20480429  0.60605982  1
  O2-  O206  1  0.16637156  0.21159875  0.92970446  1
  O2-  O207  1  0.16443948  0.70790565  0.26932380  1
  O2-  O208  1  0.16670669  0.70794134  0.59485871  1
  O2-  O209  1  0.16295821  0.70313011  0.93819461  1
  O2-  O210  1  0.66586214  0.19802233  0.27185316  1
  O2-  O211  1  0.66175873  0.20783901  0.60335874  1
  O2-  O212  1  0.66303859  0.20634291  0.93663059  1
  O2-  O213  1  0.66968983  0.70818712  0.26736924  1
  O2-  O214  1  0.66838684  0.69878205  0.60585215  1
  O2-  O215  1  0.67566780  0.69858562  0.93403070  1
  O2-  O216  1  0.08711014  0.45611248  0.06165015  1
  O2-  O217  1  0.07944922  0.45929347  0.39773798  1
  O2-  O218  1  0.08177643  0.46445884  0.73448729  1
  O2-  O219  1  0.07927865  0.95715703  0.06704174  1
  O2-  O220  1  0.08793861  0.95625037  0.39811957  1
  O2-  O221  1  0.07683134  0.94846654  0.72986914  1
  O2-  O222  1  0.57571278  0.45487919  0.06491615  1
  O2-  O223  1  0.58429846  0.46329899  0.40075277  1
  O2-  O224  1  0.58140291  0.45635903  0.73571011  1
  O2-  O225  1  0.58454290  0.96191782  0.06932901  1
  O2-  O226  1  0.57800404  0.95437671  0.40043813  1
  O2-  O227  1  0.58739778  0.96572329  0.73449325  1
  O2-  O228  1  0.20633509  0.33687865  0.06022027  1
  O2-  O229  1  0.20436777  0.32885360  0.39975419  1
  O2-  O230  1  0.20868350  0.33593055  0.73683770  1
  O2-  O231  1  0.20535094  0.82810250  0.06897424  1
  O2-  O232  1  0.20425648  0.83577313  0.39467265  1
  O2-  O233  1  0.20706305  0.82725301  0.73029016  1
  O2-  O234  1  0.70449806  0.32968694  0.06942395  1
  O2-  O235  1  0.70649641  0.33211398  0.39767164  1
  O2-  O236  1  0.70988905  0.33213917  0.73385172  1
  O2-  O237  1  0.71062364  0.83265105  0.06528283  1
  O2-  O238  1  0.71089511  0.83046102  0.40271700  1
  O2-  O239  1  0.70931366  0.83091962  0.73430041  1
  O2-  O240  1  0.45878579  0.41669550  0.26759246  1
  O2-  O241  1  0.45517821  0.41562306  0.60623827  1
  O2-  O242  1  0.45230087  0.41262356  0.93399202  1
  O2-  O243  1  0.44810526  0.91959199  0.27090397  1
  O2-  O244  1  0.46360059  0.91892252  0.59824442  1
  O2-  O245  1  0.45471352  0.92392523  0.93696388  1
  O2-  O246  1  0.95810478  0.41766517  0.26152221  1
  O2-  O247  1  0.95959256  0.41504232  0.59820721  1
  O2-  O248  1  0.95607162  0.41565839  0.93700101  1
  O2-  O249  1  0.96017119  0.91300820  0.27159953  1
  O2-  O250  1  0.94472060  0.91962671  0.60489803  1
  O2-  O251  1  0.95441900  0.91229068  0.93634287  1
  O2-  O252  1  0.33284238  0.28809140  0.26667640  1
  O2-  O253  1  0.33579041  0.29469612  0.60629122  1
  O2-  O254  1  0.33659066  0.29154507  0.93567719  1
  O2-  O255  1  0.33287432  0.79711597  0.26947603  1
  O2-  O256  1  0.33623327  0.79174794  0.59612137  1
  O2-  O257  1  0.33222482  0.78885930  0.93259898  1
  O2-  O258  1  0.83139566  0.28885076  0.26183830  1
  O2-  O259  1  0.83280262  0.28660286  0.59959102  1
  O2-  O260  1  0.83295195  0.29743689  0.93754306  1
  O2-  O261  1  0.83942858  0.79388908  0.27160863  1
  O2-  O262  1  0.83379814  0.79237609  0.60017557  1
  O2-  O263  1  0.83911916  0.79074582  0.93769888  1
  O2-  O264  1  0.41903561  0.04835076  0.07346895  1
  O2-  O265  1  0.41207153  0.04670068  0.39700719  1
  O2-  O266  1  0.42022042  0.04392016  0.73391765  1
  O2-  O267  1  0.41126574  0.54203042  0.05917311  1
  O2-  O268  1  0.41899609  0.54312935  0.40307057  1
  O2-  O269  1  0.41445329  0.54587539  0.73359061  1
  O2-  O270  1  0.91656032  0.04707698  0.05898497  1
  O2-  O271  1  0.91888039  0.04084996  0.40405534  1
  O2-  O272  1  0.91840518  0.05495621  0.72650939  1
  O2-  O273  1  0.91963415  0.54014999  0.07234975  1
  O2-  O274  1  0.91888009  0.54824156  0.39524226  1
  O2-  O275  1  0.91466972  0.54175290  0.72780332  1
  O2-  O276  1  0.28784078  0.17068255  0.07093819  1
  O2-  O277  1  0.28990932  0.16159798  0.39759487  1
  O2-  O278  1  0.29622338  0.17010681  0.73640521  1
  O2-  O279  1  0.29067824  0.66050096  0.06214959  1
  O2-  O280  1  0.29300945  0.67039861  0.40151939  1
  O2-  O281  1  0.29514925  0.66633873  0.72828517  1
  O2-  O282  1  0.79796512  0.16614494  0.05935698  1
  O2-  O283  1  0.79445483  0.16929974  0.40092623  1
  O2-  O284  1  0.78987362  0.16349621  0.73315636  1
  O2-  O285  1  0.80029290  0.66940527  0.06978891  1
  O2-  O286  1  0.80009547  0.66638904  0.39820972  1
  O2-  O287  1  0.80154063  0.66505012  0.72803925  1
