# generated using pymatgen
data_Ca2Al2SiO7
_symmetry_space_group_name_H-M   'P 1'
_cell_length_a   15.46364830
_cell_length_b   15.46479088
_cell_length_c   15.28881442
_cell_angle_alpha   90.00919179
_cell_angle_beta   90.01210780
_cell_angle_gamma   89.98776631
_symmetry_Int_Tables_number   1
_chemical_formula_structural   Ca2Al2SiO7
_chemical_formula_sum   'Ca48 Al48 Si24 O168'
_cell_volume   3656.19877973
_cell_formula_units_Z   24
loop_
 _symmetry_equiv_pos_site_id
 _symmetry_equiv_pos_as_xyz
  1  'x, y, z'
loop_
 _atom_type_symbol
 _atom_type_oxidation_number
  Ca2+  2.0
  Al0+  0.0
  Si0+  0.0
  O2-  -2.0
loop_
 _atom_site_type_symbol
 _atom_site_label
 _atom_site_symmetry_multiplicity
 _atom_site_fract_x
 _atom_site_fract_y
 _atom_site_fract_z
 _atom_site_occupancy
  Ca2+  Ca0  1  0.18152177  0.07861104  0.17362885  1
  Ca2+  Ca1  1  0.17227810  0.08874794  0.50258915  1
  Ca2+  Ca2  1  0.17273037  0.08251411  0.84278411  1
  Ca2+  Ca3  1  0.16819502  0.57621569  0.16755850  1
  Ca2+  Ca4  1  0.17148122  0.57025900  0.50335195  1
  Ca2+  Ca5  1  0.16581017  0.57270512  0.83992081  1
  Ca2+  Ca6  1  0.65400417  0.07629709  0.17021344  1
  Ca2+  Ca7  1  0.65622241  0.08321425  0.50175833  1
  Ca2+  Ca8  1  0.66113426  0.08485126  0.84229387  1
  Ca2+  Ca9  1  0.66903531  0.58355431  0.17258631  1
  Ca2+  Ca10  1  0.66441879  0.57828527  0.50909134  1
  Ca2+  Ca11  1  0.66238288  0.57685194  0.83082384  1
  Ca2+  Ca12  1  0.07626129  0.34400131  0.16119724  1
  Ca2+  Ca13  1  0.07816919  0.33831613  0.49688049  1
  Ca2+  Ca14  1  0.07733820  0.33548335  0.82643448  1
  Ca2+  Ca15  1  0.09596873  0.82934804  0.15890204  1
  Ca2+  Ca16  1  0.08399179  0.83408108  0.49242692  1
  Ca2+  Ca17  1  0.09391031  0.82648378  0.83373306  1
  Ca2+  Ca18  1  0.56797258  0.31987123  0.15924326  1
  Ca2+  Ca19  1  0.57458045  0.32894821  0.49156124  1
  Ca2+  Ca20  1  0.57295970  0.32443206  0.82398811  1
  Ca2+  Ca21  1  0.58289622  0.83386717  0.16159198  1
  Ca2+  Ca22  1  0.58941449  0.82157279  0.49317019  1
  Ca2+  Ca23  1  0.57872950  0.83296450  0.83313102  1
  Ca2+  Ca24  1  0.32417131  0.40493597  0.17005499  1
  Ca2+  Ca25  1  0.32692295  0.40434134  0.50494405  1
  Ca2+  Ca26  1  0.32489934  0.40603745  0.83708514  1
  Ca2+  Ca27  1  0.33474669  0.92715883  0.16879309  1
  Ca2+  Ca28  1  0.33264358  0.92499631  0.49761402  1
  Ca2+  Ca29  1  0.33293141  0.92561170  0.84757821  1
  Ca2+  Ca30  1  0.83578484  0.41378928  0.16968500  1
  Ca2+  Ca31  1  0.82770689  0.40902667  0.50564142  1
  Ca2+  Ca32  1  0.82876125  0.40634671  0.83418607  1
  Ca2+  Ca33  1  0.82146142  0.92016499  0.17148005  1
  Ca2+  Ca34  1  0.82690329  0.92108890  0.50161747  1
  Ca2+  Ca35  1  0.82412545  0.92301594  0.84118250  1
  Ca2+  Ca36  1  0.41683366  0.16559815  0.16404079  1
  Ca2+  Ca37  1  0.42226447  0.17507213  0.49656433  1
  Ca2+  Ca38  1  0.42071154  0.17092728  0.83288536  1
  Ca2+  Ca39  1  0.41986394  0.67441656  0.16288172  1
  Ca2+  Ca40  1  0.43035496  0.66292481  0.49603729  1
  Ca2+  Ca41  1  0.41595605  0.67726101  0.83022847  1
  Ca2+  Ca42  1  0.91925121  0.17823650  0.16280117  1
  Ca2+  Ca43  1  0.92304809  0.17750290  0.49855794  1
  Ca2+  Ca44  1  0.92490089  0.17647208  0.82736158  1
  Ca2+  Ca45  1  0.92596867  0.67062939  0.15921494  1
  Ca2+  Ca46  1  0.91760050  0.66796265  0.49613571  1
  Ca2+  Ca47  1  0.92257713  0.66841431  0.83516587  1
  Al0+  Al48  1  -0.00341191  -0.00069901  0.00457625  1
  Al0+  Al49  1  -0.00319486  0.00056467  0.33530136  1
  Al0+  Al50  1  -0.00190736  -0.00071474  0.66466173  1
  Al0+  Al51  1  -0.00070062  0.50271504  -0.00544152  1
  Al0+  Al52  1  0.00071111  0.50295680  0.33428330  1
  Al0+  Al53  1  -0.00043154  0.50339627  0.66682515  1
  Al0+  Al54  1  0.49998298  -0.00248931  0.00053319  1
  Al0+  Al55  1  0.49929210  -0.00298300  0.34280791  1
  Al0+  Al56  1  0.49681156  -0.00060089  0.66485659  1
  Al0+  Al57  1  0.50026392  0.49920202  -0.00175165  1
  Al0+  Al58  1  0.50056618  0.50005067  0.32264190  1
  Al0+  Al59  1  0.49929101  0.50299084  0.66590337  1
  Al0+  Al60  1  0.24836130  0.24912138  0.00699560  1
  Al0+  Al61  1  0.24788001  0.24834767  0.33988752  1
  Al0+  Al62  1  0.25008205  0.24767380  0.66706181  1
  Al0+  Al63  1  0.25193866  0.74650450  -0.00731275  1
  Al0+  Al64  1  0.25173685  0.74811267  0.33878728  1
  Al0+  Al65  1  0.24945735  0.74968066  0.66350217  1
  Al0+  Al66  1  0.75076155  0.25019062  -0.00470695  1
  Al0+  Al67  1  0.75130738  0.24989184  0.32505048  1
  Al0+  Al68  1  0.75154509  0.24799135  0.66566566  1
  Al0+  Al69  1  0.75239902  0.74915596  0.00246641  1
  Al0+  Al70  1  0.75250595  0.75035047  0.33324131  1
  Al0+  Al71  1  0.75026308  0.75092407  0.66613427  1
  Al0+  Al72  1  0.67873230  0.42784350  0.67857143  1
  Al0+  Al73  1  0.07130989  0.17725639  0.65271770  1
  Al0+  Al74  1  0.42531064  0.32063203  0.31727899  1
  Al0+  Al75  1  0.57059921  0.68199367  0.65439935  1
  Al0+  Al76  1  0.57038772  0.17688684  0.31826455  1
  Al0+  Al77  1  0.93180621  0.32288494  0.31847556  1
  Al0+  Al78  1  0.43127313  0.81864924  0.98799170  1
  Al0+  Al79  1  0.17771603  0.92565890  0.01211579  1
  Al0+  Al80  1  0.17859487  0.43055200  0.01265525  1
  Al0+  Al81  1  0.57192668  0.17750807  0.65204977  1
  Al0+  Al82  1  0.32067296  0.07082184  0.01536062  1
  Al0+  Al83  1  0.17795212  0.92732922  0.34888251  1
  Al0+  Al84  1  0.93016530  0.32340523  0.65111774  1
  Al0+  Al85  1  0.57413958  0.67855448  0.31814815  1
  Al0+  Al86  1  0.68003975  0.92953522  0.01285529  1
  Al0+  Al87  1  0.93073533  0.32225130  0.98491372  1
  Al0+  Al88  1  0.07157591  0.68149068  0.98598113  1
  Al0+  Al89  1  0.68018311  0.92910427  0.34903632  1
  Al0+  Al90  1  0.42899752  0.32213006  0.65262690  1
  Al0+  Al91  1  0.42497732  0.32199233  0.98425275  1
  Al0+  Al92  1  0.18007154  0.42950036  0.68122075  1
  Al0+  Al93  1  0.17890662  0.43080041  0.34718309  1
  Al0+  Al94  1  0.56890942  0.17817629  0.98550820  1
  Al0+  Al95  1  0.32150806  0.07142867  0.35326990  1
  Si0+  Si96  1  0.07148598  0.68006441  0.64876710  1
  Si0+  Si97  1  0.31976785  0.06897316  0.68425577  1
  Si0+  Si98  1  0.67850811  0.42744953  0.01514574  1
  Si0+  Si99  1  0.32219158  0.57466961  0.68423472  1
  Si0+  Si100  1  0.57667490  0.67696603  0.98279378  1
  Si0+  Si101  1  0.07082908  0.17584795  0.98718920  1
  Si0+  Si102  1  0.82137919  0.07474304  0.35180216  1
  Si0+  Si103  1  0.82013299  0.56988973  0.01510445  1
  Si0+  Si104  1  0.82130205  0.57513573  0.68484603  1
  Si0+  Si105  1  0.82202806  0.06991039  0.68249127  1
  Si0+  Si106  1  0.92916258  0.82245214  0.31792473  1
  Si0+  Si107  1  0.92610650  0.82277718  0.98374241  1
  Si0+  Si108  1  0.82159510  0.07477614  0.01826213  1
  Si0+  Si109  1  0.32416863  0.57217543  0.01576141  1
  Si0+  Si110  1  0.42852754  0.81904680  0.31827633  1
  Si0+  Si111  1  0.07140995  0.68186409  0.31934849  1
  Si0+  Si112  1  0.17646864  0.92791813  0.68150219  1
  Si0+  Si113  1  0.32466998  0.57158484  0.34969895  1
  Si0+  Si114  1  0.82123779  0.57125144  0.34802244  1
  Si0+  Si115  1  0.67907275  0.92887221  0.68185954  1
  Si0+  Si116  1  0.92873926  0.82038238  0.65129117  1
  Si0+  Si117  1  0.68014090  0.42983121  0.34409531  1
  Si0+  Si118  1  0.42565504  0.82232883  0.64749515  1
  Si0+  Si119  1  0.07096038  0.17626917  0.31599845  1
  O2-  O120  1  0.24626879  -0.00088279  0.06314769  1
  O2-  O121  1  0.24527218  0.00129625  0.40187709  1
  O2-  O122  1  0.24708181  -0.00212618  0.72447873  1
  O2-  O123  1  0.25914839  0.49962305  0.05932287  1
  O2-  O124  1  0.26072963  0.49828607  0.39356416  1
  O2-  O125  1  0.25683433  0.50266932  0.72780175  1
  O2-  O126  1  0.75150952  0.00663064  0.06096850  1
  O2-  O127  1  0.74977369  0.00855218  0.39637649  1
  O2-  O128  1  0.74454191  0.00474629  0.72413844  1
  O2-  O129  1  0.74856240  0.50013230  0.05783735  1
  O2-  O130  1  0.74960711  0.50136184  0.38940758  1
  O2-  O131  1  0.75608711  0.50177516  0.72637457  1
  O2-  O132  1  0.00760078  0.24983194  0.27119317  1
  O2-  O133  1  0.00508363  0.25451902  0.60162649  1
  O2-  O134  1  0.00565081  0.24694624  0.94117132  1
  O2-  O135  1  0.00681962  0.75857538  0.27665450  1
  O2-  O136  1  0.00073634  0.75146993  0.60712699  1
  O2-  O137  1  0.00160789  0.76175019  0.93935934  1
  O2-  O138  1  0.49564614  0.24606128  0.26891177  1
  O2-  O139  1  0.50636026  0.25555823  0.60305596  1
  O2-  O140  1  0.49899260  0.25166825  0.93546323  1
  O2-  O141  1  0.49977318  0.75347220  0.27299142  1
  O2-  O142  1  0.49607826  0.75484333  0.60474200  1
  O2-  O143  1  0.50596821  0.74391975  0.94004802  1
  O2-  O144  1  0.06734009  0.17479836  0.09258009  1
  O2-  O145  1  0.06654939  0.17509814  0.42153548  1
  O2-  O146  1  0.06788221  0.17306583  0.76642207  1
  O2-  O147  1  0.06820908  0.67985876  0.09943102  1
  O2-  O148  1  0.06716330  0.68094474  0.42465351  1
  O2-  O149  1  0.07163273  0.68141536  0.75371266  1
  O2-  O150  1  0.56860332  0.17811357  0.09872843  1
  O2-  O151  1  0.57219027  0.18254020  0.43170233  1
  O2-  O152  1  0.56832432  0.17459572  0.76527724  1
  O2-  O153  1  0.57884031  0.67888536  0.08837133  1
  O2-  O154  1  0.57517261  0.67869784  0.43142146  1
  O2-  O155  1  0.57210054  0.68589621  0.76733440  1
  O2-  O156  1  0.17438389  0.43757708  0.23432844  1
  O2-  O157  1  0.17928615  0.43398649  0.56806089  1
  O2-  O158  1  0.17639804  0.43324115  0.89959260  1
  O2-  O159  1  0.18099486  0.92505264  0.23588261  1
  O2-  O160  1  0.17658596  0.92698062  0.57665109  1
  O2-  O161  1  0.18044739  0.92786475  0.89785006  1
  O2-  O162  1  0.68408570  0.43329863  0.23898884  1
  O2-  O163  1  0.68019702  0.43155451  0.56496625  1
  O2-  O164  1  0.67994643  0.42920325  0.91003678  1
  O2-  O165  1  0.68376863  0.92590507  0.23614728  1
  O2-  O166  1  0.68396719  0.92539056  0.57697229  1
  O2-  O167  1  0.68316620  0.92792085  0.89915943  1
  O2-  O168  1  0.42694702  0.32200873  0.09745213  1
  O2-  O169  1  0.43002643  0.32387577  0.43075560  1
  O2-  O170  1  0.42737375  0.31840631  0.76592089  1
  O2-  O171  1  0.43219245  0.81693220  0.10097989  1
  O2-  O172  1  0.42834355  0.81466759  0.42406326  1
  O2-  O173  1  0.42499376  0.82200966  0.75317725  1
  O2-  O174  1  0.93177684  0.32345874  0.09821904  1
  O2-  O175  1  0.93116170  0.32387293  0.43113334  1
  O2-  O176  1  0.93108867  0.32070992  0.76467526  1
  O2-  O177  1  0.92074920  0.81703954  0.08892712  1
  O2-  O178  1  0.92666162  0.81817099  0.42343233  1
  O2-  O179  1  0.92740769  0.81911759  0.75617923  1
  O2-  O180  1  0.32214867  0.06827435  0.23988173  1
  O2-  O181  1  0.32088848  0.06685610  0.57958136  1
  O2-  O182  1  0.32004125  0.06923031  0.90121122  1
  O2-  O183  1  0.32025311  0.57846714  0.24451696  1
  O2-  O184  1  0.31926435  0.58005395  0.57877687  1
  O2-  O185  1  0.32168889  0.57618139  0.91030307  1
  O2-  O186  1  0.82494026  0.07132541  0.24646322  1
  O2-  O187  1  0.82617558  0.06501169  0.57776419  1
  O2-  O188  1  0.82342677  0.07217248  0.91238887  1
  O2-  O189  1  0.82314247  0.57258585  0.24282045  1
  O2-  O190  1  0.82010390  0.58082807  0.57918784  1
  O2-  O191  1  0.81982759  0.57305600  0.91024724  1
  O2-  O192  1  0.04023600  0.08405086  0.26959023  1
  O2-  O193  1  0.03768824  0.08048109  0.59811769  1
  O2-  O194  1  0.04279262  0.08258818  0.94034087  1
  O2-  O195  1  0.03621686  0.59356147  0.27047343  1
  O2-  O196  1  0.04150164  0.58990025  0.60026229  1
  O2-  O197  1  0.03215411  0.58992525  0.92828149  1
  O2-  O198  1  0.54427939  0.07444877  0.27310494  1
  O2-  O199  1  0.53860094  0.07991572  0.59930983  1
  O2-  O200  1  0.54215684  0.07920737  0.93350303  1
  O2-  O201  1  0.54516723  0.58408873  0.26008847  1
  O2-  O202  1  0.54161640  0.58595758  0.59885123  1
  O2-  O203  1  0.55312267  0.58246750  0.93854067  1
  O2-  O204  1  0.16687110  0.19647050  0.27492622  1
  O2-  O205  1  0.17070334  0.20045405  0.60162855  1
  O2-  O206  1  0.16550506  0.19837270  0.94367614  1
  O2-  O207  1  0.16564119  0.70358602  0.27446520  1
  O2-  O208  1  0.16278937  0.70756950  0.60024681  1
  O2-  O209  1  0.16703579  0.70598064  0.92694773  1
  O2-  O210  1  0.66850564  0.20418089  0.26421897  1
  O2-  O211  1  0.67392193  0.19487030  0.60340784  1
  O2-  O212  1  0.66858759  0.20484188  0.93385074  1
  O2-  O213  1  0.67153651  0.70944891  0.26546702  1
  O2-  O214  1  0.66722777  0.71365673  0.59972920  1
  O2-  O215  1  0.66952307  0.70476864  0.93654671  1
  O2-  O216  1  0.08309590  0.46985513  0.06471517  1
  O2-  O217  1  0.08531883  0.47106133  0.40254250  1
  O2-  O218  1  0.08324627  0.46508354  0.73312928  1
  O2-  O219  1  0.07555082  0.94430974  0.06217083  1
  O2-  O220  1  0.07549279  0.94946327  0.39774871  1
  O2-  O221  1  0.08298268  0.95173961  0.72742506  1
  O2-  O222  1  0.58641602  0.45424186  0.06247763  1
  O2-  O223  1  0.58712555  0.45757662  0.38858129  1
  O2-  O224  1  0.58350169  0.46332240  0.73349226  1
  O2-  O225  1  0.58355201  0.95579883  0.06752620  1
  O2-  O226  1  0.58315509  0.95002072  0.40564675  1
  O2-  O227  1  0.58377858  0.95022680  0.72479850  1
  O2-  O228  1  0.20091261  0.33315039  0.06836698  1
  O2-  O229  1  0.19919096  0.33201284  0.40036331  1
  O2-  O230  1  0.20711894  0.33098300  0.73325008  1
  O2-  O231  1  0.20801987  0.82586051  0.06042044  1
  O2-  O232  1  0.20760513  0.82902096  0.40398912  1
  O2-  O233  1  0.20437333  0.83446343  0.72629310  1
  O2-  O234  1  0.70991442  0.33675608  0.06192354  1
  O2-  O235  1  0.71005529  0.33805716  0.38975021  1
  O2-  O236  1  0.70939263  0.33097892  0.73293632  1
  O2-  O237  1  0.71417980  0.83336510  0.06676662  1
  O2-  O238  1  0.71963215  0.83409884  0.40297185  1
  O2-  O239  1  0.71330815  0.83959486  0.73062886  1
  O2-  O240  1  0.45301560  0.41831458  0.26223817  1
  O2-  O241  1  0.44850444  0.42394328  0.60328951  1
  O2-  O242  1  0.45130559  0.42221395  0.93305545  1
  O2-  O243  1  0.45291149  0.91370479  0.27621488  1
  O2-  O244  1  0.45068365  0.91539675  0.60183154  1
  O2-  O245  1  0.46314645  0.91297519  0.93093933  1
  O2-  O246  1  0.96135669  0.42134376  0.26601980  1
  O2-  O247  1  0.95229735  0.42492159  0.60110141  1
  O2-  O248  1  0.95895223  0.41856018  0.93015149  1
  O2-  O249  1  0.94668724  0.91684777  0.27234593  1
  O2-  O250  1  0.95474946  0.91141271  0.60219936  1
  O2-  O251  1  0.94170150  0.91943549  0.94067068  1
  O2-  O252  1  0.32438340  0.29354761  0.26952736  1
  O2-  O253  1  0.33259156  0.28748572  0.60030801  1
  O2-  O254  1  0.32528531  0.29212822  0.93503953  1
  O2-  O255  1  0.33583282  0.78945357  0.27239601  1
  O2-  O256  1  0.33262295  0.79559191  0.60073331  1
  O2-  O257  1  0.33737072  0.78688053  0.92875829  1
  O2-  O258  1  0.83641216  0.29209535  0.26215620  1
  O2-  O259  1  0.83299783  0.29086211  0.59868262  1
  O2-  O260  1  0.83463818  0.29100070  0.93085468  1
  O2-  O261  1  0.84161747  0.78624259  0.26813809  1
  O2-  O262  1  0.83836948  0.79022248  0.60214064  1
  O2-  O263  1  0.83700484  0.78740086  0.93345919  1
  O2-  O264  1  0.41699064  0.03629551  0.06792650  1
  O2-  O265  1  0.41684078  0.03797425  0.40961149  1
  O2-  O266  1  0.41083122  0.03776660  0.73195865  1
  O2-  O267  1  0.42019073  0.55395764  0.06051492  1
  O2-  O268  1  0.42143813  0.55018311  0.39112325  1
  O2-  O269  1  0.41747304  0.55686513  0.72908924  1
  O2-  O270  1  0.91334371  0.04764968  0.06757919  1
  O2-  O271  1  0.91252733  0.04435136  0.40080411  1
  O2-  O272  1  0.91034124  0.03380553  0.73259083  1
  O2-  O273  1  0.91158517  0.54145862  0.06269357  1
  O2-  O274  1  0.91230596  0.54437176  0.39746841  1
  O2-  O275  1  0.91672216  0.55500829  0.72917972  1
  O2-  O276  1  0.29290160  0.16736940  0.07167805  1
  O2-  O277  1  0.29328989  0.16909945  0.40771633  1
  O2-  O278  1  0.29264050  0.16010894  0.73220060  1
  O2-  O279  1  0.29251348  0.66333130  0.06331425  1
  O2-  O280  1  0.29470114  0.66155963  0.40125990  1
  O2-  O281  1  0.29048780  0.66731023  0.73115869  1
  O2-  O282  1  0.79784340  0.16918651  0.06308023  1
  O2-  O283  1  0.79865212  0.17012692  0.39519023  1
  O2-  O284  1  0.80169880  0.16318287  0.72951752  1
  O2-  O285  1  0.79418199  0.66127108  0.06534093  1
  O2-  O286  1  0.79503642  0.66290818  0.39686759  1
  O2-  O287  1  0.79111607  0.66685416  0.73353598  1
