# generated using pymatgen
data_Ca2Al2SiO7
_symmetry_space_group_name_H-M   'P 1'
_cell_length_a   15.46570058
_cell_length_b   15.46530074
_cell_length_c   15.28978070
_cell_angle_alpha   90.01931252
_cell_angle_beta   90.00689949
_cell_angle_gamma   90.01183974
_symmetry_Int_Tables_number   1
_chemical_formula_structural   Ca2Al2SiO7
_chemical_formula_sum   'Ca48 Al48 Si24 O168'
_cell_volume   3657.03558941
_cell_formula_units_Z   24
loop_
 _symmetry_equiv_pos_site_id
 _symmetry_equiv_pos_as_xyz
  1  'x, y, z'
loop_
 _atom_type_symbol
 _atom_type_oxidation_number
  Ca2+  2.0
  Al0+  0.0
  Si0+  0.0
  O2-  -2.0
loop_
 _atom_site_type_symbol
 _atom_site_label
 _atom_site_symmetry_multiplicity
 _atom_site_fract_x
 _atom_site_fract_y
 _atom_site_fract_z
 _atom_site_occupancy
  Ca2+  Ca0  1  0.17570141  0.07895134  0.17019099  1
  Ca2+  Ca1  1  0.17356705  0.06990899  0.50612535  1
  Ca2+  Ca2  1  0.17584603  0.08115449  0.83592528  1
  Ca2+  Ca3  1  0.16214649  0.58087071  0.16617117  1
  Ca2+  Ca4  1  0.16575793  0.58541462  0.50521158  1
  Ca2+  Ca5  1  0.15893927  0.58164953  0.83984014  1
  Ca2+  Ca6  1  0.67068059  0.08013875  0.16998022  1
  Ca2+  Ca7  1  0.67129788  0.07648549  0.50057283  1
  Ca2+  Ca8  1  0.67680749  0.07277970  0.83995058  1
  Ca2+  Ca9  1  0.65700146  0.57135215  0.17133071  1
  Ca2+  Ca10  1  0.65673403  0.57179605  0.50167065  1
  Ca2+  Ca11  1  0.66375088  0.57110386  0.83960510  1
  Ca2+  Ca12  1  0.07598285  0.33440533  0.16094213  1
  Ca2+  Ca13  1  0.07247462  0.32594779  0.49176843  1
  Ca2+  Ca14  1  0.08411379  0.33226082  0.83111071  1
  Ca2+  Ca15  1  0.07737585  0.83251378  0.15766787  1
  Ca2+  Ca16  1  0.08150533  0.83996459  0.49870440  1
  Ca2+  Ca17  1  0.07334538  0.83178612  0.82494264  1
  Ca2+  Ca18  1  0.58700115  0.32163751  0.15962004  1
  Ca2+  Ca19  1  0.59008048  0.32647063  0.49102559  1
  Ca2+  Ca20  1  0.58788919  0.32704035  0.83403711  1
  Ca2+  Ca21  1  0.58429789  0.83883288  0.16403989  1
  Ca2+  Ca22  1  0.58060671  0.83589396  0.48897920  1
  Ca2+  Ca23  1  0.58802516  0.83983021  0.82922108  1
  Ca2+  Ca24  1  0.33072351  0.41087653  0.16356661  1
  Ca2+  Ca25  1  0.33368317  0.42118548  0.50414304  1
  Ca2+  Ca26  1  0.32784680  0.41693882  0.84557584  1
  Ca2+  Ca27  1  0.33058522  0.91785327  0.17235163  1
  Ca2+  Ca28  1  0.32647988  0.91448871  0.50473554  1
  Ca2+  Ca29  1  0.33038910  0.92812851  0.83513872  1
  Ca2+  Ca30  1  0.82347249  0.41546601  0.17309489  1
  Ca2+  Ca31  1  0.82353945  0.41451014  0.50041234  1
  Ca2+  Ca32  1  0.82161794  0.41704156  0.83763507  1
  Ca2+  Ca33  1  0.82676398  0.92447297  0.17067566  1
  Ca2+  Ca34  1  0.82581455  0.92537945  0.50874136  1
  Ca2+  Ca35  1  0.83172958  0.91814300  0.84034345  1
  Ca2+  Ca36  1  0.43098351  0.16578119  0.15582412  1
  Ca2+  Ca37  1  0.42469943  0.16297950  0.49420193  1
  Ca2+  Ca38  1  0.41831805  0.16437364  0.83391342  1
  Ca2+  Ca39  1  0.42247803  0.67336790  0.17069277  1
  Ca2+  Ca40  1  0.42441140  0.67564631  0.49055549  1
  Ca2+  Ca41  1  0.41884403  0.66906234  0.83154466  1
  Ca2+  Ca42  1  0.90782475  0.16775385  0.16531698  1
  Ca2+  Ca43  1  0.90487048  0.16865179  0.49407893  1
  Ca2+  Ca44  1  0.90951631  0.16277847  0.83085294  1
  Ca2+  Ca45  1  0.92114962  0.67616752  0.15520073  1
  Ca2+  Ca46  1  0.91936374  0.67506424  0.50178604  1
  Ca2+  Ca47  1  0.92377747  0.67897195  0.82933184  1
  Al0+  Al48  1  0.00038499  0.00178555  -0.00068823  1
  Al0+  Al49  1  0.00267640  0.00145755  0.33952534  1
  Al0+  Al50  1  0.00181720  0.00134757  0.66775999  1
  Al0+  Al51  1  -0.00031109  0.49918748  -0.00011668  1
  Al0+  Al52  1  -0.00154371  0.49864431  0.33099918  1
  Al0+  Al53  1  -0.00133123  0.49933307  0.66130082  1
  Al0+  Al54  1  0.50055679  0.00080624  0.00049307  1
  Al0+  Al55  1  0.50001297  0.00130807  0.32702808  1
  Al0+  Al56  1  0.50128356  0.00179444  0.67092748  1
  Al0+  Al57  1  0.49679964  0.50080690  0.00188287  1
  Al0+  Al58  1  0.49702055  0.50080611  0.33450679  1
  Al0+  Al59  1  0.49722842  0.49854211  0.67140128  1
  Al0+  Al60  1  0.24932942  0.25163243  0.00616268  1
  Al0+  Al61  1  0.24790512  0.25021026  0.33540094  1
  Al0+  Al62  1  0.24974808  0.25271509  0.66605430  1
  Al0+  Al63  1  0.25221216  0.74789019  -0.00352091  1
  Al0+  Al64  1  0.25097270  0.74870660  0.33284980  1
  Al0+  Al65  1  0.25204357  0.74877008  0.66786582  1
  Al0+  Al66  1  0.74920266  0.24961939  0.00050159  1
  Al0+  Al67  1  0.74932374  0.25259153  0.33150616  1
  Al0+  Al68  1  0.74774882  0.24981698  0.67307011  1
  Al0+  Al69  1  0.75017549  0.74932689  -0.00193595  1
  Al0+  Al70  1  0.75209831  0.74677380  0.33139231  1
  Al0+  Al71  1  0.75153088  0.74623672  0.66314113  1
  Al0+  Al72  1  0.92875526  0.82395903  0.64854625  1
  Al0+  Al73  1  0.82344731  0.07093381  0.01631842  1
  Al0+  Al74  1  0.42960486  0.82136847  0.31843099  1
  Al0+  Al75  1  0.67977305  0.92532858  0.67955607  1
  Al0+  Al76  1  0.92971985  0.31953733  0.31890451  1
  Al0+  Al77  1  0.67937213  0.92646061  0.01567898  1
  Al0+  Al78  1  0.17793530  0.43051525  0.01423846  1
  Al0+  Al79  1  0.17975291  0.92673581  0.68333864  1
  Al0+  Al80  1  0.32041736  0.07154541  0.01484033  1
  Al0+  Al81  1  0.57342338  0.67733461  0.31891844  1
  Al0+  Al82  1  0.07230171  0.67896047  0.64975801  1
  Al0+  Al83  1  0.81998742  0.07119285  0.34825141  1
  Al0+  Al84  1  0.57265149  0.17784342  0.98043096  1
  Al0+  Al85  1  0.82109292  0.07110078  0.68123430  1
  Al0+  Al86  1  0.07196567  0.67796512  0.98564290  1
  Al0+  Al87  1  0.67786879  0.92643534  0.34704371  1
  Al0+  Al88  1  0.92904661  0.82321782  0.98543302  1
  Al0+  Al89  1  0.18107881  0.92756915  0.34547874  1
  Al0+  Al90  1  0.67864396  0.43216920  0.34632066  1
  Al0+  Al91  1  0.67753894  0.43027265  0.01509267  1
  Al0+  Al92  1  0.67777802  0.43026747  0.68151160  1
  Al0+  Al93  1  0.57008278  0.18065510  0.32012656  1
  Al0+  Al94  1  0.32159982  0.07358927  0.68063473  1
  Al0+  Al95  1  0.42836916  0.32043103  0.98506613  1
  Si0+  Si96  1  0.93042468  0.82346723  0.31902919  1
  Si0+  Si97  1  0.18001980  0.92722802  0.01472602  1
  Si0+  Si98  1  0.82408843  0.57009402  0.68351133  1
  Si0+  Si99  1  0.82620599  0.57198881  0.35078206  1
  Si0+  Si100  1  0.32241618  0.57445699  0.02012567  1
  Si0+  Si101  1  0.92753044  0.31841434  0.65220069  1
  Si0+  Si102  1  0.57033562  0.67482763  0.65394955  1
  Si0+  Si103  1  0.42714195  0.32262432  0.65112320  1
  Si0+  Si104  1  0.82102425  0.57051222  0.01578232  1
  Si0+  Si105  1  0.32264207  0.07314947  0.34861682  1
  Si0+  Si106  1  0.17769974  0.43087348  0.67953886  1
  Si0+  Si107  1  0.92856174  0.32090440  0.98371202  1
  Si0+  Si108  1  0.17613347  0.42862691  0.35005255  1
  Si0+  Si109  1  0.42914588  0.82194971  0.98309017  1
  Si0+  Si110  1  0.57014817  0.67864953  0.98460434  1
  Si0+  Si111  1  0.32079535  0.57016237  0.68247137  1
  Si0+  Si112  1  0.07443226  0.18045147  0.65139877  1
  Si0+  Si113  1  0.56995324  0.18132435  0.65112955  1
  Si0+  Si114  1  0.42441049  0.32308266  0.31809904  1
  Si0+  Si115  1  0.31820422  0.56962356  0.34978341  1
  Si0+  Si116  1  0.07099767  0.67885611  0.31824849  1
  Si0+  Si117  1  0.43262401  0.82141016  0.65377465  1
  Si0+  Si118  1  0.07356588  0.17731356  0.31574444  1
  Si0+  Si119  1  0.07188021  0.18050849  0.98556139  1
  O2-  O120  1  0.24896580  -0.00622625  0.06133146  1
  O2-  O121  1  0.25694373  0.00154062  0.39211919  1
  O2-  O122  1  0.24964812  0.00184029  0.73114593  1
  O2-  O123  1  0.25145302  0.50625966  0.06160281  1
  O2-  O124  1  0.24792024  0.49800766  0.39317760  1
  O2-  O125  1  0.24529123  0.50372926  0.72298300  1
  O2-  O126  1  0.75115359  -0.00113644  0.06443618  1
  O2-  O127  1  0.75114959  -0.00372504  0.39802171  1
  O2-  O128  1  0.75715697  -0.00865539  0.72958531  1
  O2-  O129  1  0.75128163  0.50501477  0.06261312  1
  O2-  O130  1  0.75078817  0.50932588  0.39387465  1
  O2-  O131  1  0.75093325  0.50630004  0.72799689  1
  O2-  O132  1  0.00325848  0.24408327  0.27149604  1
  O2-  O133  1  -0.00384478  0.24468222  0.61023534  1
  O2-  O134  1  -0.00197977  0.24826837  0.94181661  1
  O2-  O135  1  0.00083711  0.75056011  0.27706977  1
  O2-  O136  1  0.00479330  0.75431275  0.59854255  1
  O2-  O137  1  0.00408266  0.75319756  0.93640819  1
  O2-  O138  1  0.49183355  0.25357980  0.27564253  1
  O2-  O139  1  0.49727223  0.25161773  0.60863804  1
  O2-  O140  1  0.49976885  0.25077664  0.93123516  1
  O2-  O141  1  0.50860418  0.75609639  0.26856771  1
  O2-  O142  1  0.50738693  0.75337970  0.61243454  1
  O2-  O143  1  0.50346264  0.75342671  0.94158087  1
  O2-  O144  1  0.07300494  0.18271676  0.09054142  1
  O2-  O145  1  0.07800178  0.18177913  0.42136319  1
  O2-  O146  1  0.08029643  0.18709875  0.75630552  1
  O2-  O147  1  0.06967655  0.67841196  0.09991874  1
  O2-  O148  1  0.07122562  0.67714433  0.42315460  1
  O2-  O149  1  0.06869643  0.67490883  0.76251748  1
  O2-  O150  1  0.57244865  0.18001433  0.09411506  1
  O2-  O151  1  0.56876621  0.18258191  0.43418157  1
  O2-  O152  1  0.56978045  0.18308689  0.75556188  1
  O2-  O153  1  0.56721135  0.67639577  0.08920388  1
  O2-  O154  1  0.56534162  0.67262373  0.43280632  1
  O2-  O155  1  0.56443848  0.67010911  0.75904473  1
  O2-  O156  1  0.17556133  0.42974848  0.24535655  1
  O2-  O157  1  0.18017688  0.43021789  0.57421300  1
  O2-  O158  1  0.17830548  0.43090432  0.90056601  1
  O2-  O159  1  0.18128319  0.92785316  0.23223959  1
  O2-  O160  1  0.18434943  0.92694599  0.56943062  1
  O2-  O161  1  0.18194246  0.92894776  0.90941635  1
  O2-  O162  1  0.67967930  0.43215474  0.23374212  1
  O2-  O163  1  0.67775501  0.42977682  0.56828679  1
  O2-  O164  1  0.67959550  0.43244974  0.90161972  1
  O2-  O165  1  0.68020600  0.92821987  0.23411902  1
  O2-  O166  1  0.67506116  0.92899329  0.56624914  1
  O2-  O167  1  0.68129933  0.92548637  0.90200225  1
  O2-  O168  1  0.42880940  0.31888734  0.09876599  1
  O2-  O169  1  0.42305835  0.32360270  0.42433878  1
  O2-  O170  1  0.42496640  0.32540141  0.75539075  1
  O2-  O171  1  0.42524462  0.81928629  0.08780470  1
  O2-  O172  1  0.42592801  0.81700445  0.43253843  1
  O2-  O173  1  0.43162000  0.81883765  0.75906136  1
  O2-  O174  1  0.93065677  0.32325041  0.08865841  1
  O2-  O175  1  0.93164423  0.32007132  0.43268494  1
  O2-  O176  1  0.92997107  0.32092356  0.75738506  1
  O2-  O177  1  0.93144245  0.82133872  0.09976765  1
  O2-  O178  1  0.93208317  0.82265162  0.42387854  1
  O2-  O179  1  0.92854927  0.82052142  0.76171608  1
  O2-  O180  1  0.31853155  0.07544357  0.24334279  1
  O2-  O181  1  0.32144728  0.07291427  0.56680054  1
  O2-  O182  1  0.31698734  0.07085887  0.90177062  1
  O2-  O183  1  0.31683106  0.57018818  0.24515624  1
  O2-  O184  1  0.32416380  0.56704453  0.57727812  1
  O2-  O185  1  0.32494175  0.57450858  0.91429662  1
  O2-  O186  1  0.82074153  0.07024419  0.23530643  1
  O2-  O187  1  0.81415468  0.07640741  0.56806704  1
  O2-  O188  1  0.82335208  0.06987817  0.90283728  1
  O2-  O189  1  0.83292927  0.56782670  0.24565424  1
  O2-  O190  1  0.82607036  0.56652425  0.57793819  1
  O2-  O191  1  0.81970942  0.56717273  0.91003511  1
  O2-  O192  1  0.05163625  0.08238966  0.27178628  1
  O2-  O193  1  0.05560965  0.08616774  0.60646556  1
  O2-  O194  1  0.04863606  0.08822463  0.93727738  1
  O2-  O195  1  0.04306130  0.58663982  0.27164171  1
  O2-  O196  1  0.04108125  0.58041947  0.59509424  1
  O2-  O197  1  0.04049319  0.57995771  0.93288013  1
  O2-  O198  1  0.54213685  0.08525798  0.26338169  1
  O2-  O199  1  0.54176417  0.08917592  0.60431707  1
  O2-  O200  1  0.54234702  0.07921864  0.92906045  1
  O2-  O201  1  0.53227731  0.58270018  0.26478058  1
  O2-  O202  1  0.53223786  0.58637070  0.60522613  1
  O2-  O203  1  0.53604757  0.58910652  0.93572721  1
  O2-  O204  1  0.16609431  0.20674956  0.26848134  1
  O2-  O205  1  0.16187048  0.21678437  0.59973628  1
  O2-  O206  1  0.16143050  0.21411442  0.93759355  1
  O2-  O207  1  0.16326530  0.70420199  0.27126381  1
  O2-  O208  1  0.17471202  0.70036771  0.60048095  1
  O2-  O209  1  0.17324869  0.69795508  0.93472397  1
  O2-  O210  1  0.66378160  0.21681226  0.26560032  1
  O2-  O211  1  0.66081284  0.21381010  0.60461178  1
  O2-  O212  1  0.67057047  0.21011065  0.92812347  1
  O2-  O213  1  0.67596186  0.68988475  0.26901984  1
  O2-  O214  1  0.66532932  0.68873058  0.60870896  1
  O2-  O215  1  0.66329452  0.69964742  0.93706537  1
  O2-  O216  1  0.08144360  0.46063296  0.06948901  1
  O2-  O217  1  0.08514392  0.45810146  0.39799302  1
  O2-  O218  1  0.08447008  0.45514297  0.72554356  1
  O2-  O219  1  0.08702442  0.95461352  0.06011133  1
  O2-  O220  1  0.08733876  0.96054001  0.40327047  1
  O2-  O221  1  0.08120950  0.95462043  0.73409902  1
  O2-  O222  1  0.58078949  0.46221503  0.06716064  1
  O2-  O223  1  0.58037789  0.45993524  0.40046310  1
  O2-  O224  1  0.58119559  0.46054512  0.73573365  1
  O2-  O225  1  0.57967473  0.95332831  0.06539301  1
  O2-  O226  1  0.57770402  0.95616135  0.39655344  1
  O2-  O227  1  0.58355602  0.95841413  0.73411042  1
  O2-  O228  1  0.20883087  0.33635245  0.07209044  1
  O2-  O229  1  0.20233412  0.33645006  0.39823053  1
  O2-  O230  1  0.20753882  0.34060394  0.72791424  1
  O2-  O231  1  0.20521333  0.83234823  0.05852863  1
  O2-  O232  1  0.21122677  0.83079288  0.39983810  1
  O2-  O233  1  0.21049080  0.82877804  0.73537618  1
  O2-  O234  1  0.71036380  0.33422405  0.06640872  1
  O2-  O235  1  0.71394242  0.33777545  0.40119993  1
  O2-  O236  1  0.71164095  0.33632457  0.73704585  1
  O2-  O237  1  0.70464693  0.82616321  0.06667317  1
  O2-  O238  1  0.70073690  0.82428073  0.39562009  1
  O2-  O239  1  0.69808037  0.82209281  0.72715140  1
  O2-  O240  1  0.44810228  0.41703583  0.27333883  1
  O2-  O241  1  0.45549088  0.41481260  0.60341445  1
  O2-  O242  1  0.45182605  0.42188425  0.93471666  1
  O2-  O243  1  0.44844879  0.92104090  0.26535221  1
  O2-  O244  1  0.45620509  0.91446141  0.60705680  1
  O2-  O245  1  0.45398553  0.91399307  0.93577722  1
  O2-  O246  1  0.96355503  0.41493724  0.26375134  1
  O2-  O247  1  0.95764633  0.40837560  0.60245204  1
  O2-  O248  1  0.95903123  0.41132243  0.93503673  1
  O2-  O249  1  0.96177322  0.91484091  0.27332034  1
  O2-  O250  1  0.95550629  0.92416155  0.59751835  1
  O2-  O251  1  0.95717277  0.92173409  0.93267885  1
  O2-  O252  1  0.32912496  0.30024102  0.27364197  1
  O2-  O253  1  0.33476533  0.29819629  0.60176065  1
  O2-  O254  1  0.32788508  0.29300682  0.93473061  1
  O2-  O255  1  0.33421352  0.78288054  0.26397159  1
  O2-  O256  1  0.34229378  0.78895165  0.60609887  1
  O2-  O257  1  0.33970341  0.78965286  0.93311294  1
  O2-  O258  1  0.83364830  0.29177558  0.26411825  1
  O2-  O259  1  0.83451443  0.29155788  0.60638305  1
  O2-  O260  1  0.83686184  0.29487723  0.93584227  1
  O2-  O261  1  0.83898328  0.79611673  0.27139865  1
  O2-  O262  1  0.83145892  0.78948081  0.59440365  1
  O2-  O263  1  0.83192756  0.79050794  0.93172618  1
  O2-  O264  1  0.41728614  0.04189814  0.06674811  1
  O2-  O265  1  0.41726033  0.05072259  0.39229385  1
  O2-  O266  1  0.41856422  0.04463619  0.73478325  1
  O2-  O267  1  0.41384312  0.54647444  0.06850259  1
  O2-  O268  1  0.40862190  0.54123245  0.39987038  1
  O2-  O269  1  0.40894164  0.53775775  0.73413792  1
  O2-  O270  1  0.92365077  0.04693836  0.06872505  1
  O2-  O271  1  0.92074720  0.04933271  0.40016844  1
  O2-  O272  1  0.92443453  0.05690544  0.72814030  1
  O2-  O273  1  0.91371632  0.54285092  0.06215374  1
  O2-  O274  1  0.91620321  0.53830616  0.40051673  1
  O2-  O275  1  0.91543878  0.53768584  0.73025514  1
  O2-  O276  1  0.28647330  0.16557772  0.07056417  1
  O2-  O277  1  0.29478319  0.16606704  0.39653145  1
  O2-  O278  1  0.29187956  0.17272622  0.73197966  1
  O2-  O279  1  0.29721280  0.66787957  0.06684887  1
  O2-  O280  1  0.28891015  0.65996067  0.39904701  1
  O2-  O281  1  0.29938226  0.66279899  0.73026226  1
  O2-  O282  1  0.79542647  0.17050943  0.06630250  1
  O2-  O283  1  0.78851472  0.16980528  0.39903031  1
  O2-  O284  1  0.78718629  0.16663562  0.73697857  1
  O2-  O285  1  0.79847305  0.66489916  0.06034261  1
  O2-  O286  1  0.80786054  0.66748854  0.39503735  1
  O2-  O287  1  0.80300689  0.66494550  0.72743870  1
