# generated using pymatgen
data_Ca2Al2SiO7
_symmetry_space_group_name_H-M   'P 1'
_cell_length_a   15.45412912
_cell_length_b   15.45398216
_cell_length_c   15.28044409
_cell_angle_alpha   90.01282727
_cell_angle_beta   90.00238193
_cell_angle_gamma   90.01094479
_symmetry_Int_Tables_number   1
_chemical_formula_structural   Ca2Al2SiO7
_chemical_formula_sum   'Ca48 Al48 Si24 O168'
_cell_volume   3649.39523111
_cell_formula_units_Z   24
loop_
 _symmetry_equiv_pos_site_id
 _symmetry_equiv_pos_as_xyz
  1  'x, y, z'
loop_
 _atom_type_symbol
 _atom_type_oxidation_number
  Ca2+  2.0
  Al0+  0.0
  Si0+  0.0
  O2-  -2.0
loop_
 _atom_site_type_symbol
 _atom_site_label
 _atom_site_symmetry_multiplicity
 _atom_site_fract_x
 _atom_site_fract_y
 _atom_site_fract_z
 _atom_site_occupancy
  Ca2+  Ca0  1  0.17255478  0.07225163  0.17470944  1
  Ca2+  Ca1  1  0.16515335  0.07732896  0.50345764  1
  Ca2+  Ca2  1  0.16143986  0.07447079  0.83436043  1
  Ca2+  Ca3  1  0.16874735  0.58454624  0.16220455  1
  Ca2+  Ca4  1  0.16847607  0.57343282  0.50480333  1
  Ca2+  Ca5  1  0.16807849  0.57239810  0.84543373  1
  Ca2+  Ca6  1  0.66131729  0.07307007  0.17391378  1
  Ca2+  Ca7  1  0.66970014  0.07807448  0.50276979  1
  Ca2+  Ca8  1  0.66956903  0.07703523  0.83563309  1
  Ca2+  Ca9  1  0.67769186  0.58161970  0.17771043  1
  Ca2+  Ca10  1  0.66986893  0.58295658  0.49431848  1
  Ca2+  Ca11  1  0.67577159  0.58131218  0.84011184  1
  Ca2+  Ca12  1  0.07311887  0.33901666  0.16033851  1
  Ca2+  Ca13  1  0.08186775  0.32633014  0.49637077  1
  Ca2+  Ca14  1  0.08334616  0.33169299  0.82814478  1
  Ca2+  Ca15  1  0.08062127  0.83276004  0.16059543  1
  Ca2+  Ca16  1  0.07774489  0.83912122  0.49298982  1
  Ca2+  Ca17  1  0.09284690  0.82726983  0.83086605  1
  Ca2+  Ca18  1  0.58445354  0.33019482  0.16938167  1
  Ca2+  Ca19  1  0.57445873  0.32915434  0.48565205  1
  Ca2+  Ca20  1  0.57474766  0.33335585  0.82595848  1
  Ca2+  Ca21  1  0.58347699  0.83136507  0.16097722  1
  Ca2+  Ca22  1  0.59087275  0.83035870  0.49076789  1
  Ca2+  Ca23  1  0.58183667  0.83889900  0.83418718  1
  Ca2+  Ca24  1  0.33044007  0.41777195  0.16970207  1
  Ca2+  Ca25  1  0.33426142  0.41206406  0.50553282  1
  Ca2+  Ca26  1  0.32266812  0.41699522  0.83862552  1
  Ca2+  Ca27  1  0.32416745  0.91435002  0.17217281  1
  Ca2+  Ca28  1  0.32445433  0.92388838  0.50089333  1
  Ca2+  Ca29  1  0.32451921  0.91394964  0.84213545  1
  Ca2+  Ca30  1  0.83672771  0.42540982  0.17439306  1
  Ca2+  Ca31  1  0.83131532  0.41463004  0.49502216  1
  Ca2+  Ca32  1  0.83694190  0.42146067  0.84325446  1
  Ca2+  Ca33  1  0.82364159  0.91084977  0.17435513  1
  Ca2+  Ca34  1  0.82408185  0.91741511  0.50450210  1
  Ca2+  Ca35  1  0.82425333  0.92310940  0.83525835  1
  Ca2+  Ca36  1  0.41825719  0.16344387  0.17141041  1
  Ca2+  Ca37  1  0.41738839  0.17556409  0.49001505  1
  Ca2+  Ca38  1  0.41581738  0.17365777  0.82680887  1
  Ca2+  Ca39  1  0.42186957  0.67013359  0.15983119  1
  Ca2+  Ca40  1  0.42648790  0.66980822  0.49135520  1
  Ca2+  Ca41  1  0.40856358  0.67250550  0.83542189  1
  Ca2+  Ca42  1  0.91085929  0.18190328  0.16370329  1
  Ca2+  Ca43  1  0.92109640  0.16373762  0.49558933  1
  Ca2+  Ca44  1  0.92099807  0.16929288  0.82744953  1
  Ca2+  Ca45  1  0.91750626  0.66774574  0.16277897  1
  Ca2+  Ca46  1  0.91702852  0.67366004  0.48957076  1
  Ca2+  Ca47  1  0.92248997  0.66396184  0.83667944  1
  Al0+  Al48  1  -0.00193462  0.00211217  0.00436006  1
  Al0+  Al49  1  -0.00138362  -0.00150044  0.32909656  1
  Al0+  Al50  1  -0.00081173  0.00012028  0.67133041  1
  Al0+  Al51  1  -0.00075040  0.50111387  -0.00110621  1
  Al0+  Al52  1  0.00176836  0.50113020  0.33540686  1
  Al0+  Al53  1  0.00072140  0.50022358  0.66848504  1
  Al0+  Al54  1  0.50062162  -0.00030287  -0.00288035  1
  Al0+  Al55  1  0.49715074  0.00069209  0.33962907  1
  Al0+  Al56  1  0.49874796  -0.00004252  0.66871097  1
  Al0+  Al57  1  0.50063262  0.49951315  0.00011113  1
  Al0+  Al58  1  0.50067435  0.50080279  0.32761029  1
  Al0+  Al59  1  0.50135240  0.50298039  0.66321608  1
  Al0+  Al60  1  0.24918732  0.24897047  0.00373092  1
  Al0+  Al61  1  0.25044245  0.24944822  0.33119597  1
  Al0+  Al62  1  0.24782131  0.25010007  0.66228536  1
  Al0+  Al63  1  0.25025245  0.74934517  -0.00035618  1
  Al0+  Al64  1  0.24974553  0.74764000  0.33981768  1
  Al0+  Al65  1  0.25149686  0.74922540  0.66497351  1
  Al0+  Al66  1  0.74965905  0.24984463  -0.00802669  1
  Al0+  Al67  1  0.74924841  0.25019390  0.32887645  1
  Al0+  Al68  1  0.74972559  0.25144367  0.67072031  1
  Al0+  Al69  1  0.75044144  0.75005277  0.00436363  1
  Al0+  Al70  1  0.75227053  0.74923218  0.33289217  1
  Al0+  Al71  1  0.75017811  0.74953297  0.67201142  1
  Al0+  Al72  1  0.57092362  0.17683878  0.31873448  1
  Al0+  Al73  1  0.43036324  0.82000323  0.98705126  1
  Al0+  Al74  1  0.06974523  0.68245741  0.98624862  1
  Al0+  Al75  1  0.17968654  0.92855646  0.68129879  1
  Al0+  Al76  1  0.93101427  0.32061785  0.32093913  1
  Al0+  Al77  1  0.06808629  0.17823167  0.65292180  1
  Al0+  Al78  1  0.17669834  0.92708084  0.34899080  1
  Al0+  Al79  1  0.82329430  0.57072768  0.35019039  1
  Al0+  Al80  1  0.82129072  0.07307046  0.68153392  1
  Al0+  Al81  1  0.17878214  0.42753524  0.01638877  1
  Al0+  Al82  1  0.82011544  0.56927850  0.01390107  1
  Al0+  Al83  1  0.67859695  0.42823970  0.34724710  1
  Al0+  Al84  1  0.42998866  0.32100835  0.65394107  1
  Al0+  Al85  1  0.17992486  0.42866970  0.67933971  1
  Al0+  Al86  1  0.57169847  0.68108583  0.31883149  1
  Al0+  Al87  1  0.67917875  0.92900990  0.34574317  1
  Al0+  Al88  1  0.31982859  0.07198410  0.34992265  1
  Al0+  Al89  1  0.17843992  0.92895396  0.01333011  1
  Al0+  Al90  1  0.67992890  0.93185032  0.01533310  1
  Al0+  Al91  1  0.93017859  0.82094767  0.32029678  1
  Al0+  Al92  1  0.93043437  0.32122690  0.98492826  1
  Al0+  Al93  1  0.67733454  0.92733640  0.68325852  1
  Al0+  Al94  1  0.32209056  0.57099945  0.01510505  1
  Al0+  Al95  1  0.42717826  0.32223451  0.31500798  1
  Si0+  Si96  1  0.07198354  0.67759281  0.65145309  1
  Si0+  Si97  1  0.42762623  0.82174219  0.65038462  1
  Si0+  Si98  1  0.07424715  0.67729750  0.31774906  1
  Si0+  Si99  1  0.92558085  0.82449329  0.98195343  1
  Si0+  Si100  1  0.92940524  0.81857787  0.65455106  1
  Si0+  Si101  1  0.82141478  0.07473496  0.01835332  1
  Si0+  Si102  1  0.42635148  0.82121911  0.31923038  1
  Si0+  Si103  1  0.17931202  0.42925407  0.34841100  1
  Si0+  Si104  1  0.82137024  0.07385568  0.34714536  1
  Si0+  Si105  1  0.57398011  0.67742797  0.98247100  1
  Si0+  Si106  1  0.07311408  0.17710194  0.98383565  1
  Si0+  Si107  1  0.67751434  0.43027403  0.68061826  1
  Si0+  Si108  1  0.32321125  0.07251627  0.01557422  1
  Si0+  Si109  1  0.07232524  0.17636672  0.31478496  1
  Si0+  Si110  1  0.67673612  0.42549657  0.01496726  1
  Si0+  Si111  1  0.57313693  0.17782038  0.65049716  1
  Si0+  Si112  1  0.32060111  0.07248335  0.68367684  1
  Si0+  Si113  1  0.42764812  0.32168026  0.98424387  1
  Si0+  Si114  1  0.32428771  0.57167677  0.68235906  1
  Si0+  Si115  1  0.56983198  0.17851058  0.98210605  1
  Si0+  Si116  1  0.92657081  0.32482332  0.64925467  1
  Si0+  Si117  1  0.82116179  0.57070138  0.68251713  1
  Si0+  Si118  1  0.57314207  0.68129556  0.65141197  1
  Si0+  Si119  1  0.32277493  0.57033437  0.34915730  1
  O2-  O120  1  0.25299211  0.00447195  0.05804650  1
  O2-  O121  1  0.24587496  0.00144680  0.39932011  1
  O2-  O122  1  0.25560071  0.00126427  0.72947849  1
  O2-  O123  1  0.25291544  0.49727526  0.06656850  1
  O2-  O124  1  0.25386953  0.49683181  0.39077091  1
  O2-  O125  1  0.25557492  0.50275919  0.72536438  1
  O2-  O126  1  0.75604905  0.00373469  0.06325645  1
  O2-  O127  1  0.75287602  0.00507448  0.39167413  1
  O2-  O128  1  0.74624989  0.00345133  0.73114408  1
  O2-  O129  1  0.74448665  0.49499236  0.05821839  1
  O2-  O130  1  0.75141236  0.49828388  0.40006930  1
  O2-  O131  1  0.75314110  0.49604246  0.72353394  1
  O2-  O132  1  0.00419992  0.24593034  0.27141048  1
  O2-  O133  1  -0.00805530  0.25243554  0.60652192  1
  O2-  O134  1  0.00552623  0.24671998  0.93896233  1
  O2-  O135  1  0.00810556  0.74888351  0.27520358  1
  O2-  O136  1  0.00249683  0.75018029  0.61018914  1
  O2-  O137  1  -0.00194227  0.75986485  0.93693352  1
  O2-  O138  1  0.50002919  0.24971248  0.26701361  1
  O2-  O139  1  0.50485510  0.24687503  0.60700326  1
  O2-  O140  1  0.49923259  0.25120077  0.94142488  1
  O2-  O141  1  0.49814992  0.75719666  0.27332284  1
  O2-  O142  1  0.50344255  0.75455144  0.61004314  1
  O2-  O143  1  0.50392194  0.74437330  0.93734208  1
  O2-  O144  1  0.07236267  0.17692234  0.08919161  1
  O2-  O145  1  0.07096271  0.17666384  0.42076171  1
  O2-  O146  1  0.06805609  0.17972148  0.76609812  1
  O2-  O147  1  0.06864403  0.68343921  0.09916590  1
  O2-  O148  1  0.07354345  0.67548374  0.42405649  1
  O2-  O149  1  0.07138137  0.67654562  0.75635811  1
  O2-  O150  1  0.57079786  0.17690660  0.08666354  1
  O2-  O151  1  0.57060858  0.17828828  0.43262999  1
  O2-  O152  1  0.57123610  0.18000152  0.75673910  1
  O2-  O153  1  0.57427624  0.67910931  0.08762171  1
  O2-  O154  1  0.56974185  0.68194293  0.43293526  1
  O2-  O155  1  0.57391256  0.67837425  0.75634846  1
  O2-  O156  1  0.17729756  0.43199310  0.24369033  1
  O2-  O157  1  0.17938887  0.43124708  0.56596106  1
  O2-  O158  1  0.18084345  0.42676434  0.90237786  1
  O2-  O159  1  0.17926324  0.92582206  0.23538134  1
  O2-  O160  1  0.17977582  0.92842117  0.56869928  1
  O2-  O161  1  0.18090310  0.92985970  0.89979129  1
  O2-  O162  1  0.68059181  0.43022271  0.23370463  1
  O2-  O163  1  0.67570421  0.43161441  0.57625761  1
  O2-  O164  1  0.67636615  0.42716253  0.90835045  1
  O2-  O165  1  0.68000584  0.92889403  0.23265599  1
  O2-  O166  1  0.68108716  0.92364209  0.56995615  1
  O2-  O167  1  0.67977780  0.93463933  0.90214543  1
  O2-  O168  1  0.42828985  0.32170825  0.08858833  1
  O2-  O169  1  0.42771217  0.32207917  0.42911169  1
  O2-  O170  1  0.43161143  0.32032016  0.76776368  1
  O2-  O171  1  0.43202579  0.82026622  0.09993530  1
  O2-  O172  1  0.42555385  0.81641014  0.42537637  1
  O2-  O173  1  0.42436779  0.81902656  0.75537194  1
  O2-  O174  1  0.92940798  0.32063185  0.09796992  1
  O2-  O175  1  0.93408869  0.31956498  0.43432597  1
  O2-  O176  1  0.92867951  0.32770574  0.75485820  1
  O2-  O177  1  0.92466877  0.82167319  0.08737168  1
  O2-  O178  1  0.92983076  0.81992112  0.43439824  1
  O2-  O179  1  0.92817664  0.81469913  0.75951735  1
  O2-  O180  1  0.31856966  0.06925346  0.23592917  1
  O2-  O181  1  0.31984144  0.07113055  0.57864813  1
  O2-  O182  1  0.32346715  0.07384905  0.90957195  1
  O2-  O183  1  0.32103193  0.57371263  0.24460370  1
  O2-  O184  1  0.32428557  0.57224428  0.57645901  1
  O2-  O185  1  0.32025305  0.56843262  0.90086957  1
  O2-  O186  1  0.82057810  0.07346997  0.24150408  1
  O2-  O187  1  0.82139299  0.07077323  0.56784709  1
  O2-  O188  1  0.81971053  0.07469876  0.91262518  1
  O2-  O189  1  0.82380293  0.56955478  0.23687810  1
  O2-  O190  1  0.82092321  0.57411265  0.57805223  1
  O2-  O191  1  0.81867058  0.56801564  0.89964758  1
  O2-  O192  1  0.04728078  0.08318827  0.26810588  1
  O2-  O193  1  0.03725937  0.08095575  0.59921276  1
  O2-  O194  1  0.04476876  0.08370478  0.93733100  1
  O2-  O195  1  0.04657373  0.58516145  0.27068838  1
  O2-  O196  1  0.04169404  0.58669946  0.60309590  1
  O2-  O197  1  0.03555959  0.58705033  0.93067277  1
  O2-  O198  1  0.53806712  0.07860180  0.26648037  1
  O2-  O199  1  0.54904978  0.08270119  0.60708804  1
  O2-  O200  1  0.54000588  0.08857522  0.93199517  1
  O2-  O201  1  0.54058655  0.58608394  0.26352302  1
  O2-  O202  1  0.54376156  0.59094996  0.60152529  1
  O2-  O203  1  0.55156189  0.58222214  0.93669384  1
  O2-  O204  1  0.16580231  0.20160644  0.26965429  1
  O2-  O205  1  0.16320596  0.21017140  0.59664390  1
  O2-  O206  1  0.16781138  0.20044096  0.93794020  1
  O2-  O207  1  0.16927935  0.69992326  0.27356356  1
  O2-  O208  1  0.16501581  0.70189335  0.60423758  1
  O2-  O209  1  0.16656185  0.71006466  0.93042117  1
  O2-  O210  1  0.66870356  0.20322392  0.26319110  1
  O2-  O211  1  0.66781726  0.20268946  0.60690844  1
  O2-  O212  1  0.66072065  0.20596241  0.93188540  1
  O2-  O213  1  0.66843628  0.70999899  0.26569973  1
  O2-  O214  1  0.66562590  0.70842508  0.60456554  1
  O2-  O215  1  0.66704305  0.70597371  0.93568697  1
  O2-  O216  1  0.08166639  0.46121583  0.06698392  1
  O2-  O217  1  0.09054408  0.46113042  0.39930914  1
  O2-  O218  1  0.08366861  0.46081724  0.73381225  1
  O2-  O219  1  0.08060419  0.95683472  0.06652500  1
  O2-  O220  1  0.07676961  0.95557005  0.39918204  1
  O2-  O221  1  0.08359992  0.95793668  0.73595242  1
  O2-  O222  1  0.58269655  0.44772778  0.06013881  1
  O2-  O223  1  0.57987390  0.45944076  0.39878453  1
  O2-  O224  1  0.58793333  0.46398141  0.73008229  1
  O2-  O225  1  0.58288269  0.96409565  0.06681087  1
  O2-  O226  1  0.58206482  0.95484055  0.40061740  1
  O2-  O227  1  0.57696125  0.95256368  0.73448404  1
  O2-  O228  1  0.20394387  0.32849097  0.06931923  1
  O2-  O229  1  0.20345404  0.33579791  0.39366671  1
  O2-  O230  1  0.20968866  0.33183594  0.73280596  1
  O2-  O231  1  0.21078536  0.83339725  0.06629969  1
  O2-  O232  1  0.20527345  0.82898100  0.40377238  1
  O2-  O233  1  0.21151532  0.83030240  0.73238839  1
  O2-  O234  1  0.70253339  0.33093446  0.05743825  1
  O2-  O235  1  0.70631421  0.32916441  0.39965960  1
  O2-  O236  1  0.69834665  0.33731210  0.72926812  1
  O2-  O237  1  0.70767647  0.83388344  0.06702849  1
  O2-  O238  1  0.71404080  0.83403850  0.40002002  1
  O2-  O239  1  0.70966248  0.83064599  0.73858111  1
  O2-  O240  1  0.45477256  0.42034355  0.26206826  1
  O2-  O241  1  0.45982947  0.41875748  0.60092695  1
  O2-  O242  1  0.45524234  0.41344192  0.93553423  1
  O2-  O243  1  0.44557229  0.91699488  0.27744218  1
  O2-  O244  1  0.44995374  0.91599340  0.60554696  1
  O2-  O245  1  0.46128357  0.91599622  0.93022513  1
  O2-  O246  1  0.96424744  0.41750843  0.26859533  1
  O2-  O247  1  0.95549341  0.41761590  0.60282279  1
  O2-  O248  1  0.96061245  0.41734281  0.93008759  1
  O2-  O249  1  0.95537830  0.91734947  0.26268168  1
  O2-  O250  1  0.95497522  0.91130065  0.60905910  1
  O2-  O251  1  0.94598032  0.92117920  0.94010588  1
  O2-  O252  1  0.32862147  0.29350463  0.26218365  1
  O2-  O253  1  0.33372505  0.29120948  0.59958152  1
  O2-  O254  1  0.33544582  0.29206816  0.93760137  1
  O2-  O255  1  0.33377872  0.78991397  0.27394334  1
  O2-  O256  1  0.33840007  0.78935824  0.59983421  1
  O2-  O257  1  0.33485541  0.78779260  0.93080181  1
  O2-  O258  1  0.83465686  0.29260188  0.26550197  1
  O2-  O259  1  0.83016034  0.30359560  0.60712572  1
  O2-  O260  1  0.83370552  0.29154238  0.92836957  1
  O2-  O261  1  0.83623303  0.78621291  0.26460700  1
  O2-  O262  1  0.83805672  0.78738082  0.60734760  1
  O2-  O263  1  0.83351487  0.79327348  0.93512047  1
  O2-  O264  1  0.41641385  0.04539812  0.06032792  1
  O2-  O265  1  0.41616320  0.04374200  0.40700077  1
  O2-  O266  1  0.41560601  0.05104645  0.72936404  1
  O2-  O267  1  0.42252154  0.54632659  0.06557290  1
  O2-  O268  1  0.41508259  0.54431565  0.39609455  1
  O2-  O269  1  0.41859827  0.54895454  0.72824852  1
  O2-  O270  1  0.91602216  0.05545688  0.06413301  1
  O2-  O271  1  0.91554659  0.04794685  0.39157219  1
  O2-  O272  1  0.91673911  0.04098656  0.73822066  1
  O2-  O273  1  0.91585172  0.53868637  0.06723343  1
  O2-  O274  1  0.92186510  0.54328603  0.40418611  1
  O2-  O275  1  0.91370500  0.54498939  0.72982239  1
  O2-  O276  1  0.29950371  0.16542912  0.06334575  1
  O2-  O277  1  0.29261549  0.17168814  0.40155719  1
  O2-  O278  1  0.29184019  0.16529657  0.72934105  1
  O2-  O279  1  0.29147678  0.66797486  0.06825227  1
  O2-  O280  1  0.29359844  0.65973132  0.40150855  1
  O2-  O281  1  0.29722286  0.66513184  0.72753369  1
  O2-  O282  1  0.79116499  0.16837008  0.06142440  1
  O2-  O283  1  0.79703121  0.16674494  0.39453929  1
  O2-  O284  1  0.79639835  0.17265784  0.73614799  1
  O2-  O285  1  0.79150965  0.66601336  0.06751318  1
  O2-  O286  1  0.79130122  0.66773192  0.40373226  1
  O2-  O287  1  0.78957714  0.65970297  0.73312799  1
