# generated using pymatgen
data_Ca2Al2SiO7
_symmetry_space_group_name_H-M   'P 1'
_cell_length_a   15.45202728
_cell_length_b   15.45306407
_cell_length_c   15.27963140
_cell_angle_alpha   90.00784190
_cell_angle_beta   90.00215244
_cell_angle_gamma   89.99588214
_symmetry_Int_Tables_number   1
_chemical_formula_structural   Ca2Al2SiO7
_chemical_formula_sum   'Ca48 Al48 Si24 O168'
_cell_volume   3648.48817937
_cell_formula_units_Z   24
loop_
 _symmetry_equiv_pos_site_id
 _symmetry_equiv_pos_as_xyz
  1  'x, y, z'
loop_
 _atom_type_symbol
 _atom_type_oxidation_number
  Ca2+  2.0
  Al0+  0.0
  Si0+  0.0
  O2-  -2.0
loop_
 _atom_site_type_symbol
 _atom_site_label
 _atom_site_symmetry_multiplicity
 _atom_site_fract_x
 _atom_site_fract_y
 _atom_site_fract_z
 _atom_site_occupancy
  Ca2+  Ca0  1  0.17880594  0.08727711  0.17464320  1
  Ca2+  Ca1  1  0.16744893  0.08316383  0.49421573  1
  Ca2+  Ca2  1  0.17224384  0.08539340  0.84268173  1
  Ca2+  Ca3  1  0.17222933  0.56945248  0.17541415  1
  Ca2+  Ca4  1  0.17204032  0.58617919  0.50041793  1
  Ca2+  Ca5  1  0.16405497  0.57711686  0.83921165  1
  Ca2+  Ca6  1  0.66864549  0.08599821  0.17253265  1
  Ca2+  Ca7  1  0.65855326  0.07016300  0.50165483  1
  Ca2+  Ca8  1  0.67278114  0.08234943  0.84013275  1
  Ca2+  Ca9  1  0.66281213  0.57569831  0.16671997  1
  Ca2+  Ca10  1  0.66586563  0.57970078  0.51049635  1
  Ca2+  Ca11  1  0.65964430  0.57269154  0.83298311  1
  Ca2+  Ca12  1  0.09351794  0.32467257  0.16275045  1
  Ca2+  Ca13  1  0.07833113  0.33154319  0.49364254  1
  Ca2+  Ca14  1  0.08093591  0.32880165  0.83093653  1
  Ca2+  Ca15  1  0.08042939  0.84204301  0.16717985  1
  Ca2+  Ca16  1  0.07336284  0.83683171  0.49295966  1
  Ca2+  Ca17  1  0.07617769  0.82604293  0.82264888  1
  Ca2+  Ca18  1  0.57637780  0.32257286  0.15675601  1
  Ca2+  Ca19  1  0.57923251  0.32950688  0.49635200  1
  Ca2+  Ca20  1  0.57707595  0.33446846  0.82871966  1
  Ca2+  Ca21  1  0.56996250  0.84058834  0.16593908  1
  Ca2+  Ca22  1  0.58540988  0.83067973  0.49220216  1
  Ca2+  Ca23  1  0.58006409  0.83111582  0.82829012  1
  Ca2+  Ca24  1  0.32532670  0.41400262  0.17148529  1
  Ca2+  Ca25  1  0.33011322  0.41700976  0.50139989  1
  Ca2+  Ca26  1  0.33238169  0.41351528  0.84131457  1
  Ca2+  Ca27  1  0.33379214  0.92478880  0.17671165  1
  Ca2+  Ca28  1  0.33540269  0.92110678  0.49678667  1
  Ca2+  Ca29  1  0.33341076  0.92297963  0.84203954  1
  Ca2+  Ca30  1  0.82589286  0.41454049  0.16653243  1
  Ca2+  Ca31  1  0.82782071  0.41496468  0.50947506  1
  Ca2+  Ca32  1  0.82083359  0.40727028  0.83574918  1
  Ca2+  Ca33  1  0.82785122  0.92271703  0.17390130  1
  Ca2+  Ca34  1  0.82614331  0.91064908  0.50454546  1
  Ca2+  Ca35  1  0.82898133  0.91752075  0.83581955  1
  Ca2+  Ca36  1  0.42507722  0.16113300  0.15838785  1
  Ca2+  Ca37  1  0.41994899  0.16966843  0.49330206  1
  Ca2+  Ca38  1  0.41629691  0.17710049  0.83645872  1
  Ca2+  Ca39  1  0.40312116  0.67952620  0.16753167  1
  Ca2+  Ca40  1  0.42205918  0.66935806  0.49388970  1
  Ca2+  Ca41  1  0.42073782  0.67310177  0.82931853  1
  Ca2+  Ca42  1  0.93089241  0.15964670  0.16140437  1
  Ca2+  Ca43  1  0.92063103  0.17218348  0.49487074  1
  Ca2+  Ca44  1  0.91951074  0.16700902  0.83338793  1
  Ca2+  Ca45  1  0.91544866  0.67434346  0.16706107  1
  Ca2+  Ca46  1  0.92031843  0.67657940  0.49811650  1
  Ca2+  Ca47  1  0.92314951  0.67106489  0.82257550  1
  Al0+  Al48  1  -0.00169025  -0.00015423  -0.00323082  1
  Al0+  Al49  1  -0.00016803  0.00257737  0.32866433  1
  Al0+  Al50  1  0.00129741  -0.00007879  0.66415676  1
  Al0+  Al51  1  -0.00083322  0.50019877  0.00574885  1
  Al0+  Al52  1  -0.00241007  0.50114260  0.33609622  1
  Al0+  Al53  1  0.00136008  0.49891470  0.65894897  1
  Al0+  Al54  1  0.50022728  -0.00075764  -0.00767506  1
  Al0+  Al55  1  0.50156607  -0.00056015  0.33468470  1
  Al0+  Al56  1  0.49972125  0.00135978  0.67486374  1
  Al0+  Al57  1  0.49946788  0.50218887  0.00382950  1
  Al0+  Al58  1  0.50026933  0.49923287  0.33585945  1
  Al0+  Al59  1  0.49826290  0.50108833  0.66273647  1
  Al0+  Al60  1  0.25073243  0.24826668  -0.00055783  1
  Al0+  Al61  1  0.24921436  0.25127247  0.34039552  1
  Al0+  Al62  1  0.25161480  0.25091716  0.66304490  1
  Al0+  Al63  1  0.24796225  0.74982408  -0.00626160  1
  Al0+  Al64  1  0.24913334  0.74878425  0.33769514  1
  Al0+  Al65  1  0.25120454  0.75059818  0.66581861  1
  Al0+  Al66  1  0.75135925  0.24865797  0.00746233  1
  Al0+  Al67  1  0.75022673  0.25050744  0.33037734  1
  Al0+  Al68  1  0.75041485  0.24788474  0.66631545  1
  Al0+  Al69  1  0.74930192  0.74931506  0.00009340  1
  Al0+  Al70  1  0.75076057  0.74881007  0.33008373  1
  Al0+  Al71  1  0.74957345  0.74917340  0.66624625  1
  Al0+  Al72  1  0.17693702  0.92955850  0.34771693  1
  Al0+  Al73  1  0.82148598  0.07001363  0.01463904  1
  Al0+  Al74  1  0.92870923  0.82096046  0.31720071  1
  Al0+  Al75  1  0.42951689  0.81882098  0.32217220  1
  Al0+  Al76  1  0.67926473  0.92716379  0.68188192  1
  Al0+  Al77  1  0.32366239  0.07100406  0.34924007  1
  Al0+  Al78  1  0.67836615  0.42844426  0.67916376  1
  Al0+  Al79  1  0.32181446  0.57119132  0.34977887  1
  Al0+  Al80  1  0.07375102  0.67753479  0.65016565  1
  Al0+  Al81  1  0.32073946  0.06879880  0.01223493  1
  Al0+  Al82  1  0.42779712  0.82079570  0.98574220  1
  Al0+  Al83  1  0.67744515  0.42916098  0.01428658  1
  Al0+  Al84  1  0.56988810  0.17880228  0.32076819  1
  Al0+  Al85  1  0.42945555  0.32132663  0.65151120  1
  Al0+  Al86  1  0.68073882  0.92995345  0.34520247  1
  Al0+  Al87  1  0.07144371  0.17913462  0.98643529  1
  Al0+  Al88  1  0.42946672  0.32183780  0.98713534  1
  Al0+  Al89  1  0.57471268  0.17851775  0.98321526  1
  Al0+  Al90  1  0.17932521  0.42894718  0.01177001  1
  Al0+  Al91  1  0.07044142  0.18213190  0.31936211  1
  Al0+  Al92  1  0.17750936  0.42823003  0.35161115  1
  Al0+  Al93  1  0.92926471  0.82181997  0.65153259  1
  Al0+  Al94  1  0.56881334  0.68063905  0.65408430  1
  Al0+  Al95  1  0.92786020  0.31858550  0.65482513  1
  Si0+  Si96  1  0.68030502  0.42803828  0.34913055  1
  Si0+  Si97  1  0.42849874  0.32268554  0.31723725  1
  Si0+  Si98  1  0.17875653  0.92937332  0.68202802  1
  Si0+  Si99  1  0.32067916  0.57158940  0.68345260  1
  Si0+  Si100  1  0.82339954  0.57032312  0.68226668  1
  Si0+  Si101  1  0.92778501  0.82068537  0.98450963  1
  Si0+  Si102  1  0.32014799  0.07286570  0.68408410  1
  Si0+  Si103  1  0.82260405  0.07321126  0.35043736  1
  Si0+  Si104  1  0.32127991  0.57499287  0.01522773  1
  Si0+  Si105  1  0.92866030  0.32385797  0.98546004  1
  Si0+  Si106  1  0.57313087  0.67533403  0.31528627  1
  Si0+  Si107  1  0.07396249  0.17810889  0.64926945  1
  Si0+  Si108  1  0.06882412  0.67752439  0.98663270  1
  Si0+  Si109  1  0.17887058  0.42873541  0.68240277  1
  Si0+  Si110  1  0.81953774  0.57190813  0.34986900  1
  Si0+  Si111  1  0.57360487  0.67831177  0.98314188  1
  Si0+  Si112  1  0.17742240  0.92614670  0.01363115  1
  Si0+  Si113  1  0.82233279  0.57357634  0.01734637  1
  Si0+  Si114  1  0.57232112  0.17737463  0.65070050  1
  Si0+  Si115  1  0.42871668  0.82523636  0.64973230  1
  Si0+  Si116  1  0.82414362  0.07127600  0.68275285  1
  Si0+  Si117  1  0.07164420  0.67743634  0.31478911  1
  Si0+  Si118  1  0.67843880  0.92643517  0.01682838  1
  Si0+  Si119  1  0.92681162  0.32488801  0.31452107  1
  O2-  O120  1  0.24714304  -0.00734594  0.05797695  1
  O2-  O121  1  0.25054367  -0.00076629  0.39937035  1
  O2-  O122  1  0.24898612  0.00061683  0.72506265  1
  O2-  O123  1  0.25657523  0.50186003  0.05741345  1
  O2-  O124  1  0.24994864  0.49993014  0.40170019  1
  O2-  O125  1  0.24799077  0.50163640  0.72537550  1
  O2-  O126  1  0.74432261  -0.00238014  0.06092182  1
  O2-  O127  1  0.75481523  0.00407535  0.39494129  1
  O2-  O128  1  0.75608276  0.00117278  0.72631544  1
  O2-  O129  1  0.75273069  0.50482909  0.06013172  1
  O2-  O130  1  0.74979372  0.49993877  0.39212962  1
  O2-  O131  1  0.75569212  0.50078438  0.72706721  1
  O2-  O132  1  -0.00199064  0.25897634  0.27132681  1
  O2-  O133  1  0.00268041  0.24504598  0.60716172  1
  O2-  O134  1  -0.00278174  0.25517076  0.94081923  1
  O2-  O135  1  0.00659360  0.74944565  0.26920398  1
  O2-  O136  1  0.00318912  0.75162567  0.60157899  1
  O2-  O137  1  -0.00122554  0.74908974  0.94357857  1
  O2-  O138  1  0.49389521  0.25147685  0.27321644  1
  O2-  O139  1  0.50503709  0.24710291  0.60620992  1
  O2-  O140  1  0.50490280  0.25408452  0.93490121  1
  O2-  O141  1  0.50224629  0.74255176  0.27277106  1
  O2-  O142  1  0.49934215  0.75897404  0.60590895  1
  O2-  O143  1  0.50356615  0.74630365  0.94030644  1
  O2-  O144  1  0.07179197  0.17917791  0.09902552  1
  O2-  O145  1  0.06574961  0.18270442  0.43286371  1
  O2-  O146  1  0.07563004  0.17878250  0.75510815  1
  O2-  O147  1  0.06860307  0.67755939  0.09131780  1
  O2-  O148  1  0.06757475  0.67657710  0.42007175  1
  O2-  O149  1  0.07146748  0.67801099  0.76493992  1
  O2-  O150  1  0.57258837  0.17851417  0.09699277  1
  O2-  O151  1  0.57038427  0.18153386  0.43429289  1
  O2-  O152  1  0.57255418  0.17826397  0.75606284  1
  O2-  O153  1  0.57739521  0.67912992  0.08844535  1
  O2-  O154  1  0.57507288  0.67566189  0.42101316  1
  O2-  O155  1  0.56458444  0.67921906  0.76735766  1
  O2-  O156  1  0.17905203  0.42866191  0.23761715  1
  O2-  O157  1  0.18032605  0.42782097  0.57789478  1
  O2-  O158  1  0.17614392  0.43246664  0.89813089  1
  O2-  O159  1  0.17810913  0.93172545  0.23371262  1
  O2-  O160  1  0.17782036  0.92987962  0.57751931  1
  O2-  O161  1  0.17797966  0.92553212  0.90741548  1
  O2-  O162  1  0.68162036  0.42927716  0.24399597  1
  O2-  O163  1  0.68031790  0.43021826  0.56584307  1
  O2-  O164  1  0.67849263  0.43100462  0.90088091  1
  O2-  O165  1  0.68108825  0.93105015  0.23212854  1
  O2-  O166  1  0.67784728  0.92854115  0.56869455  1
  O2-  O167  1  0.68300312  0.92317809  0.91106660  1
  O2-  O168  1  0.42924824  0.32039603  0.10049724  1
  O2-  O169  1  0.43288238  0.32400608  0.42316553  1
  O2-  O170  1  0.42717974  0.32088358  0.76451453  1
  O2-  O171  1  0.42606789  0.81971758  0.09874995  1
  O2-  O172  1  0.43425841  0.81865880  0.43523479  1
  O2-  O173  1  0.42751961  0.82257948  0.75569214  1
  O2-  O174  1  0.93016364  0.32573789  0.09084987  1
  O2-  O175  1  0.92401017  0.32311011  0.42038563  1
  O2-  O176  1  0.92855126  0.31745777  0.76810441  1
  O2-  O177  1  0.92735547  0.82007566  0.08950510  1
  O2-  O178  1  0.92666315  0.81751480  0.42987058  1
  O2-  O179  1  0.93170133  0.82040393  0.76597414  1
  O2-  O180  1  0.32458131  0.06956514  0.23564191  1
  O2-  O181  1  0.32137307  0.07263272  0.57936324  1
  O2-  O182  1  0.31670246  0.06872320  0.89847091  1
  O2-  O183  1  0.31939411  0.57032290  0.23573145  1
  O2-  O184  1  0.32118527  0.57146503  0.57886889  1
  O2-  O185  1  0.31860833  0.57745765  0.90926549  1
  O2-  O186  1  0.82155949  0.07174430  0.24475991  1
  O2-  O187  1  0.82462656  0.07278378  0.57739253  1
  O2-  O188  1  0.82374838  0.06608540  0.90112477  1
  O2-  O189  1  0.81911499  0.57189172  0.24445329  1
  O2-  O190  1  0.82102328  0.56963555  0.57648959  1
  O2-  O191  1  0.82529107  0.57609639  0.91214711  1
  O2-  O192  1  0.03936622  0.08697203  0.26305420  1
  O2-  O193  1  0.05013593  0.08406511  0.60394687  1
  O2-  O194  1  0.03880623  0.08316971  0.93033812  1
  O2-  O195  1  0.03966541  0.58507138  0.26860124  1
  O2-  O196  1  0.04632139  0.58039726  0.59540434  1
  O2-  O197  1  0.03905290  0.58619495  0.93866143  1
  O2-  O198  1  0.54217148  0.08201978  0.26672385  1
  O2-  O199  1  0.54208298  0.08379375  0.60683222  1
  O2-  O200  1  0.54633239  0.08108785  0.92888004  1
  O2-  O201  1  0.54863692  0.58063632  0.27043674  1
  O2-  O202  1  0.53562047  0.58652840  0.59704204  1
  O2-  O203  1  0.54739590  0.58460197  0.93791179  1
  O2-  O204  1  0.16927486  0.21165658  0.26880522  1
  O2-  O205  1  0.16561861  0.20658624  0.60199269  1
  O2-  O206  1  0.16630968  0.21039357  0.93016942  1
  O2-  O207  1  0.16699604  0.69773055  0.27141252  1
  O2-  O208  1  0.17315022  0.70495675  0.59980379  1
  O2-  O209  1  0.15959309  0.70312802  0.93568780  1
  O2-  O210  1  0.66659725  0.21064246  0.26684168  1
  O2-  O211  1  0.66626008  0.19946866  0.60440947  1
  O2-  O212  1  0.67571890  0.20482558  0.93450948  1
  O2-  O213  1  0.66589122  0.70083559  0.26802372  1
  O2-  O214  1  0.66728833  0.70482364  0.60114817  1
  O2-  O215  1  0.66685683  0.70400266  0.93518510  1
  O2-  O216  1  0.08413690  0.46073332  0.06841403  1
  O2-  O217  1  0.07725186  0.45645070  0.40153925  1
  O2-  O218  1  0.08553269  0.45524870  0.72797142  1
  O2-  O219  1  0.08311549  0.95159073  0.05718936  1
  O2-  O220  1  0.07896049  0.96244146  0.40015160  1
  O2-  O221  1  0.08636909  0.95591447  0.73028874  1
  O2-  O222  1  0.58240980  0.46176732  0.07118078  1
  O2-  O223  1  0.58798421  0.45375731  0.39598914  1
  O2-  O224  1  0.58221118  0.46373532  0.73171208  1
  O2-  O225  1  0.58261529  0.94953724  0.05749556  1
  O2-  O226  1  0.58602195  0.96039907  0.40221717  1
  O2-  O227  1  0.58339267  0.95842335  0.73800001  1
  O2-  O228  1  0.21054750  0.33295149  0.06524720  1
  O2-  O229  1  0.20469331  0.33147825  0.40771176  1
  O2-  O230  1  0.20867816  0.33662228  0.72876560  1
  O2-  O231  1  0.19966132  0.83107489  0.05829833  1
  O2-  O232  1  0.19983563  0.82993776  0.39979468  1
  O2-  O233  1  0.20673602  0.83710381  0.72988632  1
  O2-  O234  1  0.71006990  0.33476722  0.07087266  1
  O2-  O235  1  0.70996004  0.33672718  0.39655239  1
  O2-  O236  1  0.70867655  0.33108119  0.73235841  1
  O2-  O237  1  0.70606697  0.83347034  0.06373476  1
  O2-  O238  1  0.71125185  0.83159585  0.39664009  1
  O2-  O239  1  0.70917146  0.83023001  0.73657074  1
  O2-  O240  1  0.45687966  0.41553504  0.27083609  1
  O2-  O241  1  0.45915584  0.41711635  0.59663003  1
  O2-  O242  1  0.45285885  0.42358724  0.93709789  1
  O2-  O243  1  0.46319417  0.91413770  0.26772492  1
  O2-  O244  1  0.45198776  0.92092035  0.60808618  1
  O2-  O245  1  0.45846774  0.91480499  0.92734085  1
  O2-  O246  1  0.94742425  0.42067773  0.27070713  1
  O2-  O247  1  0.95667338  0.41427345  0.59827364  1
  O2-  O248  1  0.95307863  0.41809154  0.93943241  1
  O2-  O249  1  0.95657271  0.91830463  0.26360025  1
  O2-  O250  1  0.95633827  0.92057706  0.59858378  1
  O2-  O251  1  0.95543564  0.91101681  0.93497529  1
  O2-  O252  1  0.33205141  0.30169170  0.27725933  1
  O2-  O253  1  0.33397153  0.28904217  0.59619484  1
  O2-  O254  1  0.33323205  0.28927330  0.93156637  1
  O2-  O255  1  0.33146022  0.78991220  0.26895921  1
  O2-  O256  1  0.33542067  0.79824172  0.60481493  1
  O2-  O257  1  0.33171978  0.78967454  0.92858495  1
  O2-  O258  1  0.83411856  0.29729046  0.26747176  1
  O2-  O259  1  0.83220724  0.28804031  0.59785834  1
  O2-  O260  1  0.83512926  0.29589501  0.94142197  1
  O2-  O261  1  0.83445996  0.78467532  0.26095047  1
  O2-  O262  1  0.83139000  0.79153386  0.59988753  1
  O2-  O263  1  0.83595877  0.79175042  0.93733997  1
  O2-  O264  1  0.41923449  0.03861580  0.06212529  1
  O2-  O265  1  0.42015709  0.03974807  0.40454935  1
  O2-  O266  1  0.41122899  0.04643809  0.73366132  1
  O2-  O267  1  0.41641151  0.55818889  0.06069922  1
  O2-  O268  1  0.42137813  0.54379864  0.40242725  1
  O2-  O269  1  0.41149567  0.54161285  0.73116846  1
  O2-  O270  1  0.91741383  0.03498452  0.06844258  1
  O2-  O271  1  0.91631787  0.04885173  0.39534165  1
  O2-  O272  1  0.91877524  0.04711203  0.72899289  1
  O2-  O273  1  0.91401504  0.54750427  0.06754314  1
  O2-  O274  1  0.91133130  0.54644901  0.39813945  1
  O2-  O275  1  0.91858104  0.54571246  0.72594741  1
  O2-  O276  1  0.28954684  0.16433739  0.06653328  1
  O2-  O277  1  0.29499602  0.16861279  0.40343353  1
  O2-  O278  1  0.28953792  0.16467564  0.73045678  1
  O2-  O279  1  0.28812033  0.66652524  0.06180025  1
  O2-  O280  1  0.29419840  0.66870328  0.40507990  1
  O2-  O281  1  0.29515356  0.66469247  0.73116239  1
  O2-  O282  1  0.79762268  0.16654621  0.07143794  1
  O2-  O283  1  0.79717005  0.16791218  0.39492090  1
  O2-  O284  1  0.79651369  0.16360757  0.73074423  1
  O2-  O285  1  0.79484397  0.66652885  0.06525885  1
  O2-  O286  1  0.79049586  0.66278755  0.39768885  1
  O2-  O287  1  0.79769250  0.66344271  0.72905278  1
