# generated using pymatgen
data_Ca2Al2SiO7
_symmetry_space_group_name_H-M   'P 1'
_cell_length_a   15.46178303
_cell_length_b   15.46154780
_cell_length_c   15.28694510
_cell_angle_alpha   89.99504648
_cell_angle_beta   89.98890262
_cell_angle_gamma   90.00932095
_symmetry_Int_Tables_number   1
_chemical_formula_structural   Ca2Al2SiO7
_chemical_formula_sum   'Ca48 Al48 Si24 O168'
_cell_volume   3654.54431345
_cell_formula_units_Z   24
loop_
 _symmetry_equiv_pos_site_id
 _symmetry_equiv_pos_as_xyz
  1  'x, y, z'
loop_
 _atom_type_symbol
 _atom_type_oxidation_number
  Ca2+  2.0
  Al0+  0.0
  Si0+  0.0
  O2-  -2.0
loop_
 _atom_site_type_symbol
 _atom_site_label
 _atom_site_symmetry_multiplicity
 _atom_site_fract_x
 _atom_site_fract_y
 _atom_site_fract_z
 _atom_site_occupancy
  Ca2+  Ca0  1  0.17121004  0.07610346  0.17658043  1
  Ca2+  Ca1  1  0.16346194  0.08109766  0.49552744  1
  Ca2+  Ca2  1  0.17479983  0.07564557  0.84507417  1
  Ca2+  Ca3  1  0.16486768  0.58373426  0.17303619  1
  Ca2+  Ca4  1  0.16607556  0.58880286  0.50929806  1
  Ca2+  Ca5  1  0.16969372  0.58802814  0.82962110  1
  Ca2+  Ca6  1  0.67590245  0.08032044  0.17435761  1
  Ca2+  Ca7  1  0.67813842  0.07362654  0.50251303  1
  Ca2+  Ca8  1  0.67400766  0.08292308  0.83486605  1
  Ca2+  Ca9  1  0.67097555  0.57753942  0.18170092  1
  Ca2+  Ca10  1  0.67849354  0.58456871  0.49757317  1
  Ca2+  Ca11  1  0.67418169  0.58268973  0.83171291  1
  Ca2+  Ca12  1  0.07590349  0.32618387  0.17240270  1
  Ca2+  Ca13  1  0.06891056  0.32734294  0.49223220  1
  Ca2+  Ca14  1  0.07773726  0.32690126  0.82389500  1
  Ca2+  Ca15  1  0.07380167  0.84393856  0.16900030  1
  Ca2+  Ca16  1  0.07900457  0.82323487  0.48976027  1
  Ca2+  Ca17  1  0.07868724  0.83496664  0.83089902  1
  Ca2+  Ca18  1  0.58644589  0.32631181  0.16312379  1
  Ca2+  Ca19  1  0.57811566  0.33967011  0.49591247  1
  Ca2+  Ca20  1  0.57904462  0.32352146  0.82793465  1
  Ca2+  Ca21  1  0.59440978  0.82782018  0.16840427  1
  Ca2+  Ca22  1  0.58299136  0.83644218  0.49364628  1
  Ca2+  Ca23  1  0.57512145  0.83843888  0.82402844  1
  Ca2+  Ca24  1  0.33050710  0.41804746  0.17288308  1
  Ca2+  Ca25  1  0.33150929  0.42357921  0.50789719  1
  Ca2+  Ca26  1  0.33959348  0.42133218  0.83026808  1
  Ca2+  Ca27  1  0.32239624  0.92614370  0.17302694  1
  Ca2+  Ca28  1  0.32942821  0.91638004  0.50056937  1
  Ca2+  Ca29  1  0.32720888  0.91686247  0.84016352  1
  Ca2+  Ca30  1  0.82739709  0.42217533  0.18029264  1
  Ca2+  Ca31  1  0.83924124  0.42335276  0.50264211  1
  Ca2+  Ca32  1  0.84309870  0.42315717  0.83133380  1
  Ca2+  Ca33  1  0.83540854  0.92350665  0.17660106  1
  Ca2+  Ca34  1  0.82775128  0.91807586  0.50305860  1
  Ca2+  Ca35  1  0.83275055  0.92631268  0.83844664  1
  Ca2+  Ca36  1  0.42228130  0.15673520  0.16158876  1
  Ca2+  Ca37  1  0.41499171  0.17079740  0.49415844  1
  Ca2+  Ca38  1  0.42301593  0.16294089  0.82866685  1
  Ca2+  Ca39  1  0.42490432  0.66843518  0.16764578  1
  Ca2+  Ca40  1  0.42161086  0.67180543  0.49704014  1
  Ca2+  Ca41  1  0.41770257  0.67331250  0.82125188  1
  Ca2+  Ca42  1  0.91497632  0.16164014  0.16545704  1
  Ca2+  Ca43  1  0.91093062  0.17246738  0.49222556  1
  Ca2+  Ca44  1  0.91185351  0.16843219  0.82696236  1
  Ca2+  Ca45  1  0.91283729  0.68176928  0.16882654  1
  Ca2+  Ca46  1  0.92187460  0.66601445  0.48968720  1
  Ca2+  Ca47  1  0.92175455  0.67390485  0.82568267  1
  Al0+  Al48  1  -0.00077072  0.00066944  0.00028344  1
  Al0+  Al49  1  0.00285468  0.00061965  0.33590518  1
  Al0+  Al50  1  0.00067900  -0.00094811  0.67066126  1
  Al0+  Al51  1  0.00137366  0.50122690  0.00095267  1
  Al0+  Al52  1  0.00080747  0.49787197  0.32745551  1
  Al0+  Al53  1  0.00116256  0.49785689  0.66611011  1
  Al0+  Al54  1  0.50151797  -0.00201954  -0.00246210  1
  Al0+  Al55  1  0.49792487  0.00241219  0.33912785  1
  Al0+  Al56  1  0.49922490  -0.00038695  0.66360020  1
  Al0+  Al57  1  0.50075609  0.49970069  -0.00100280  1
  Al0+  Al58  1  0.49891525  0.50132213  0.33169201  1
  Al0+  Al59  1  0.49997074  0.49978191  0.66838293  1
  Al0+  Al60  1  0.25030630  0.25358747  0.00205235  1
  Al0+  Al61  1  0.24847617  0.25295935  0.33302464  1
  Al0+  Al62  1  0.25063517  0.24978352  0.66376159  1
  Al0+  Al63  1  0.25064381  0.74760333  0.00555367  1
  Al0+  Al64  1  0.25185538  0.75107958  0.33106668  1
  Al0+  Al65  1  0.25177578  0.74992157  0.66432419  1
  Al0+  Al66  1  0.74805673  0.25107275  -0.00316474  1
  Al0+  Al67  1  0.74420738  0.25108154  0.33698811  1
  Al0+  Al68  1  0.74913265  0.24949268  0.66545135  1
  Al0+  Al69  1  0.75273556  0.74929795  -0.00787743  1
  Al0+  Al70  1  0.74930725  0.74782118  0.33244063  1
  Al0+  Al71  1  0.74884222  0.74857733  0.67702908  1
  Al0+  Al72  1  0.92890746  0.31894333  0.65375426  1
  Al0+  Al73  1  0.82269529  0.56904342  0.34649894  1
  Al0+  Al74  1  0.82274082  0.07195179  0.34756690  1
  Al0+  Al75  1  0.67554168  0.42834998  0.34829565  1
  Al0+  Al76  1  0.42976208  0.82156686  0.65234670  1
  Al0+  Al77  1  0.92391351  0.31934220  0.31728043  1
  Al0+  Al78  1  0.06934464  0.68131995  0.65539448  1
  Al0+  Al79  1  0.17838111  0.92803763  0.01564188  1
  Al0+  Al80  1  0.82390722  0.56937884  0.68162777  1
  Al0+  Al81  1  0.57030600  0.17824922  0.98619006  1
  Al0+  Al82  1  0.32091219  0.57110825  0.67934516  1
  Al0+  Al83  1  0.67713650  0.92834569  0.68327389  1
  Al0+  Al84  1  0.93048822  0.82283232  0.98389474  1
  Al0+  Al85  1  0.67927639  0.92716036  0.34641885  1
  Al0+  Al86  1  0.32353360  0.07226261  0.01310629  1
  Al0+  Al87  1  0.56957835  0.68059960  0.32092585  1
  Al0+  Al88  1  0.07413313  0.67746273  0.31755147  1
  Al0+  Al89  1  0.82169938  0.07130110  0.68282287  1
  Al0+  Al90  1  0.42939823  0.32094846  0.65251559  1
  Al0+  Al91  1  0.32012092  0.07374681  0.35046949  1
  Al0+  Al92  1  0.17913215  0.92775810  0.35143569  1
  Al0+  Al93  1  0.81818690  0.07231347  0.01361479  1
  Al0+  Al94  1  0.07028261  0.17927232  0.31820234  1
  Al0+  Al95  1  0.92851556  0.82083154  0.32132823  1
  Si0+  Si96  1  0.57115281  0.17783664  0.64652872  1
  Si0+  Si97  1  0.92922101  0.32180548  0.98494194  1
  Si0+  Si98  1  0.57361330  0.67721902  0.65091464  1
  Si0+  Si99  1  0.32267964  0.56945990  0.01596505  1
  Si0+  Si100  1  0.07188380  0.18043660  0.98541888  1
  Si0+  Si101  1  0.18100863  0.92782992  0.68180556  1
  Si0+  Si102  1  0.92624365  0.82240427  0.65175093  1
  Si0+  Si103  1  0.31994620  0.07300621  0.68131800  1
  Si0+  Si104  1  0.42701107  0.32416775  0.98279358  1
  Si0+  Si105  1  0.67718280  0.42808425  0.68499532  1
  Si0+  Si106  1  0.17745088  0.42929832  0.01617407  1
  Si0+  Si107  1  0.42935773  0.81728955  0.98616563  1
  Si0+  Si108  1  0.32105045  0.57110667  0.34737874  1
  Si0+  Si109  1  0.56782689  0.17841756  0.31885009  1
  Si0+  Si110  1  0.67845481  0.92546343  0.01533315  1
  Si0+  Si111  1  0.57181409  0.67644867  0.98271683  1
  Si0+  Si112  1  0.42838459  0.32236882  0.31757375  1
  Si0+  Si113  1  0.42857293  0.82507100  0.31449454  1
  Si0+  Si114  1  0.67922443  0.43131463  0.01344647  1
  Si0+  Si115  1  0.17935034  0.42702534  0.68342174  1
  Si0+  Si116  1  0.82217611  0.57127364  0.01497934  1
  Si0+  Si117  1  0.07326176  0.17517018  0.65172003  1
  Si0+  Si118  1  0.17922784  0.43052995  0.34859143  1
  Si0+  Si119  1  0.07285071  0.67622513  0.98213331  1
  O2-  O120  1  0.24867541  0.00364287  0.06274304  1
  O2-  O121  1  0.25013402  0.00090445  0.40179359  1
  O2-  O122  1  0.24890301  0.00242036  0.72378733  1
  O2-  O123  1  0.25110914  0.49879487  0.05737368  1
  O2-  O124  1  0.24360436  0.50790808  0.38962713  1
  O2-  O125  1  0.24798216  0.49562436  0.72874059  1
  O2-  O126  1  0.74596182  -0.00512085  0.05906159  1
  O2-  O127  1  0.75505260  -0.00496087  0.39598009  1
  O2-  O128  1  0.75094482  -0.00179284  0.73374995  1
  O2-  O129  1  0.74928215  0.50222576  0.05632267  1
  O2-  O130  1  0.75321478  0.49447743  0.39685950  1
  O2-  O131  1  0.74912215  0.49377795  0.72954355  1
  O2-  O132  1  -0.00861103  0.24325369  0.26615551  1
  O2-  O133  1  -0.00001317  0.23993341  0.60985987  1
  O2-  O134  1  -0.00059287  0.24987361  0.94233570  1
  O2-  O135  1  0.00239431  0.75047813  0.26908081  1
  O2-  O136  1  -0.00825089  0.75112757  0.60781330  1
  O2-  O137  1  0.00745440  0.74829225  0.93932404  1
  O2-  O138  1  0.49675178  0.24960381  0.27531206  1
  O2-  O139  1  0.50322962  0.24798580  0.60303047  1
  O2-  O140  1  0.49030666  0.24959084  0.94067428  1
  O2-  O141  1  0.50009974  0.75880888  0.27039475  1
  O2-  O142  1  0.50889582  0.75028643  0.60823470  1
  O2-  O143  1  0.50172404  0.74847736  0.94138352  1
  O2-  O144  1  0.07303066  0.18292679  0.08977528  1
  O2-  O145  1  0.07468082  0.18604461  0.43155598  1
  O2-  O146  1  0.07715245  0.17794136  0.75798974  1
  O2-  O147  1  0.07077051  0.67032389  0.08682121  1
  O2-  O148  1  0.07418495  0.67769669  0.43136287  1
  O2-  O149  1  0.07086932  0.68449036  0.76902711  1
  O2-  O150  1  0.57114498  0.18209371  0.09919177  1
  O2-  O151  1  0.56533139  0.17913664  0.42354556  1
  O2-  O152  1  0.56891190  0.17862104  0.75281800  1
  O2-  O153  1  0.57064369  0.67381957  0.08764984  1
  O2-  O154  1  0.56545087  0.67751540  0.43344753  1
  O2-  O155  1  0.56951250  0.67540669  0.75739255  1
  O2-  O156  1  0.18367047  0.42895886  0.24278788  1
  O2-  O157  1  0.18030978  0.42744870  0.57820287  1
  O2-  O158  1  0.17535691  0.42872711  0.91130764  1
  O2-  O159  1  0.18224534  0.92834931  0.23781753  1
  O2-  O160  1  0.18168828  0.92666162  0.57746939  1
  O2-  O161  1  0.18208105  0.92782870  0.90093128  1
  O2-  O162  1  0.67301140  0.43141491  0.23369988  1
  O2-  O163  1  0.67424871  0.43094499  0.58014193  1
  O2-  O164  1  0.67783199  0.43293490  0.90844964  1
  O2-  O165  1  0.67818946  0.93046610  0.23224202  1
  O2-  O166  1  0.67736464  0.92925317  0.57018939  1
  O2-  O167  1  0.67765426  0.92613472  0.90989304  1
  O2-  O168  1  0.42955650  0.33133864  0.08801558  1
  O2-  O169  1  0.42894494  0.32442804  0.42253964  1
  O2-  O170  1  0.43079154  0.31883103  0.76597932  1
  O2-  O171  1  0.42985827  0.81412460  0.09081132  1
  O2-  O172  1  0.42751896  0.82162110  0.42005328  1
  O2-  O173  1  0.42766893  0.81901852  0.76645893  1
  O2-  O174  1  0.92941783  0.32324231  0.08930499  1
  O2-  O175  1  0.92909409  0.32132179  0.43070682  1
  O2-  O176  1  0.93382275  0.32009378  0.76792968  1
  O2-  O177  1  0.92623722  0.82096109  0.09627004  1
  O2-  O178  1  0.92779860  0.81737555  0.43499571  1
  O2-  O179  1  0.93093007  0.82263072  0.75775893  1
  O2-  O180  1  0.32099951  0.07282280  0.23669718  1
  O2-  O181  1  0.31825985  0.07521981  0.57690646  1
  O2-  O182  1  0.32188345  0.07020145  0.89873817  1
  O2-  O183  1  0.32395559  0.56597660  0.24156934  1
  O2-  O184  1  0.31942534  0.57010135  0.56651166  1
  O2-  O185  1  0.32403313  0.56975594  0.91106495  1
  O2-  O186  1  0.81760475  0.07214899  0.23347906  1
  O2-  O187  1  0.82129098  0.07145612  0.57003635  1
  O2-  O188  1  0.81661960  0.07398319  0.90064311  1
  O2-  O189  1  0.81809643  0.56959578  0.23211989  1
  O2-  O190  1  0.82474644  0.56919953  0.56944363  1
  O2-  O191  1  0.82286021  0.56847662  0.90966748  1
  O2-  O192  1  0.05223204  0.07840594  0.26745314  1
  O2-  O193  1  0.05229657  0.07980988  0.60815418  1
  O2-  O194  1  0.04667004  0.08842019  0.93768185  1
  O2-  O195  1  0.04920777  0.57841874  0.26428400  1
  O2-  O196  1  0.04548712  0.58191605  0.60479224  1
  O2-  O197  1  0.04411739  0.58373563  0.93362296  1
  O2-  O198  1  0.53902633  0.08726011  0.27028199  1
  O2-  O199  1  0.54287208  0.08558628  0.60098373  1
  O2-  O200  1  0.54327182  0.08088479  0.93069681  1
  O2-  O201  1  0.53195130  0.58652975  0.26329173  1
  O2-  O202  1  0.54299549  0.58548223  0.60553946  1
  O2-  O203  1  0.54122986  0.58555341  0.93443484  1
  O2-  O204  1  0.16575712  0.21865382  0.26344018  1
  O2-  O205  1  0.16476131  0.20448449  0.60421938  1
  O2-  O206  1  0.16352803  0.21098227  0.93734275  1
  O2-  O207  1  0.17431104  0.70232380  0.26511358  1
  O2-  O208  1  0.16524505  0.71262035  0.60157309  1
  O2-  O209  1  0.16965351  0.69797993  0.94000983  1
  O2-  O210  1  0.65854432  0.20689006  0.26995758  1
  O2-  O211  1  0.66485533  0.20291404  0.60235138  1
  O2-  O212  1  0.66328182  0.21648126  0.92844598  1
  O2-  O213  1  0.66566439  0.70627130  0.26330644  1
  O2-  O214  1  0.66982047  0.69783362  0.60953986  1
  O2-  O215  1  0.66413045  0.70078387  0.93495636  1
  O2-  O216  1  0.08733532  0.46005892  0.06535518  1
  O2-  O217  1  0.08533319  0.45110051  0.39338656  1
  O2-  O218  1  0.08715840  0.45312707  0.73187959  1
  O2-  O219  1  0.07997732  0.95682940  0.06604309  1
  O2-  O220  1  0.08141375  0.95422507  0.40549633  1
  O2-  O221  1  0.08860083  0.95237039  0.73021221  1
  O2-  O222  1  0.58695700  0.45811156  0.06123088  1
  O2-  O223  1  0.57890727  0.46341995  0.40113641  1
  O2-  O224  1  0.58548129  0.45714128  0.73431364  1
  O2-  O225  1  0.58379497  0.94734721  0.05999232  1
  O2-  O226  1  0.58178617  0.95818890  0.39932435  1
  O2-  O227  1  0.57785036  0.96002640  0.73494316  1
  O2-  O228  1  0.20411630  0.33842793  0.06585711  1
  O2-  O229  1  0.21373390  0.34282734  0.39829234  1
  O2-  O230  1  0.20662735  0.33362014  0.73043702  1
  O2-  O231  1  0.20772480  0.82973982  0.06786388  1
  O2-  O232  1  0.21143242  0.82899652  0.40242522  1
  O2-  O233  1  0.21412370  0.83859247  0.73080492  1
  O2-  O234  1  0.70720194  0.33959547  0.05990547  1
  O2-  O235  1  0.69254617  0.32868750  0.40107494  1
  O2-  O236  1  0.69934784  0.33298083  0.72927621  1
  O2-  O237  1  0.70494655  0.83009980  0.05780754  1
  O2-  O238  1  0.70113786  0.82725580  0.39803604  1
  O2-  O239  1  0.69774670  0.82869238  0.73789577  1
  O2-  O240  1  0.45773807  0.41276454  0.26766563  1
  O2-  O241  1  0.45903246  0.41861975  0.59994840  1
  O2-  O242  1  0.45964112  0.41530308  0.93381298  1
  O2-  O243  1  0.45076565  0.92045654  0.27154327  1
  O2-  O244  1  0.45493115  0.91882032  0.59758914  1
  O2-  O245  1  0.45454492  0.90936062  0.93773662  1
  O2-  O246  1  0.95942398  0.41464951  0.26132444  1
  O2-  O247  1  0.96442147  0.41345255  0.59970265  1
  O2-  O248  1  0.96086092  0.41349156  0.93793473  1
  O2-  O249  1  0.95706986  0.91966315  0.26905229  1
  O2-  O250  1  0.95395410  0.91581034  0.60744036  1
  O2-  O251  1  0.96103187  0.91948072  0.92877397  1
  O2-  O252  1  0.33604249  0.29795281  0.26983382  1
  O2-  O253  1  0.33228479  0.29263823  0.59833936  1
  O2-  O254  1  0.33067605  0.30728773  0.93873496  1
  O2-  O255  1  0.33771072  0.79430926  0.26611918  1
  O2-  O256  1  0.33640513  0.78534390  0.59688211  1
  O2-  O257  1  0.33772412  0.78646920  0.93912791  1
  O2-  O258  1  0.82179141  0.29909900  0.26832650  1
  O2-  O259  1  0.83021718  0.29559108  0.60167747  1
  O2-  O260  1  0.83713030  0.29676525  0.93684257  1
  O2-  O261  1  0.83140487  0.79083911  0.26558485  1
  O2-  O262  1  0.82985094  0.79896824  0.61262515  1
  O2-  O263  1  0.83559773  0.78930897  0.92658337  1
  O2-  O264  1  0.42134343  0.04021551  0.06496533  1
  O2-  O265  1  0.41783139  0.04738810  0.40498634  1
  O2-  O266  1  0.41219373  0.04462464  0.72686746  1
  O2-  O267  1  0.41445914  0.54007332  0.06364466  1
  O2-  O268  1  0.40903900  0.53577351  0.39610486  1
  O2-  O269  1  0.41659981  0.53976637  0.73611643  1
  O2-  O270  1  0.91663187  0.04519921  0.06407560  1
  O2-  O271  1  0.92338828  0.05321789  0.39772532  1
  O2-  O272  1  0.92163811  0.04550181  0.73645344  1
  O2-  O273  1  0.91360657  0.54248111  0.06144337  1
  O2-  O274  1  0.92252146  0.54183415  0.39654509  1
  O2-  O275  1  0.91943395  0.53550358  0.73788701  1
  O2-  O276  1  0.30230479  0.17441653  0.06171110  1
  O2-  O277  1  0.29146874  0.17349542  0.40087148  1
  O2-  O278  1  0.29346934  0.16491390  0.73019137  1
  O2-  O279  1  0.29687665  0.66005899  0.06605800  1
  O2-  O280  1  0.30282726  0.66578492  0.39136080  1
  O2-  O281  1  0.28793810  0.66648083  0.73549337  1
  O2-  O282  1  0.78600855  0.16965212  0.06554061  1
  O2-  O283  1  0.78731998  0.16806267  0.40019382  1
  O2-  O284  1  0.79104907  0.17038235  0.73521777  1
  O2-  O285  1  0.79437741  0.66443597  0.05837910  1
  O2-  O286  1  0.79017209  0.66524240  0.39987802  1
  O2-  O287  1  0.79269461  0.66388820  0.74028394  1
