# generated using pymatgen
data_Ca2Al2SiO7
_symmetry_space_group_name_H-M   'P 1'
_cell_length_a   15.47031227
_cell_length_b   15.47219824
_cell_length_c   15.29347804
_cell_angle_alpha   90.00302722
_cell_angle_beta   90.00779120
_cell_angle_gamma   89.98838661
_symmetry_Int_Tables_number   1
_chemical_formula_structural   Ca2Al2SiO7
_chemical_formula_sum   'Ca48 Al48 Si24 O168'
_cell_volume   3660.64278818
_cell_formula_units_Z   24
loop_
 _symmetry_equiv_pos_site_id
 _symmetry_equiv_pos_as_xyz
  1  'x, y, z'
loop_
 _atom_type_symbol
 _atom_type_oxidation_number
  Ca2+  2.0
  Al0+  0.0
  Si0+  0.0
  O2-  -2.0
loop_
 _atom_site_type_symbol
 _atom_site_label
 _atom_site_symmetry_multiplicity
 _atom_site_fract_x
 _atom_site_fract_y
 _atom_site_fract_z
 _atom_site_occupancy
  Ca2+  Ca0  1  0.16087948  0.08232839  0.17311692  1
  Ca2+  Ca1  1  0.16855324  0.07768042  0.50759570  1
  Ca2+  Ca2  1  0.17170828  0.08536019  0.83385294  1
  Ca2+  Ca3  1  0.16568010  0.57385270  0.16682715  1
  Ca2+  Ca4  1  0.16908684  0.57488924  0.51020602  1
  Ca2+  Ca5  1  0.16709676  0.56912865  0.83554966  1
  Ca2+  Ca6  1  0.67706650  0.09436736  0.16893519  1
  Ca2+  Ca7  1  0.66788014  0.08521763  0.50658241  1
  Ca2+  Ca8  1  0.66814574  0.08296131  0.83579193  1
  Ca2+  Ca9  1  0.67317884  0.58129096  0.16664513  1
  Ca2+  Ca10  1  0.67179354  0.57419321  0.51374276  1
  Ca2+  Ca11  1  0.67188871  0.58131332  0.83182315  1
  Ca2+  Ca12  1  0.08023839  0.32241603  0.16110145  1
  Ca2+  Ca13  1  0.07414848  0.33046008  0.49750758  1
  Ca2+  Ca14  1  0.08242146  0.33241572  0.82792713  1
  Ca2+  Ca15  1  0.07828689  0.83528166  0.16061137  1
  Ca2+  Ca16  1  0.08101253  0.84157978  0.50005876  1
  Ca2+  Ca17  1  0.07051061  0.83459845  0.82597283  1
  Ca2+  Ca18  1  0.57833578  0.32151693  0.15925863  1
  Ca2+  Ca19  1  0.58770098  0.32166417  0.49974849  1
  Ca2+  Ca20  1  0.57832520  0.32533833  0.82147589  1
  Ca2+  Ca21  1  0.58262832  0.83261042  0.16235658  1
  Ca2+  Ca22  1  0.58209614  0.83550491  0.50811381  1
  Ca2+  Ca23  1  0.58382950  0.82858985  0.81774004  1
  Ca2+  Ca24  1  0.32847073  0.40539994  0.16204647  1
  Ca2+  Ca25  1  0.32697503  0.41051391  0.51128311  1
  Ca2+  Ca26  1  0.32417075  0.39854077  0.83550809  1
  Ca2+  Ca27  1  0.32354792  0.92121152  0.17692660  1
  Ca2+  Ca28  1  0.32308278  0.92149808  0.51371754  1
  Ca2+  Ca29  1  0.33538204  0.92162133  0.82928940  1
  Ca2+  Ca30  1  0.83958028  0.42140814  0.16989597  1
  Ca2+  Ca31  1  0.83369406  0.41820841  0.51382957  1
  Ca2+  Ca32  1  0.83343810  0.42476727  0.83195188  1
  Ca2+  Ca33  1  0.83869342  0.93034536  0.16674922  1
  Ca2+  Ca34  1  0.83071993  0.92698008  0.50841973  1
  Ca2+  Ca35  1  0.83150035  0.91740714  0.83724960  1
  Ca2+  Ca36  1  0.42997524  0.16700176  0.15831639  1
  Ca2+  Ca37  1  0.42600473  0.16094153  0.50595060  1
  Ca2+  Ca38  1  0.42542635  0.17146538  0.82646198  1
  Ca2+  Ca39  1  0.41686021  0.67031935  0.16302742  1
  Ca2+  Ca40  1  0.42216863  0.66782778  0.50323557  1
  Ca2+  Ca41  1  0.42435859  0.67440141  0.82175675  1
  Ca2+  Ca42  1  0.92456321  0.16129572  0.16382930  1
  Ca2+  Ca43  1  0.91528537  0.17923777  0.49162995  1
  Ca2+  Ca44  1  0.92284153  0.16650148  0.82937047  1
  Ca2+  Ca45  1  0.91574525  0.67441740  0.15686565  1
  Ca2+  Ca46  1  0.90966228  0.67336968  0.50503920  1
  Ca2+  Ca47  1  0.90716658  0.67370543  0.82626584  1
  Al0+  Al48  1  -0.00113336  -0.00102049  -0.00578456  1
  Al0+  Al49  1  -0.00277931  0.00079288  0.33929326  1
  Al0+  Al50  1  0.00092906  -0.00116835  0.66565524  1
  Al0+  Al51  1  0.00215273  0.49962132  0.01081276  1
  Al0+  Al52  1  0.00152903  0.50373675  0.33110771  1
  Al0+  Al53  1  0.00146738  0.50089144  0.67126462  1
  Al0+  Al54  1  0.49905993  -0.00064508  -0.00094970  1
  Al0+  Al55  1  0.49959100  -0.00126324  0.32776174  1
  Al0+  Al56  1  0.49991546  -0.00080295  0.66704701  1
  Al0+  Al57  1  0.49741927  0.50178253  -0.00177145  1
  Al0+  Al58  1  0.50099106  0.50209103  0.33096479  1
  Al0+  Al59  1  0.49970576  0.49944826  0.66278979  1
  Al0+  Al60  1  0.24933005  0.24652038  0.00090657  1
  Al0+  Al61  1  0.24995558  0.24989379  0.33262393  1
  Al0+  Al62  1  0.25136676  0.24714820  0.67010188  1
  Al0+  Al63  1  0.24841918  0.74792249  0.00012111  1
  Al0+  Al64  1  0.24945174  0.74961372  0.33671938  1
  Al0+  Al65  1  0.24786332  0.74902826  0.66874366  1
  Al0+  Al66  1  0.75142890  0.25029033  0.00113031  1
  Al0+  Al67  1  0.74868717  0.25337788  0.32783917  1
  Al0+  Al68  1  0.75176516  0.25128666  0.66476278  1
  Al0+  Al69  1  0.74876436  0.75000769  0.00277952  1
  Al0+  Al70  1  0.74872365  0.74966283  0.33174995  1
  Al0+  Al71  1  0.75088900  0.75204747  0.66239170  1
  Al0+  Al72  1  0.18084304  0.42851873  0.67930615  1
  Al0+  Al73  1  0.32115365  0.06950955  0.68341778  1
  Al0+  Al74  1  0.42702553  0.32005336  0.65124969  1
  Al0+  Al75  1  0.92916984  0.82210731  0.65120245  1
  Al0+  Al76  1  0.57266278  0.67812240  0.65082908  1
  Al0+  Al77  1  0.17871567  0.92987930  0.34690840  1
  Al0+  Al78  1  0.42939467  0.32013245  0.98527818  1
  Al0+  Al79  1  0.57009385  0.17794917  0.31811803  1
  Al0+  Al80  1  0.17640454  0.92665675  0.68529952  1
  Al0+  Al81  1  0.81924700  0.57092900  0.01496223  1
  Al0+  Al82  1  0.06906518  0.17829194  0.98501085  1
  Al0+  Al83  1  0.81798452  0.07229107  0.34733683  1
  Al0+  Al84  1  0.93165953  0.32159147  0.65666371  1
  Al0+  Al85  1  0.82093546  0.57131235  0.68048475  1
  Al0+  Al86  1  0.82153564  0.07133976  0.01203418  1
  Al0+  Al87  1  0.68104595  0.93153553  0.67812715  1
  Al0+  Al88  1  0.92946058  0.81855520  0.98683877  1
  Al0+  Al89  1  0.06958898  0.17853123  0.32014683  1
  Al0+  Al90  1  0.42691677  0.82108736  0.65169622  1
  Al0+  Al91  1  0.57286273  0.17855588  0.65174629  1
  Al0+  Al92  1  0.18091806  0.42647860  0.01628431  1
  Al0+  Al93  1  0.57463368  0.17805243  0.98296104  1
  Al0+  Al94  1  0.92872975  0.32489612  0.31736828  1
  Al0+  Al95  1  0.67729431  0.42637009  0.68078129  1
  Si0+  Si96  1  0.82214103  0.57299181  0.34853389  1
  Si0+  Si97  1  0.07083463  0.67744872  0.65072768  1
  Si0+  Si98  1  0.67647816  0.92833457  0.01691746  1
  Si0+  Si99  1  0.07245968  0.17755071  0.65065536  1
  Si0+  Si100  1  0.92925644  0.32581276  0.98370026  1
  Si0+  Si101  1  0.92822297  0.82002637  0.31835683  1
  Si0+  Si102  1  0.67912466  0.43239210  0.34620191  1
  Si0+  Si103  1  0.82320281  0.07402889  0.68248016  1
  Si0+  Si104  1  0.17916131  0.92810223  0.01434354  1
  Si0+  Si105  1  0.67519749  0.42885688  0.01678501  1
  Si0+  Si106  1  0.67630431  0.92582124  0.34959025  1
  Si0+  Si107  1  0.07231571  0.67580522  0.98369133  1
  Si0+  Si108  1  0.18005437  0.42921710  0.34860498  1
  Si0+  Si109  1  0.42849614  0.32503715  0.31676013  1
  Si0+  Si110  1  0.32120285  0.06852263  0.01757680  1
  Si0+  Si111  1  0.57057288  0.67826865  0.31536440  1
  Si0+  Si112  1  0.57022194  0.68075305  0.98585237  1
  Si0+  Si113  1  0.32176948  0.57125228  0.34842976  1
  Si0+  Si114  1  0.32173980  0.57463111  0.01795876  1
  Si0+  Si115  1  0.07356948  0.68061210  0.31739605  1
  Si0+  Si116  1  0.32442659  0.07232885  0.34915832  1
  Si0+  Si117  1  0.42753888  0.81867808  0.31802795  1
  Si0+  Si118  1  0.32325373  0.57235716  0.68302428  1
  Si0+  Si119  1  0.42606826  0.82060753  0.98670838  1
  O2-  O120  1  0.25069110  -0.00335026  0.05965628  1
  O2-  O121  1  0.25188881  0.00673757  0.39139094  1
  O2-  O122  1  0.24875088  -0.00206296  0.73485326  1
  O2-  O123  1  0.25703838  0.50183900  0.06194960  1
  O2-  O124  1  0.25470940  0.49685723  0.39026367  1
  O2-  O125  1  0.25987087  0.49884522  0.72668516  1
  O2-  O126  1  0.74246399  0.00009830  0.05995381  1
  O2-  O127  1  0.74120308  -0.00158006  0.39200335  1
  O2-  O128  1  0.75433844  0.00570597  0.72651322  1
  O2-  O129  1  0.74715312  0.49404652  0.06322932  1
  O2-  O130  1  0.75616501  0.49716910  0.38836251  1
  O2-  O131  1  0.74796447  0.50024832  0.72996531  1
  O2-  O132  1  -0.00154342  0.25036391  0.26765538  1
  O2-  O133  1  0.00303248  0.24543502  0.60741810  1
  O2-  O134  1  -0.00515529  0.25414792  0.94012988  1
  O2-  O135  1  0.00112305  0.75066152  0.27584677  1
  O2-  O136  1  0.00604528  0.74904521  0.60474724  1
  O2-  O137  1  0.00041865  0.74045197  0.94013333  1
  O2-  O138  1  0.49285329  0.25187582  0.27379888  1
  O2-  O139  1  0.50266110  0.25256117  0.60091052  1
  O2-  O140  1  0.50622621  0.25417759  0.93547187  1
  O2-  O141  1  0.50096295  0.75105706  0.27347240  1
  O2-  O142  1  0.49819596  0.74847390  0.60090575  1
  O2-  O143  1  0.49891242  0.75174247  0.94560313  1
  O2-  O144  1  0.06891752  0.17657173  0.09836186  1
  O2-  O145  1  0.07056462  0.18135853  0.43323972  1
  O2-  O146  1  0.07137064  0.17838888  0.75647714  1
  O2-  O147  1  0.07436756  0.67966482  0.09002709  1
  O2-  O148  1  0.07578177  0.67790968  0.42183296  1
  O2-  O149  1  0.06916158  0.67591247  0.75612079  1
  O2-  O150  1  0.57104124  0.17772357  0.09729098  1
  O2-  O151  1  0.56993679  0.17714018  0.43046956  1
  O2-  O152  1  0.57281901  0.17848218  0.76477768  1
  O2-  O153  1  0.56956747  0.68216343  0.09186273  1
  O2-  O154  1  0.57038406  0.67499152  0.41933291  1
  O2-  O155  1  0.57207263  0.68131512  0.76497859  1
  O2-  O156  1  0.18085811  0.43077758  0.24352216  1
  O2-  O157  1  0.17988251  0.43173041  0.56552647  1
  O2-  O158  1  0.18074533  0.42886715  0.90368336  1
  O2-  O159  1  0.18112109  0.92705274  0.23293303  1
  O2-  O160  1  0.17693949  0.93005282  0.57121959  1
  O2-  O161  1  0.18148581  0.92700802  0.91025589  1
  O2-  O162  1  0.67626412  0.43790559  0.24100316  1
  O2-  O163  1  0.68141129  0.42651502  0.56635958  1
  O2-  O164  1  0.67356238  0.43288093  0.91204296  1
  O2-  O165  1  0.67792493  0.92080225  0.24384185  1
  O2-  O166  1  0.68327860  0.93263831  0.56460615  1
  O2-  O167  1  0.67638640  0.92446701  0.91193754  1
  O2-  O168  1  0.43039630  0.31628149  0.09987555  1
  O2-  O169  1  0.43036207  0.33075240  0.42141560  1
  O2-  O170  1  0.42676045  0.31615236  0.76438737  1
  O2-  O171  1  0.42541946  0.81845065  0.09262633  1
  O2-  O172  1  0.42634938  0.81605432  0.42206525  1
  O2-  O173  1  0.42936930  0.81850105  0.76590842  1
  O2-  O174  1  0.93270927  0.32686132  0.08950064  1
  O2-  O175  1  0.93167427  0.32740378  0.43087330  1
  O2-  O176  1  0.93391200  0.32183701  0.76966240  1
  O2-  O177  1  0.93326004  0.81912529  0.10088274  1
  O2-  O178  1  0.92666713  0.81730809  0.42291903  1
  O2-  O179  1  0.92837769  0.82046765  0.76426648  1
  O2-  O180  1  0.32617102  0.06818216  0.24306272  1
  O2-  O181  1  0.31888728  0.06864333  0.56918423  1
  O2-  O182  1  0.32263232  0.06695920  0.91328123  1
  O2-  O183  1  0.32039572  0.57437654  0.24333158  1
  O2-  O184  1  0.31887957  0.57428754  0.57676441  1
  O2-  O185  1  0.31961472  0.58359092  0.91374956  1
  O2-  O186  1  0.82020516  0.06755207  0.23399858  1
  O2-  O187  1  0.82277904  0.07329181  0.57658550  1
  O2-  O188  1  0.82401972  0.06664055  0.89960338  1
  O2-  O189  1  0.81963572  0.57650277  0.24323645  1
  O2-  O190  1  0.82153494  0.56905377  0.56610086  1
  O2-  O191  1  0.81671928  0.57367101  0.90296041  1
  O2-  O192  1  0.03934886  0.07919272  0.26818296  1
  O2-  O193  1  0.04866482  0.08368496  0.60537489  1
  O2-  O194  1  0.03842680  0.08323446  0.92922987  1
  O2-  O195  1  0.04588797  0.58981986  0.26760163  1
  O2-  O196  1  0.04212050  0.58580400  0.60203281  1
  O2-  O197  1  0.05059255  0.57975396  0.94318520  1
  O2-  O198  1  0.54225616  0.08052098  0.26241183  1
  O2-  O199  1  0.54118879  0.08129127  0.59869131  1
  O2-  O200  1  0.54269914  0.07890810  0.93394479  1
  O2-  O201  1  0.53987430  0.58897912  0.26397205  1
  O2-  O202  1  0.54514083  0.58035886  0.59596545  1
  O2-  O203  1  0.54337592  0.58930214  0.93899009  1
  O2-  O204  1  0.16992693  0.20442447  0.26752825  1
  O2-  O205  1  0.16558331  0.20364098  0.60562556  1
  O2-  O206  1  0.16630640  0.20786111  0.93359567  1
  O2-  O207  1  0.16481147  0.70897831  0.26848224  1
  O2-  O208  1  0.16558550  0.69849216  0.60501871  1
  O2-  O209  1  0.16483579  0.70337245  0.93714939  1
  O2-  O210  1  0.66429032  0.21311929  0.26225933  1
  O2-  O211  1  0.67130133  0.20631012  0.59805562  1
  O2-  O212  1  0.67574835  0.20016234  0.93426943  1
  O2-  O213  1  0.66241362  0.70681190  0.26712462  1
  O2-  O214  1  0.66821739  0.71038864  0.59498284  1
  O2-  O215  1  0.66136259  0.70925637  0.93961300  1
  O2-  O216  1  0.08736658  0.45961235  0.07544290  1
  O2-  O217  1  0.08951021  0.46329182  0.39448848  1
  O2-  O218  1  0.08785313  0.46430774  0.73625605  1
  O2-  O219  1  0.08737237  0.95762239  0.06040799  1
  O2-  O220  1  0.08177875  0.95657025  0.40078520  1
  O2-  O221  1  0.07771058  0.95596489  0.73669854  1
  O2-  O222  1  0.58276484  0.45940545  0.06434627  1
  O2-  O223  1  0.58954423  0.46685305  0.39380958  1
  O2-  O224  1  0.57772104  0.45361912  0.73135930  1
  O2-  O225  1  0.58118412  0.94966073  0.06316947  1
  O2-  O226  1  0.58000526  0.94718623  0.39120855  1
  O2-  O227  1  0.58381429  0.95628358  0.73246740  1
  O2-  O228  1  0.21316025  0.33034976  0.07158243  1
  O2-  O229  1  0.20367542  0.33623847  0.39523623  1
  O2-  O230  1  0.20786388  0.33166864  0.73348739  1
  O2-  O231  1  0.20523262  0.83513385  0.06232494  1
  O2-  O232  1  0.21112959  0.83349837  0.40053137  1
  O2-  O233  1  0.20146643  0.82680967  0.73636382  1
  O2-  O234  1  0.69773684  0.33401988  0.06160416  1
  O2-  O235  1  0.69966120  0.33829014  0.39037713  1
  O2-  O236  1  0.70868496  0.32975955  0.73472912  1
  O2-  O237  1  0.70421219  0.83619263  0.06600768  1
  O2-  O238  1  0.70466860  0.83273306  0.39560395  1
  O2-  O239  1  0.71243356  0.83506988  0.73136384  1
  O2-  O240  1  0.45750608  0.41719920  0.26783941  1
  O2-  O241  1  0.44543029  0.42151925  0.60105779  1
  O2-  O242  1  0.44508328  0.42352026  0.93801175  1
  O2-  O243  1  0.45205410  0.91025437  0.26816156  1
  O2-  O244  1  0.45721602  0.91769572  0.59766281  1
  O2-  O245  1  0.45074038  0.91292581  0.94098487  1
  O2-  O246  1  0.95962246  0.42372508  0.26482394  1
  O2-  O247  1  0.96446346  0.41774805  0.60257838  1
  O2-  O248  1  0.95935889  0.41920558  0.94043939  1
  O2-  O249  1  0.95568464  0.91249889  0.27310825  1
  O2-  O250  1  0.95968265  0.91852293  0.59597631  1
  O2-  O251  1  0.96270726  0.91200238  0.93082344  1
  O2-  O252  1  0.33292833  0.30272163  0.27315797  1
  O2-  O253  1  0.32971310  0.28701165  0.59753389  1
  O2-  O254  1  0.33239050  0.28557947  0.93557052  1
  O2-  O255  1  0.33715259  0.78634381  0.26909070  1
  O2-  O256  1  0.32750074  0.79249062  0.60046151  1
  O2-  O257  1  0.33517729  0.79094870  0.93969864  1
  O2-  O258  1  0.82883385  0.30348319  0.26529420  1
  O2-  O259  1  0.83585744  0.29349634  0.60024790  1
  O2-  O260  1  0.83322218  0.30579511  0.94223161  1
  O2-  O261  1  0.83728752  0.78963889  0.26987505  1
  O2-  O262  1  0.83540293  0.78977567  0.59350855  1
  O2-  O263  1  0.83081544  0.79009312  0.93656392  1
  O2-  O264  1  0.41288681  0.03943113  0.06620944  1
  O2-  O265  1  0.41669818  0.04144592  0.39441124  1
  O2-  O266  1  0.41829107  0.03861270  0.73681474  1
  O2-  O267  1  0.41675959  0.55356191  0.06430106  1
  O2-  O268  1  0.41577901  0.54773168  0.39317277  1
  O2-  O269  1  0.41932097  0.55512943  0.72556812  1
  O2-  O270  1  0.91659872  0.03285951  0.06665441  1
  O2-  O271  1  0.91229778  0.03993522  0.40395175  1
  O2-  O272  1  0.91661287  0.04669594  0.72692256  1
  O2-  O273  1  0.91669314  0.54514885  0.07120435  1
  O2-  O274  1  0.91698952  0.55273321  0.39260508  1
  O2-  O275  1  0.91819940  0.54352785  0.73521371  1
  O2-  O276  1  0.29196556  0.15875869  0.06624100  1
  O2-  O277  1  0.30377788  0.16799035  0.39229076  1
  O2-  O278  1  0.29170217  0.16613027  0.73857231  1
  O2-  O279  1  0.29065715  0.66570534  0.06933207  1
  O2-  O280  1  0.29077562  0.66087781  0.39755399  1
  O2-  O281  1  0.29316501  0.66332272  0.73159416  1
  O2-  O282  1  0.79752633  0.16953502  0.06765473  1
  O2-  O283  1  0.78954367  0.17170734  0.39664189  1
  O2-  O284  1  0.79958090  0.16720274  0.72863620  1
  O2-  O285  1  0.78456092  0.66622075  0.07196766  1
  O2-  O286  1  0.78883810  0.66328800  0.39558534  1
  O2-  O287  1  0.79163645  0.67023322  0.73027665  1
