# generated using pymatgen
data_Ca2Al2SiO7
_symmetry_space_group_name_H-M   'P 1'
_cell_length_a   15.46014750
_cell_length_b   15.45801784
_cell_length_c   15.28492755
_cell_angle_alpha   89.99512918
_cell_angle_beta   90.01434883
_cell_angle_gamma   89.99810648
_symmetry_Int_Tables_number   1
_chemical_formula_structural   Ca2Al2SiO7
_chemical_formula_sum   'Ca48 Al48 Si24 O168'
_cell_volume   3652.84131627
_cell_formula_units_Z   24
loop_
 _symmetry_equiv_pos_site_id
 _symmetry_equiv_pos_as_xyz
  1  'x, y, z'
loop_
 _atom_type_symbol
 _atom_type_oxidation_number
  Ca2+  2.0
  Al0+  0.0
  Si0+  0.0
  O2-  -2.0
loop_
 _atom_site_type_symbol
 _atom_site_label
 _atom_site_symmetry_multiplicity
 _atom_site_fract_x
 _atom_site_fract_y
 _atom_site_fract_z
 _atom_site_occupancy
  Ca2+  Ca0  1  0.16291262  0.07916591  0.16975546  1
  Ca2+  Ca1  1  0.15906869  0.07637649  0.50735988  1
  Ca2+  Ca2  1  0.17155699  0.08484097  0.83994144  1
  Ca2+  Ca3  1  0.16879196  0.58228201  0.17016162  1
  Ca2+  Ca4  1  0.15740024  0.57955301  0.50775683  1
  Ca2+  Ca5  1  0.16486174  0.56991280  0.83749358  1
  Ca2+  Ca6  1  0.66813070  0.07809577  0.18027559  1
  Ca2+  Ca7  1  0.67153615  0.08289470  0.50283992  1
  Ca2+  Ca8  1  0.67676653  0.08770891  0.83339690  1
  Ca2+  Ca9  1  0.66417363  0.58047964  0.17612111  1
  Ca2+  Ca10  1  0.67410775  0.58020815  0.50153640  1
  Ca2+  Ca11  1  0.67242098  0.58416560  0.83584259  1
  Ca2+  Ca12  1  0.08513488  0.32410287  0.16354051  1
  Ca2+  Ca13  1  0.07569268  0.32455254  0.49747685  1
  Ca2+  Ca14  1  0.08818584  0.32642990  0.82341787  1
  Ca2+  Ca15  1  0.08459985  0.83732005  0.16767310  1
  Ca2+  Ca16  1  0.08483317  0.82725760  0.49196707  1
  Ca2+  Ca17  1  0.09594746  0.82764433  0.82839722  1
  Ca2+  Ca18  1  0.58656906  0.32888779  0.16801300  1
  Ca2+  Ca19  1  0.57854713  0.32944058  0.49323215  1
  Ca2+  Ca20  1  0.57047509  0.33218727  0.82603049  1
  Ca2+  Ca21  1  0.58817100  0.82240011  0.16223332  1
  Ca2+  Ca22  1  0.58318210  0.82976190  0.48992550  1
  Ca2+  Ca23  1  0.57960098  0.82744178  0.83083907  1
  Ca2+  Ca24  1  0.32806132  0.42020595  0.16356505  1
  Ca2+  Ca25  1  0.32653776  0.41738638  0.50776758  1
  Ca2+  Ca26  1  0.32025433  0.41381544  0.83656242  1
  Ca2+  Ca27  1  0.32189196  0.92061685  0.17027470  1
  Ca2+  Ca28  1  0.32146619  0.92440908  0.50655393  1
  Ca2+  Ca29  1  0.32088905  0.92766898  0.83680812  1
  Ca2+  Ca30  1  0.82846084  0.41628147  0.17764311  1
  Ca2+  Ca31  1  0.83377852  0.41411878  0.50634309  1
  Ca2+  Ca32  1  0.84262016  0.42309900  0.83086614  1
  Ca2+  Ca33  1  0.83025475  0.91633427  0.17687280  1
  Ca2+  Ca34  1  0.83068454  0.91746730  0.50083875  1
  Ca2+  Ca35  1  0.83787973  0.92505732  0.83184207  1
  Ca2+  Ca36  1  0.42165497  0.16060073  0.16370294  1
  Ca2+  Ca37  1  0.41411315  0.17112198  0.49892369  1
  Ca2+  Ca38  1  0.41006958  0.16737083  0.82561210  1
  Ca2+  Ca39  1  0.42593904  0.66263351  0.15983252  1
  Ca2+  Ca40  1  0.42256882  0.66986552  0.49168159  1
  Ca2+  Ca41  1  0.41791144  0.66015514  0.83301087  1
  Ca2+  Ca42  1  0.92812264  0.16973277  0.16661419  1
  Ca2+  Ca43  1  0.92227427  0.17110863  0.49662082  1
  Ca2+  Ca44  1  0.92969614  0.17185399  0.82393951  1
  Ca2+  Ca45  1  0.92134264  0.67363482  0.17095137  1
  Ca2+  Ca46  1  0.92560191  0.66963318  0.49633322  1
  Ca2+  Ca47  1  0.92302212  0.66961491  0.82282598  1
  Al0+  Al48  1  -0.00157746  0.00234550  -0.00086901  1
  Al0+  Al49  1  -0.00059315  0.00058567  0.33088949  1
  Al0+  Al50  1  -0.00372547  -0.00337329  0.67236398  1
  Al0+  Al51  1  -0.00206671  0.50201365  0.00680803  1
  Al0+  Al52  1  0.00013836  0.50158076  0.32574754  1
  Al0+  Al53  1  -0.00089049  0.50122416  0.66849301  1
  Al0+  Al54  1  0.50151249  -0.00267344  0.00008787  1
  Al0+  Al55  1  0.49900158  0.00094462  0.33480245  1
  Al0+  Al56  1  0.49899029  -0.00280249  0.67063199  1
  Al0+  Al57  1  0.50211462  0.49844419  -0.00259844  1
  Al0+  Al58  1  0.50025485  0.50023954  0.33432031  1
  Al0+  Al59  1  0.50139674  0.49842687  0.66118918  1
  Al0+  Al60  1  0.25207562  0.24998636  0.00600213  1
  Al0+  Al61  1  0.25049464  0.25305243  0.32947446  1
  Al0+  Al62  1  0.25069814  0.25038310  0.66275689  1
  Al0+  Al63  1  0.25144875  0.75087013  0.00598033  1
  Al0+  Al64  1  0.25173144  0.75118181  0.33342128  1
  Al0+  Al65  1  0.25380698  0.74987695  0.66493803  1
  Al0+  Al66  1  0.75094040  0.25098717  -0.00143912  1
  Al0+  Al67  1  0.74729817  0.25088857  0.33090174  1
  Al0+  Al68  1  0.74787237  0.24909480  0.67044498  1
  Al0+  Al69  1  0.75071058  0.74918748  -0.00636636  1
  Al0+  Al70  1  0.75049963  0.74938945  0.33114499  1
  Al0+  Al71  1  0.74999113  0.74729343  0.67108922  1
  Al0+  Al72  1  0.56868005  0.17925688  0.32151230  1
  Al0+  Al73  1  0.57074764  0.67763406  0.98338733  1
  Al0+  Al74  1  0.17811097  0.93064304  0.34881402  1
  Al0+  Al75  1  0.67878441  0.42838245  0.34782290  1
  Al0+  Al76  1  0.07136161  0.18145653  0.98524879  1
  Al0+  Al77  1  0.82000795  0.07193418  0.68056952  1
  Al0+  Al78  1  0.67801015  0.92719573  0.34556153  1
  Al0+  Al79  1  0.32251491  0.56979521  0.01390737  1
  Al0+  Al80  1  0.07433224  0.67929793  0.31701089  1
  Al0+  Al81  1  0.17674657  0.92657073  0.68050429  1
  Al0+  Al82  1  0.17907983  0.43086932  0.67642624  1
  Al0+  Al83  1  0.92956200  0.82138802  0.32001370  1
  Al0+  Al84  1  0.17665800  0.42836431  0.01694360  1
  Al0+  Al85  1  0.32372996  0.07184596  0.01667146  1
  Al0+  Al86  1  0.07244853  0.68123009  0.65629347  1
  Al0+  Al87  1  0.57003600  0.68002566  0.32071274  1
  Al0+  Al88  1  0.81996414  0.56940990  0.68014003  1
  Al0+  Al89  1  0.31961250  0.07128690  0.68011962  1
  Al0+  Al90  1  0.07195752  0.17903532  0.31796587  1
  Al0+  Al91  1  0.42842840  0.32052956  0.65268757  1
  Al0+  Al92  1  0.17697856  0.93005400  0.01690397  1
  Al0+  Al93  1  0.92707068  0.32177532  0.31873056  1
  Al0+  Al94  1  0.07159551  0.17620694  0.65303865  1
  Al0+  Al95  1  0.92809556  0.32183781  0.65355738  1
  Si0+  Si96  1  0.68037114  0.42975726  0.01434694  1
  Si0+  Si97  1  0.42860524  0.82325638  0.31572384  1
  Si0+  Si98  1  0.82272325  0.57145778  0.34981093  1
  Si0+  Si99  1  0.42770923  0.82161683  0.98147611  1
  Si0+  Si100  1  0.57140882  0.17564942  0.65165090  1
  Si0+  Si101  1  0.43192423  0.31884160  0.98562490  1
  Si0+  Si102  1  0.57325901  0.17593952  0.98457753  1
  Si0+  Si103  1  0.32139488  0.57089482  0.34845801  1
  Si0+  Si104  1  0.82019940  0.57359032  0.01732185  1
  Si0+  Si105  1  0.57221559  0.67875649  0.64996521  1
  Si0+  Si106  1  0.67757065  0.92603115  0.68501062  1
  Si0+  Si107  1  0.92675179  0.32383527  0.98308609  1
  Si0+  Si108  1  0.43084215  0.82082459  0.65049411  1
  Si0+  Si109  1  0.32170052  0.07442116  0.35067766  1
  Si0+  Si110  1  0.32565594  0.57192896  0.68048141  1
  Si0+  Si111  1  0.07211479  0.67980596  0.98563378  1
  Si0+  Si112  1  0.17804686  0.43046187  0.34885188  1
  Si0+  Si113  1  0.92478993  0.82099005  0.65100860  1
  Si0+  Si114  1  0.42804003  0.32391853  0.31379083  1
  Si0+  Si115  1  0.82027084  0.07216278  0.34915121  1
  Si0+  Si116  1  0.68149033  0.92823782  0.01384846  1
  Si0+  Si117  1  0.81910730  0.07262972  0.01661320  1
  Si0+  Si118  1  0.67626887  0.42747955  0.68458062  1
  Si0+  Si119  1  0.92861057  0.82098082  0.98335626  1
  O2-  O120  1  0.24890347  0.00288025  0.06618094  1
  O2-  O121  1  0.24969101  0.00918520  0.39422565  1
  O2-  O122  1  0.24202863  0.00522776  0.73006572  1
  O2-  O123  1  0.24661836  0.50357556  0.06609266  1
  O2-  O124  1  0.24684024  0.50415339  0.39115309  1
  O2-  O125  1  0.25475365  0.50541444  0.72318805  1
  O2-  O126  1  0.74771507  0.00192076  0.05832513  1
  O2-  O127  1  0.75212683  0.00187802  0.39263631  1
  O2-  O128  1  0.74495297  -0.00358655  0.72840030  1
  O2-  O129  1  0.75195662  0.49935556  0.05767201  1
  O2-  O130  1  0.75747819  0.49905639  0.39369645  1
  O2-  O131  1  0.74741920  0.49315595  0.72934417  1
  O2-  O132  1  0.00093744  0.25260528  0.26802108  1
  O2-  O133  1  -0.00243380  0.24740211  0.60443331  1
  O2-  O134  1  0.00045927  0.26081194  0.93982486  1
  O2-  O135  1  0.00444030  0.75378339  0.26744334  1
  O2-  O136  1  0.00078916  0.75921846  0.60983221  1
  O2-  O137  1  0.00369244  0.75339182  0.94263740  1
  O2-  O138  1  0.49429402  0.25216001  0.27071503  1
  O2-  O139  1  0.50167838  0.24317363  0.60803089  1
  O2-  O140  1  0.49806244  0.24248263  0.94314729  1
  O2-  O141  1  0.49878443  0.75619026  0.27110241  1
  O2-  O142  1  0.50174455  0.74958317  0.60780504  1
  O2-  O143  1  0.49380982  0.74984705  0.93619888  1
  O2-  O144  1  0.06665042  0.18038159  0.09808248  1
  O2-  O145  1  0.07059572  0.17857422  0.43130592  1
  O2-  O146  1  0.07220680  0.17974007  0.76698112  1
  O2-  O147  1  0.06931662  0.67954149  0.09031801  1
  O2-  O148  1  0.07197248  0.67830324  0.43076801  1
  O2-  O149  1  0.07040104  0.68016235  0.77003482  1
  O2-  O150  1  0.57611562  0.17772672  0.08942110  1
  O2-  O151  1  0.56765863  0.18010725  0.43445163  1
  O2-  O152  1  0.57173620  0.17760465  0.75790367  1
  O2-  O153  1  0.57242984  0.67929046  0.09627065  1
  O2-  O154  1  0.56794206  0.68045366  0.43410755  1
  O2-  O155  1  0.57146584  0.67900576  0.75530111  1
  O2-  O156  1  0.18114430  0.43051093  0.24386452  1
  O2-  O157  1  0.18001545  0.43321318  0.56316862  1
  O2-  O158  1  0.17769042  0.42855956  0.90301670  1
  O2-  O159  1  0.18123721  0.93086346  0.23590198  1
  O2-  O160  1  0.18142521  0.92456024  0.56699893  1
  O2-  O161  1  0.17913881  0.92875885  0.90352194  1
  O2-  O162  1  0.67812873  0.43118037  0.23396709  1
  O2-  O163  1  0.67399928  0.42986816  0.57931237  1
  O2-  O164  1  0.68003219  0.42994273  0.90921370  1
  O2-  O165  1  0.68011377  0.92821799  0.23191797  1
  O2-  O166  1  0.67717094  0.92368802  0.57964590  1
  O2-  O167  1  0.68321876  0.92854309  0.90851737  1
  O2-  O168  1  0.43667484  0.32165703  0.09048456  1
  O2-  O169  1  0.42829718  0.32479534  0.41946683  1
  O2-  O170  1  0.43119834  0.32301454  0.76616121  1
  O2-  O171  1  0.43233853  0.82308680  0.08674987  1
  O2-  O172  1  0.42980354  0.82034373  0.42179042  1
  O2-  O173  1  0.43277700  0.81988486  0.75550916  1
  O2-  O174  1  0.92029926  0.32017247  0.08809994  1
  O2-  O175  1  0.92763481  0.32049001  0.43212615  1
  O2-  O176  1  0.93065960  0.32215464  0.76752803  1
  O2-  O177  1  0.92336147  0.81874429  0.08794749  1
  O2-  O178  1  0.92710227  0.81873804  0.43343159  1
  O2-  O179  1  0.91896675  0.81680195  0.75688269  1
  O2-  O180  1  0.32467473  0.07158607  0.24526862  1
  O2-  O181  1  0.32572335  0.06725412  0.56698171  1
  O2-  O182  1  0.32471489  0.07102386  0.90327092  1
  O2-  O183  1  0.32412600  0.56817976  0.24361742  1
  O2-  O184  1  0.32830093  0.57144091  0.57472707  1
  O2-  O185  1  0.32277622  0.56563681  0.90014733  1
  O2-  O186  1  0.81733464  0.07135225  0.24293478  1
  O2-  O187  1  0.81593153  0.07198246  0.56777013  1
  O2-  O188  1  0.81671447  0.07264281  0.91136829  1
  O2-  O189  1  0.81904389  0.57254486  0.24371969  1
  O2-  O190  1  0.81645624  0.57228138  0.56764074  1
  O2-  O191  1  0.82032192  0.57418757  0.91202905  1
  O2-  O192  1  0.04109372  0.08223050  0.26382118  1
  O2-  O193  1  0.04124899  0.07586595  0.60505202  1
  O2-  O194  1  0.03569187  0.08574432  0.93182920  1
  O2-  O195  1  0.04383000  0.58324015  0.26070170  1
  O2-  O196  1  0.03629461  0.58691830  0.60206136  1
  O2-  O197  1  0.04035645  0.58757175  0.94048188  1
  O2-  O198  1  0.54028336  0.08208149  0.26599605  1
  O2-  O199  1  0.54916852  0.07997801  0.60868970  1
  O2-  O200  1  0.55210778  0.08210089  0.93811893  1
  O2-  O201  1  0.53671141  0.58406773  0.26666272  1
  O2-  O202  1  0.54594992  0.58707978  0.60223971  1
  O2-  O203  1  0.54256482  0.58043407  0.92885566  1
  O2-  O204  1  0.17045718  0.20840434  0.26476592  1
  O2-  O205  1  0.16880077  0.20432550  0.59898641  1
  O2-  O206  1  0.17141947  0.20883287  0.93664534  1
  O2-  O207  1  0.17411408  0.70478341  0.26572871  1
  O2-  O208  1  0.17098832  0.70480102  0.60220506  1
  O2-  O209  1  0.16582786  0.70438153  0.94048903  1
  O2-  O210  1  0.66354423  0.20997241  0.26403797  1
  O2-  O211  1  0.66397978  0.20309141  0.60559571  1
  O2-  O212  1  0.66319116  0.20946546  0.93560863  1
  O2-  O213  1  0.66646727  0.70790560  0.26571681  1
  O2-  O214  1  0.66409124  0.70797872  0.60436112  1
  O2-  O215  1  0.66589776  0.71249986  0.92775553  1
  O2-  O216  1  0.07755527  0.45452241  0.06988066  1
  O2-  O217  1  0.08457640  0.45721099  0.39280718  1
  O2-  O218  1  0.08490257  0.46261298  0.73383651  1
  O2-  O219  1  0.07675928  0.95772833  0.06697419  1
  O2-  O220  1  0.07920364  0.95699006  0.40008481  1
  O2-  O221  1  0.07462772  0.93966696  0.73067721  1
  O2-  O222  1  0.58961459  0.45818570  0.06227799  1
  O2-  O223  1  0.58316698  0.46229224  0.40215500  1
  O2-  O224  1  0.58421186  0.45927998  0.73154624  1
  O2-  O225  1  0.58825002  0.95016233  0.05999108  1
  O2-  O226  1  0.58134642  0.95698043  0.40024317  1
  O2-  O227  1  0.58428215  0.94982925  0.73272391  1
  O2-  O228  1  0.21114447  0.33325986  0.07187601  1
  O2-  O229  1  0.20879906  0.33906365  0.39544820  1
  O2-  O230  1  0.21219236  0.33523012  0.73011832  1
  O2-  O231  1  0.20563014  0.83165785  0.07004145  1
  O2-  O232  1  0.21226775  0.83351106  0.40081546  1
  O2-  O233  1  0.21616156  0.83088434  0.73412619  1
  O2-  O234  1  0.70694252  0.33674059  0.06108078  1
  O2-  O235  1  0.70426197  0.33036574  0.40111209  1
  O2-  O236  1  0.69513327  0.33285821  0.73104224  1
  O2-  O237  1  0.71322499  0.83647726  0.05916509  1
  O2-  O238  1  0.70910244  0.83095453  0.40018928  1
  O2-  O239  1  0.70534028  0.83362106  0.73293810  1
  O2-  O240  1  0.45866318  0.41565569  0.26739150  1
  O2-  O241  1  0.46186242  0.41550483  0.59572762  1
  O2-  O242  1  0.46635801  0.40719009  0.93556495  1
  O2-  O243  1  0.45169609  0.91745091  0.27113891  1
  O2-  O244  1  0.46006037  0.91194773  0.60259230  1
  O2-  O245  1  0.45950736  0.91306106  0.93322883  1
  O2-  O246  1  0.95129256  0.42061103  0.26474703  1
  O2-  O247  1  0.95611504  0.42007043  0.60128933  1
  O2-  O248  1  0.94633493  0.42165014  0.94281314  1
  O2-  O249  1  0.95196042  0.92022386  0.26561573  1
  O2-  O250  1  0.94005709  0.91737128  0.60857036  1
  O2-  O251  1  0.95070591  0.91506460  0.93789324  1
  O2-  O252  1  0.33420673  0.30206051  0.26727585  1
  O2-  O253  1  0.33379146  0.29242446  0.59463204  1
  O2-  O254  1  0.33821671  0.29604451  0.94052496  1
  O2-  O255  1  0.33667983  0.79503280  0.26895975  1
  O2-  O256  1  0.34084704  0.79247139  0.60031647  1
  O2-  O257  1  0.33308694  0.79771580  0.93707666  1
  O2-  O258  1  0.82904872  0.29300407  0.26479226  1
  O2-  O259  1  0.82645844  0.29641560  0.60547845  1
  O2-  O260  1  0.83478986  0.29401939  0.93432924  1
  O2-  O261  1  0.83313648  0.78878027  0.26384880  1
  O2-  O262  1  0.83346668  0.78768815  0.60404532  1
  O2-  O263  1  0.83981514  0.78847188  0.93212894  1
  O2-  O264  1  0.42336505  0.04081572  0.06795217  1
  O2-  O265  1  0.41405207  0.04623586  0.39812422  1
  O2-  O266  1  0.41710416  0.03857454  0.73536956  1
  O2-  O267  1  0.42052946  0.53595822  0.06618349  1
  O2-  O268  1  0.41138481  0.53963222  0.39792784  1
  O2-  O269  1  0.41902700  0.54417576  0.72647029  1
  O2-  O270  1  0.90997417  0.04344056  0.06334654  1
  O2-  O271  1  0.91368456  0.04724295  0.39426374  1
  O2-  O272  1  0.91358501  0.03959309  0.73991039  1
  O2-  O273  1  0.91182911  0.55069116  0.06665639  1
  O2-  O274  1  0.91863225  0.55013127  0.39244199  1
  O2-  O275  1  0.91532191  0.54074883  0.73782295  1
  O2-  O276  1  0.30291900  0.17126030  0.06968725  1
  O2-  O277  1  0.30089542  0.17125841  0.39240188  1
  O2-  O278  1  0.29806139  0.17199509  0.73059061  1
  O2-  O279  1  0.30187571  0.66968585  0.06647681  1
  O2-  O280  1  0.30010992  0.66473448  0.39482423  1
  O2-  O281  1  0.30465543  0.66631598  0.72598029  1
  O2-  O282  1  0.79053847  0.16460065  0.06316017  1
  O2-  O283  1  0.79054594  0.16437104  0.39450151  1
  O2-  O284  1  0.78650619  0.16636922  0.73899197  1
  O2-  O285  1  0.78767300  0.66462988  0.06299457  1
  O2-  O286  1  0.79176415  0.66289052  0.39645739  1
  O2-  O287  1  0.78577705  0.66367642  0.73859174  1
