# generated using pymatgen
data_Ca2Al2SiO7
_symmetry_space_group_name_H-M   'P 1'
_cell_length_a   15.45726737
_cell_length_b   15.45713034
_cell_length_c   15.28301428
_cell_angle_alpha   89.99408210
_cell_angle_beta   89.98737799
_cell_angle_gamma   89.99651504
_symmetry_Int_Tables_number   1
_chemical_formula_structural   Ca2Al2SiO7
_chemical_formula_sum   'Ca48 Al48 Si24 O168'
_cell_volume   3651.49401929
_cell_formula_units_Z   24
loop_
 _symmetry_equiv_pos_site_id
 _symmetry_equiv_pos_as_xyz
  1  'x, y, z'
loop_
 _atom_type_symbol
 _atom_type_oxidation_number
  Ca2+  2.0
  Al0+  0.0
  Si0+  0.0
  O2-  -2.0
loop_
 _atom_site_type_symbol
 _atom_site_label
 _atom_site_symmetry_multiplicity
 _atom_site_fract_x
 _atom_site_fract_y
 _atom_site_fract_z
 _atom_site_occupancy
  Ca2+  Ca0  1  0.16402335  0.08509794  0.16892275  1
  Ca2+  Ca1  1  0.16963850  0.08071370  0.50321773  1
  Ca2+  Ca2  1  0.16424096  0.08255868  0.83897599  1
  Ca2+  Ca3  1  0.16841085  0.58244921  0.17079176  1
  Ca2+  Ca4  1  0.16832038  0.58102516  0.50259757  1
  Ca2+  Ca5  1  0.17979806  0.58755589  0.83923055  1
  Ca2+  Ca6  1  0.67651312  0.07825279  0.16998245  1
  Ca2+  Ca7  1  0.67539754  0.07953891  0.51047405  1
  Ca2+  Ca8  1  0.66972928  0.07634398  0.83623001  1
  Ca2+  Ca9  1  0.67516597  0.58332039  0.16918629  1
  Ca2+  Ca10  1  0.67565400  0.57877387  0.50086049  1
  Ca2+  Ca11  1  0.67919966  0.59029618  0.83887586  1
  Ca2+  Ca12  1  0.08381929  0.32955304  0.16147803  1
  Ca2+  Ca13  1  0.07827125  0.33710980  0.49861868  1
  Ca2+  Ca14  1  0.07612402  0.32649287  0.83082524  1
  Ca2+  Ca15  1  0.07494525  0.82039517  0.16516107  1
  Ca2+  Ca16  1  0.06964293  0.82438773  0.49303749  1
  Ca2+  Ca17  1  0.07428676  0.82639580  0.82891254  1
  Ca2+  Ca18  1  0.57304028  0.34653900  0.16373686  1
  Ca2+  Ca19  1  0.57722687  0.33728300  0.49607694  1
  Ca2+  Ca20  1  0.57473808  0.33029993  0.82462304  1
  Ca2+  Ca21  1  0.58697537  0.82704663  0.15958481  1
  Ca2+  Ca22  1  0.58121652  0.83788314  0.50296021  1
  Ca2+  Ca23  1  0.58708016  0.83247489  0.82896697  1
  Ca2+  Ca24  1  0.33079481  0.41741591  0.17145121  1
  Ca2+  Ca25  1  0.32983461  0.41530330  0.50328733  1
  Ca2+  Ca26  1  0.34135805  0.42389281  0.83691498  1
  Ca2+  Ca27  1  0.32950370  0.91870771  0.16991892  1
  Ca2+  Ca28  1  0.33122945  0.91301275  0.50953464  1
  Ca2+  Ca29  1  0.33484889  0.91498408  0.83558734  1
  Ca2+  Ca30  1  0.82870511  0.42870996  0.17632771  1
  Ca2+  Ca31  1  0.83579884  0.42754720  0.50699668  1
  Ca2+  Ca32  1  0.83719230  0.42447131  0.83565012  1
  Ca2+  Ca33  1  0.83538225  0.92371453  0.16880249  1
  Ca2+  Ca34  1  0.83553186  0.92322303  0.50947374  1
  Ca2+  Ca35  1  0.82536721  0.92251641  0.83732352  1
  Ca2+  Ca36  1  0.41822787  0.18173331  0.16048525  1
  Ca2+  Ca37  1  0.42858984  0.17430295  0.49742332  1
  Ca2+  Ca38  1  0.42377052  0.17858796  0.82406566  1
  Ca2+  Ca39  1  0.42569438  0.66221711  0.15641731  1
  Ca2+  Ca40  1  0.41378368  0.66809667  0.50180708  1
  Ca2+  Ca41  1  0.42379814  0.66488374  0.82799964  1
  Ca2+  Ca42  1  0.91695571  0.16398548  0.16159055  1
  Ca2+  Ca43  1  0.90716173  0.17008986  0.49925831  1
  Ca2+  Ca44  1  0.91496267  0.16553708  0.82806284  1
  Ca2+  Ca45  1  0.92203676  0.66038385  0.16197116  1
  Ca2+  Ca46  1  0.90833200  0.67614492  0.49306189  1
  Ca2+  Ca47  1  0.91815790  0.66533645  0.82670061  1
  Al0+  Al48  1  0.00086712  -0.00055853  -0.00045836  1
  Al0+  Al49  1  0.00073899  -0.00141522  0.33404465  1
  Al0+  Al50  1  0.00149892  -0.00257935  0.66695950  1
  Al0+  Al51  1  0.00273639  0.49926243  -0.00161619  1
  Al0+  Al52  1  0.00223080  0.49949531  0.33748728  1
  Al0+  Al53  1  0.00315737  0.49641971  0.66841408  1
  Al0+  Al54  1  0.49856290  0.00164432  0.00715481  1
  Al0+  Al55  1  0.50021728  0.00263696  0.33075327  1
  Al0+  Al56  1  0.49914264  -0.00046773  0.66232988  1
  Al0+  Al57  1  0.50002998  0.50400258  -0.00666148  1
  Al0+  Al58  1  0.49893672  0.50200523  0.33359153  1
  Al0+  Al59  1  0.49949590  0.50064688  0.66449701  1
  Al0+  Al60  1  0.24853654  0.25045654  -0.01039309  1
  Al0+  Al61  1  0.25176294  0.25109948  0.33451056  1
  Al0+  Al62  1  0.24943764  0.24887037  0.66380407  1
  Al0+  Al63  1  0.24905779  0.75023955  0.00263808  1
  Al0+  Al64  1  0.24821930  0.75121981  0.32949078  1
  Al0+  Al65  1  0.25101094  0.74801074  0.66760611  1
  Al0+  Al66  1  0.74768648  0.25009861  0.00458043  1
  Al0+  Al67  1  0.74816533  0.24786498  0.33819565  1
  Al0+  Al68  1  0.75154930  0.25012393  0.66290138  1
  Al0+  Al69  1  0.74967824  0.75065304  0.00460447  1
  Al0+  Al70  1  0.74672221  0.75337525  0.33194590  1
  Al0+  Al71  1  0.75057636  0.74963982  0.66899165  1
  Al0+  Al72  1  0.57195942  0.17854608  0.65159424  1
  Al0+  Al73  1  0.67711339  0.92901942  0.01732106  1
  Al0+  Al74  1  0.67654463  0.42962478  0.34794409  1
  Al0+  Al75  1  0.32149116  0.57126435  0.01391251  1
  Al0+  Al76  1  0.92628429  0.82198083  0.31672841  1
  Al0+  Al77  1  0.06876293  0.17815085  0.98707399  1
  Al0+  Al78  1  0.42996496  0.32180364  0.98479329  1
  Al0+  Al79  1  0.18018971  0.42755998  0.34653803  1
  Al0+  Al80  1  0.82296470  0.07231906  0.68285397  1
  Al0+  Al81  1  0.42915596  0.81905556  0.65484370  1
  Al0+  Al82  1  0.42849089  0.32348576  0.64875011  1
  Al0+  Al83  1  0.31985631  0.56978307  0.68040041  1
  Al0+  Al84  1  0.82357172  0.56930690  0.01299255  1
  Al0+  Al85  1  0.07176953  0.67701979  0.98453940  1
  Al0+  Al86  1  0.82168315  0.57217284  0.34821537  1
  Al0+  Al87  1  0.82161413  0.57015062  0.68063825  1
  Al0+  Al88  1  0.82255571  0.06839661  0.34905551  1
  Al0+  Al89  1  0.67714655  0.92941389  0.68161785  1
  Al0+  Al90  1  0.92867084  0.81866323  0.65485842  1
  Al0+  Al91  1  0.93033214  0.32052103  0.65300618  1
  Al0+  Al92  1  0.07038285  0.67664355  0.31786839  1
  Al0+  Al93  1  0.57198386  0.68206950  0.98577371  1
  Al0+  Al94  1  0.43047231  0.32079433  0.31817079  1
  Al0+  Al95  1  0.82222667  0.07214858  0.01576966  1
  Si0+  Si96  1  0.18102603  0.92881097  0.34898288  1
  Si0+  Si97  1  0.67697736  0.42881160  0.01352884  1
  Si0+  Si98  1  0.57314595  0.17728868  0.31288795  1
  Si0+  Si99  1  0.67785594  0.42816553  0.68286106  1
  Si0+  Si100  1  0.18016436  0.92798695  0.68204349  1
  Si0+  Si101  1  0.92759268  0.32053803  0.31985380  1
  Si0+  Si102  1  0.07132081  0.17970623  0.32068380  1
  Si0+  Si103  1  0.31901938  0.07343704  0.01416854  1
  Si0+  Si104  1  0.17892545  0.92889992  0.01621059  1
  Si0+  Si105  1  0.32141783  0.57408209  0.34920820  1
  Si0+  Si106  1  0.32090372  0.07129681  0.34816707  1
  Si0+  Si107  1  0.57176601  0.17649816  0.98484533  1
  Si0+  Si108  1  0.18038779  0.42673642  0.01502222  1
  Si0+  Si109  1  0.92905931  0.82077385  0.98292313  1
  Si0+  Si110  1  0.67485137  0.92907205  0.35152164  1
  Si0+  Si111  1  0.56811909  0.68068359  0.31862755  1
  Si0+  Si112  1  0.42712018  0.82389709  0.31753305  1
  Si0+  Si113  1  0.42704704  0.82441760  0.98619149  1
  Si0+  Si114  1  0.17879669  0.42436113  0.68657690  1
  Si0+  Si115  1  0.07299159  0.67749772  0.65120281  1
  Si0+  Si116  1  0.92554331  0.32201150  0.98677900  1
  Si0+  Si117  1  0.57397505  0.67789154  0.64835310  1
  Si0+  Si118  1  0.32023887  0.07066121  0.68085002  1
  Si0+  Si119  1  0.07196815  0.17546190  0.64827323  1
  O2-  O120  1  0.24989473  0.00103278  0.05794185  1
  O2-  O121  1  0.25391410  -0.00259353  0.39214000  1
  O2-  O122  1  0.24947787  0.00038373  0.72491501  1
  O2-  O123  1  0.24764597  0.49602644  0.06057119  1
  O2-  O124  1  0.25178453  0.50597361  0.39205128  1
  O2-  O125  1  0.24940790  0.49182561  0.72894406  1
  O2-  O126  1  0.75017110  0.00057579  0.06627051  1
  O2-  O127  1  0.74735728  -0.00629166  0.39440041  1
  O2-  O128  1  0.74923380  0.00148042  0.73123839  1
  O2-  O129  1  0.75047585  0.49223974  0.05807361  1
  O2-  O130  1  0.75346273  0.49622016  0.39825170  1
  O2-  O131  1  0.74660950  0.49603280  0.72832439  1
  O2-  O132  1  -0.00125804  0.24879360  0.27785187  1
  O2-  O133  1  0.00175140  0.24237104  0.60483055  1
  O2-  O134  1  -0.01051649  0.24834437  0.94260219  1
  O2-  O135  1  -0.00759684  0.74306632  0.26823955  1
  O2-  O136  1  -0.00143027  0.73946061  0.60724267  1
  O2-  O137  1  -0.00649983  0.74793053  0.93824662  1
  O2-  O138  1  0.50849999  0.25055015  0.26936670  1
  O2-  O139  1  0.50343179  0.25386173  0.60029152  1
  O2-  O140  1  0.50600566  0.24759032  0.94028592  1
  O2-  O141  1  0.49737231  0.75284542  0.27613377  1
  O2-  O142  1  0.50410748  0.74672614  0.60507604  1
  O2-  O143  1  0.49777871  0.75897371  0.94174814  1
  O2-  O144  1  0.07268109  0.18074326  0.10061446  1
  O2-  O145  1  0.07358977  0.17928506  0.42551504  1
  O2-  O146  1  0.07440129  0.17608869  0.75385355  1
  O2-  O147  1  0.07281233  0.67856499  0.09742415  1
  O2-  O148  1  0.07733501  0.68241153  0.43120196  1
  O2-  O149  1  0.07517263  0.68208783  0.75698364  1
  O2-  O150  1  0.56844749  0.17589888  0.09045222  1
  O2-  O151  1  0.56837143  0.17190250  0.41786114  1
  O2-  O152  1  0.56717441  0.17875558  0.76573452  1
  O2-  O153  1  0.56922276  0.68053876  0.09946773  1
  O2-  O154  1  0.56648092  0.68081790  0.42360519  1
  O2-  O155  1  0.57333304  0.67812028  0.75392525  1
  O2-  O156  1  0.18346096  0.42238334  0.23348343  1
  O2-  O157  1  0.17837955  0.42471033  0.58076330  1
  O2-  O158  1  0.18101204  0.42600022  0.90973776  1
  O2-  O159  1  0.18293277  0.93066429  0.24363884  1
  O2-  O160  1  0.18209670  0.92888923  0.57664775  1
  O2-  O161  1  0.18010854  0.92898672  0.91097112  1
  O2-  O162  1  0.67596884  0.43460272  0.23388294  1
  O2-  O163  1  0.67834468  0.43141940  0.57725577  1
  O2-  O164  1  0.67763041  0.42852250  0.90807618  1
  O2-  O165  1  0.67052947  0.93178855  0.24617963  1
  O2-  O166  1  0.67731296  0.93062802  0.56779496  1
  O2-  O167  1  0.67524225  0.93091435  0.90416484  1
  O2-  O168  1  0.42816669  0.32037880  0.09831887  1
  O2-  O169  1  0.42897893  0.31709331  0.43053797  1
  O2-  O170  1  0.42916659  0.32115685  0.76255642  1
  O2-  O171  1  0.42582733  0.82331335  0.09229179  1
  O2-  O172  1  0.42552970  0.82463624  0.42252353  1
  O2-  O173  1  0.42619827  0.81796378  0.76754636  1
  O2-  O174  1  0.92910268  0.32331992  0.09262272  1
  O2-  O175  1  0.92998376  0.31999161  0.42481099  1
  O2-  O176  1  0.93397493  0.32173144  0.76629805  1
  O2-  O177  1  0.93353200  0.82252254  0.08847025  1
  O2-  O178  1  0.93068134  0.82327953  0.43048810  1
  O2-  O179  1  0.93239196  0.81925742  0.76796066  1
  O2-  O180  1  0.31792121  0.07086846  0.24269505  1
  O2-  O181  1  0.31716908  0.06911549  0.57540332  1
  O2-  O182  1  0.31850276  0.07166300  0.90910011  1
  O2-  O183  1  0.32275836  0.57387675  0.24352052  1
  O2-  O184  1  0.31490341  0.57348345  0.56718050  1
  O2-  O185  1  0.32120563  0.57142568  0.90096720  1
  O2-  O186  1  0.82361551  0.06806522  0.23597460  1
  O2-  O187  1  0.82405769  0.06829885  0.56917662  1
  O2-  O188  1  0.82281669  0.07083162  0.90281747  1
  O2-  O189  1  0.82038430  0.56989717  0.23433215  1
  O2-  O190  1  0.82005512  0.57101951  0.56778867  1
  O2-  O191  1  0.82320807  0.56841138  0.89973306  1
  O2-  O192  1  0.04622337  0.08716267  0.27315504  1
  O2-  O193  1  0.05131801  0.08042631  0.60321548  1
  O2-  O194  1  0.04461548  0.08008469  0.93234960  1
  O2-  O195  1  0.04964222  0.57529470  0.26702881  1
  O2-  O196  1  0.05595809  0.58050282  0.61037323  1
  O2-  O197  1  0.04705624  0.57909483  0.93042928  1
  O2-  O198  1  0.54091384  0.08609316  0.26410815  1
  O2-  O199  1  0.53719881  0.08316984  0.59582608  1
  O2-  O200  1  0.54127180  0.08386478  0.93969647  1
  O2-  O201  1  0.53861417  0.59037481  0.26945153  1
  O2-  O202  1  0.54669445  0.58532648  0.60158262  1
  O2-  O203  1  0.53964977  0.58840585  0.92778608  1
  O2-  O204  1  0.16261185  0.20874131  0.27236260  1
  O2-  O205  1  0.16494093  0.20244911  0.60085694  1
  O2-  O206  1  0.16229469  0.21046037  0.92746564  1
  O2-  O207  1  0.16691537  0.71232630  0.26259126  1
  O2-  O208  1  0.16328326  0.71052478  0.60337930  1
  O2-  O209  1  0.16751118  0.71406108  0.93205453  1
  O2-  O210  1  0.66887400  0.19792607  0.26968408  1
  O2-  O211  1  0.67115802  0.20187014  0.59917783  1
  O2-  O212  1  0.66697220  0.19831668  0.94089241  1
  O2-  O213  1  0.65918306  0.70830758  0.26970351  1
  O2-  O214  1  0.66640625  0.70466232  0.60157637  1
  O2-  O215  1  0.66919287  0.71192103  0.93258836  1
  O2-  O216  1  0.08656168  0.45058489  0.06132662  1
  O2-  O217  1  0.08407019  0.45448123  0.40316639  1
  O2-  O218  1  0.08635242  0.45030088  0.73417115  1
  O2-  O219  1  0.08863860  0.95828794  0.06482084  1
  O2-  O220  1  0.09109862  0.95963962  0.39732971  1
  O2-  O221  1  0.08953572  0.95534887  0.73134376  1
  O2-  O222  1  0.58570396  0.46255380  0.05936137  1
  O2-  O223  1  0.58012411  0.46387489  0.40214063  1
  O2-  O224  1  0.58347188  0.45312274  0.72749219  1
  O2-  O225  1  0.57807616  0.95598925  0.07233535  1
  O2-  O226  1  0.58121319  0.95825001  0.39726750  1
  O2-  O227  1  0.57697268  0.95640887  0.73259098  1
  O2-  O228  1  0.20740954  0.33248864  0.05983462  1
  O2-  O229  1  0.21422848  0.33289966  0.40334888  1
  O2-  O230  1  0.20190722  0.32899879  0.73069547  1
  O2-  O231  1  0.20839664  0.83917586  0.06673687  1
  O2-  O232  1  0.20884707  0.83725025  0.39661920  1
  O2-  O233  1  0.21060203  0.83770864  0.73032742  1
  O2-  O234  1  0.69313563  0.33382197  0.06116544  1
  O2-  O235  1  0.69607863  0.32824580  0.39716102  1
  O2-  O236  1  0.70234989  0.33391554  0.72706247  1
  O2-  O237  1  0.70585641  0.83139325  0.07139767  1
  O2-  O238  1  0.69346472  0.83354797  0.39545232  1
  O2-  O239  1  0.70504050  0.83075836  0.73371678  1
  O2-  O240  1  0.45741979  0.41981509  0.26607855  1
  O2-  O241  1  0.45350482  0.42285190  0.59619958  1
  O2-  O242  1  0.46119457  0.41750498  0.93057360  1
  O2-  O243  1  0.45338148  0.91647055  0.26986682  1
  O2-  O244  1  0.45476869  0.91556873  0.59773555  1
  O2-  O245  1  0.44777543  0.92066009  0.94310682  1
  O2-  O246  1  0.95666225  0.41205025  0.27302786  1
  O2-  O247  1  0.96655681  0.41532110  0.59713069  1
  O2-  O248  1  0.95758885  0.41215486  0.93750857  1
  O2-  O249  1  0.96609841  0.91719318  0.26332176  1
  O2-  O250  1  0.96541247  0.91333245  0.60019187  1
  O2-  O251  1  0.96128129  0.91211593  0.93617941  1
  O2-  O252  1  0.33523899  0.28378004  0.26417058  1
  O2-  O253  1  0.32982355  0.29154510  0.59828401  1
  O2-  O254  1  0.33535158  0.28902100  0.92870141  1
  O2-  O255  1  0.33507292  0.79857717  0.26925658  1
  O2-  O256  1  0.33322683  0.78641526  0.59840505  1
  O2-  O257  1  0.33340234  0.79880333  0.94092288  1
  O2-  O258  1  0.83509547  0.29326418  0.27362549  1
  O2-  O259  1  0.83355189  0.29593990  0.59731712  1
  O2-  O260  1  0.82965081  0.30279779  0.94296569  1
  O2-  O261  1  0.82425666  0.80435591  0.26731196  1
  O2-  O262  1  0.83160944  0.79152865  0.60045494  1
  O2-  O263  1  0.83338752  0.79976014  0.94136521  1
  O2-  O264  1  0.40955412  0.04887693  0.06580087  1
  O2-  O265  1  0.41389387  0.04565629  0.39368360  1
  O2-  O266  1  0.41099080  0.04181684  0.72806249  1
  O2-  O267  1  0.41899524  0.54054645  0.06605084  1
  O2-  O268  1  0.41382957  0.54827892  0.39642233  1
  O2-  O269  1  0.41891223  0.54358913  0.73221165  1
  O2-  O270  1  0.92173311  0.04252733  0.06762860  1
  O2-  O271  1  0.92046066  0.03982656  0.40215091  1
  O2-  O272  1  0.92278763  0.04291674  0.73339885  1
  O2-  O273  1  0.92091822  0.53905799  0.06630648  1
  O2-  O274  1  0.92119455  0.54794352  0.40016892  1
  O2-  O275  1  0.91945946  0.53854350  0.73244625  1
  O2-  O276  1  0.28654132  0.16456504  0.06020335  1
  O2-  O277  1  0.28895203  0.16026979  0.39733613  1
  O2-  O278  1  0.29173836  0.16230364  0.72838237  1
  O2-  O279  1  0.29178251  0.66813223  0.06860410  1
  O2-  O280  1  0.29609550  0.66900102  0.39351842  1
  O2-  O281  1  0.28670359  0.66521827  0.73626718  1
  O2-  O282  1  0.79586389  0.17143870  0.06982224  1
  O2-  O283  1  0.79243511  0.16546893  0.40197417  1
  O2-  O284  1  0.79817354  0.17293920  0.73250857  1
  O2-  O285  1  0.79195329  0.66507144  0.06697931  1
  O2-  O286  1  0.78782409  0.67084603  0.39775240  1
  O2-  O287  1  0.79110743  0.66596388  0.73566258  1
