# generated using pymatgen
data_Ca2Al2SiO7
_symmetry_space_group_name_H-M   'P 1'
_cell_length_a   15.46309451
_cell_length_b   15.46254893
_cell_length_c   15.28748119
_cell_angle_alpha   89.98832921
_cell_angle_beta   90.00422420
_cell_angle_gamma   90.00104285
_symmetry_Int_Tables_number   1
_chemical_formula_structural   Ca2Al2SiO7
_chemical_formula_sum   'Ca48 Al48 Si24 O168'
_cell_volume   3655.21916925
_cell_formula_units_Z   24
loop_
 _symmetry_equiv_pos_site_id
 _symmetry_equiv_pos_as_xyz
  1  'x, y, z'
loop_
 _atom_type_symbol
 _atom_type_oxidation_number
  Ca2+  2.0
  Al0+  0.0
  Si0+  0.0
  O2-  -2.0
loop_
 _atom_site_type_symbol
 _atom_site_label
 _atom_site_symmetry_multiplicity
 _atom_site_fract_x
 _atom_site_fract_y
 _atom_site_fract_z
 _atom_site_occupancy
  Ca2+  Ca0  1  0.17595792  0.07730443  0.17021199  1
  Ca2+  Ca1  1  0.17090702  0.08118082  0.50637115  1
  Ca2+  Ca2  1  0.17967476  0.09106924  0.83457295  1
  Ca2+  Ca3  1  0.17338986  0.58078101  0.17337371  1
  Ca2+  Ca4  1  0.16502772  0.57738963  0.49926298  1
  Ca2+  Ca5  1  0.17642277  0.57810887  0.84225055  1
  Ca2+  Ca6  1  0.66965025  0.08524472  0.16887678  1
  Ca2+  Ca7  1  0.67193298  0.08650212  0.50816494  1
  Ca2+  Ca8  1  0.66830294  0.08122877  0.84337204  1
  Ca2+  Ca9  1  0.66440042  0.57937609  0.16708040  1
  Ca2+  Ca10  1  0.65830501  0.58479375  0.50536863  1
  Ca2+  Ca11  1  0.66317972  0.57585546  0.84253353  1
  Ca2+  Ca12  1  0.08234381  0.33652783  0.16554579  1
  Ca2+  Ca13  1  0.08367075  0.32720715  0.49687006  1
  Ca2+  Ca14  1  0.07870728  0.32638146  0.82755559  1
  Ca2+  Ca15  1  0.08061361  0.83335569  0.16125249  1
  Ca2+  Ca16  1  0.08398739  0.83046728  0.48958264  1
  Ca2+  Ca17  1  0.07474308  0.83555679  0.83346754  1
  Ca2+  Ca18  1  0.57719623  0.32361728  0.16056074  1
  Ca2+  Ca19  1  0.57233631  0.32177226  0.49442069  1
  Ca2+  Ca20  1  0.57832233  0.32437851  0.83167378  1
  Ca2+  Ca21  1  0.58408416  0.82924782  0.15898080  1
  Ca2+  Ca22  1  0.59178332  0.82521009  0.49990594  1
  Ca2+  Ca23  1  0.58616894  0.83442888  0.83200375  1
  Ca2+  Ca24  1  0.33653144  0.41731076  0.17046861  1
  Ca2+  Ca25  1  0.33433525  0.40728351  0.50083529  1
  Ca2+  Ca26  1  0.34194524  0.41842508  0.84065326  1
  Ca2+  Ca27  1  0.33731222  0.92209665  0.16719996  1
  Ca2+  Ca28  1  0.32681990  0.92125842  0.50391697  1
  Ca2+  Ca29  1  0.34042344  0.92950218  0.83960171  1
  Ca2+  Ca30  1  0.82345463  0.41727897  0.16468182  1
  Ca2+  Ca31  1  0.83027295  0.42156562  0.50280226  1
  Ca2+  Ca32  1  0.82292952  0.42362526  0.84511500  1
  Ca2+  Ca33  1  0.83118766  0.92392428  0.16529053  1
  Ca2+  Ca34  1  0.82642747  0.92793271  0.50627838  1
  Ca2+  Ca35  1  0.82072240  0.92394791  0.83898755  1
  Ca2+  Ca36  1  0.42380116  0.17303825  0.15582344  1
  Ca2+  Ca37  1  0.42408915  0.16869014  0.49730391  1
  Ca2+  Ca38  1  0.42549220  0.16848421  0.82756794  1
  Ca2+  Ca39  1  0.41778705  0.67245980  0.16036269  1
  Ca2+  Ca40  1  0.42870134  0.66956344  0.49505355  1
  Ca2+  Ca41  1  0.41919711  0.67298439  0.83233370  1
  Ca2+  Ca42  1  0.91716822  0.15782774  0.16198649  1
  Ca2+  Ca43  1  0.91789663  0.15763246  0.49848696  1
  Ca2+  Ca44  1  0.92133303  0.15506140  0.82872672  1
  Ca2+  Ca45  1  0.92300072  0.67020246  0.15720626  1
  Ca2+  Ca46  1  0.92304531  0.67262369  0.49034333  1
  Ca2+  Ca47  1  0.90403151  0.67538894  0.83535166  1
  Al0+  Al48  1  -0.00023531  -0.00266885  -0.00348440  1
  Al0+  Al49  1  -0.00007161  0.00013991  0.34005238  1
  Al0+  Al50  1  -0.00099874  -0.00207506  0.66455864  1
  Al0+  Al51  1  0.00138112  0.49895776  0.00065794  1
  Al0+  Al52  1  0.00177685  0.50065283  0.33348482  1
  Al0+  Al53  1  0.00078524  0.50027691  0.66823975  1
  Al0+  Al54  1  0.50036833  -0.00124383  0.00255158  1
  Al0+  Al55  1  0.50223271  -0.00126781  0.33350496  1
  Al0+  Al56  1  0.49791297  -0.00159316  0.66752312  1
  Al0+  Al57  1  0.49853881  0.49955935  0.00727829  1
  Al0+  Al58  1  0.50068587  0.50076107  0.32776111  1
  Al0+  Al59  1  0.49842549  0.50164727  0.65984675  1
  Al0+  Al60  1  0.24942703  0.24956422  0.00171107  1
  Al0+  Al61  1  0.24790751  0.25121638  0.33399047  1
  Al0+  Al62  1  0.24529496  0.24959770  0.66307694  1
  Al0+  Al63  1  0.25001354  0.74805735  -0.00229928  1
  Al0+  Al64  1  0.25029097  0.74863388  0.33460612  1
  Al0+  Al65  1  0.24923877  0.74779234  0.66696270  1
  Al0+  Al66  1  0.75167224  0.25136090  0.00413029  1
  Al0+  Al67  1  0.75082277  0.25252846  0.33613757  1
  Al0+  Al68  1  0.75124551  0.25386753  0.66780709  1
  Al0+  Al69  1  0.75250078  0.75043919  0.00275352  1
  Al0+  Al70  1  0.75195438  0.75145720  0.32832631  1
  Al0+  Al71  1  0.75128669  0.75195761  0.66400961  1
  Al0+  Al72  1  0.92916561  0.82048277  0.98484904  1
  Al0+  Al73  1  0.57275972  0.17864112  0.98536133  1
  Al0+  Al74  1  0.42823965  0.32105909  0.65172673  1
  Al0+  Al75  1  0.31858033  0.07107603  0.67897371  1
  Al0+  Al76  1  0.81904636  0.07212835  0.34850181  1
  Al0+  Al77  1  0.67704360  0.42853708  0.01628233  1
  Al0+  Al78  1  0.07157047  0.67841551  0.31898920  1
  Al0+  Al79  1  0.57281929  0.68052830  0.31756967  1
  Al0+  Al80  1  0.17871480  0.42954585  0.34873335  1
  Al0+  Al81  1  0.57011238  0.68174925  0.65584117  1
  Al0+  Al82  1  0.82036770  0.07337944  0.68241377  1
  Al0+  Al83  1  0.82276807  0.07092665  0.01494887  1
  Al0+  Al84  1  0.67828964  0.92799431  0.68131012  1
  Al0+  Al85  1  0.42742463  0.32140395  0.98506652  1
  Al0+  Al86  1  0.32157540  0.07153105  0.01333169  1
  Al0+  Al87  1  0.32054595  0.57173403  0.01383879  1
  Al0+  Al88  1  0.06732177  0.17871102  0.65243249  1
  Al0+  Al89  1  0.57314045  0.17632934  0.65273947  1
  Al0+  Al90  1  0.82216754  0.57175132  0.01529978  1
  Al0+  Al91  1  0.42783018  0.82090665  0.98682356  1
  Al0+  Al92  1  0.42692380  0.31851414  0.31659049  1
  Al0+  Al93  1  0.57387265  0.17746819  0.31798808  1
  Al0+  Al94  1  0.18042769  0.92877636  0.34522785  1
  Al0+  Al95  1  0.67763183  0.92912258  0.01665828  1
  Si0+  Si96  1  0.07247217  0.67776124  0.65129945  1
  Si0+  Si97  1  0.32267818  0.07246560  0.34967364  1
  Si0+  Si98  1  0.17821205  0.42705730  0.01643066  1
  Si0+  Si99  1  0.42439060  0.82240244  0.64945759  1
  Si0+  Si100  1  0.07180126  0.67597131  0.98097202  1
  Si0+  Si101  1  0.57194939  0.67863984  0.98528368  1
  Si0+  Si102  1  0.42705920  0.82141482  0.31796985  1
  Si0+  Si103  1  0.92992346  0.32265949  0.31861953  1
  Si0+  Si104  1  0.06960214  0.17804956  0.98641895  1
  Si0+  Si105  1  0.93025974  0.81881543  0.64897137  1
  Si0+  Si106  1  0.67705555  0.43240627  0.67957905  1
  Si0+  Si107  1  0.17829029  0.92816021  0.01353896  1
  Si0+  Si108  1  0.67879197  0.43168611  0.35091223  1
  Si0+  Si109  1  0.17779089  0.42952409  0.68244358  1
  Si0+  Si110  1  0.32343375  0.57127384  0.35242899  1
  Si0+  Si111  1  0.92838886  0.32626342  0.64993220  1
  Si0+  Si112  1  0.92975295  0.32277654  0.98583576  1
  Si0+  Si113  1  0.32119205  0.57012841  0.68107745  1
  Si0+  Si114  1  0.93087441  0.82323244  0.31541798  1
  Si0+  Si115  1  0.17753651  0.92436639  0.68416550  1
  Si0+  Si116  1  0.82259433  0.57118756  0.67945650  1
  Si0+  Si117  1  0.67808821  0.92574330  0.35077642  1
  Si0+  Si118  1  0.06905258  0.17777279  0.31800158  1
  Si0+  Si119  1  0.82134510  0.57178563  0.34796379  1
  O2-  O120  1  0.24885703  -0.00618694  0.05871355  1
  O2-  O121  1  0.25531916  0.00188064  0.39355096  1
  O2-  O122  1  0.24610003  -0.00671005  0.72684698  1
  O2-  O123  1  0.24756628  0.49500250  0.05956046  1
  O2-  O124  1  0.25649742  0.50052899  0.39697801  1
  O2-  O125  1  0.25230953  0.49680926  0.72360223  1
  O2-  O126  1  0.74758035  0.00361393  0.06603364  1
  O2-  O127  1  0.74103511  0.00025534  0.39392208  1
  O2-  O128  1  0.74154870  0.00835272  0.73079389  1
  O2-  O129  1  0.74857936  0.50249874  0.06591553  1
  O2-  O130  1  0.74724502  0.50609113  0.39365045  1
  O2-  O131  1  0.75037263  0.50193931  0.72117118  1
  O2-  O132  1  -0.00207091  0.24868369  0.27579236  1
  O2-  O133  1  -0.01022329  0.25107132  0.60554327  1
  O2-  O134  1  -0.00301493  0.24796102  0.94447128  1
  O2-  O135  1  -0.00026876  0.75457587  0.27166077  1
  O2-  O136  1  0.00359144  0.74953456  0.60751270  1
  O2-  O137  1  0.00096969  0.74233523  0.93657782  1
  O2-  O138  1  0.49656981  0.24389979  0.26837325  1
  O2-  O139  1  0.49869697  0.24681278  0.60331660  1
  O2-  O140  1  0.49869481  0.24907677  0.93563757  1
  O2-  O141  1  0.49877217  0.75619924  0.27351369  1
  O2-  O142  1  0.49793762  0.75788902  0.60682279  1
  O2-  O143  1  0.50479060  0.74803159  0.94021113  1
  O2-  O144  1  0.06959720  0.17791349  0.09176918  1
  O2-  O145  1  0.06804309  0.17827595  0.42311622  1
  O2-  O146  1  0.06867576  0.18250390  0.76581620  1
  O2-  O147  1  0.07230439  0.67642429  0.08646856  1
  O2-  O148  1  0.06742285  0.67875783  0.43287634  1
  O2-  O149  1  0.07312995  0.67682535  0.75599235  1
  O2-  O150  1  0.57169439  0.18039645  0.09885591  1
  O2-  O151  1  0.57454821  0.18031691  0.43182965  1
  O2-  O152  1  0.57376244  0.17950110  0.76583506  1
  O2-  O153  1  0.57031986  0.68004583  0.09094116  1
  O2-  O154  1  0.57210302  0.68148863  0.43128750  1
  O2-  O155  1  0.56822292  0.67804040  0.76839214  1
  O2-  O156  1  0.17507856  0.43277048  0.23608775  1
  O2-  O157  1  0.17344235  0.43294374  0.57765170  1
  O2-  O158  1  0.17485936  0.42820205  0.91049928  1
  O2-  O159  1  0.17938760  0.93168273  0.23228453  1
  O2-  O160  1  0.17849542  0.92202297  0.57827258  1
  O2-  O161  1  0.17676911  0.93050364  0.90788070  1
  O2-  O162  1  0.68198406  0.43145012  0.24641548  1
  O2-  O163  1  0.67864100  0.43514444  0.57416173  1
  O2-  O164  1  0.67897140  0.43069391  0.90173099  1
  O2-  O165  1  0.68084151  0.92136202  0.24588525  1
  O2-  O166  1  0.68615632  0.92124445  0.56781974  1
  O2-  O167  1  0.67989047  0.92785829  0.90312605  1
  O2-  O168  1  0.42586857  0.31916489  0.09824623  1
  O2-  O169  1  0.42861752  0.31706950  0.43046615  1
  O2-  O170  1  0.43126971  0.32517716  0.76468814  1
  O2-  O171  1  0.42577621  0.81742323  0.10000101  1
  O2-  O172  1  0.42495207  0.81900622  0.42378377  1
  O2-  O173  1  0.41867404  0.81782325  0.75452510  1
  O2-  O174  1  0.93355991  0.32634957  0.09096795  1
  O2-  O175  1  0.93161097  0.32528240  0.42383746  1
  O2-  O176  1  0.93390003  0.33495649  0.75487206  1
  O2-  O177  1  0.93556438  0.82189934  0.09776396  1
  O2-  O178  1  0.93111779  0.82017980  0.42155864  1
  O2-  O179  1  0.92991279  0.81646345  0.75383318  1
  O2-  O180  1  0.32001021  0.07184673  0.24406148  1
  O2-  O181  1  0.31471150  0.06871438  0.56556661  1
  O2-  O182  1  0.31776660  0.07323934  0.90023002  1
  O2-  O183  1  0.32068220  0.57297947  0.24704401  1
  O2-  O184  1  0.31877993  0.57278369  0.57627171  1
  O2-  O185  1  0.31820105  0.57197273  0.89994001  1
  O2-  O186  1  0.82334653  0.06911005  0.23606752  1
  O2-  O187  1  0.82217444  0.06850814  0.56862043  1
  O2-  O188  1  0.82586425  0.06804286  0.90185324  1
  O2-  O189  1  0.82283505  0.56841791  0.24368319  1
  O2-  O190  1  0.82557300  0.56933051  0.57398061  1
  O2-  O191  1  0.82099231  0.56894147  0.90077295  1
  O2-  O192  1  0.04051269  0.08587755  0.27153807  1
  O2-  O193  1  0.04120684  0.08044701  0.59832320  1
  O2-  O194  1  0.04353056  0.08711282  0.93692144  1
  O2-  O195  1  0.03822886  0.58317166  0.26483154  1
  O2-  O196  1  0.04205510  0.58634773  0.60401253  1
  O2-  O197  1  0.04900891  0.58111704  0.93558153  1
  O2-  O198  1  0.55415522  0.07502840  0.27018887  1
  O2-  O199  1  0.54647357  0.07660330  0.60071567  1
  O2-  O200  1  0.54522410  0.07916267  0.93570114  1
  O2-  O201  1  0.54274351  0.58437819  0.26401574  1
  O2-  O202  1  0.53649073  0.58830255  0.59665566  1
  O2-  O203  1  0.54405687  0.58479659  0.94166156  1
  O2-  O204  1  0.16056478  0.20573068  0.27087659  1
  O2-  O205  1  0.16062155  0.21330109  0.59477469  1
  O2-  O206  1  0.15998049  0.20920291  0.93843802  1
  O2-  O207  1  0.16943627  0.70605945  0.26698523  1
  O2-  O208  1  0.16450647  0.70303403  0.60274095  1
  O2-  O209  1  0.16376036  0.70408532  0.93302296  1
  O2-  O210  1  0.67133207  0.21276886  0.26728499  1
  O2-  O211  1  0.67204799  0.20860725  0.60131708  1
  O2-  O212  1  0.67235062  0.20912550  0.93516799  1
  O2-  O213  1  0.67027814  0.70814029  0.26399308  1
  O2-  O214  1  0.66782494  0.70881769  0.59999367  1
  O2-  O215  1  0.66701240  0.70068692  0.94107945  1
  O2-  O216  1  0.08548065  0.45385689  0.06362770  1
  O2-  O217  1  0.08338094  0.46447470  0.40466845  1
  O2-  O218  1  0.08821073  0.46209322  0.73265875  1
  O2-  O219  1  0.08667755  0.95734143  0.06098355  1
  O2-  O220  1  0.08543006  0.95957060  0.40287211  1
  O2-  O221  1  0.08311211  0.94986937  0.72747553  1
  O2-  O222  1  0.58085330  0.45653042  0.07224604  1
  O2-  O223  1  0.58630211  0.45964848  0.39667506  1
  O2-  O224  1  0.58644560  0.46471699  0.72586747  1
  O2-  O225  1  0.57886611  0.95160496  0.07050408  1
  O2-  O226  1  0.58187083  0.94256392  0.39554013  1
  O2-  O227  1  0.57471796  0.94100437  0.72755936  1
  O2-  O228  1  0.20052860  0.33363482  0.06366601  1
  O2-  O229  1  0.20396694  0.33105606  0.40293966  1
  O2-  O230  1  0.19930889  0.33608330  0.72804529  1
  O2-  O231  1  0.19970041  0.83284348  0.05706000  1
  O2-  O232  1  0.20872583  0.83152431  0.40086575  1
  O2-  O233  1  0.20112155  0.83000709  0.73015937  1
  O2-  O234  1  0.71174390  0.33370537  0.07196818  1
  O2-  O235  1  0.71141319  0.34241512  0.40025227  1
  O2-  O236  1  0.70350483  0.34128917  0.72782430  1
  O2-  O237  1  0.70985755  0.83152023  0.06897443  1
  O2-  O238  1  0.71149410  0.83381059  0.39784243  1
  O2-  O239  1  0.71623072  0.83190066  0.73499769  1
  O2-  O240  1  0.45652909  0.41768550  0.26690936  1
  O2-  O241  1  0.45720807  0.41859713  0.59607365  1
  O2-  O242  1  0.45597732  0.42188836  0.93606650  1
  O2-  O243  1  0.44821550  0.91667587  0.27414372  1
  O2-  O244  1  0.44321953  0.91685715  0.60367382  1
  O2-  O245  1  0.45645604  0.91758456  0.93323756  1
  O2-  O246  1  0.96212447  0.41217947  0.26988195  1
  O2-  O247  1  0.96172017  0.41687478  0.59990608  1
  O2-  O248  1  0.96159338  0.41223770  0.93484572  1
  O2-  O249  1  0.95920792  0.91671687  0.27174716  1
  O2-  O250  1  0.95747973  0.91004621  0.60075571  1
  O2-  O251  1  0.96469778  0.91397129  0.92706234  1
  O2-  O252  1  0.32538727  0.29672098  0.26674627  1
  O2-  O253  1  0.32773747  0.29593404  0.60150247  1
  O2-  O254  1  0.32669532  0.29617056  0.93405969  1
  O2-  O255  1  0.33511344  0.79256162  0.27079497  1
  O2-  O256  1  0.33277896  0.78998455  0.60114274  1
  O2-  O257  1  0.33245401  0.78796776  0.93060357  1
  O2-  O258  1  0.83708555  0.29875533  0.27285442  1
  O2-  O259  1  0.83236925  0.31009975  0.60590753  1
  O2-  O260  1  0.83676387  0.30083712  0.93948324  1
  O2-  O261  1  0.83821539  0.79738716  0.26910469  1
  O2-  O262  1  0.84112978  0.78761082  0.59856966  1
  O2-  O263  1  0.83293904  0.78906757  0.92967017  1
  O2-  O264  1  0.41607618  0.04053339  0.06917746  1
  O2-  O265  1  0.41711702  0.04783093  0.39475719  1
  O2-  O266  1  0.41545621  0.04302392  0.73299035  1
  O2-  O267  1  0.41583717  0.54550257  0.07084974  1
  O2-  O268  1  0.41853831  0.54707913  0.39630819  1
  O2-  O269  1  0.41353035  0.54380760  0.72752196  1
  O2-  O270  1  0.92083086  0.03684431  0.06718579  1
  O2-  O271  1  0.91464410  0.03812325  0.40391603  1
  O2-  O272  1  0.91813659  0.03675927  0.73262078  1
  O2-  O273  1  0.92095398  0.54108485  0.06651400  1
  O2-  O274  1  0.91136348  0.53967380  0.39728128  1
  O2-  O275  1  0.91354585  0.54319397  0.72855538  1
  O2-  O276  1  0.28542251  0.16554455  0.06917912  1
  O2-  O277  1  0.29259001  0.16455581  0.39534192  1
  O2-  O278  1  0.28140105  0.16639392  0.73180324  1
  O2-  O279  1  0.28580114  0.66674185  0.06881722  1
  O2-  O280  1  0.29532614  0.66366141  0.39985247  1
  O2-  O281  1  0.29018306  0.66068773  0.72986304  1
  O2-  O282  1  0.80387114  0.17186946  0.06583150  1
  O2-  O283  1  0.79535308  0.17128966  0.40194415  1
  O2-  O284  1  0.80747098  0.17759014  0.72941025  1
  O2-  O285  1  0.80030139  0.67065375  0.06808338  1
  O2-  O286  1  0.79877492  0.66631575  0.39310674  1
  O2-  O287  1  0.79612440  0.66368806  0.72449727  1
