# generated using pymatgen
data_Ca2Al2SiO7
_symmetry_space_group_name_H-M   'P 1'
_cell_length_a   15.46270095
_cell_length_b   15.46613280
_cell_length_c   15.28766561
_cell_angle_alpha   89.99152586
_cell_angle_beta   90.00175548
_cell_angle_gamma   89.99729186
_symmetry_Int_Tables_number   1
_chemical_formula_structural   Ca2Al2SiO7
_chemical_formula_sum   'Ca48 Al48 Si24 O168'
_cell_volume   3656.01745899
_cell_formula_units_Z   24
loop_
 _symmetry_equiv_pos_site_id
 _symmetry_equiv_pos_as_xyz
  1  'x, y, z'
loop_
 _atom_type_symbol
 _atom_type_oxidation_number
  Ca2+  2.0
  Al0+  0.0
  Si0+  0.0
  O2-  -2.0
loop_
 _atom_site_type_symbol
 _atom_site_label
 _atom_site_symmetry_multiplicity
 _atom_site_fract_x
 _atom_site_fract_y
 _atom_site_fract_z
 _atom_site_occupancy
  Ca2+  Ca0  1  0.16914734  0.07651705  0.17363753  1
  Ca2+  Ca1  1  0.16533943  0.08558807  0.49826138  1
  Ca2+  Ca2  1  0.16679888  0.07334976  0.83998665  1
  Ca2+  Ca3  1  0.16750374  0.58502487  0.16561530  1
  Ca2+  Ca4  1  0.16900329  0.58335556  0.51158381  1
  Ca2+  Ca5  1  0.17462890  0.58019152  0.84199929  1
  Ca2+  Ca6  1  0.66991864  0.07332470  0.17230533  1
  Ca2+  Ca7  1  0.67934905  0.08062189  0.50721805  1
  Ca2+  Ca8  1  0.67258480  0.07869236  0.83778011  1
  Ca2+  Ca9  1  0.67613474  0.59661694  0.16851285  1
  Ca2+  Ca10  1  0.67126119  0.58630244  0.50437675  1
  Ca2+  Ca11  1  0.66862373  0.58623891  0.83726526  1
  Ca2+  Ca12  1  0.08904015  0.32708281  0.16183643  1
  Ca2+  Ca13  1  0.07617797  0.33421490  0.49750632  1
  Ca2+  Ca14  1  0.07913781  0.34210084  0.82747195  1
  Ca2+  Ca15  1  0.07901682  0.82495135  0.16214005  1
  Ca2+  Ca16  1  0.07879890  0.81994061  0.49384583  1
  Ca2+  Ca17  1  0.09172956  0.81970605  0.83322930  1
  Ca2+  Ca18  1  0.57600573  0.32879415  0.15879412  1
  Ca2+  Ca19  1  0.57690237  0.34176301  0.50174958  1
  Ca2+  Ca20  1  0.57121234  0.34418414  0.82708702  1
  Ca2+  Ca21  1  0.58068818  0.82649953  0.15716188  1
  Ca2+  Ca22  1  0.58353742  0.82042968  0.49602093  1
  Ca2+  Ca23  1  0.58240962  0.82490896  0.83539033  1
  Ca2+  Ca24  1  0.33252763  0.42064675  0.16252005  1
  Ca2+  Ca25  1  0.32384325  0.42215353  0.51246969  1
  Ca2+  Ca26  1  0.32815631  0.42386241  0.83704402  1
  Ca2+  Ca27  1  0.32836237  0.91233353  0.16775016  1
  Ca2+  Ca28  1  0.33495100  0.92443944  0.50162098  1
  Ca2+  Ca29  1  0.33075522  0.91534808  0.84418133  1
  Ca2+  Ca30  1  0.83151894  0.43129840  0.16933767  1
  Ca2+  Ca31  1  0.82726967  0.41955943  0.50680890  1
  Ca2+  Ca32  1  0.82790775  0.41959669  0.83561981  1
  Ca2+  Ca33  1  0.82869490  0.91339570  0.17384419  1
  Ca2+  Ca34  1  0.84662653  0.92599017  0.49978378  1
  Ca2+  Ca35  1  0.82933838  0.92140789  0.83840749  1
  Ca2+  Ca36  1  0.40943624  0.17233624  0.16064748  1
  Ca2+  Ca37  1  0.41121487  0.17472201  0.49542559  1
  Ca2+  Ca38  1  0.41569595  0.18149097  0.82930640  1
  Ca2+  Ca39  1  0.42853165  0.66766699  0.15498556  1
  Ca2+  Ca40  1  0.42792769  0.65526112  0.50015216  1
  Ca2+  Ca41  1  0.42291222  0.65961384  0.83019024  1
  Ca2+  Ca42  1  0.91975241  0.16349271  0.16815077  1
  Ca2+  Ca43  1  0.91524426  0.17017810  0.49573773  1
  Ca2+  Ca44  1  0.91712038  0.17310083  0.82339519  1
  Ca2+  Ca45  1  0.92215698  0.66335406  0.16335708  1
  Ca2+  Ca46  1  0.92742803  0.66584303  0.48990370  1
  Ca2+  Ca47  1  0.93010867  0.65678443  0.83267781  1
  Al0+  Al48  1  0.00206746  0.00045946  0.00331616  1
  Al0+  Al49  1  -0.00011287  -0.00026314  0.33018516  1
  Al0+  Al50  1  0.00106951  0.00075216  0.67235735  1
  Al0+  Al51  1  -0.00044488  0.49809006  0.00455926  1
  Al0+  Al52  1  -0.00211067  0.49847361  0.33305504  1
  Al0+  Al53  1  -0.00131245  0.49861525  0.65891741  1
  Al0+  Al54  1  0.50311609  0.00105118  0.00020453  1
  Al0+  Al55  1  0.49916143  0.00117657  0.33986572  1
  Al0+  Al56  1  0.50146355  0.00007656  0.66731768  1
  Al0+  Al57  1  0.50010075  0.49791647  -0.00343422  1
  Al0+  Al58  1  0.49787426  0.49895781  0.32698820  1
  Al0+  Al59  1  0.50013349  0.49999273  0.66348167  1
  Al0+  Al60  1  0.24937591  0.24964040  -0.00392138  1
  Al0+  Al61  1  0.24823595  0.25017816  0.33339548  1
  Al0+  Al62  1  0.24972489  0.24918335  0.66641562  1
  Al0+  Al63  1  0.25030459  0.75061423  0.00370148  1
  Al0+  Al64  1  0.25081422  0.74928788  0.33347237  1
  Al0+  Al65  1  0.25165717  0.75228727  0.66429118  1
  Al0+  Al66  1  0.75187681  0.25078629  0.00156690  1
  Al0+  Al67  1  0.74701391  0.24895584  0.33531843  1
  Al0+  Al68  1  0.75049066  0.25005094  0.67170667  1
  Al0+  Al69  1  0.75075928  0.75279098  0.00275605  1
  Al0+  Al70  1  0.74966967  0.74880615  0.33348064  1
  Al0+  Al71  1  0.75005058  0.75310428  0.66260439  1
  Al0+  Al72  1  0.17850595  0.42803228  0.01620201  1
  Al0+  Al73  1  0.32294931  0.57103119  0.01613673  1
  Al0+  Al74  1  0.56873095  0.67855412  0.31874048  1
  Al0+  Al75  1  0.07312274  0.67528003  0.31654795  1
  Al0+  Al76  1  0.57307382  0.67935689  0.98363247  1
  Al0+  Al77  1  0.82099352  0.07018821  0.34736362  1
  Al0+  Al78  1  0.42880472  0.82234483  0.98643771  1
  Al0+  Al79  1  0.57086553  0.68000144  0.65213126  1
  Al0+  Al80  1  0.82000954  0.57054963  0.01169495  1
  Al0+  Al81  1  0.92999169  0.82033834  0.31847138  1
  Al0+  Al82  1  0.07104635  0.67925389  0.65450097  1
  Al0+  Al83  1  0.82159567  0.07013583  0.68159177  1
  Al0+  Al84  1  0.32048875  0.57242960  0.68068489  1
  Al0+  Al85  1  0.81995525  0.57061001  0.34841785  1
  Al0+  Al86  1  0.67963658  0.43090493  0.67934252  1
  Al0+  Al87  1  0.42889987  0.31969377  0.65095703  1
  Al0+  Al88  1  0.68013301  0.93089934  0.01409500  1
  Al0+  Al89  1  0.06952772  0.67828529  0.98685130  1
  Al0+  Al90  1  0.42869290  0.31946820  0.98471235  1
  Al0+  Al91  1  0.17935707  0.92748639  0.01511779  1
  Al0+  Al92  1  0.17616556  0.42832713  0.68007071  1
  Al0+  Al93  1  0.06996723  0.18163498  0.31973118  1
  Al0+  Al94  1  0.92746468  0.32044037  0.65312589  1
  Al0+  Al95  1  0.31979702  0.07204976  0.34713813  1
  Si0+  Si96  1  0.18090927  0.93070310  0.68114549  1
  Si0+  Si97  1  0.42914430  0.82550812  0.31823823  1
  Si0+  Si98  1  0.57181412  0.17664652  0.64975442  1
  Si0+  Si99  1  0.17952889  0.42838088  0.34767479  1
  Si0+  Si100  1  0.82327094  0.07375293  0.01818813  1
  Si0+  Si101  1  0.67547378  0.42731308  0.34870273  1
  Si0+  Si102  1  0.92355561  0.32100227  0.31486925  1
  Si0+  Si103  1  0.67647601  0.92715565  0.68473232  1
  Si0+  Si104  1  0.32151603  0.57034396  0.34758482  1
  Si0+  Si105  1  0.32335077  0.07189927  0.68267984  1
  Si0+  Si106  1  0.42807837  0.31879543  0.31720681  1
  Si0+  Si107  1  0.82191284  0.57468924  0.68131658  1
  Si0+  Si108  1  0.42745452  0.82533453  0.64851148  1
  Si0+  Si109  1  0.57542753  0.17872387  0.98317999  1
  Si0+  Si110  1  0.67744087  0.92734390  0.35270489  1
  Si0+  Si111  1  0.57104845  0.17754597  0.31957865  1
  Si0+  Si112  1  0.17832133  0.92716797  0.35193199  1
  Si0+  Si113  1  0.32183246  0.07157825  0.01395404  1
  Si0+  Si114  1  0.67744680  0.42659567  0.01679861  1
  Si0+  Si115  1  0.92919703  0.82419679  0.65226534  1
  Si0+  Si116  1  0.07093534  0.17556999  0.65091861  1
  Si0+  Si117  1  0.92939747  0.32014252  0.98569333  1
  Si0+  Si118  1  0.92869027  0.82413620  0.98274190  1
  Si0+  Si119  1  0.07056215  0.17784340  0.98387008  1
  O2-  O120  1  0.25769215  -0.00010968  0.05962796  1
  O2-  O121  1  0.24767639  -0.00412933  0.39609290  1
  O2-  O122  1  0.25409595  -0.00050081  0.72419605  1
  O2-  O123  1  0.24929822  0.50053712  0.06716165  1
  O2-  O124  1  0.24416018  0.50566661  0.38890907  1
  O2-  O125  1  0.24551522  0.50281053  0.72959730  1
  O2-  O126  1  0.75551691  0.00457729  0.06181666  1
  O2-  O127  1  0.74872245  -0.00593367  0.39620881  1
  O2-  O128  1  0.74649764  -0.00427299  0.72717131  1
  O2-  O129  1  0.74099076  0.50007620  0.05980895  1
  O2-  O130  1  0.74436038  0.49557025  0.39281736  1
  O2-  O131  1  0.75239427  0.50731955  0.72618326  1
  O2-  O132  1  -0.00584424  0.25401606  0.27059653  1
  O2-  O133  1  0.00462577  0.24698629  0.60795724  1
  O2-  O134  1  -0.00047644  0.24856569  0.94259721  1
  O2-  O135  1  -0.00011424  0.74683180  0.26786665  1
  O2-  O136  1  -0.00721025  0.75082850  0.60872348  1
  O2-  O137  1  -0.00396576  0.75424475  0.93854386  1
  O2-  O138  1  0.49881424  0.24665092  0.27614790  1
  O2-  O139  1  0.50291627  0.24408658  0.60330995  1
  O2-  O140  1  0.50708624  0.24738472  0.93906709  1
  O2-  O141  1  0.49579240  0.75560686  0.27415415  1
  O2-  O142  1  0.49453336  0.75429400  0.60584597  1
  O2-  O143  1  0.49633147  0.74724800  0.93444794  1
  O2-  O144  1  0.07064662  0.17760209  0.08901529  1
  O2-  O145  1  0.07103844  0.18526013  0.43285538  1
  O2-  O146  1  0.06871162  0.17106113  0.75653854  1
  O2-  O147  1  0.06650389  0.67888886  0.09948399  1
  O2-  O148  1  0.07382598  0.67726165  0.43066045  1
  O2-  O149  1  0.07178539  0.68027568  0.76761671  1
  O2-  O150  1  0.57633541  0.18025238  0.08922685  1
  O2-  O151  1  0.57148041  0.17903077  0.42439978  1
  O2-  O152  1  0.56844603  0.17473275  0.75526274  1
  O2-  O153  1  0.57349765  0.68299561  0.09732070  1
  O2-  O154  1  0.56630375  0.67708518  0.43210833  1
  O2-  O155  1  0.57303450  0.68200504  0.76454279  1
  O2-  O156  1  0.18405704  0.42371363  0.24295822  1
  O2-  O157  1  0.17801486  0.42778216  0.56570085  1
  O2-  O158  1  0.17739879  0.42795054  0.90303986  1
  O2-  O159  1  0.17993301  0.92824236  0.24654763  1
  O2-  O160  1  0.18019121  0.93317094  0.57609888  1
  O2-  O161  1  0.17730309  0.93194588  0.90148281  1
  O2-  O162  1  0.67547286  0.42413125  0.24322885  1
  O2-  O163  1  0.68056842  0.43120718  0.56590368  1
  O2-  O164  1  0.68097925  0.42207086  0.91147913  1
  O2-  O165  1  0.67547489  0.93116028  0.24714155  1
  O2-  O166  1  0.67359951  0.92853800  0.57928473  1
  O2-  O167  1  0.68272528  0.93357934  0.90081308  1
  O2-  O168  1  0.42916199  0.31533018  0.09863759  1
  O2-  O169  1  0.42836251  0.31950419  0.42222380  1
  O2-  O170  1  0.42926180  0.31764732  0.76362633  1
  O2-  O171  1  0.43243156  0.82402035  0.10030486  1
  O2-  O172  1  0.43110349  0.82770541  0.42401358  1
  O2-  O173  1  0.42745168  0.83026580  0.75340031  1
  O2-  O174  1  0.92758948  0.31727385  0.09071211  1
  O2-  O175  1  0.92311421  0.31955576  0.42050696  1
  O2-  O176  1  0.92719766  0.31861559  0.76658217  1
  O2-  O177  1  0.92981077  0.82563971  0.08809368  1
  O2-  O178  1  0.93462018  0.82113583  0.43261395  1
  O2-  O179  1  0.93057715  0.82711612  0.75765902  1
  O2-  O180  1  0.31804885  0.07352571  0.23430733  1
  O2-  O181  1  0.32273017  0.07181266  0.57743774  1
  O2-  O182  1  0.31835439  0.07202607  0.90806539  1
  O2-  O183  1  0.32524071  0.56729127  0.24298715  1
  O2-  O184  1  0.31940981  0.56947574  0.56603406  1
  O2-  O185  1  0.32257585  0.56908748  0.90276501  1
  O2-  O186  1  0.81663006  0.07146390  0.23442684  1
  O2-  O187  1  0.82232424  0.06819104  0.56842227  1
  O2-  O188  1  0.82276726  0.07478411  0.91248668  1
  O2-  O189  1  0.81902649  0.56883638  0.23520633  1
  O2-  O190  1  0.82056261  0.57347823  0.57563854  1
  O2-  O191  1  0.82208266  0.56588970  0.89846396  1
  O2-  O192  1  0.04222342  0.08444656  0.26592557  1
  O2-  O193  1  0.04212552  0.08339335  0.60314614  1
  O2-  O194  1  0.04223969  0.08614917  0.93595754  1
  O2-  O195  1  0.04534372  0.57574940  0.26609477  1
  O2-  O196  1  0.04288174  0.58359024  0.59782926  1
  O2-  O197  1  0.03636662  0.58111868  0.93479471  1
  O2-  O198  1  0.54443045  0.08476574  0.27359331  1
  O2-  O199  1  0.54800204  0.08262248  0.60293291  1
  O2-  O200  1  0.55096725  0.08551070  0.93687852  1
  O2-  O201  1  0.53747485  0.58282367  0.26333531  1
  O2-  O202  1  0.54022591  0.58425412  0.59625611  1
  O2-  O203  1  0.55056394  0.57815791  0.93440423  1
  O2-  O204  1  0.16563515  0.21409266  0.26418004  1
  O2-  O205  1  0.16603134  0.19701969  0.60660897  1
  O2-  O206  1  0.16204624  0.20322545  0.93518656  1
  O2-  O207  1  0.17277013  0.70426004  0.26649786  1
  O2-  O208  1  0.16645639  0.71395147  0.59949931  1
  O2-  O209  1  0.16664447  0.71020536  0.93547607  1
  O2-  O210  1  0.66132346  0.20638257  0.26955901  1
  O2-  O211  1  0.66600903  0.20310646  0.60647965  1
  O2-  O212  1  0.66973979  0.20369973  0.93774818  1
  O2-  O213  1  0.66608888  0.70854502  0.26764043  1
  O2-  O214  1  0.66715017  0.71258625  0.59648803  1
  O2-  O215  1  0.67080862  0.71297503  0.93185105  1
  O2-  O216  1  0.08004030  0.45232260  0.07054444  1
  O2-  O217  1  0.08413558  0.44757732  0.39131134  1
  O2-  O218  1  0.07509210  0.45270607  0.72871026  1
  O2-  O219  1  0.08474349  0.96309578  0.07049364  1
  O2-  O220  1  0.08552502  0.95586432  0.39694006  1
  O2-  O221  1  0.09142713  0.96088852  0.73144383  1
  O2-  O222  1  0.58186223  0.44477703  0.06038613  1
  O2-  O223  1  0.58088568  0.45402025  0.39273542  1
  O2-  O224  1  0.58291018  0.46077253  0.73210456  1
  O2-  O225  1  0.58473537  0.96343218  0.07042675  1
  O2-  O226  1  0.58542891  0.95587853  0.40069474  1
  O2-  O227  1  0.58377941  0.95454704  0.73206182  1
  O2-  O228  1  0.20957991  0.32838244  0.06690143  1
  O2-  O229  1  0.21334866  0.33984368  0.39755964  1
  O2-  O230  1  0.20432008  0.32886149  0.73143727  1
  O2-  O231  1  0.20687890  0.83253966  0.07236986  1
  O2-  O232  1  0.20475351  0.83369975  0.39876430  1
  O2-  O233  1  0.20778932  0.83890823  0.72824239  1
  O2-  O234  1  0.70833936  0.33491949  0.06574706  1
  O2-  O235  1  0.69958358  0.33386188  0.39624465  1
  O2-  O236  1  0.70912694  0.33500610  0.73512602  1
  O2-  O237  1  0.71029463  0.83576301  0.07027842  1
  O2-  O238  1  0.70107253  0.83319506  0.39721816  1
  O2-  O239  1  0.70375659  0.83408928  0.73042844  1
  O2-  O240  1  0.45666120  0.40886828  0.26743059  1
  O2-  O241  1  0.46121734  0.41476118  0.59522419  1
  O2-  O242  1  0.45809791  0.41529627  0.92995923  1
  O2-  O243  1  0.45410953  0.91974567  0.27293221  1
  O2-  O244  1  0.45602956  0.91845650  0.60101424  1
  O2-  O245  1  0.45944978  0.92104207  0.93334584  1
  O2-  O246  1  0.94855969  0.41482545  0.27020187  1
  O2-  O247  1  0.95478468  0.41536233  0.59397815  1
  O2-  O248  1  0.95788255  0.41093270  0.93802550  1
  O2-  O249  1  0.95673925  0.91856623  0.26426378  1
  O2-  O250  1  0.96266760  0.91574222  0.60553266  1
  O2-  O251  1  0.95568940  0.91842644  0.93765225  1
  O2-  O252  1  0.33739661  0.28872279  0.26987847  1
  O2-  O253  1  0.33223035  0.28691695  0.59676930  1
  O2-  O254  1  0.33387996  0.28502129  0.92924206  1
  O2-  O255  1  0.33406289  0.80190518  0.27536755  1
  O2-  O256  1  0.33369446  0.80377832  0.60092403  1
  O2-  O257  1  0.32762857  0.80136323  0.93685416  1
  O2-  O258  1  0.83034855  0.29318393  0.26904518  1
  O2-  O259  1  0.83165851  0.28630591  0.59930938  1
  O2-  O260  1  0.83725942  0.29293092  0.93764239  1
  O2-  O261  1  0.82976187  0.79539373  0.26855713  1
  O2-  O262  1  0.83393410  0.80738001  0.60622001  1
  O2-  O263  1  0.83462410  0.80080536  0.93776666  1
  O2-  O264  1  0.41792877  0.05414603  0.05766536  1
  O2-  O265  1  0.41649991  0.04504576  0.40422756  1
  O2-  O266  1  0.41616668  0.04674432  0.72897219  1
  O2-  O267  1  0.42128121  0.53820165  0.06829994  1
  O2-  O268  1  0.41123355  0.53473264  0.39518450  1
  O2-  O269  1  0.41830667  0.54060208  0.73079769  1
  O2-  O270  1  0.91740232  0.04950337  0.06297281  1
  O2-  O271  1  0.91908155  0.04169973  0.40025850  1
  O2-  O272  1  0.91743726  0.03983092  0.73787182  1
  O2-  O273  1  0.91268387  0.53392036  0.06913767  1
  O2-  O274  1  0.91700445  0.53909611  0.40211933  1
  O2-  O275  1  0.91518606  0.54533597  0.72486676  1
  O2-  O276  1  0.29057115  0.16307366  0.06057718  1
  O2-  O277  1  0.28565997  0.16749109  0.40247662  1
  O2-  O278  1  0.29385173  0.16249713  0.73070082  1
  O2-  O279  1  0.29728791  0.66966309  0.06897217  1
  O2-  O280  1  0.30211828  0.66471405  0.39382941  1
  O2-  O281  1  0.29793479  0.67366458  0.73011865  1
  O2-  O282  1  0.79742775  0.16717276  0.06478196  1
  O2-  O283  1  0.78754121  0.16645303  0.40142912  1
  O2-  O284  1  0.79006932  0.16511261  0.73755049  1
  O2-  O285  1  0.79387624  0.66817260  0.06561378  1
  O2-  O286  1  0.79012063  0.66715780  0.40288688  1
  O2-  O287  1  0.79885799  0.66975354  0.72520813  1
