# generated using pymatgen
data_Ca2Al2SiO7
_symmetry_space_group_name_H-M   'P 1'
_cell_length_a   15.45905348
_cell_length_b   15.45853483
_cell_length_c   15.28406250
_cell_angle_alpha   89.99554216
_cell_angle_beta   90.00081439
_cell_angle_gamma   89.99132991
_symmetry_Int_Tables_number   1
_chemical_formula_structural   Ca2Al2SiO7
_chemical_formula_sum   'Ca48 Al48 Si24 O168'
_cell_volume   3652.49833797
_cell_formula_units_Z   24
loop_
 _symmetry_equiv_pos_site_id
 _symmetry_equiv_pos_as_xyz
  1  'x, y, z'
loop_
 _atom_type_symbol
 _atom_type_oxidation_number
  Ca2+  2.0
  Al0+  0.0
  Si0+  0.0
  O2-  -2.0
loop_
 _atom_site_type_symbol
 _atom_site_label
 _atom_site_symmetry_multiplicity
 _atom_site_fract_x
 _atom_site_fract_y
 _atom_site_fract_z
 _atom_site_occupancy
  Ca2+  Ca0  1  0.16864693  0.08671484  0.17549350  1
  Ca2+  Ca1  1  0.17399894  0.08300776  0.50807031  1
  Ca2+  Ca2  1  0.16877060  0.08450574  0.83170833  1
  Ca2+  Ca3  1  0.15980289  0.57410590  0.16903222  1
  Ca2+  Ca4  1  0.16117419  0.57181578  0.50339692  1
  Ca2+  Ca5  1  0.17185972  0.57102727  0.84516712  1
  Ca2+  Ca6  1  0.67316136  0.08717511  0.17313854  1
  Ca2+  Ca7  1  0.67935637  0.08268948  0.51100007  1
  Ca2+  Ca8  1  0.66097741  0.08254803  0.83469932  1
  Ca2+  Ca9  1  0.67039449  0.59068811  0.16569102  1
  Ca2+  Ca10  1  0.66800992  0.58290788  0.50298553  1
  Ca2+  Ca11  1  0.67066171  0.58470170  0.84346294  1
  Ca2+  Ca12  1  0.09349182  0.32509277  0.16507261  1
  Ca2+  Ca13  1  0.09383151  0.32234122  0.49787691  1
  Ca2+  Ca14  1  0.09116750  0.32661034  0.82964915  1
  Ca2+  Ca15  1  0.07895493  0.82301818  0.16407444  1
  Ca2+  Ca16  1  0.08247656  0.83099399  0.49145103  1
  Ca2+  Ca17  1  0.09044324  0.82631274  0.82852257  1
  Ca2+  Ca18  1  0.57531033  0.32747111  0.16112498  1
  Ca2+  Ca19  1  0.56947738  0.32702710  0.49778250  1
  Ca2+  Ca20  1  0.57768115  0.32285478  0.82411835  1
  Ca2+  Ca21  1  0.57505411  0.83169353  0.16323842  1
  Ca2+  Ca22  1  0.57308763  0.84595182  0.50210543  1
  Ca2+  Ca23  1  0.57954656  0.82854977  0.82663280  1
  Ca2+  Ca24  1  0.32479421  0.42000002  0.17168803  1
  Ca2+  Ca25  1  0.32590132  0.41023563  0.50381496  1
  Ca2+  Ca26  1  0.32573770  0.41445599  0.83724642  1
  Ca2+  Ca27  1  0.33354710  0.92395793  0.17490215  1
  Ca2+  Ca28  1  0.33309466  0.92491500  0.50848159  1
  Ca2+  Ca29  1  0.33439798  0.91966890  0.82859624  1
  Ca2+  Ca30  1  0.83434471  0.42228283  0.16719711  1
  Ca2+  Ca31  1  0.83262263  0.41872052  0.50360126  1
  Ca2+  Ca32  1  0.83138599  0.42206777  0.84006939  1
  Ca2+  Ca33  1  0.83201144  0.91998341  0.17575213  1
  Ca2+  Ca34  1  0.83303124  0.92495744  0.50635280  1
  Ca2+  Ca35  1  0.82851116  0.92312031  0.83080135  1
  Ca2+  Ca36  1  0.41320259  0.17296422  0.16513496  1
  Ca2+  Ca37  1  0.40745814  0.17246425  0.49773362  1
  Ca2+  Ca38  1  0.42396391  0.16958795  0.82244525  1
  Ca2+  Ca39  1  0.41598558  0.67155034  0.16023575  1
  Ca2+  Ca40  1  0.41317626  0.68290677  0.49572668  1
  Ca2+  Ca41  1  0.41705550  0.66719098  0.82968631  1
  Ca2+  Ca42  1  0.92895757  0.16246182  0.16445769  1
  Ca2+  Ca43  1  0.92763472  0.15556326  0.49717947  1
  Ca2+  Ca44  1  0.92812369  0.16328433  0.82746000  1
  Ca2+  Ca45  1  0.92480554  0.66691984  0.16333357  1
  Ca2+  Ca46  1  0.92447517  0.67730237  0.49000068  1
  Ca2+  Ca47  1  0.92116022  0.66296532  0.83373664  1
  Al0+  Al48  1  -0.00118190  0.00031748  -0.00395322  1
  Al0+  Al49  1  -0.00022082  -0.00100870  0.32816953  1
  Al0+  Al50  1  -0.00041150  -0.00205985  0.67188745  1
  Al0+  Al51  1  -0.00181533  0.50020625  0.00481949  1
  Al0+  Al52  1  -0.00125382  0.49824300  0.33643436  1
  Al0+  Al53  1  0.00104673  0.49883113  0.67077309  1
  Al0+  Al54  1  0.49945290  0.00049189  -0.00142101  1
  Al0+  Al55  1  0.50085170  0.00088403  0.33213741  1
  Al0+  Al56  1  0.50256941  -0.00163783  0.66772140  1
  Al0+  Al57  1  0.49873803  0.50127009  -0.00026683  1
  Al0+  Al58  1  0.49899125  0.49948414  0.32986648  1
  Al0+  Al59  1  0.50163286  0.49963654  0.66190062  1
  Al0+  Al60  1  0.25002838  0.24899746  -0.00086539  1
  Al0+  Al61  1  0.25059956  0.25110263  0.33190581  1
  Al0+  Al62  1  0.24956899  0.24958866  0.66874093  1
  Al0+  Al63  1  0.24780501  0.75185982  -0.00079046  1
  Al0+  Al64  1  0.25141629  0.74841984  0.32321335  1
  Al0+  Al65  1  0.25162927  0.74841404  0.66447480  1
  Al0+  Al66  1  0.75036008  0.24941780  -0.00239383  1
  Al0+  Al67  1  0.75084823  0.25098341  0.33911017  1
  Al0+  Al68  1  0.75220128  0.25284874  0.66765721  1
  Al0+  Al69  1  0.74751601  0.75168404  0.00131973  1
  Al0+  Al70  1  0.74927082  0.75039181  0.33248210  1
  Al0+  Al71  1  0.75236387  0.75093547  0.66937054  1
  Al0+  Al72  1  0.18023021  0.42933029  0.68145676  1
  Al0+  Al73  1  0.81888570  0.57209515  0.01502836  1
  Al0+  Al74  1  0.57165559  0.17952463  0.98722168  1
  Al0+  Al75  1  0.82214980  0.07385356  0.68438879  1
  Al0+  Al76  1  0.17943972  0.43081942  0.34901329  1
  Al0+  Al77  1  0.32116197  0.07112840  0.68216441  1
  Al0+  Al78  1  0.32207493  0.57364000  0.01534402  1
  Al0+  Al79  1  0.07154871  0.17882604  0.98469270  1
  Al0+  Al80  1  0.42936442  0.81929681  0.65363768  1
  Al0+  Al81  1  0.42838720  0.32024846  0.65123156  1
  Al0+  Al82  1  0.56960905  0.68001706  0.98694061  1
  Al0+  Al83  1  0.92807228  0.82159465  0.31847481  1
  Al0+  Al84  1  0.06991787  0.18069472  0.32143143  1
  Al0+  Al85  1  0.17973821  0.42763879  0.01733261  1
  Al0+  Al86  1  0.42986066  0.82353616  0.31884646  1
  Al0+  Al87  1  0.42841173  0.32056446  0.31728009  1
  Al0+  Al88  1  0.06882710  0.17842614  0.65325459  1
  Al0+  Al89  1  0.82250884  0.07052921  0.34619655  1
  Al0+  Al90  1  0.06943764  0.67877396  0.98448561  1
  Al0+  Al91  1  0.32050178  0.07053201  0.34563962  1
  Al0+  Al92  1  0.67942087  0.92918265  0.68303384  1
  Al0+  Al93  1  0.07103236  0.67565014  0.31830946  1
  Al0+  Al94  1  0.17848900  0.92604892  0.68027530  1
  Al0+  Al95  1  0.57383288  0.17717089  0.65016975  1
  Si0+  Si96  1  0.57565601  0.67820293  0.64956304  1
  Si0+  Si97  1  0.42667705  0.82339672  0.98198528  1
  Si0+  Si98  1  0.17898718  0.92595313  0.34563520  1
  Si0+  Si99  1  0.92743203  0.32190835  0.98428956  1
  Si0+  Si100  1  0.67781485  0.93084766  0.01691362  1
  Si0+  Si101  1  0.81950902  0.57131950  0.34960992  1
  Si0+  Si102  1  0.57435787  0.17974742  0.31801445  1
  Si0+  Si103  1  0.17604563  0.92952538  0.01601697  1
  Si0+  Si104  1  0.57138855  0.67687027  0.31683607  1
  Si0+  Si105  1  0.92922176  0.81879586  0.65290478  1
  Si0+  Si106  1  0.82132372  0.07143701  0.01601291  1
  Si0+  Si107  1  0.82096388  0.57095326  0.68133352  1
  Si0+  Si108  1  0.32369958  0.57233916  0.68065093  1
  Si0+  Si109  1  0.67759035  0.42632433  0.01636917  1
  Si0+  Si110  1  0.67803881  0.92702514  0.34963172  1
  Si0+  Si111  1  0.07123703  0.67700737  0.65307601  1
  Si0+  Si112  1  0.92654383  0.82222231  0.98081677  1
  Si0+  Si113  1  0.42817091  0.32177119  0.98334696  1
  Si0+  Si114  1  0.67799888  0.43067587  0.68150081  1
  Si0+  Si115  1  0.32421182  0.57339343  0.35048922  1
  Si0+  Si116  1  0.67669395  0.42914694  0.34884459  1
  Si0+  Si117  1  0.92445398  0.32247794  0.31728786  1
  Si0+  Si118  1  0.32106527  0.06867070  0.01501098  1
  Si0+  Si119  1  0.92893081  0.32540695  0.65040311  1
  O2-  O120  1  0.24763093  0.00022330  0.05786170  1
  O2-  O121  1  0.24792967  -0.00685470  0.39086305  1
  O2-  O122  1  0.24876314  -0.00108911  0.73228808  1
  O2-  O123  1  0.24985148  0.50242271  0.06639943  1
  O2-  O124  1  0.25283217  0.50784553  0.39521689  1
  O2-  O125  1  0.25740090  0.50235180  0.72576087  1
  O2-  O126  1  0.74890862  0.00195540  0.05879470  1
  O2-  O127  1  0.74819333  -0.00501249  0.39188650  1
  O2-  O128  1  0.74507844  0.00671483  0.73455472  1
  O2-  O129  1  0.74326402  0.49763931  0.06198680  1
  O2-  O130  1  0.74743592  0.50119940  0.39151872  1
  O2-  O131  1  0.74858330  0.50192323  0.72402741  1
  O2-  O132  1  -0.00692971  0.25361651  0.27414119  1
  O2-  O133  1  -0.00664703  0.25301519  0.60663538  1
  O2-  O134  1  -0.00201331  0.25573528  0.94005611  1
  O2-  O135  1  -0.00043518  0.74906903  0.26900146  1
  O2-  O136  1  0.00386340  0.75140087  0.61089615  1
  O2-  O137  1  -0.00465000  0.75372953  0.93598098  1
  O2-  O138  1  0.50368037  0.24534871  0.27220925  1
  O2-  O139  1  0.49716541  0.24461816  0.60061789  1
  O2-  O140  1  0.49953903  0.25567650  0.94015909  1
  O2-  O141  1  0.50316133  0.74638459  0.27383381  1
  O2-  O142  1  0.50639475  0.74614274  0.60624160  1
  O2-  O143  1  0.49142778  0.74990757  0.93945667  1
  O2-  O144  1  0.07016620  0.17677079  0.09799470  1
  O2-  O145  1  0.06995004  0.18016723  0.43428370  1
  O2-  O146  1  0.06813164  0.18106247  0.76647970  1
  O2-  O147  1  0.06654198  0.68017900  0.09717096  1
  O2-  O148  1  0.06780011  0.67616121  0.43271190  1
  O2-  O149  1  0.06813729  0.67571709  0.75811642  1
  O2-  O150  1  0.57186151  0.18053919  0.10061013  1
  O2-  O151  1  0.57708334  0.18258753  0.42289642  1
  O2-  O152  1  0.57229759  0.18254179  0.76418728  1
  O2-  O153  1  0.57239117  0.68604931  0.09992595  1
  O2-  O154  1  0.57267513  0.67453500  0.42238196  1
  O2-  O155  1  0.57701882  0.67713676  0.75509429  1
  O2-  O156  1  0.18051441  0.43005958  0.23624396  1
  O2-  O157  1  0.17735012  0.43193280  0.56835556  1
  O2-  O158  1  0.18218815  0.42692952  0.90360229  1
  O2-  O159  1  0.17973999  0.92845701  0.23957973  1
  O2-  O160  1  0.17850337  0.92408744  0.56649400  1
  O2-  O161  1  0.17625156  0.92897836  0.91120744  1
  O2-  O162  1  0.67809800  0.42877498  0.24381741  1
  O2-  O163  1  0.67891745  0.43329942  0.57609566  1
  O2-  O164  1  0.68081497  0.42647223  0.91066318  1
  O2-  O165  1  0.67808224  0.92692993  0.24346254  1
  O2-  O166  1  0.68568394  0.92433710  0.56960909  1
  O2-  O167  1  0.67764078  0.93026048  0.91230034  1
  O2-  O168  1  0.42842267  0.31912914  0.08923846  1
  O2-  O169  1  0.42942805  0.32094319  0.42989461  1
  O2-  O170  1  0.43254276  0.32354590  0.76495538  1
  O2-  O171  1  0.43051640  0.82701873  0.08774349  1
  O2-  O172  1  0.43129295  0.82365007  0.43180106  1
  O2-  O173  1  0.42910723  0.81406486  0.76667949  1
  O2-  O174  1  0.92269328  0.31865400  0.08980874  1
  O2-  O175  1  0.92190924  0.32435024  0.42264180  1
  O2-  O176  1  0.93014219  0.33088847  0.75584900  1
  O2-  O177  1  0.92774325  0.82311307  0.08636926  1
  O2-  O178  1  0.92798175  0.81956953  0.43252537  1
  O2-  O179  1  0.92568516  0.81427105  0.75784315  1
  O2-  O180  1  0.31929421  0.07001630  0.23161207  1
  O2-  O181  1  0.31824480  0.07043865  0.56840625  1
  O2-  O182  1  0.32318724  0.06687302  0.91042104  1
  O2-  O183  1  0.32707108  0.57100805  0.24520387  1
  O2-  O184  1  0.32127788  0.57476280  0.57511289  1
  O2-  O185  1  0.32128243  0.57167212  0.90134917  1
  O2-  O186  1  0.81934237  0.07097081  0.23237471  1
  O2-  O187  1  0.82422199  0.06846614  0.57067500  1
  O2-  O188  1  0.82152728  0.07028294  0.91145084  1
  O2-  O189  1  0.81836126  0.57124265  0.24471483  1
  O2-  O190  1  0.82044877  0.57059193  0.57593533  1
  O2-  O191  1  0.81748288  0.56998119  0.90142450  1
  O2-  O192  1  0.04104775  0.08451641  0.26515894  1
  O2-  O193  1  0.03864012  0.07997397  0.60224310  1
  O2-  O194  1  0.03795031  0.08318749  0.93037184  1
  O2-  O195  1  0.03622275  0.57853818  0.26661571  1
  O2-  O196  1  0.03765184  0.58697588  0.60555413  1
  O2-  O197  1  0.03644040  0.58142751  0.93283937  1
  O2-  O198  1  0.55303444  0.08498689  0.27289579  1
  O2-  O199  1  0.55609927  0.07512618  0.60249647  1
  O2-  O200  1  0.53929391  0.08333844  0.93395079  1
  O2-  O201  1  0.54754696  0.58397490  0.26883598  1
  O2-  O202  1  0.55214213  0.58463460  0.60248404  1
  O2-  O203  1  0.54639025  0.58092609  0.93334264  1
  O2-  O204  1  0.16458040  0.21411215  0.26564515  1
  O2-  O205  1  0.16544249  0.21023527  0.60096895  1
  O2-  O206  1  0.16892924  0.20752180  0.93166296  1
  O2-  O207  1  0.16924226  0.69932740  0.26374697  1
  O2-  O208  1  0.16378866  0.69976516  0.60592982  1
  O2-  O209  1  0.16616650  0.71037283  0.93087115  1
  O2-  O210  1  0.66707316  0.20985931  0.27126920  1
  O2-  O211  1  0.67199181  0.21154760  0.59948221  1
  O2-  O212  1  0.66877554  0.20719791  0.93267453  1
  O2-  O213  1  0.66518208  0.70278854  0.27107642  1
  O2-  O214  1  0.66973357  0.70406862  0.60382205  1
  O2-  O215  1  0.66535168  0.71365652  0.93208315  1
  O2-  O216  1  0.07967108  0.45311855  0.06799714  1
  O2-  O217  1  0.08129998  0.45810718  0.40321221  1
  O2-  O218  1  0.08429364  0.46175158  0.73666853  1
  O2-  O219  1  0.08352585  0.95764016  0.06216273  1
  O2-  O220  1  0.08454589  0.95037606  0.38985212  1
  O2-  O221  1  0.08025385  0.94966075  0.73541775  1
  O2-  O222  1  0.58283804  0.44894521  0.06058029  1
  O2-  O223  1  0.58550314  0.45855941  0.39659811  1
  O2-  O224  1  0.58664732  0.45854207  0.72961407  1
  O2-  O225  1  0.58586831  0.95919526  0.06459861  1
  O2-  O226  1  0.58524223  0.95459190  0.39531273  1
  O2-  O227  1  0.57973959  0.94874896  0.73650315  1
  O2-  O228  1  0.21125512  0.32896086  0.06916134  1
  O2-  O229  1  0.21453018  0.33507388  0.40134310  1
  O2-  O230  1  0.20983654  0.33347052  0.73584201  1
  O2-  O231  1  0.20251162  0.83768256  0.06369876  1
  O2-  O232  1  0.20233093  0.83032266  0.38842628  1
  O2-  O233  1  0.20957289  0.82756345  0.73356062  1
  O2-  O234  1  0.70693606  0.33397728  0.06388130  1
  O2-  O235  1  0.70584495  0.33948502  0.39929883  1
  O2-  O236  1  0.70645615  0.34020643  0.73042520  1
  O2-  O237  1  0.70607133  0.83984904  0.06539955  1
  O2-  O238  1  0.70044057  0.83246448  0.39539282  1
  O2-  O239  1  0.71421942  0.83197039  0.73768001  1
  O2-  O240  1  0.46076944  0.41663822  0.26291446  1
  O2-  O241  1  0.46020846  0.41795563  0.59670928  1
  O2-  O242  1  0.44997034  0.41660813  0.93908166  1
  O2-  O243  1  0.46333689  0.91860185  0.26198251  1
  O2-  O244  1  0.45965837  0.91578196  0.59989745  1
  O2-  O245  1  0.45886385  0.91434943  0.93490751  1
  O2-  O246  1  0.94973387  0.41623861  0.27182341  1
  O2-  O247  1  0.95710276  0.41797850  0.60200045  1
  O2-  O248  1  0.94918592  0.41707285  0.94027981  1
  O2-  O249  1  0.95540057  0.91808390  0.26175774  1
  O2-  O250  1  0.95371200  0.91167081  0.60747800  1
  O2-  O251  1  0.95168721  0.91564392  0.93460613  1
  O2-  O252  1  0.33410865  0.28736957  0.26146000  1
  O2-  O253  1  0.32935826  0.29335736  0.59967717  1
  O2-  O254  1  0.33645421  0.29194060  0.93698992  1
  O2-  O255  1  0.33457376  0.79523874  0.26128153  1
  O2-  O256  1  0.33430924  0.78689844  0.59639529  1
  O2-  O257  1  0.33118891  0.80403787  0.93846748  1
  O2-  O258  1  0.83048942  0.29862027  0.27055059  1
  O2-  O259  1  0.83332965  0.30660229  0.60571703  1
  O2-  O260  1  0.83488528  0.29561022  0.93556468  1
  O2-  O261  1  0.82909596  0.79292097  0.26580267  1
  O2-  O262  1  0.83981114  0.78653924  0.60292832  1
  O2-  O263  1  0.83263337  0.79556052  0.93663251  1
  O2-  O264  1  0.41201508  0.03881874  0.06408061  1
  O2-  O265  1  0.41900646  0.04345356  0.39736231  1
  O2-  O266  1  0.42012431  0.04247404  0.73351540  1
  O2-  O267  1  0.42191828  0.54792090  0.06817465  1
  O2-  O268  1  0.41770519  0.54657652  0.39659022  1
  O2-  O269  1  0.41970950  0.54989257  0.72397949  1
  O2-  O270  1  0.91293869  0.04110149  0.06280005  1
  O2-  O271  1  0.91916876  0.03797367  0.39900961  1
  O2-  O272  1  0.91667329  0.03706479  0.73980200  1
  O2-  O273  1  0.91336108  0.53995971  0.07146108  1
  O2-  O274  1  0.90949784  0.54191796  0.39927992  1
  O2-  O275  1  0.91126179  0.54093811  0.73027790  1
  O2-  O276  1  0.29500262  0.16152752  0.06091312  1
  O2-  O277  1  0.28742814  0.16608364  0.39864246  1
  O2-  O278  1  0.29265854  0.16846892  0.73657964  1
  O2-  O279  1  0.29639996  0.67439184  0.06525427  1
  O2-  O280  1  0.30048899  0.66946785  0.39260462  1
  O2-  O281  1  0.29699541  0.66431445  0.72856630  1
  O2-  O282  1  0.79463618  0.16405934  0.06253640  1
  O2-  O283  1  0.79407724  0.16732045  0.40121280  1
  O2-  O284  1  0.80265277  0.17601080  0.73354340  1
  O2-  O285  1  0.78678552  0.66858223  0.06909640  1
  O2-  O286  1  0.79127816  0.66313122  0.39770995  1
  O2-  O287  1  0.79542587  0.66229614  0.72993367  1
