# generated using pymatgen
data_Ca2Al2SiO7
_symmetry_space_group_name_H-M   'P 1'
_cell_length_a   15.46145533
_cell_length_b   15.46062055
_cell_length_c   15.28600652
_cell_angle_alpha   90.00706466
_cell_angle_beta   90.00875842
_cell_angle_gamma   89.99879526
_symmetry_Int_Tables_number   1
_chemical_formula_structural   Ca2Al2SiO7
_chemical_formula_sum   'Ca48 Al48 Si24 O168'
_cell_volume   3654.02339382
_cell_formula_units_Z   24
loop_
 _symmetry_equiv_pos_site_id
 _symmetry_equiv_pos_as_xyz
  1  'x, y, z'
loop_
 _atom_type_symbol
 _atom_type_oxidation_number
  Ca2+  2.0
  Al0+  0.0
  Si0+  0.0
  O2-  -2.0
loop_
 _atom_site_type_symbol
 _atom_site_label
 _atom_site_symmetry_multiplicity
 _atom_site_fract_x
 _atom_site_fract_y
 _atom_site_fract_z
 _atom_site_occupancy
  Ca2+  Ca0  1  0.16919425  0.09481591  0.16571208  1
  Ca2+  Ca1  1  0.17168591  0.08263206  0.51190714  1
  Ca2+  Ca2  1  0.17613424  0.08995156  0.83626260  1
  Ca2+  Ca3  1  0.17630263  0.57396805  0.16714756  1
  Ca2+  Ca4  1  0.16987354  0.57670458  0.50745514  1
  Ca2+  Ca5  1  0.16833381  0.57339706  0.83767006  1
  Ca2+  Ca6  1  0.65467508  0.07452637  0.16661179  1
  Ca2+  Ca7  1  0.66201341  0.08095369  0.50485401  1
  Ca2+  Ca8  1  0.66142792  0.08331215  0.84112377  1
  Ca2+  Ca9  1  0.67240014  0.57417386  0.17101160  1
  Ca2+  Ca10  1  0.67399677  0.57498653  0.50365943  1
  Ca2+  Ca11  1  0.66436364  0.56749534  0.83802664  1
  Ca2+  Ca12  1  0.07531747  0.32923238  0.15912023  1
  Ca2+  Ca13  1  0.08765077  0.32338740  0.49407978  1
  Ca2+  Ca14  1  0.08925407  0.32878963  0.83115459  1
  Ca2+  Ca15  1  0.08232996  0.82903425  0.16243506  1
  Ca2+  Ca16  1  0.09159504  0.82694589  0.49994644  1
  Ca2+  Ca17  1  0.09085723  0.82613111  0.82406188  1
  Ca2+  Ca18  1  0.57455399  0.33256430  0.15561937  1
  Ca2+  Ca19  1  0.58059766  0.32936164  0.49774236  1
  Ca2+  Ca20  1  0.58154431  0.32803673  0.82995158  1
  Ca2+  Ca21  1  0.58264951  0.83517532  0.16413363  1
  Ca2+  Ca22  1  0.57041216  0.83613759  0.49328997  1
  Ca2+  Ca23  1  0.57745505  0.83311822  0.82858730  1
  Ca2+  Ca24  1  0.33811046  0.42131690  0.17018327  1
  Ca2+  Ca25  1  0.33205978  0.41953222  0.50339992  1
  Ca2+  Ca26  1  0.32285817  0.41632840  0.84400107  1
  Ca2+  Ca27  1  0.33620241  0.92617328  0.16950717  1
  Ca2+  Ca28  1  0.33231821  0.92120342  0.50952463  1
  Ca2+  Ca29  1  0.33398111  0.92804940  0.83108054  1
  Ca2+  Ca30  1  0.83144576  0.40993015  0.16970518  1
  Ca2+  Ca31  1  0.83377662  0.41533927  0.50254671  1
  Ca2+  Ca32  1  0.82309963  0.40653057  0.83761953  1
  Ca2+  Ca33  1  0.81959863  0.91934184  0.17230165  1
  Ca2+  Ca34  1  0.82513196  0.91770538  0.50165029  1
  Ca2+  Ca35  1  0.82616576  0.92124636  0.84213386  1
  Ca2+  Ca36  1  0.41697994  0.17990977  0.15825165  1
  Ca2+  Ca37  1  0.41786029  0.17063640  0.49850683  1
  Ca2+  Ca38  1  0.42274272  0.16344440  0.83269222  1
  Ca2+  Ca39  1  0.40634573  0.67123913  0.16438331  1
  Ca2+  Ca40  1  0.41011748  0.67881693  0.49363114  1
  Ca2+  Ca41  1  0.40899488  0.67383701  0.82862127  1
  Ca2+  Ca42  1  0.92655318  0.17479494  0.16092389  1
  Ca2+  Ca43  1  0.93081765  0.17240722  0.49279598  1
  Ca2+  Ca44  1  0.92938177  0.17105848  0.83213267  1
  Ca2+  Ca45  1  0.91155493  0.66523736  0.16488021  1
  Ca2+  Ca46  1  0.92210487  0.66174400  0.49743467  1
  Ca2+  Ca47  1  0.92336564  0.66932239  0.82749219  1
  Al0+  Al48  1  -0.00152417  -0.00060572  -0.00299989  1
  Al0+  Al49  1  -0.00046615  -0.00303943  0.32965734  1
  Al0+  Al50  1  -0.00192063  -0.00074665  0.66622775  1
  Al0+  Al51  1  -0.00003786  0.50220319  -0.00085035  1
  Al0+  Al52  1  0.00031286  0.49884936  0.33364962  1
  Al0+  Al53  1  0.00005332  0.50227785  0.66647760  1
  Al0+  Al54  1  0.49703594  -0.00077092  0.00489878  1
  Al0+  Al55  1  0.49730091  -0.00199638  0.33471648  1
  Al0+  Al56  1  0.49987919  0.00004074  0.66218935  1
  Al0+  Al57  1  0.50156737  0.50298043  0.00399231  1
  Al0+  Al58  1  0.50145368  0.50239747  0.33669363  1
  Al0+  Al59  1  0.50240084  0.50120354  0.66992171  1
  Al0+  Al60  1  0.24927857  0.25045891  0.00229150  1
  Al0+  Al61  1  0.25307915  0.24969096  0.32717482  1
  Al0+  Al62  1  0.25189179  0.25131974  0.67000719  1
  Al0+  Al63  1  0.24903224  0.75091941  0.00200664  1
  Al0+  Al64  1  0.25041923  0.75012593  0.33022461  1
  Al0+  Al65  1  0.24915820  0.75128491  0.66051080  1
  Al0+  Al66  1  0.75157559  0.24825153  -0.00038709  1
  Al0+  Al67  1  0.75168440  0.24597869  0.33130041  1
  Al0+  Al68  1  0.74927804  0.24854553  0.66487096  1
  Al0+  Al69  1  0.74783527  0.75119685  0.00147614  1
  Al0+  Al70  1  0.74918530  0.74874241  0.34386256  1
  Al0+  Al71  1  0.74992290  0.74932403  0.66655350  1
  Al0+  Al72  1  0.07179520  0.17849089  0.98245866  1
  Al0+  Al73  1  0.57095478  0.17980803  0.65246305  1
  Al0+  Al74  1  0.42936879  0.32548720  0.98425336  1
  Al0+  Al75  1  0.92888059  0.32402947  0.98302364  1
  Al0+  Al76  1  0.42853760  0.81992847  0.31647373  1
  Al0+  Al77  1  0.67840073  0.92988091  0.01303631  1
  Al0+  Al78  1  0.67773806  0.93081414  0.35006738  1
  Al0+  Al79  1  0.68060460  0.42661478  0.01398993  1
  Al0+  Al80  1  0.56878917  0.17796169  0.98677999  1
  Al0+  Al81  1  0.32243490  0.07171942  0.68120387  1
  Al0+  Al82  1  0.06924384  0.67987640  0.65212144  1
  Al0+  Al83  1  0.92882151  0.32169160  0.31877116  1
  Al0+  Al84  1  0.17942265  0.42948998  0.67878470  1
  Al0+  Al85  1  0.32154446  0.57221839  0.34909264  1
  Al0+  Al86  1  0.32145913  0.57272331  0.01417684  1
  Al0+  Al87  1  0.43114457  0.81900107  0.65328717  1
  Al0+  Al88  1  0.31914332  0.07051351  0.01522684  1
  Al0+  Al89  1  0.07295908  0.17631014  0.31812445  1
  Al0+  Al90  1  0.68011563  0.42777769  0.68007117  1
  Al0+  Al91  1  0.82222528  0.56885044  0.34789203  1
  Al0+  Al92  1  0.17750495  0.92831550  0.67978788  1
  Al0+  Al93  1  0.07309603  0.17962985  0.65324714  1
  Al0+  Al94  1  0.17737788  0.42818738  0.01660416  1
  Al0+  Al95  1  0.43252869  0.32335682  0.32103852  1
  Si0+  Si96  1  0.92629982  0.81999718  0.98603676  1
  Si0+  Si97  1  0.82214755  0.57254757  0.68488758  1
  Si0+  Si98  1  0.57387668  0.67991324  0.31709045  1
  Si0+  Si99  1  0.57413550  0.67586683  0.64890726  1
  Si0+  Si100  1  0.42847737  0.32495732  0.65138793  1
  Si0+  Si101  1  0.57152501  0.17663542  0.31799228  1
  Si0+  Si102  1  0.92642432  0.81882853  0.31869025  1
  Si0+  Si103  1  0.67830807  0.42465635  0.34977989  1
  Si0+  Si104  1  0.17744059  0.92782137  0.34671849  1
  Si0+  Si105  1  0.67893849  0.92932759  0.68149505  1
  Si0+  Si106  1  0.57352197  0.68074499  0.98526733  1
  Si0+  Si107  1  0.31871133  0.07124438  0.34861363  1
  Si0+  Si108  1  0.32200166  0.57314414  0.68085601  1
  Si0+  Si109  1  0.92417577  0.82274484  0.64861221  1
  Si0+  Si110  1  0.07131478  0.68178674  0.98524912  1
  Si0+  Si111  1  0.17617564  0.92755579  0.01680757  1
  Si0+  Si112  1  0.82383148  0.07094083  0.01799826  1
  Si0+  Si113  1  0.07078690  0.67887973  0.31693023  1
  Si0+  Si114  1  0.82085669  0.07071175  0.68177157  1
  Si0+  Si115  1  0.82429480  0.07031345  0.35124203  1
  Si0+  Si116  1  0.42810811  0.82025083  0.98480682  1
  Si0+  Si117  1  0.82068969  0.57334302  0.01427136  1
  Si0+  Si118  1  0.92803620  0.32096034  0.65036475  1
  Si0+  Si119  1  0.18047492  0.42791095  0.34960000  1
  O2-  O120  1  0.23991201  -0.00050668  0.06211655  1
  O2-  O121  1  0.24356718  0.00318408  0.38831214  1
  O2-  O122  1  0.24541673  0.00345847  0.72999709  1
  O2-  O123  1  0.25563300  0.49530847  0.06483681  1
  O2-  O124  1  0.24912777  0.49583536  0.39575379  1
  O2-  O125  1  0.25673578  0.50223070  0.72506818  1
  O2-  O126  1  0.75049370  0.00611866  0.06131064  1
  O2-  O127  1  0.75112959  0.00679821  0.39697959  1
  O2-  O128  1  0.75074139  -0.00168108  0.72442235  1
  O2-  O129  1  0.75852201  0.49940093  0.05901926  1
  O2-  O130  1  0.75109645  0.49006207  0.39333603  1
  O2-  O131  1  0.75440786  0.50311456  0.72778655  1
  O2-  O132  1  0.00104533  0.24949257  0.27037113  1
  O2-  O133  1  0.00072184  0.25665100  0.60613165  1
  O2-  O134  1  0.00348390  0.25467075  0.93309556  1
  O2-  O135  1  -0.00298010  0.74801813  0.27503838  1
  O2-  O136  1  -0.00456686  0.75619579  0.60513737  1
  O2-  O137  1  -0.00048231  0.75239986  0.94322022  1
  O2-  O138  1  0.51067061  0.25190642  0.27484432  1
  O2-  O139  1  0.49698196  0.25567379  0.60720182  1
  O2-  O140  1  0.50117965  0.25271327  0.93435174  1
  O2-  O141  1  0.50286302  0.74463997  0.26995703  1
  O2-  O142  1  0.50449561  0.74322559  0.60503643  1
  O2-  O143  1  0.49759598  0.74718728  0.94363042  1
  O2-  O144  1  0.06609975  0.17508036  0.09576943  1
  O2-  O145  1  0.07313979  0.17615448  0.43229267  1
  O2-  O146  1  0.07105279  0.17967658  0.76551340  1
  O2-  O147  1  0.07102457  0.68436656  0.09067595  1
  O2-  O148  1  0.07111764  0.68109086  0.42194810  1
  O2-  O149  1  0.06721623  0.68139348  0.76549726  1
  O2-  O150  1  0.56510183  0.17672534  0.10057981  1
  O2-  O151  1  0.56914198  0.17625017  0.42390753  1
  O2-  O152  1  0.57212373  0.17808927  0.76488358  1
  O2-  O153  1  0.57982431  0.68462944  0.08998338  1
  O2-  O154  1  0.57350479  0.68284406  0.42268148  1
  O2-  O155  1  0.57583305  0.67759919  0.75461935  1
  O2-  O156  1  0.17998021  0.43077100  0.24448996  1
  O2-  O157  1  0.18037768  0.43050251  0.56523505  1
  O2-  O158  1  0.17650901  0.43399370  0.90273515  1
  O2-  O159  1  0.17810284  0.92448186  0.24160322  1
  O2-  O160  1  0.18068798  0.92797605  0.56569188  1
  O2-  O161  1  0.17878138  0.92221884  0.91181175  1
  O2-  O162  1  0.67737973  0.42728903  0.24441151  1
  O2-  O163  1  0.68192264  0.42911498  0.56672319  1
  O2-  O164  1  0.68033876  0.42929701  0.90072343  1
  O2-  O165  1  0.67941356  0.93045607  0.23692008  1
  O2-  O166  1  0.68029707  0.93008763  0.57639229  1
  O2-  O167  1  0.68120934  0.92713726  0.89965656  1
  O2-  O168  1  0.43308174  0.32483678  0.09826522  1
  O2-  O169  1  0.43123064  0.32049279  0.43456689  1
  O2-  O170  1  0.42997944  0.32755243  0.75634128  1
  O2-  O171  1  0.42816508  0.81991446  0.08996652  1
  O2-  O172  1  0.42871875  0.82085632  0.42948320  1
  O2-  O173  1  0.43351387  0.81864711  0.76687036  1
  O2-  O174  1  0.92944713  0.32222069  0.09656097  1
  O2-  O175  1  0.93054073  0.32087917  0.43286814  1
  O2-  O176  1  0.92559395  0.31782358  0.75550156  1
  O2-  O177  1  0.92504891  0.81730635  0.09142344  1
  O2-  O178  1  0.92768806  0.81970076  0.42356320  1
  O2-  O179  1  0.91836901  0.81987321  0.75418750  1
  O2-  O180  1  0.32061609  0.06963530  0.24360371  1
  O2-  O181  1  0.32268751  0.07008345  0.56691693  1
  O2-  O182  1  0.32327238  0.06526135  0.90262636  1
  O2-  O183  1  0.31754563  0.57357969  0.23654057  1
  O2-  O184  1  0.32040417  0.57261354  0.57505823  1
  O2-  O185  1  0.31534029  0.57998347  0.90071926  1
  O2-  O186  1  0.82634346  0.06620819  0.24609044  1
  O2-  O187  1  0.81992989  0.06910471  0.57657296  1
  O2-  O188  1  0.82611188  0.06574673  0.91217337  1
  O2-  O189  1  0.81814949  0.57334347  0.23495778  1
  O2-  O190  1  0.82141570  0.57310960  0.57923730  1
  O2-  O191  1  0.81638835  0.57953437  0.90911135  1
  O2-  O192  1  0.04478631  0.07709848  0.26587669  1
  O2-  O193  1  0.04013348  0.08218353  0.60089108  1
  O2-  O194  1  0.04043526  0.07931571  0.93022727  1
  O2-  O195  1  0.04434224  0.58685443  0.27048105  1
  O2-  O196  1  0.03659822  0.58458892  0.59557073  1
  O2-  O197  1  0.04383820  0.59100908  0.93698110  1
  O2-  O198  1  0.53850282  0.08523236  0.27256082  1
  O2-  O199  1  0.54009704  0.08410274  0.59658885  1
  O2-  O200  1  0.53733773  0.07896505  0.93483376  1
  O2-  O201  1  0.55320349  0.58442559  0.27367854  1
  O2-  O202  1  0.55134944  0.58160480  0.60298464  1
  O2-  O203  1  0.55001120  0.58798074  0.93901647  1
  O2-  O204  1  0.17077783  0.20464451  0.26549413  1
  O2-  O205  1  0.17091468  0.20912928  0.60044836  1
  O2-  O206  1  0.17195184  0.20299398  0.93305172  1
  O2-  O207  1  0.15981073  0.71165773  0.26778927  1
  O2-  O208  1  0.16450128  0.71027678  0.59516132  1
  O2-  O209  1  0.16161269  0.71273868  0.93677596  1
  O2-  O210  1  0.66872829  0.19025998  0.27530053  1
  O2-  O211  1  0.66723445  0.20948603  0.59592728  1
  O2-  O212  1  0.67043663  0.19835484  0.93784108  1
  O2-  O213  1  0.66692921  0.70988891  0.27221583  1
  O2-  O214  1  0.66783699  0.70248275  0.60279432  1
  O2-  O215  1  0.66182472  0.71445623  0.93371358  1
  O2-  O216  1  0.08084000  0.46515647  0.06939982  1
  O2-  O217  1  0.08697942  0.45419730  0.39538052  1
  O2-  O218  1  0.08325843  0.46303420  0.73187229  1
  O2-  O219  1  0.07951555  0.94671970  0.06007250  1
  O2-  O220  1  0.08295654  0.94761692  0.39263967  1
  O2-  O221  1  0.07514977  0.94592861  0.72937010  1
  O2-  O222  1  0.58675396  0.46293669  0.06948515  1
  O2-  O223  1  0.58751193  0.45523464  0.39873759  1
  O2-  O224  1  0.58444116  0.45977616  0.73581413  1
  O2-  O225  1  0.58226728  0.95747713  0.06882188  1
  O2-  O226  1  0.58062543  0.96132405  0.40353494  1
  O2-  O227  1  0.58763660  0.95785721  0.72762834  1
  O2-  O228  1  0.19705900  0.32800454  0.06747997  1
  O2-  O229  1  0.20814387  0.33357568  0.39339408  1
  O2-  O230  1  0.20878551  0.33426752  0.73456478  1
  O2-  O231  1  0.20564872  0.83615962  0.06609803  1
  O2-  O232  1  0.20982673  0.83758876  0.39435054  1
  O2-  O233  1  0.21039912  0.83049569  0.73211632  1
  O2-  O234  1  0.70837752  0.32947939  0.06816310  1
  O2-  O235  1  0.70009146  0.32874881  0.39333873  1
  O2-  O236  1  0.71138005  0.33110701  0.73310610  1
  O2-  O237  1  0.71325519  0.83505114  0.06890351  1
  O2-  O238  1  0.71069189  0.83596903  0.40607380  1
  O2-  O239  1  0.70498242  0.83589827  0.72747259  1
  O2-  O240  1  0.45961700  0.42193449  0.26912318  1
  O2-  O241  1  0.45558869  0.41877286  0.60497655  1
  O2-  O242  1  0.45608279  0.42580638  0.93403055  1
  O2-  O243  1  0.46106156  0.91661003  0.26369708  1
  O2-  O244  1  0.46417684  0.91360435  0.59709506  1
  O2-  O245  1  0.45952798  0.91041070  0.93794616  1
  O2-  O246  1  0.95464717  0.42107753  0.26634294  1
  O2-  O247  1  0.94818219  0.41745731  0.60847913  1
  O2-  O248  1  0.95027680  0.42558332  0.93247204  1
  O2-  O249  1  0.95325553  0.90942403  0.26856419  1
  O2-  O250  1  0.94512584  0.91718778  0.60306701  1
  O2-  O251  1  0.94952099  0.91213885  0.93802875  1
  O2-  O252  1  0.33817653  0.29040568  0.26507423  1
  O2-  O253  1  0.33556382  0.29910424  0.60451926  1
  O2-  O254  1  0.32936652  0.29791409  0.93641442  1
  O2-  O255  1  0.33220296  0.78946729  0.26155267  1
  O2-  O256  1  0.33524681  0.79006483  0.59696129  1
  O2-  O257  1  0.33578043  0.79285018  0.93800399  1
  O2-  O258  1  0.82977569  0.29309498  0.26624790  1
  O2-  O259  1  0.83670764  0.29067226  0.60217754  1
  O2-  O260  1  0.83158324  0.29073023  0.93068594  1
  O2-  O261  1  0.83417639  0.78895732  0.27331845  1
  O2-  O262  1  0.83197052  0.79344527  0.59996302  1
  O2-  O263  1  0.83601888  0.78940438  0.93658430  1
  O2-  O264  1  0.41198036  0.03323191  0.07251634  1
  O2-  O265  1  0.40869496  0.03899283  0.39676111  1
  O2-  O266  1  0.41923593  0.03558062  0.73336579  1
  O2-  O267  1  0.42236638  0.55511932  0.06638474  1
  O2-  O268  1  0.42012382  0.54756762  0.40256655  1
  O2-  O269  1  0.41782867  0.55496063  0.72536712  1
  O2-  O270  1  0.91470617  0.03834177  0.06598849  1
  O2-  O271  1  0.91593870  0.03786053  0.39847994  1
  O2-  O272  1  0.91171209  0.04297700  0.73088185  1
  O2-  O273  1  0.91667712  0.55669111  0.05823374  1
  O2-  O274  1  0.92024212  0.54241926  0.40243203  1
  O2-  O275  1  0.91617963  0.55008995  0.73045241  1
  O2-  O276  1  0.29236379  0.16751252  0.06978797  1
  O2-  O277  1  0.29488743  0.16433640  0.39535561  1
  O2-  O278  1  0.30002662  0.17089492  0.73368713  1
  O2-  O279  1  0.28561159  0.66906696  0.06938695  1
  O2-  O280  1  0.28619675  0.66883549  0.40115075  1
  O2-  O281  1  0.29242523  0.66595797  0.72539785  1
  O2-  O282  1  0.80293154  0.16523569  0.06265663  1
  O2-  O283  1  0.80356083  0.16549894  0.39639778  1
  O2-  O284  1  0.79117744  0.16132082  0.72895832  1
  O2-  O285  1  0.78884595  0.66419015  0.06375015  1
  O2-  O286  1  0.78986485  0.66305772  0.40641557  1
  O2-  O287  1  0.79623508  0.66680489  0.73058610  1
