# generated using pymatgen
data_Ca2Al2SiO7
_symmetry_space_group_name_H-M   'P 1'
_cell_length_a   15.45975325
_cell_length_b   15.45892058
_cell_length_c   15.28473004
_cell_angle_alpha   89.99362541
_cell_angle_beta   89.99034457
_cell_angle_gamma   90.00297722
_symmetry_Int_Tables_number   1
_chemical_formula_structural   Ca2Al2SiO7
_chemical_formula_sum   'Ca48 Al48 Si24 O168'
_cell_volume   3652.91432776
_cell_formula_units_Z   24
loop_
 _symmetry_equiv_pos_site_id
 _symmetry_equiv_pos_as_xyz
  1  'x, y, z'
loop_
 _atom_type_symbol
 _atom_type_oxidation_number
  Ca2+  2.0
  Al0+  0.0
  Si0+  0.0
  O2-  -2.0
loop_
 _atom_site_type_symbol
 _atom_site_label
 _atom_site_symmetry_multiplicity
 _atom_site_fract_x
 _atom_site_fract_y
 _atom_site_fract_z
 _atom_site_occupancy
  Ca2+  Ca0  1  0.17280914  0.09002997  0.17038836  1
  Ca2+  Ca1  1  0.17076384  0.07896705  0.50091320  1
  Ca2+  Ca2  1  0.16935482  0.07656791  0.83788958  1
  Ca2+  Ca3  1  0.18299372  0.57560045  0.17638284  1
  Ca2+  Ca4  1  0.17066457  0.58140753  0.50333570  1
  Ca2+  Ca5  1  0.17493516  0.58583878  0.83918554  1
  Ca2+  Ca6  1  0.67442955  0.08055161  0.17133529  1
  Ca2+  Ca7  1  0.67942238  0.08636321  0.50737759  1
  Ca2+  Ca8  1  0.67734219  0.07455078  0.84251179  1
  Ca2+  Ca9  1  0.66046407  0.58708883  0.16895361  1
  Ca2+  Ca10  1  0.66369298  0.58279886  0.50827224  1
  Ca2+  Ca11  1  0.65969838  0.58441467  0.83311354  1
  Ca2+  Ca12  1  0.09167872  0.32255874  0.16585474  1
  Ca2+  Ca13  1  0.08282333  0.32806429  0.49014665  1
  Ca2+  Ca14  1  0.08238309  0.32452182  0.83148121  1
  Ca2+  Ca15  1  0.08146381  0.83443465  0.16503422  1
  Ca2+  Ca16  1  0.08317015  0.83299000  0.50634616  1
  Ca2+  Ca17  1  0.07986949  0.83048511  0.81991176  1
  Ca2+  Ca18  1  0.57005422  0.33104870  0.16328496  1
  Ca2+  Ca19  1  0.57371495  0.33886085  0.49842263  1
  Ca2+  Ca20  1  0.57292601  0.33509972  0.82682896  1
  Ca2+  Ca21  1  0.58052724  0.82604516  0.16313315  1
  Ca2+  Ca22  1  0.57747955  0.82364663  0.49423992  1
  Ca2+  Ca23  1  0.58200601  0.82675039  0.82705047  1
  Ca2+  Ca24  1  0.33741099  0.42274675  0.17388418  1
  Ca2+  Ca25  1  0.33506226  0.41764978  0.49822793  1
  Ca2+  Ca26  1  0.33957413  0.42067288  0.83861997  1
  Ca2+  Ca27  1  0.33737339  0.92853883  0.17431394  1
  Ca2+  Ca28  1  0.33615523  0.91729831  0.50521708  1
  Ca2+  Ca29  1  0.32904821  0.91513724  0.83695817  1
  Ca2+  Ca30  1  0.82882533  0.41746539  0.17168695  1
  Ca2+  Ca31  1  0.82229552  0.42375050  0.51279100  1
  Ca2+  Ca32  1  0.82556435  0.42349084  0.83059930  1
  Ca2+  Ca33  1  0.82619142  0.92351939  0.16688975  1
  Ca2+  Ca34  1  0.83794494  0.92549917  0.50616279  1
  Ca2+  Ca35  1  0.83168625  0.92046581  0.83740424  1
  Ca2+  Ca36  1  0.40173931  0.17677357  0.16207032  1
  Ca2+  Ca37  1  0.41119949  0.17692834  0.49317289  1
  Ca2+  Ca38  1  0.41008169  0.17716805  0.83092880  1
  Ca2+  Ca39  1  0.42357793  0.66243027  0.16353775  1
  Ca2+  Ca40  1  0.42312630  0.67576674  0.49303517  1
  Ca2+  Ca41  1  0.42509938  0.66966635  0.82563245  1
  Ca2+  Ca42  1  0.92599393  0.15733179  0.16335908  1
  Ca2+  Ca43  1  0.92109174  0.16078503  0.49250640  1
  Ca2+  Ca44  1  0.91955145  0.15621193  0.83115467  1
  Ca2+  Ca45  1  0.91985329  0.66825913  0.16163491  1
  Ca2+  Ca46  1  0.91737892  0.66787388  0.50175736  1
  Ca2+  Ca47  1  0.92273911  0.67396865  0.81856599  1
  Al0+  Al48  1  -0.00014764  -0.00089544  -0.00101423  1
  Al0+  Al49  1  -0.00011331  -0.00030291  0.33142326  1
  Al0+  Al50  1  0.00397912  -0.00158531  0.67032000  1
  Al0+  Al51  1  -0.00093299  0.49784412  -0.00021410  1
  Al0+  Al52  1  -0.00067084  0.49958050  0.33478275  1
  Al0+  Al53  1  0.00009415  0.49756186  0.66776042  1
  Al0+  Al54  1  0.49946861  0.00029284  0.00810507  1
  Al0+  Al55  1  0.50179943  -0.00074747  0.33648557  1
  Al0+  Al56  1  0.50217254  0.00450773  0.66537966  1
  Al0+  Al57  1  0.50043406  0.50020609  -0.00390846  1
  Al0+  Al58  1  0.50001194  0.49965078  0.33011216  1
  Al0+  Al59  1  0.49819354  0.49866905  0.66258013  1
  Al0+  Al60  1  0.24611253  0.24904112  -0.00897242  1
  Al0+  Al61  1  0.24820794  0.24877984  0.33412803  1
  Al0+  Al62  1  0.24931465  0.25100035  0.66287463  1
  Al0+  Al63  1  0.25089159  0.74863985  0.00687396  1
  Al0+  Al64  1  0.24918537  0.75075049  0.33250404  1
  Al0+  Al65  1  0.24930384  0.75015969  0.66410007  1
  Al0+  Al66  1  0.75062885  0.25202867  0.00408087  1
  Al0+  Al67  1  0.75023262  0.25132430  0.33729526  1
  Al0+  Al68  1  0.75070729  0.25166594  0.67780824  1
  Al0+  Al69  1  0.75005011  0.74962608  -0.00022097  1
  Al0+  Al70  1  0.75014658  0.75074258  0.32897818  1
  Al0+  Al71  1  0.75206489  0.75245481  0.66099439  1
  Al0+  Al72  1  0.82161536  0.57380475  0.68094349  1
  Al0+  Al73  1  0.57011314  0.67984345  0.31634428  1
  Al0+  Al74  1  0.67577107  0.43157049  0.68367998  1
  Al0+  Al75  1  0.82291925  0.07034068  0.68147604  1
  Al0+  Al76  1  0.56985555  0.68119558  0.98397740  1
  Al0+  Al77  1  0.92984885  0.82265716  0.65125037  1
  Al0+  Al78  1  0.57098657  0.67990584  0.65145607  1
  Al0+  Al79  1  0.32321388  0.57161351  0.35091555  1
  Al0+  Al80  1  0.18382435  0.92936116  0.67970661  1
  Al0+  Al81  1  0.82029739  0.06979028  0.34757915  1
  Al0+  Al82  1  0.06836447  0.17927738  0.32010488  1
  Al0+  Al83  1  0.31845848  0.07184009  0.01167662  1
  Al0+  Al84  1  0.42612615  0.82387509  0.31625664  1
  Al0+  Al85  1  0.32158674  0.07023379  0.34747890  1
  Al0+  Al86  1  0.42993366  0.31844252  0.98586367  1
  Al0+  Al87  1  0.82205152  0.07168113  0.01696917  1
  Al0+  Al88  1  0.42795176  0.82474867  0.65381784  1
  Al0+  Al89  1  0.06770139  0.17924857  0.98357052  1
  Al0+  Al90  1  0.42983457  0.31725927  0.31892727  1
  Al0+  Al91  1  0.07206872  0.67534300  0.65178234  1
  Al0+  Al92  1  0.67802636  0.92633384  0.01586019  1
  Al0+  Al93  1  0.32228647  0.56948159  0.01267098  1
  Al0+  Al94  1  0.17934645  0.42862978  0.34841565  1
  Al0+  Al95  1  0.42849334  0.31935641  0.65066610  1
  Si0+  Si96  1  0.82208234  0.57054366  0.01485936  1
  Si0+  Si97  1  0.57561649  0.17992548  0.65204093  1
  Si0+  Si98  1  0.32326015  0.07518254  0.68248148  1
  Si0+  Si99  1  0.92789849  0.32017620  0.65281479  1
  Si0+  Si100  1  0.57585856  0.17785936  0.31847494  1
  Si0+  Si101  1  0.07237980  0.67730410  0.98783374  1
  Si0+  Si102  1  0.82192351  0.57292447  0.34697311  1
  Si0+  Si103  1  0.31857164  0.56961435  0.68057847  1
  Si0+  Si104  1  0.92435176  0.32484007  0.98094080  1
  Si0+  Si105  1  0.17626637  0.92723195  0.34987875  1
  Si0+  Si106  1  0.67683974  0.92904007  0.68169752  1
  Si0+  Si107  1  0.17792063  0.92647262  0.01727754  1
  Si0+  Si108  1  0.17623408  0.42793588  0.01472374  1
  Si0+  Si109  1  0.92597792  0.32358150  0.31781672  1
  Si0+  Si110  1  0.06950713  0.17921370  0.65061240  1
  Si0+  Si111  1  0.67823624  0.43052882  0.01663398  1
  Si0+  Si112  1  0.93106431  0.81817539  0.98547987  1
  Si0+  Si113  1  0.17783314  0.42582523  0.68304653  1
  Si0+  Si114  1  0.07053560  0.67573651  0.31665250  1
  Si0+  Si115  1  0.67958147  0.92629046  0.35234315  1
  Si0+  Si116  1  0.67978665  0.43014217  0.34725781  1
  Si0+  Si117  1  0.42609459  0.82482485  0.98510020  1
  Si0+  Si118  1  0.93019919  0.82029189  0.31627974  1
  Si0+  Si119  1  0.57503640  0.17634819  0.98530127  1
  O2-  O120  1  0.24768776  -0.00581746  0.06044264  1
  O2-  O121  1  0.25114432  -0.00965637  0.39230158  1
  O2-  O122  1  0.26168714  0.00029589  0.72690041  1
  O2-  O123  1  0.24583079  0.49562244  0.05807665  1
  O2-  O124  1  0.24912076  0.50117112  0.40079118  1
  O2-  O125  1  0.24672524  0.49924049  0.72420433  1
  O2-  O126  1  0.74598267  0.00327615  0.06556715  1
  O2-  O127  1  0.74463020  -0.00155305  0.39687657  1
  O2-  O128  1  0.74708295  -0.00373838  0.72640508  1
  O2-  O129  1  0.75133338  0.50008233  0.05871292  1
  O2-  O130  1  0.75064510  0.50213201  0.38772865  1
  O2-  O131  1  0.74494422  0.50759983  0.73295895  1
  O2-  O132  1  -0.00564515  0.25513303  0.27312792  1
  O2-  O133  1  -0.00356526  0.24804993  0.60889674  1
  O2-  O134  1  -0.01044321  0.25177448  0.93807446  1
  O2-  O135  1  0.00057579  0.74810916  0.27391528  1
  O2-  O136  1  -0.00251763  0.74546324  0.60213524  1
  O2-  O137  1  0.00339688  0.74849862  0.94386300  1
  O2-  O138  1  0.50144134  0.23919184  0.27231561  1
  O2-  O139  1  0.50426636  0.24481889  0.60611963  1
  O2-  O140  1  0.50353027  0.24176246  0.93988498  1
  O2-  O141  1  0.49619531  0.74982053  0.26605946  1
  O2-  O142  1  0.50087965  0.75424563  0.60313962  1
  O2-  O143  1  0.49575858  0.75758364  0.94008897  1
  O2-  O144  1  0.06873790  0.18143968  0.09656303  1
  O2-  O145  1  0.06576725  0.17844683  0.43344333  1
  O2-  O146  1  0.07026500  0.18095116  0.75590319  1
  O2-  O147  1  0.06880308  0.67782424  0.09317620  1
  O2-  O148  1  0.06771006  0.67336288  0.42109993  1
  O2-  O149  1  0.07316426  0.67766166  0.76629022  1
  O2-  O150  1  0.57785052  0.18136523  0.09087090  1
  O2-  O151  1  0.58018541  0.18400018  0.42387193  1
  O2-  O152  1  0.57477674  0.18044834  0.75773307  1
  O2-  O153  1  0.56977274  0.67966345  0.09668679  1
  O2-  O154  1  0.57377162  0.68097252  0.42930083  1
  O2-  O155  1  0.56765400  0.68012156  0.76541716  1
  O2-  O156  1  0.17935718  0.43052981  0.23441722  1
  O2-  O157  1  0.17787617  0.42260504  0.57843870  1
  O2-  O158  1  0.17383139  0.43098491  0.90876503  1
  O2-  O159  1  0.17174129  0.92977945  0.24399740  1
  O2-  O160  1  0.18057612  0.93359800  0.56693915  1
  O2-  O161  1  0.17756778  0.92492227  0.91174318  1
  O2-  O162  1  0.68212620  0.42846293  0.24168036  1
  O2-  O163  1  0.67862578  0.42954567  0.56967731  1
  O2-  O164  1  0.67791014  0.43144105  0.91205479  1
  O2-  O165  1  0.68358916  0.92497291  0.24675086  1
  O2-  O166  1  0.67627819  0.93264757  0.57629042  1
  O2-  O167  1  0.68231835  0.92463022  0.90205354  1
  O2-  O168  1  0.43047630  0.31886190  0.09892272  1
  O2-  O169  1  0.43252575  0.31802130  0.43187301  1
  O2-  O170  1  0.42678506  0.31844591  0.76408676  1
  O2-  O171  1  0.42498723  0.82297019  0.09026992  1
  O2-  O172  1  0.42958314  0.82310235  0.42977399  1
  O2-  O173  1  0.42758656  0.82188169  0.76796030  1
  O2-  O174  1  0.92523273  0.33092657  0.08634292  1
  O2-  O175  1  0.92518252  0.32355838  0.42336053  1
  O2-  O176  1  0.93091356  0.32089989  0.75799571  1
  O2-  O177  1  0.93211464  0.81627333  0.09125965  1
  O2-  O178  1  0.93023258  0.82079866  0.42072183  1
  O2-  O179  1  0.93393035  0.82380092  0.76536952  1
  O2-  O180  1  0.31578212  0.07303430  0.23421451  1
  O2-  O181  1  0.31858801  0.07807859  0.57712737  1
  O2-  O182  1  0.31530809  0.07162834  0.89848767  1
  O2-  O183  1  0.32298032  0.56769313  0.23685281  1
  O2-  O184  1  0.31750891  0.56803951  0.57592187  1
  O2-  O185  1  0.32007519  0.57006445  0.89911814  1
  O2-  O186  1  0.82024870  0.06734748  0.23487134  1
  O2-  O187  1  0.82267828  0.07081967  0.56808699  1
  O2-  O188  1  0.82268144  0.06663597  0.90345149  1
  O2-  O189  1  0.82385355  0.57133556  0.24118529  1
  O2-  O190  1  0.82319781  0.56746023  0.56703194  1
  O2-  O191  1  0.82463957  0.57015283  0.91063203  1
  O2-  O192  1  0.03673219  0.08355454  0.26423072  1
  O2-  O193  1  0.04346860  0.08692784  0.60486606  1
  O2-  O194  1  0.03923226  0.08103174  0.93033132  1
  O2-  O195  1  0.03964383  0.58539655  0.26718227  1
  O2-  O196  1  0.04609383  0.57560605  0.60005761  1
  O2-  O197  1  0.04518586  0.58504001  0.94119506  1
  O2-  O198  1  0.55953340  0.08075066  0.27792161  1
  O2-  O199  1  0.55607801  0.08588746  0.60470586  1
  O2-  O200  1  0.55295879  0.08047429  0.94291976  1
  O2-  O201  1  0.54397315  0.58054851  0.26353762  1
  O2-  O202  1  0.54092124  0.58187920  0.59952668  1
  O2-  O203  1  0.53824006  0.58486933  0.93028902  1
  O2-  O204  1  0.16391289  0.21146415  0.26536230  1
  O2-  O205  1  0.15993580  0.20999113  0.60294593  1
  O2-  O206  1  0.16060651  0.21272035  0.92400122  1
  O2-  O207  1  0.16234458  0.70280088  0.26916715  1
  O2-  O208  1  0.16778648  0.70752766  0.59689167  1
  O2-  O209  1  0.16558843  0.70344612  0.94255515  1
  O2-  O210  1  0.66666334  0.21068693  0.26948928  1
  O2-  O211  1  0.66926197  0.20921140  0.60756182  1
  O2-  O212  1  0.66817640  0.20478768  0.93911053  1
  O2-  O213  1  0.66947934  0.70876938  0.26268693  1
  O2-  O214  1  0.67071039  0.70344748  0.59950405  1
  O2-  O215  1  0.66866425  0.70883321  0.93228575  1
  O2-  O216  1  0.08271761  0.45199877  0.06221651  1
  O2-  O217  1  0.07897987  0.45509767  0.40010375  1
  O2-  O218  1  0.08531555  0.44914000  0.73091331  1
  O2-  O219  1  0.08440816  0.95322692  0.06263755  1
  O2-  O220  1  0.08542431  0.96002449  0.39726985  1
  O2-  O221  1  0.08986720  0.96379665  0.73720926  1
  O2-  O222  1  0.58778215  0.46142948  0.06445745  1
  O2-  O223  1  0.58843162  0.45802168  0.39394003  1
  O2-  O224  1  0.57585672  0.45710847  0.73541806  1
  O2-  O225  1  0.57913992  0.94928194  0.07002095  1
  O2-  O226  1  0.58504774  0.94687267  0.39710324  1
  O2-  O227  1  0.58435697  0.95605001  0.73046258  1
  O2-  O228  1  0.20184859  0.33329459  0.05677601  1
  O2-  O229  1  0.20649202  0.33058615  0.40173988  1
  O2-  O230  1  0.20917334  0.33518969  0.73160546  1
  O2-  O231  1  0.19965802  0.83288292  0.06555683  1
  O2-  O232  1  0.19300872  0.83115345  0.39341417  1
  O2-  O233  1  0.20851263  0.83114344  0.73476061  1
  O2-  O234  1  0.70434692  0.33906077  0.06577428  1
  O2-  O235  1  0.70782404  0.33995523  0.39745263  1
  O2-  O236  1  0.70868131  0.33611689  0.74053815  1
  O2-  O237  1  0.71436418  0.83048814  0.07051713  1
  O2-  O238  1  0.71156529  0.83408292  0.39762535  1
  O2-  O239  1  0.70178463  0.83468141  0.72566131  1
  O2-  O240  1  0.46451943  0.41243929  0.26480823  1
  O2-  O241  1  0.45898180  0.41495634  0.59586818  1
  O2-  O242  1  0.46433399  0.41351747  0.93123851  1
  O2-  O243  1  0.45718357  0.92319177  0.26526047  1
  O2-  O244  1  0.45193640  0.92575722  0.60345280  1
  O2-  O245  1  0.44824722  0.92017603  0.94110353  1
  O2-  O246  1  0.94976421  0.41761007  0.27073596  1
  O2-  O247  1  0.95648596  0.41066306  0.60386019  1
  O2-  O248  1  0.95500292  0.41650878  0.93219353  1
  O2-  O249  1  0.96091911  0.91030596  0.26697183  1
  O2-  O250  1  0.96748625  0.91850049  0.59773363  1
  O2-  O251  1  0.95752575  0.91009355  0.93866394  1
  O2-  O252  1  0.33218152  0.28861268  0.26660363  1
  O2-  O253  1  0.33215422  0.28809100  0.59602758  1
  O2-  O254  1  0.33317344  0.29054661  0.93028659  1
  O2-  O255  1  0.32462161  0.80216954  0.26596653  1
  O2-  O256  1  0.33064236  0.79556546  0.60039023  1
  O2-  O257  1  0.33143627  0.79697588  0.94107246  1
  O2-  O258  1  0.83237414  0.29811151  0.27126102  1
  O2-  O259  1  0.83416923  0.29506879  0.60850662  1
  O2-  O260  1  0.82900909  0.30380789  0.93693835  1
  O2-  O261  1  0.83956225  0.79188355  0.26679239  1
  O2-  O262  1  0.83124366  0.80232660  0.59599727  1
  O2-  O263  1  0.84035396  0.78861602  0.93834139  1
  O2-  O264  1  0.41637332  0.05058692  0.06708673  1
  O2-  O265  1  0.42087024  0.04785118  0.40066331  1
  O2-  O266  1  0.42028293  0.06041211  0.72498507  1
  O2-  O267  1  0.41790252  0.53565674  0.06595492  1
  O2-  O268  1  0.42138062  0.53990902  0.40174186  1
  O2-  O269  1  0.40964907  0.53912489  0.72738874  1
  O2-  O270  1  0.91934337  0.03695158  0.06884934  1
  O2-  O271  1  0.91654443  0.03547687  0.40003577  1
  O2-  O272  1  0.91894318  0.03775733  0.73482088  1
  O2-  O273  1  0.91378750  0.54223136  0.06413365  1
  O2-  O274  1  0.91304242  0.54596313  0.39513435  1
  O2-  O275  1  0.91853918  0.53889587  0.73509791  1
  O2-  O276  1  0.28064204  0.16779201  0.06328759  1
  O2-  O277  1  0.28480485  0.16411406  0.40255785  1
  O2-  O278  1  0.28809536  0.16585092  0.72954812  1
  O2-  O279  1  0.29234258  0.66490232  0.06979482  1
  O2-  O280  1  0.29393812  0.67146258  0.39979376  1
  O2-  O281  1  0.29133750  0.66128115  0.72826297  1
  O2-  O282  1  0.80051089  0.17310102  0.06727565  1
  O2-  O283  1  0.79346099  0.16826371  0.40079767  1
  O2-  O284  1  0.79545109  0.16652620  0.73764469  1
  O2-  O285  1  0.79523791  0.66200764  0.06328419  1
  O2-  O286  1  0.79555252  0.66567896  0.39218753  1
  O2-  O287  1  0.80274519  0.67613146  0.72917732  1
