# generated using pymatgen
data_Ca2Al2SiO7
_symmetry_space_group_name_H-M   'P 1'
_cell_length_a   15.45819186
_cell_length_b   15.45800939
_cell_length_c   15.28344386
_cell_angle_alpha   90.01164169
_cell_angle_beta   89.99870832
_cell_angle_gamma   90.02071205
_symmetry_Int_Tables_number   1
_chemical_formula_structural   Ca2Al2SiO7
_chemical_formula_sum   'Ca48 Al48 Si24 O168'
_cell_volume   3652.02253544
_cell_formula_units_Z   24
loop_
 _symmetry_equiv_pos_site_id
 _symmetry_equiv_pos_as_xyz
  1  'x, y, z'
loop_
 _atom_type_symbol
 _atom_type_oxidation_number
  Ca2+  2.0
  Al0+  0.0
  Si0+  0.0
  O2-  -2.0
loop_
 _atom_site_type_symbol
 _atom_site_label
 _atom_site_symmetry_multiplicity
 _atom_site_fract_x
 _atom_site_fract_y
 _atom_site_fract_z
 _atom_site_occupancy
  Ca2+  Ca0  1  0.16419622  0.07926188  0.16640930  1
  Ca2+  Ca1  1  0.16996515  0.07290976  0.50758940  1
  Ca2+  Ca2  1  0.17134438  0.07860420  0.83766766  1
  Ca2+  Ca3  1  0.16798688  0.57249380  0.17049000  1
  Ca2+  Ca4  1  0.16053995  0.57331934  0.50208360  1
  Ca2+  Ca5  1  0.17128670  0.57031665  0.83913346  1
  Ca2+  Ca6  1  0.67515756  0.08130157  0.17593218  1
  Ca2+  Ca7  1  0.66999358  0.07439776  0.50205532  1
  Ca2+  Ca8  1  0.66543460  0.07918128  0.83390054  1
  Ca2+  Ca9  1  0.67369736  0.57469997  0.16847467  1
  Ca2+  Ca10  1  0.67872950  0.58912185  0.50620126  1
  Ca2+  Ca11  1  0.67150850  0.58028474  0.83434046  1
  Ca2+  Ca12  1  0.08053518  0.33072477  0.15695990  1
  Ca2+  Ca13  1  0.08253703  0.33802834  0.49799197  1
  Ca2+  Ca14  1  0.08467317  0.33247678  0.82940912  1
  Ca2+  Ca15  1  0.09284519  0.82933702  0.16382416  1
  Ca2+  Ca16  1  0.08245603  0.83158520  0.49341351  1
  Ca2+  Ca17  1  0.08146873  0.83545454  0.82642575  1
  Ca2+  Ca18  1  0.57343723  0.33748591  0.15852823  1
  Ca2+  Ca19  1  0.56691445  0.33441969  0.49485393  1
  Ca2+  Ca20  1  0.57116307  0.33926700  0.82950880  1
  Ca2+  Ca21  1  0.58455892  0.83376661  0.16445775  1
  Ca2+  Ca22  1  0.59041315  0.83316318  0.49974648  1
  Ca2+  Ca23  1  0.58309396  0.82616143  0.82132974  1
  Ca2+  Ca24  1  0.32466952  0.41020828  0.16720283  1
  Ca2+  Ca25  1  0.32352642  0.40813826  0.50454462  1
  Ca2+  Ca26  1  0.32663908  0.41423432  0.84030442  1
  Ca2+  Ca27  1  0.32268058  0.92336427  0.16855844  1
  Ca2+  Ca28  1  0.32196912  0.92052152  0.50953387  1
  Ca2+  Ca29  1  0.32425868  0.92693946  0.84001369  1
  Ca2+  Ca30  1  0.82934819  0.41370879  0.17033907  1
  Ca2+  Ca31  1  0.83982862  0.42984415  0.50753554  1
  Ca2+  Ca32  1  0.83393147  0.41701334  0.83764786  1
  Ca2+  Ca33  1  0.82854176  0.92648499  0.17691765  1
  Ca2+  Ca34  1  0.82800041  0.91756841  0.50480627  1
  Ca2+  Ca35  1  0.83003830  0.91127814  0.83117850  1
  Ca2+  Ca36  1  0.41237708  0.17610225  0.16080575  1
  Ca2+  Ca37  1  0.40734816  0.17421792  0.49969399  1
  Ca2+  Ca38  1  0.40554362  0.17358320  0.83042431  1
  Ca2+  Ca39  1  0.41347287  0.66719886  0.15957559  1
  Ca2+  Ca40  1  0.42684736  0.66491945  0.49674261  1
  Ca2+  Ca41  1  0.42241210  0.66183632  0.82877124  1
  Ca2+  Ca42  1  0.92259572  0.16890555  0.15579294  1
  Ca2+  Ca43  1  0.91424837  0.17183608  0.49761311  1
  Ca2+  Ca44  1  0.92379080  0.17952460  0.83076610  1
  Ca2+  Ca45  1  0.92240354  0.66342431  0.16986461  1
  Ca2+  Ca46  1  0.91810092  0.66886616  0.49622863  1
  Ca2+  Ca47  1  0.91753094  0.67137044  0.82294982  1
  Al0+  Al48  1  -0.00158522  -0.00086261  -0.00208158  1
  Al0+  Al49  1  -0.00076562  0.00110074  0.34069853  1
  Al0+  Al50  1  -0.00193625  0.00067773  0.66546429  1
  Al0+  Al51  1  0.00007266  0.50378894  -0.00040570  1
  Al0+  Al52  1  0.00053466  0.50107067  0.33491073  1
  Al0+  Al53  1  0.00009593  0.50078509  0.67280245  1
  Al0+  Al54  1  0.49839369  -0.00087608  0.00366197  1
  Al0+  Al55  1  0.50035996  0.00096599  0.33575901  1
  Al0+  Al56  1  0.50103645  0.00043013  0.67353362  1
  Al0+  Al57  1  0.50370078  0.50089903  0.00284069  1
  Al0+  Al58  1  0.49901392  0.50113606  0.32615986  1
  Al0+  Al59  1  0.50148484  0.49963020  0.65402904  1
  Al0+  Al60  1  0.24957652  0.24860483  -0.00065241  1
  Al0+  Al61  1  0.24758617  0.25055629  0.33181115  1
  Al0+  Al62  1  0.24834084  0.24908749  0.66867974  1
  Al0+  Al63  1  0.25098179  0.75022407  0.00283362  1
  Al0+  Al64  1  0.25133526  0.74848404  0.33265025  1
  Al0+  Al65  1  0.25122452  0.74815870  0.66901959  1
  Al0+  Al66  1  0.74882296  0.24954722  -0.00043713  1
  Al0+  Al67  1  0.74711644  0.25064903  0.33854811  1
  Al0+  Al68  1  0.74920114  0.25059327  0.66073999  1
  Al0+  Al69  1  0.75040515  0.74903217  0.00153402  1
  Al0+  Al70  1  0.75052225  0.74936984  0.33542107  1
  Al0+  Al71  1  0.75220505  0.74995612  0.66689364  1
  Al0+  Al72  1  0.32300860  0.57018873  0.01371005  1
  Al0+  Al73  1  0.82250918  0.07410391  0.34937208  1
  Al0+  Al74  1  0.93088654  0.82126778  0.65209215  1
  Al0+  Al75  1  0.18016274  0.92678061  0.34782852  1
  Al0+  Al76  1  0.42807254  0.31875046  0.65251827  1
  Al0+  Al77  1  0.32040323  0.07079796  0.68191783  1
  Al0+  Al78  1  0.92731839  0.32349555  0.98634239  1
  Al0+  Al79  1  0.67817275  0.92902996  0.34836592  1
  Al0+  Al80  1  0.68195290  0.92981189  0.68192700  1
  Al0+  Al81  1  0.82009832  0.56740012  0.34665385  1
  Al0+  Al82  1  0.17613800  0.92949206  0.01560400  1
  Al0+  Al83  1  0.43081397  0.32082478  0.98597831  1
  Al0+  Al84  1  0.18007791  0.43074426  0.68051963  1
  Al0+  Al85  1  0.68125725  0.42838189  0.01180969  1
  Al0+  Al86  1  0.92904262  0.32292282  0.65180353  1
  Al0+  Al87  1  0.07106665  0.17755962  0.98389232  1
  Al0+  Al88  1  0.42756951  0.31991805  0.31658240  1
  Al0+  Al89  1  0.82020625  0.57012622  0.68153462  1
  Al0+  Al90  1  0.18062913  0.42945992  0.34727626  1
  Al0+  Al91  1  0.17766523  0.42862862  0.01541929  1
  Al0+  Al92  1  0.17638144  0.92592670  0.68175248  1
  Al0+  Al93  1  0.57105180  0.67994473  0.65203728  1
  Al0+  Al94  1  0.32157211  0.07207530  0.01780013  1
  Al0+  Al95  1  0.07147851  0.67927553  0.31910224  1
  Si0+  Si96  1  0.57239961  0.17521359  0.98375194  1
  Si0+  Si97  1  0.07063325  0.17930889  0.64791376  1
  Si0+  Si98  1  0.06856328  0.17800880  0.31965582  1
  Si0+  Si99  1  0.82191956  0.07594170  0.68572784  1
  Si0+  Si100  1  0.32045358  0.07228828  0.34956710  1
  Si0+  Si101  1  0.42841473  0.82330930  0.65138030  1
  Si0+  Si102  1  0.32686642  0.57096105  0.67989763  1
  Si0+  Si103  1  0.82223888  0.57461960  0.01749299  1
  Si0+  Si104  1  0.92832746  0.32192252  0.32072597  1
  Si0+  Si105  1  0.92722396  0.81980555  0.98607850  1
  Si0+  Si106  1  0.67426122  0.42836898  0.35117782  1
  Si0+  Si107  1  0.07277919  0.68051075  0.98427143  1
  Si0+  Si108  1  0.32401022  0.57250255  0.35057749  1
  Si0+  Si109  1  0.07367604  0.67774191  0.65150191  1
  Si0+  Si110  1  0.81892541  0.07001409  0.01205278  1
  Si0+  Si111  1  0.57327363  0.68041716  0.31474420  1
  Si0+  Si112  1  0.57192139  0.17780714  0.31653699  1
  Si0+  Si113  1  0.67884644  0.92668435  0.01423787  1
  Si0+  Si114  1  0.57271057  0.68088165  0.98499404  1
  Si0+  Si115  1  0.42928154  0.82185782  0.31814371  1
  Si0+  Si116  1  0.42917692  0.82124179  0.98488806  1
  Si0+  Si117  1  0.92828729  0.82259608  0.31649087  1
  Si0+  Si118  1  0.57321110  0.17513948  0.64868796  1
  Si0+  Si119  1  0.67642985  0.42754220  0.67982982  1
  O2-  O120  1  0.24619171  0.00281072  0.06641531  1
  O2-  O121  1  0.25531282  0.00071549  0.39397552  1
  O2-  O122  1  0.24999089  -0.00357585  0.73052582  1
  O2-  O123  1  0.25223180  0.49833378  0.06563005  1
  O2-  O124  1  0.25704348  0.50253781  0.39451615  1
  O2-  O125  1  0.25760811  0.50380452  0.72437401  1
  O2-  O126  1  0.74696578  0.00012792  0.05545403  1
  O2-  O127  1  0.75153558  -0.00014248  0.39726216  1
  O2-  O128  1  0.75415573  0.00605453  0.73044745  1
  O2-  O129  1  0.76058522  0.49847261  0.05925733  1
  O2-  O130  1  0.74522553  0.49406960  0.39546948  1
  O2-  O131  1  0.74750361  0.49251808  0.72594593  1
  O2-  O132  1  -0.00633170  0.24598000  0.27856201  1
  O2-  O133  1  0.00191879  0.24779053  0.60276716  1
  O2-  O134  1  0.00382676  0.25608203  0.93619019  1
  O2-  O135  1  -0.00008302  0.75763304  0.27083022  1
  O2-  O136  1  0.01098563  0.75177410  0.60679669  1
  O2-  O137  1  0.00038918  0.75119818  0.94384042  1
  O2-  O138  1  0.50475817  0.24679167  0.27094659  1
  O2-  O139  1  0.50256320  0.24292067  0.60587283  1
  O2-  O140  1  0.50327351  0.24309616  0.93949510  1
  O2-  O141  1  0.50164410  0.75193573  0.27413532  1
  O2-  O142  1  0.49586061  0.75444994  0.60477364  1
  O2-  O143  1  0.50054665  0.75043398  0.94254214  1
  O2-  O144  1  0.06507948  0.17387725  0.09822889  1
  O2-  O145  1  0.07076107  0.17941902  0.42460736  1
  O2-  O146  1  0.06978579  0.18017522  0.75331041  1
  O2-  O147  1  0.07173093  0.67999097  0.08952726  1
  O2-  O148  1  0.06867667  0.67884426  0.43204724  1
  O2-  O149  1  0.07114994  0.67728417  0.75734037  1
  O2-  O150  1  0.57453561  0.17488580  0.08941534  1
  O2-  O151  1  0.57120846  0.17751607  0.42189740  1
  O2-  O152  1  0.57645961  0.17639430  0.75421296  1
  O2-  O153  1  0.57595632  0.68475693  0.09020349  1
  O2-  O154  1  0.57335919  0.67962209  0.41971196  1
  O2-  O155  1  0.56935613  0.67966825  0.76566193  1
  O2-  O156  1  0.17917129  0.42856369  0.23467627  1
  O2-  O157  1  0.17970826  0.43172101  0.56705506  1
  O2-  O158  1  0.17802901  0.43170280  0.90190288  1
  O2-  O159  1  0.18148990  0.92807343  0.23500116  1
  O2-  O160  1  0.17840200  0.92680362  0.56776555  1
  O2-  O161  1  0.17766917  0.92795058  0.90247896  1
  O2-  O162  1  0.67552999  0.42931819  0.24518621  1
  O2-  O163  1  0.67598717  0.43093310  0.57418855  1
  O2-  O164  1  0.67864989  0.43299711  0.89887364  1
  O2-  O165  1  0.67963847  0.93017066  0.23380147  1
  O2-  O166  1  0.68349228  0.93031432  0.56925175  1
  O2-  O167  1  0.68070073  0.92348550  0.90946858  1
  O2-  O168  1  0.43384582  0.32035700  0.09917323  1
  O2-  O169  1  0.42707305  0.31744809  0.42982600  1
  O2-  O170  1  0.43010481  0.32142612  0.76538952  1
  O2-  O171  1  0.43192223  0.82089162  0.09038996  1
  O2-  O172  1  0.42912574  0.81972011  0.42310162  1
  O2-  O173  1  0.43078991  0.82121005  0.75709916  1
  O2-  O174  1  0.92474197  0.31812422  0.10072509  1
  O2-  O175  1  0.93177808  0.32321604  0.42570848  1
  O2-  O176  1  0.92935132  0.32168232  0.76454058  1
  O2-  O177  1  0.92209446  0.81834794  0.09095205  1
  O2-  O178  1  0.92715776  0.81975324  0.42178189  1
  O2-  O179  1  0.92891487  0.81748157  0.76594794  1
  O2-  O180  1  0.31962061  0.07179366  0.24426372  1
  O2-  O181  1  0.31792352  0.06967218  0.56757520  1
  O2-  O182  1  0.32506660  0.06710084  0.90487899  1
  O2-  O183  1  0.32376463  0.57353915  0.24518007  1
  O2-  O184  1  0.32714130  0.57130514  0.57419006  1
  O2-  O185  1  0.32244072  0.57037932  0.89983982  1
  O2-  O186  1  0.82148029  0.07333722  0.23480652  1
  O2-  O187  1  0.81987614  0.07588778  0.58027955  1
  O2-  O188  1  0.81729947  0.06866119  0.90721394  1
  O2-  O189  1  0.81871118  0.56545289  0.23320912  1
  O2-  O190  1  0.81995041  0.57052904  0.56831480  1
  O2-  O191  1  0.81781185  0.58173355  0.91243895  1
  O2-  O192  1  0.04268945  0.08505641  0.27288122  1
  O2-  O193  1  0.04430713  0.08566604  0.60198438  1
  O2-  O194  1  0.03629339  0.08103632  0.92971443  1
  O2-  O195  1  0.03509040  0.58439621  0.26385627  1
  O2-  O196  1  0.04069336  0.58654975  0.60541497  1
  O2-  O197  1  0.04521789  0.58947683  0.93534245  1
  O2-  O198  1  0.54800209  0.08331736  0.27028340  1
  O2-  O199  1  0.54844698  0.08037690  0.60427790  1
  O2-  O200  1  0.54831711  0.07999843  0.93908785  1
  O2-  O201  1  0.54545133  0.58905544  0.26602909  1
  O2-  O202  1  0.54250114  0.58584180  0.59170076  1
  O2-  O203  1  0.54715901  0.58886638  0.93813056  1
  O2-  O204  1  0.15864787  0.20838662  0.27065562  1
  O2-  O205  1  0.16373247  0.20550199  0.60159392  1
  O2-  O206  1  0.17088065  0.20005916  0.93252155  1
  O2-  O207  1  0.16951723  0.70644889  0.26529077  1
  O2-  O208  1  0.17012072  0.69473506  0.60695045  1
  O2-  O209  1  0.16436716  0.70881042  0.93695835  1
  O2-  O210  1  0.66668247  0.20287755  0.27090471  1
  O2-  O211  1  0.66553235  0.20063528  0.59968609  1
  O2-  O212  1  0.66556543  0.20009139  0.93656545  1
  O2-  O213  1  0.66460201  0.70902401  0.26620913  1
  O2-  O214  1  0.66659184  0.71432395  0.59884154  1
  O2-  O215  1  0.66360679  0.71146801  0.93650055  1
  O2-  O216  1  0.07925728  0.46055704  0.06772902  1
  O2-  O217  1  0.08517208  0.46325478  0.40126333  1
  O2-  O218  1  0.08610111  0.46384513  0.73700714  1
  O2-  O219  1  0.07569522  0.95360638  0.06727566  1
  O2-  O220  1  0.08340931  0.95604474  0.40102901  1
  O2-  O221  1  0.07719118  0.95514815  0.73206348  1
  O2-  O222  1  0.58929241  0.46574819  0.07041386  1
  O2-  O223  1  0.58081815  0.45825294  0.39455978  1
  O2-  O224  1  0.58357526  0.45836049  0.72452784  1
  O2-  O225  1  0.58631477  0.95035268  0.06143799  1
  O2-  O226  1  0.57988408  0.95669490  0.40225133  1
  O2-  O227  1  0.58497409  0.95648865  0.73736684  1
  O2-  O228  1  0.20220384  0.32879347  0.06575139  1
  O2-  O229  1  0.20999504  0.33235567  0.40133990  1
  O2-  O230  1  0.20861594  0.33376583  0.73296279  1
  O2-  O231  1  0.20969652  0.83247387  0.06831716  1
  O2-  O232  1  0.21148184  0.82996042  0.40063903  1
  O2-  O233  1  0.20246503  0.82613455  0.73350961  1
  O2-  O234  1  0.70620519  0.33059453  0.06746956  1
  O2-  O235  1  0.69317726  0.33349851  0.39614429  1
  O2-  O236  1  0.69702939  0.33199183  0.72325683  1
  O2-  O237  1  0.70960494  0.83650840  0.06381367  1
  O2-  O238  1  0.70543994  0.83012025  0.39949045  1
  O2-  O239  1  0.71566637  0.83448982  0.73652408  1
  O2-  O240  1  0.45682513  0.41755928  0.26322175  1
  O2-  O241  1  0.45932074  0.41317343  0.59369265  1
  O2-  O242  1  0.46680769  0.41734575  0.93421241  1
  O2-  O243  1  0.45644373  0.91450623  0.27124099  1
  O2-  O244  1  0.45513602  0.91701469  0.60654811  1
  O2-  O245  1  0.45787598  0.91282923  0.93788209  1
  O2-  O246  1  0.95961651  0.41145561  0.27174862  1
  O2-  O247  1  0.96261474  0.42009187  0.60023809  1
  O2-  O248  1  0.94732187  0.42582312  0.93787382  1
  O2-  O249  1  0.94993244  0.91897979  0.27418798  1
  O2-  O250  1  0.95278498  0.92042154  0.59870186  1
  O2-  O251  1  0.95071204  0.91176060  0.93759279  1
  O2-  O252  1  0.33127052  0.28635439  0.26350604  1
  O2-  O253  1  0.33147277  0.28613908  0.59864888  1
  O2-  O254  1  0.33298886  0.29318131  0.93393455  1
  O2-  O255  1  0.33915070  0.79198202  0.26856405  1
  O2-  O256  1  0.33408138  0.79843865  0.60576197  1
  O2-  O257  1  0.33771590  0.79312842  0.93751690  1
  O2-  O258  1  0.83239481  0.30009691  0.27798630  1
  O2-  O259  1  0.83162410  0.29517519  0.59670107  1
  O2-  O260  1  0.82999667  0.29075137  0.93251906  1
  O2-  O261  1  0.83541905  0.79343406  0.26948156  1
  O2-  O262  1  0.83650930  0.78511697  0.59777366  1
  O2-  O263  1  0.83632869  0.78855864  0.93704393  1
  O2-  O264  1  0.41922168  0.03989006  0.07256918  1
  O2-  O265  1  0.41560717  0.05119222  0.39394437  1
  O2-  O266  1  0.41978631  0.04798050  0.73479520  1
  O2-  O267  1  0.42296780  0.54829139  0.06641377  1
  O2-  O268  1  0.41952308  0.54869107  0.39373404  1
  O2-  O269  1  0.42112565  0.54433480  0.72383596  1
  O2-  O270  1  0.90903496  0.03970224  0.06065169  1
  O2-  O271  1  0.91954001  0.04826436  0.40506278  1
  O2-  O272  1  0.91570426  0.05057877  0.73016623  1
  O2-  O273  1  0.91825869  0.55790368  0.06068000  1
  O2-  O274  1  0.91556350  0.53705345  0.40183542  1
  O2-  O275  1  0.91573062  0.54182141  0.73779295  1
  O2-  O276  1  0.29566197  0.17084036  0.06942790  1
  O2-  O277  1  0.28959817  0.16408905  0.39558776  1
  O2-  O278  1  0.28826864  0.16721656  0.73546968  1
  O2-  O279  1  0.29457873  0.66855256  0.06716412  1
  O2-  O280  1  0.29961037  0.66577547  0.39716894  1
  O2-  O281  1  0.30544592  0.66526761  0.72652501  1
  O2-  O282  1  0.79229396  0.16104117  0.06131796  1
  O2-  O283  1  0.79231404  0.17143887  0.40405752  1
  O2-  O284  1  0.79376635  0.16947146  0.73071260  1
  O2-  O285  1  0.78746368  0.66398182  0.06803648  1
  O2-  O286  1  0.78976882  0.66456951  0.39891852  1
  O2-  O287  1  0.78619129  0.66490666  0.73624053  1
