# generated using pymatgen
data_Ca2Al2SiO7
_symmetry_space_group_name_H-M   'P 1'
_cell_length_a   15.46552474
_cell_length_b   15.46381652
_cell_length_c   15.28843788
_cell_angle_alpha   90.00746607
_cell_angle_beta   90.00674228
_cell_angle_gamma   89.98522289
_symmetry_Int_Tables_number   1
_chemical_formula_structural   Ca2Al2SiO7
_chemical_formula_sum   'Ca48 Al48 Si24 O168'
_cell_volume   3656.32203842
_cell_formula_units_Z   24
loop_
 _symmetry_equiv_pos_site_id
 _symmetry_equiv_pos_as_xyz
  1  'x, y, z'
loop_
 _atom_type_symbol
 _atom_type_oxidation_number
  Ca2+  2.0
  Al0+  0.0
  Si0+  0.0
  O2-  -2.0
loop_
 _atom_site_type_symbol
 _atom_site_label
 _atom_site_symmetry_multiplicity
 _atom_site_fract_x
 _atom_site_fract_y
 _atom_site_fract_z
 _atom_site_occupancy
  Ca2+  Ca0  1  0.15431046  0.07740713  0.16863064  1
  Ca2+  Ca1  1  0.15686148  0.07759211  0.49771619  1
  Ca2+  Ca2  1  0.16686328  0.08056969  0.84368461  1
  Ca2+  Ca3  1  0.16450905  0.58157969  0.16111358  1
  Ca2+  Ca4  1  0.17398645  0.58029131  0.50867938  1
  Ca2+  Ca5  1  0.17994977  0.58042681  0.84722048  1
  Ca2+  Ca6  1  0.67045558  0.07400618  0.17310979  1
  Ca2+  Ca7  1  0.66948941  0.07580681  0.50611575  1
  Ca2+  Ca8  1  0.65689385  0.07574874  0.83970033  1
  Ca2+  Ca9  1  0.66634566  0.58297344  0.16663222  1
  Ca2+  Ca10  1  0.67341386  0.57739435  0.51432564  1
  Ca2+  Ca11  1  0.66511404  0.58251300  0.83428675  1
  Ca2+  Ca12  1  0.07481881  0.32444643  0.15711754  1
  Ca2+  Ca13  1  0.07483661  0.32614228  0.48868569  1
  Ca2+  Ca14  1  0.08361569  0.33676767  0.83701812  1
  Ca2+  Ca15  1  0.07453711  0.83796406  0.15754014  1
  Ca2+  Ca16  1  0.07588606  0.83109829  0.48860413  1
  Ca2+  Ca17  1  0.08059432  0.83274389  0.83590824  1
  Ca2+  Ca18  1  0.57800755  0.32357072  0.15386780  1
  Ca2+  Ca19  1  0.58272827  0.33550824  0.50404933  1
  Ca2+  Ca20  1  0.57642251  0.32663086  0.82629701  1
  Ca2+  Ca21  1  0.58850290  0.83065564  0.15767448  1
  Ca2+  Ca22  1  0.59452029  0.82976260  0.50040221  1
  Ca2+  Ca23  1  0.59231923  0.82441028  0.82994148  1
  Ca2+  Ca24  1  0.33132677  0.41658294  0.16166499  1
  Ca2+  Ca25  1  0.33304915  0.41985668  0.50991852  1
  Ca2+  Ca26  1  0.33748213  0.42169892  0.84218882  1
  Ca2+  Ca27  1  0.31869156  0.91635257  0.16820136  1
  Ca2+  Ca28  1  0.32528341  0.91710028  0.50120622  1
  Ca2+  Ca29  1  0.32727940  0.91895267  0.84239694  1
  Ca2+  Ca30  1  0.83968672  0.41366553  0.16850694  1
  Ca2+  Ca31  1  0.83102290  0.42179502  0.51010129  1
  Ca2+  Ca32  1  0.83052477  0.41932986  0.83645179  1
  Ca2+  Ca33  1  0.82979481  0.91838372  0.17260223  1
  Ca2+  Ca34  1  0.82866436  0.92105488  0.49933489  1
  Ca2+  Ca35  1  0.82311786  0.91616304  0.84014529  1
  Ca2+  Ca36  1  0.42361195  0.17059788  0.15579559  1
  Ca2+  Ca37  1  0.42392447  0.16832456  0.50261699  1
  Ca2+  Ca38  1  0.42403786  0.17606142  0.82945824  1
  Ca2+  Ca39  1  0.42267670  0.66811095  0.15705819  1
  Ca2+  Ca40  1  0.42314873  0.66193107  0.50332182  1
  Ca2+  Ca41  1  0.42507942  0.65873481  0.83021908  1
  Ca2+  Ca42  1  0.92123815  0.16965791  0.16289535  1
  Ca2+  Ca43  1  0.91710420  0.17100805  0.48878917  1
  Ca2+  Ca44  1  0.92085840  0.16999830  0.83804072  1
  Ca2+  Ca45  1  0.92153768  0.68179187  0.15659444  1
  Ca2+  Ca46  1  0.91052716  0.67244768  0.49536704  1
  Ca2+  Ca47  1  0.91852583  0.66893601  0.83408591  1
  Al0+  Al48  1  -0.00286482  0.00183723  -0.00564798  1
  Al0+  Al49  1  -0.00198143  -0.00100003  0.33587662  1
  Al0+  Al50  1  -0.00242612  -0.00122705  0.66673899  1
  Al0+  Al51  1  0.00103822  0.50204963  -0.00239893  1
  Al0+  Al52  1  0.00188485  0.50011256  0.33264597  1
  Al0+  Al53  1  0.00151254  0.50081976  0.66869215  1
  Al0+  Al54  1  0.49888371  -0.00215399  0.00310007  1
  Al0+  Al55  1  0.49723317  -0.00249313  0.33724169  1
  Al0+  Al56  1  0.49697980  -0.00027245  0.66586926  1
  Al0+  Al57  1  0.50178233  0.50100663  -0.00024850  1
  Al0+  Al58  1  0.50046097  0.50084121  0.33318247  1
  Al0+  Al59  1  0.50059189  0.50064013  0.66440415  1
  Al0+  Al60  1  0.25018439  0.25184917  -0.00227696  1
  Al0+  Al61  1  0.25128264  0.25066944  0.33115630  1
  Al0+  Al62  1  0.24918952  0.24737033  0.66080335  1
  Al0+  Al63  1  0.25047802  0.75096561  0.00641367  1
  Al0+  Al64  1  0.25327021  0.74971113  0.33851537  1
  Al0+  Al65  1  0.24904600  0.74867108  0.66941756  1
  Al0+  Al66  1  0.75114417  0.24912421  -0.00713077  1
  Al0+  Al67  1  0.74717273  0.25023157  0.33368921  1
  Al0+  Al68  1  0.75201756  0.24877553  0.66696861  1
  Al0+  Al69  1  0.74996625  0.75017794  -0.00313742  1
  Al0+  Al70  1  0.75053892  0.74718266  0.33192731  1
  Al0+  Al71  1  0.75144691  0.75188589  0.66882756  1
  Al0+  Al72  1  0.67753577  0.92620025  0.34921300  1
  Al0+  Al73  1  0.32015172  0.56982230  0.68060355  1
  Al0+  Al74  1  0.07300994  0.68073299  0.98504606  1
  Al0+  Al75  1  0.67999094  0.42764329  0.68286171  1
  Al0+  Al76  1  0.67908061  0.92859487  0.01399270  1
  Al0+  Al77  1  0.92904014  0.81821688  0.32023931  1
  Al0+  Al78  1  0.17719831  0.93126820  0.01251722  1
  Al0+  Al79  1  0.17871636  0.93031760  0.34716985  1
  Al0+  Al80  1  0.67869199  0.93193671  0.68123792  1
  Al0+  Al81  1  0.92816941  0.82276448  0.98282231  1
  Al0+  Al82  1  0.92830967  0.32378600  0.98254174  1
  Al0+  Al83  1  0.57114235  0.68189758  0.65215790  1
  Al0+  Al84  1  0.57145486  0.17553717  0.98664444  1
  Al0+  Al85  1  0.07095151  0.17876350  0.31851446  1
  Al0+  Al86  1  0.81936272  0.07228172  0.34801826  1
  Al0+  Al87  1  0.07114961  0.17946865  0.98428433  1
  Al0+  Al88  1  0.42926804  0.32123236  0.64996825  1
  Al0+  Al89  1  0.32419072  0.57084508  0.01779588  1
  Al0+  Al90  1  0.57104177  0.68034050  0.98663841  1
  Al0+  Al91  1  0.57278318  0.17637554  0.64976934  1
  Al0+  Al92  1  0.17757521  0.42811919  0.01674516  1
  Al0+  Al93  1  0.42975329  0.32158726  0.98604278  1
  Al0+  Al94  1  0.92601759  0.32314626  0.31982197  1
  Al0+  Al95  1  0.82315010  0.57255698  0.68342837  1
  Si0+  Si96  1  0.31898278  0.07073765  0.68141787  1
  Si0+  Si97  1  0.82408531  0.07237702  0.68563380  1
  Si0+  Si98  1  0.32340684  0.56975437  0.35073541  1
  Si0+  Si99  1  0.56963248  0.67975743  0.31893248  1
  Si0+  Si100  1  0.17707211  0.92918553  0.68143438  1
  Si0+  Si101  1  0.56897315  0.17687344  0.31950881  1
  Si0+  Si102  1  0.32283584  0.07455462  0.35158967  1
  Si0+  Si103  1  0.06987848  0.17644979  0.65019019  1
  Si0+  Si104  1  0.82164711  0.56891291  0.34549039  1
  Si0+  Si105  1  0.07653120  0.67792984  0.31815634  1
  Si0+  Si106  1  0.18007313  0.42889806  0.34887477  1
  Si0+  Si107  1  0.93042049  0.82065286  0.64928062  1
  Si0+  Si108  1  0.82083294  0.07350862  0.01639575  1
  Si0+  Si109  1  0.42388204  0.82217641  0.64922904  1
  Si0+  Si110  1  0.82116669  0.57141680  0.01602727  1
  Si0+  Si111  1  0.32161048  0.07268278  0.01595092  1
  Si0+  Si112  1  0.43042954  0.32321001  0.31771445  1
  Si0+  Si113  1  0.67670253  0.42975450  0.34668761  1
  Si0+  Si114  1  0.68092053  0.42824726  0.01460746  1
  Si0+  Si115  1  0.42701519  0.82159936  0.98514095  1
  Si0+  Si116  1  0.07248155  0.67948799  0.65120807  1
  Si0+  Si117  1  0.17863346  0.42530224  0.68145053  1
  Si0+  Si118  1  0.42694644  0.82121458  0.31838203  1
  Si0+  Si119  1  0.93106292  0.32225545  0.65169731  1
  O2-  O120  1  0.24897891  0.00837662  0.06051914  1
  O2-  O121  1  0.25052786  0.00809699  0.39477422  1
  O2-  O122  1  0.24822260  -0.00054825  0.72336330  1
  O2-  O123  1  0.25040352  0.49997193  0.06740942  1
  O2-  O124  1  0.25069310  0.50001939  0.39219321  1
  O2-  O125  1  0.24934611  0.49131072  0.72523106  1
  O2-  O126  1  0.75127978  0.00532117  0.06003818  1
  O2-  O127  1  0.74668400  0.00093156  0.39896156  1
  O2-  O128  1  0.74892235  0.01043532  0.72849699  1
  O2-  O129  1  0.75322366  0.49729429  0.05900167  1
  O2-  O130  1  0.75484320  0.49386757  0.38714070  1
  O2-  O131  1  0.75112243  0.50056429  0.73307696  1
  O2-  O132  1  -0.00253591  0.25035816  0.27088263  1
  O2-  O133  1  0.00056037  0.24965817  0.60944004  1
  O2-  O134  1  0.00324304  0.25447908  0.93280233  1
  O2-  O135  1  0.00812243  0.74714934  0.27548556  1
  O2-  O136  1  0.00034127  0.74809005  0.60693095  1
  O2-  O137  1  0.00186889  0.75213627  0.93280111  1
  O2-  O138  1  0.49848191  0.24870652  0.27734105  1
  O2-  O139  1  0.50379519  0.25170201  0.59897560  1
  O2-  O140  1  0.50074343  0.24859780  0.93723298  1
  O2-  O141  1  0.50279957  0.75471516  0.27741243  1
  O2-  O142  1  0.49612728  0.75675158  0.60461894  1
  O2-  O143  1  0.49550605  0.75391284  0.94016988  1
  O2-  O144  1  0.06669908  0.17715590  0.09748737  1
  O2-  O145  1  0.07040931  0.18232351  0.43305939  1
  O2-  O146  1  0.07091518  0.17378706  0.75457242  1
  O2-  O147  1  0.06906022  0.68219578  0.09918843  1
  O2-  O148  1  0.07618809  0.67766544  0.42447611  1
  O2-  O149  1  0.07476029  0.68241432  0.75537583  1
  O2-  O150  1  0.57036693  0.17741673  0.10132298  1
  O2-  O151  1  0.56794090  0.17784953  0.42435282  1
  O2-  O152  1  0.56659203  0.17419419  0.76257682  1
  O2-  O153  1  0.57157214  0.68095504  0.10069476  1
  O2-  O154  1  0.56852475  0.67699966  0.42383899  1
  O2-  O155  1  0.57063873  0.68293831  0.76463194  1
  O2-  O156  1  0.18013172  0.42932254  0.24467189  1
  O2-  O157  1  0.17754574  0.42834811  0.57501406  1
  O2-  O158  1  0.17952461  0.43035344  0.90291245  1
  O2-  O159  1  0.18097993  0.92825721  0.23475326  1
  O2-  O160  1  0.17645157  0.92981974  0.57608921  1
  O2-  O161  1  0.18130814  0.93184292  0.89879971  1
  O2-  O162  1  0.67091399  0.43351144  0.24177549  1
  O2-  O163  1  0.68388426  0.43009520  0.56790420  1
  O2-  O164  1  0.68047606  0.43014692  0.91012083  1
  O2-  O165  1  0.67803361  0.92628066  0.23591694  1
  O2-  O166  1  0.68388189  0.93059854  0.56805209  1
  O2-  O167  1  0.67984848  0.92852506  0.90088369  1
  O2-  O168  1  0.43338879  0.31976607  0.10080290  1
  O2-  O169  1  0.43166273  0.32669272  0.42250164  1
  O2-  O170  1  0.42652073  0.31812704  0.76258735  1
  O2-  O171  1  0.42845146  0.82116666  0.09124479  1
  O2-  O172  1  0.42212033  0.81838144  0.42324249  1
  O2-  O173  1  0.41916893  0.82156920  0.75428644  1
  O2-  O174  1  0.92687064  0.32071813  0.09613417  1
  O2-  O175  1  0.92980858  0.32618210  0.43400746  1
  O2-  O176  1  0.93342838  0.32374331  0.75613219  1
  O2-  O177  1  0.92785021  0.82140816  0.09675274  1
  O2-  O178  1  0.92895027  0.81429996  0.43398033  1
  O2-  O179  1  0.93340075  0.82351351  0.75368985  1
  O2-  O180  1  0.32743066  0.07312774  0.24654121  1
  O2-  O181  1  0.31756918  0.07013456  0.57610946  1
  O2-  O182  1  0.32254378  0.06850605  0.91011535  1
  O2-  O183  1  0.32750152  0.56927619  0.24649758  1
  O2-  O184  1  0.31608563  0.57078132  0.56644537  1
  O2-  O185  1  0.32509973  0.56960643  0.90433106  1
  O2-  O186  1  0.81697532  0.07283771  0.23473105  1
  O2-  O187  1  0.82931579  0.06904250  0.58016079  1
  O2-  O188  1  0.82128950  0.07263505  0.91066397  1
  O2-  O189  1  0.81905880  0.57143169  0.24063225  1
  O2-  O190  1  0.82328155  0.57053257  0.56856709  1
  O2-  O191  1  0.81893525  0.57219505  0.91129540  1
  O2-  O192  1  0.04374273  0.07915066  0.26968933  1
  O2-  O193  1  0.03879981  0.08504699  0.60257852  1
  O2-  O194  1  0.03929023  0.08384066  0.92753939  1
  O2-  O195  1  0.05105687  0.58430135  0.27330906  1
  O2-  O196  1  0.04787044  0.58603066  0.60430235  1
  O2-  O197  1  0.04565391  0.58311898  0.93174043  1
  O2-  O198  1  0.54013544  0.08438728  0.27396253  1
  O2-  O199  1  0.53722999  0.07976526  0.59554872  1
  O2-  O200  1  0.53988353  0.07760720  0.93528384  1
  O2-  O201  1  0.53730148  0.58952552  0.27030790  1
  O2-  O202  1  0.54088769  0.58568842  0.59642444  1
  O2-  O203  1  0.54234654  0.58373698  0.93332870  1
  O2-  O204  1  0.17077928  0.20541673  0.26768932  1
  O2-  O205  1  0.16164099  0.20050563  0.60085827  1
  O2-  O206  1  0.17102631  0.20277270  0.93247417  1
  O2-  O207  1  0.17126985  0.70188518  0.27488883  1
  O2-  O208  1  0.16305788  0.70932490  0.60136421  1
  O2-  O209  1  0.17258623  0.70921916  0.93499727  1
  O2-  O210  1  0.66024548  0.20440864  0.27202742  1
  O2-  O211  1  0.67387188  0.20093246  0.59959099  1
  O2-  O212  1  0.66902817  0.20102297  0.93300328  1
  O2-  O213  1  0.66242984  0.70224391  0.27146475  1
  O2-  O214  1  0.66866236  0.71329160  0.59841533  1
  O2-  O215  1  0.66596120  0.71099511  0.93120319  1
  O2-  O216  1  0.07904684  0.45893642  0.06935401  1
  O2-  O217  1  0.08830984  0.45687742  0.39788951  1
  O2-  O218  1  0.08626742  0.45273572  0.72754360  1
  O2-  O219  1  0.07903730  0.96123525  0.06349668  1
  O2-  O220  1  0.08260626  0.95779873  0.40399185  1
  O2-  O221  1  0.08552810  0.95798406  0.72801898  1
  O2-  O222  1  0.59085262  0.45866498  0.06416758  1
  O2-  O223  1  0.58854850  0.46540583  0.39734397  1
  O2-  O224  1  0.58072246  0.45596212  0.73155854  1
  O2-  O225  1  0.58099913  0.95468200  0.06848423  1
  O2-  O226  1  0.57684939  0.94944542  0.40057599  1
  O2-  O227  1  0.57819837  0.95495297  0.73105171  1
  O2-  O228  1  0.20600255  0.32914912  0.06944681  1
  O2-  O229  1  0.20845821  0.33709910  0.39675515  1
  O2-  O230  1  0.19978515  0.32929506  0.72346269  1
  O2-  O231  1  0.20945037  0.83699157  0.06970299  1
  O2-  O232  1  0.21369738  0.83458861  0.40307292  1
  O2-  O233  1  0.20431568  0.83730644  0.72771976  1
  O2-  O234  1  0.70731789  0.33504697  0.06058746  1
  O2-  O235  1  0.69568038  0.33594905  0.39295653  1
  O2-  O236  1  0.70765148  0.32844462  0.73371045  1
  O2-  O237  1  0.71186716  0.83177313  0.06697743  1
  O2-  O238  1  0.70967745  0.82728118  0.40028410  1
  O2-  O239  1  0.71435241  0.83698453  0.73434726  1
  O2-  O240  1  0.46195835  0.41372645  0.26978431  1
  O2-  O241  1  0.45621634  0.41983863  0.59584372  1
  O2-  O242  1  0.46080350  0.41885644  0.93465301  1
  O2-  O243  1  0.44825298  0.91499102  0.27239139  1
  O2-  O244  1  0.44482570  0.91674907  0.60338677  1
  O2-  O245  1  0.45035936  0.91537874  0.93922297  1
  O2-  O246  1  0.95619082  0.42155520  0.26733545  1
  O2-  O247  1  0.95971220  0.41415777  0.60346664  1
  O2-  O248  1  0.95371152  0.42297104  0.93104695  1
  O2-  O249  1  0.95615140  0.91608547  0.26941117  1
  O2-  O250  1  0.96082649  0.91176867  0.60090599  1
  O2-  O251  1  0.95383803  0.92023024  0.92816933  1
  O2-  O252  1  0.33754605  0.29885552  0.27167119  1
  O2-  O253  1  0.33116710  0.28917826  0.59496274  1
  O2-  O254  1  0.33114585  0.29783104  0.93352026  1
  O2-  O255  1  0.33760730  0.78783216  0.26918499  1
  O2-  O256  1  0.33158186  0.79171531  0.60095653  1
  O2-  O257  1  0.33323066  0.79772411  0.93992197  1
  O2-  O258  1  0.82525406  0.30019601  0.26921803  1
  O2-  O259  1  0.83877995  0.29638922  0.60464469  1
  O2-  O260  1  0.83207592  0.29280074  0.92698663  1
  O2-  O261  1  0.83437361  0.78311206  0.26505647  1
  O2-  O262  1  0.83896683  0.79269047  0.60214666  1
  O2-  O263  1  0.83230877  0.78879287  0.92928998  1
  O2-  O264  1  0.41230892  0.04217759  0.06586443  1
  O2-  O265  1  0.41318602  0.04327450  0.40172262  1
  O2-  O266  1  0.40988943  0.04349061  0.72969961  1
  O2-  O267  1  0.42249917  0.54079711  0.07201986  1
  O2-  O268  1  0.41433401  0.53879082  0.39932751  1
  O2-  O269  1  0.41860424  0.54408593  0.73064588  1
  O2-  O270  1  0.91383480  0.04581602  0.06168688  1
  O2-  O271  1  0.91678666  0.04301376  0.40307148  1
  O2-  O272  1  0.91473964  0.03858216  0.73374826  1
  O2-  O273  1  0.91381094  0.54763282  0.06294673  1
  O2-  O274  1  0.91527190  0.54748122  0.39356822  1
  O2-  O275  1  0.92235780  0.54488126  0.73473372  1
  O2-  O276  1  0.30235468  0.16805935  0.05975568  1
  O2-  O277  1  0.30084215  0.16963776  0.39696410  1
  O2-  O278  1  0.28930038  0.16223180  0.72788970  1
  O2-  O279  1  0.29664828  0.66947855  0.07143339  1
  O2-  O280  1  0.29785669  0.66165937  0.39916046  1
  O2-  O281  1  0.28726772  0.66558860  0.73455604  1
  O2-  O282  1  0.79677781  0.16798087  0.06143038  1
  O2-  O283  1  0.79149016  0.17151560  0.40187816  1
  O2-  O284  1  0.80773424  0.16861306  0.72830545  1
  O2-  O285  1  0.78831772  0.66150539  0.06405186  1
  O2-  O286  1  0.78917874  0.65805137  0.39557755  1
  O2-  O287  1  0.79611744  0.67115100  0.73434300  1
