# generated using pymatgen
data_Ca2Al2SiO7
_symmetry_space_group_name_H-M   'P 1'
_cell_length_a   15.46585295
_cell_length_b   15.46463062
_cell_length_c   15.28855723
_cell_angle_alpha   89.99073917
_cell_angle_beta   89.97229884
_cell_angle_gamma   90.00892382
_symmetry_Int_Tables_number   1
_chemical_formula_structural   Ca2Al2SiO7
_chemical_formula_sum   'Ca48 Al48 Si24 O168'
_cell_volume   3656.62032823
_cell_formula_units_Z   24
loop_
 _symmetry_equiv_pos_site_id
 _symmetry_equiv_pos_as_xyz
  1  'x, y, z'
loop_
 _atom_type_symbol
 _atom_type_oxidation_number
  Ca2+  2.0
  Al0+  0.0
  Si0+  0.0
  O2-  -2.0
loop_
 _atom_site_type_symbol
 _atom_site_label
 _atom_site_symmetry_multiplicity
 _atom_site_fract_x
 _atom_site_fract_y
 _atom_site_fract_z
 _atom_site_occupancy
  Ca2+  Ca0  1  0.17494491  0.08685559  0.17598467  1
  Ca2+  Ca1  1  0.16850443  0.08205828  0.50152604  1
  Ca2+  Ca2  1  0.17514393  0.08408213  0.83163097  1
  Ca2+  Ca3  1  0.17301355  0.57682947  0.17568735  1
  Ca2+  Ca4  1  0.17271832  0.58184480  0.50014211  1
  Ca2+  Ca5  1  0.16657913  0.57891717  0.83675694  1
  Ca2+  Ca6  1  0.67511210  0.08434132  0.17568589  1
  Ca2+  Ca7  1  0.67470727  0.08547923  0.49842253  1
  Ca2+  Ca8  1  0.67880064  0.08802038  0.83561183  1
  Ca2+  Ca9  1  0.66935759  0.57243367  0.16576655  1
  Ca2+  Ca10  1  0.67173256  0.58044012  0.50766342  1
  Ca2+  Ca11  1  0.67558043  0.57898690  0.83676603  1
  Ca2+  Ca12  1  0.07397151  0.32611704  0.16798834  1
  Ca2+  Ca13  1  0.07118164  0.32474515  0.49362932  1
  Ca2+  Ca14  1  0.06997395  0.33154783  0.82918999  1
  Ca2+  Ca15  1  0.07844255  0.84194588  0.17063667  1
  Ca2+  Ca16  1  0.07703340  0.84410365  0.49620061  1
  Ca2+  Ca17  1  0.07905355  0.83223987  0.82478562  1
  Ca2+  Ca18  1  0.57675715  0.32733931  0.16593246  1
  Ca2+  Ca19  1  0.57499961  0.32197002  0.49345808  1
  Ca2+  Ca20  1  0.57466518  0.33841097  0.83112031  1
  Ca2+  Ca21  1  0.58647770  0.83624482  0.16632039  1
  Ca2+  Ca22  1  0.59141127  0.82686089  0.49467703  1
  Ca2+  Ca23  1  0.58705372  0.82469214  0.82528538  1
  Ca2+  Ca24  1  0.34289776  0.41952779  0.17369807  1
  Ca2+  Ca25  1  0.34117019  0.41546848  0.50152652  1
  Ca2+  Ca26  1  0.33519772  0.41057070  0.83696760  1
  Ca2+  Ca27  1  0.32716799  0.93021236  0.17781844  1
  Ca2+  Ca28  1  0.32146353  0.93020783  0.50560293  1
  Ca2+  Ca29  1  0.32982813  0.92778557  0.83641062  1
  Ca2+  Ca30  1  0.83518048  0.41406424  0.16803296  1
  Ca2+  Ca31  1  0.83838775  0.41960666  0.50885689  1
  Ca2+  Ca32  1  0.83255012  0.42384518  0.84416420  1
  Ca2+  Ca33  1  0.83037058  0.92757802  0.17714547  1
  Ca2+  Ca34  1  0.83972138  0.92775465  0.50175876  1
  Ca2+  Ca35  1  0.83983848  0.92859024  0.83261857  1
  Ca2+  Ca36  1  0.41681663  0.16759790  0.16099716  1
  Ca2+  Ca37  1  0.41471629  0.17078238  0.49047286  1
  Ca2+  Ca38  1  0.41156706  0.17306596  0.82792324  1
  Ca2+  Ca39  1  0.41531913  0.66758511  0.16488664  1
  Ca2+  Ca40  1  0.42287498  0.66525358  0.49479750  1
  Ca2+  Ca41  1  0.42758505  0.66868599  0.82453044  1
  Ca2+  Ca42  1  0.91599334  0.16769491  0.16449319  1
  Ca2+  Ca43  1  0.91590750  0.17068749  0.48860065  1
  Ca2+  Ca44  1  0.90708100  0.17565958  0.82813349  1
  Ca2+  Ca45  1  0.91309028  0.67306540  0.16483419  1
  Ca2+  Ca46  1  0.91132203  0.68086395  0.49738623  1
  Ca2+  Ca47  1  0.90980826  0.67125625  0.82427554  1
  Al0+  Al48  1  0.00128149  -0.00123205  0.00087491  1
  Al0+  Al49  1  -0.00050835  0.00059106  0.32979338  1
  Al0+  Al50  1  0.00088656  0.00006253  0.67331654  1
  Al0+  Al51  1  0.00184447  0.50089847  0.00174578  1
  Al0+  Al52  1  0.00130081  0.50192041  0.33121457  1
  Al0+  Al53  1  0.00187537  0.50149329  0.66716157  1
  Al0+  Al54  1  0.49936544  -0.00005905  0.00012611  1
  Al0+  Al55  1  0.50072338  -0.00295520  0.33762032  1
  Al0+  Al56  1  0.50031378  -0.00056184  0.67105229  1
  Al0+  Al57  1  0.50141878  0.50024859  -0.00126082  1
  Al0+  Al58  1  0.50274633  0.50059155  0.33435192  1
  Al0+  Al59  1  0.50088532  0.50050571  0.65925660  1
  Al0+  Al60  1  0.24868498  0.24976971  -0.00067587  1
  Al0+  Al61  1  0.24621543  0.25460182  0.33000245  1
  Al0+  Al62  1  0.24804362  0.25224220  0.66637187  1
  Al0+  Al63  1  0.24960644  0.74977392  -0.00246398  1
  Al0+  Al64  1  0.25156931  0.74780982  0.34145535  1
  Al0+  Al65  1  0.25106165  0.74920517  0.67113871  1
  Al0+  Al66  1  0.74817514  0.25043349  0.00393358  1
  Al0+  Al67  1  0.74503680  0.25191530  0.32990580  1
  Al0+  Al68  1  0.74536688  0.25175153  0.66693168  1
  Al0+  Al69  1  0.75066386  0.74848586  0.00147888  1
  Al0+  Al70  1  0.75083043  0.74766795  0.32856003  1
  Al0+  Al71  1  0.75130849  0.74857032  0.66166149  1
  Al0+  Al72  1  0.82121588  0.07067615  0.01381644  1
  Al0+  Al73  1  0.92956735  0.82032323  0.31856585  1
  Al0+  Al74  1  0.92861421  0.31987973  0.98592585  1
  Al0+  Al75  1  0.81973505  0.07304602  0.67944550  1
  Al0+  Al76  1  0.42828656  0.31863761  0.65251893  1
  Al0+  Al77  1  0.93176093  0.82131268  0.65350153  1
  Al0+  Al78  1  0.42888334  0.32105267  0.31872440  1
  Al0+  Al79  1  0.67741356  0.42913473  0.01601982  1
  Al0+  Al80  1  0.17827516  0.92903328  0.34795916  1
  Al0+  Al81  1  0.92636426  0.32201081  0.65580487  1
  Al0+  Al82  1  0.31964269  0.07129427  0.01424739  1
  Al0+  Al83  1  0.17855833  0.92802792  0.68428320  1
  Al0+  Al84  1  0.67905715  0.92517682  0.34818771  1
  Al0+  Al85  1  0.81912070  0.07260437  0.34753007  1
  Al0+  Al86  1  0.57066160  0.68109148  0.65168388  1
  Al0+  Al87  1  0.32289038  0.56851623  0.34767773  1
  Al0+  Al88  1  0.82350328  0.57156029  0.01701954  1
  Al0+  Al89  1  0.32097761  0.07519913  0.34762691  1
  Al0+  Al90  1  0.82161065  0.57005954  0.67841777  1
  Al0+  Al91  1  0.32194072  0.07389303  0.68205780  1
  Al0+  Al92  1  0.42957367  0.32010661  0.98557529  1
  Al0+  Al93  1  0.06947949  0.17802250  0.31852719  1
  Al0+  Al94  1  0.92584091  0.32331859  0.31862956  1
  Al0+  Al95  1  0.56839374  0.17456944  0.31778429  1
  Si0+  Si96  1  0.67812124  0.92655538  0.01385175  1
  Si0+  Si97  1  0.92935197  0.81996820  0.98432015  1
  Si0+  Si98  1  0.07283721  0.67891710  0.98494189  1
  Si0+  Si99  1  0.32351792  0.56967979  0.68295326  1
  Si0+  Si100  1  0.17972705  0.92505281  0.01757280  1
  Si0+  Si101  1  0.17889428  0.42927880  0.01521422  1
  Si0+  Si102  1  0.07448980  0.67870376  0.31691436  1
  Si0+  Si103  1  0.07164491  0.17652142  0.98097778  1
  Si0+  Si104  1  0.57195532  0.67844565  0.31479828  1
  Si0+  Si105  1  0.67903484  0.43053528  0.35014233  1
  Si0+  Si106  1  0.57209851  0.17500617  0.65075734  1
  Si0+  Si107  1  0.17531154  0.42975148  0.35189079  1
  Si0+  Si108  1  0.67944466  0.92603256  0.68245973  1
  Si0+  Si109  1  0.06961881  0.17976057  0.65235862  1
  Si0+  Si110  1  0.32105342  0.57092962  0.01229267  1
  Si0+  Si111  1  0.42823014  0.81825947  0.31990062  1
  Si0+  Si112  1  0.17929326  0.43056261  0.68299114  1
  Si0+  Si113  1  0.07561157  0.67702723  0.64957978  1
  Si0+  Si114  1  0.67655147  0.42946820  0.68249382  1
  Si0+  Si115  1  0.57045595  0.67990922  0.98471881  1
  Si0+  Si116  1  0.82246194  0.56967908  0.34850493  1
  Si0+  Si117  1  0.42787739  0.82148386  0.98494802  1
  Si0+  Si118  1  0.57157084  0.17554809  0.98165883  1
  Si0+  Si119  1  0.42695630  0.82293908  0.64982034  1
  O2-  O120  1  0.24581580  -0.00395903  0.06049836  1
  O2-  O121  1  0.24703374  0.00454345  0.39667250  1
  O2-  O122  1  0.25258280  -0.00103712  0.73253777  1
  O2-  O123  1  0.25338382  0.49808952  0.05585639  1
  O2-  O124  1  0.25000104  0.49289554  0.39543234  1
  O2-  O125  1  0.25222356  0.50002758  0.72628252  1
  O2-  O126  1  0.74541447  -0.00418980  0.05762127  1
  O2-  O127  1  0.74909377  -0.00141716  0.39816335  1
  O2-  O128  1  0.74495794  -0.00251660  0.72692088  1
  O2-  O129  1  0.75485353  0.49604902  0.06620632  1
  O2-  O130  1  0.75679967  0.49465379  0.39145190  1
  O2-  O131  1  0.75116572  0.49206034  0.72624461  1
  O2-  O132  1  -0.00635113  0.24706150  0.26928105  1
  O2-  O133  1  -0.00514443  0.24226578  0.60905394  1
  O2-  O134  1  -0.00120142  0.24145910  0.93721869  1
  O2-  O135  1  0.00760559  0.74828155  0.27166640  1
  O2-  O136  1  0.00899683  0.74810403  0.60724163  1
  O2-  O137  1  -0.00003814  0.74781283  0.94272793  1
  O2-  O138  1  0.49126575  0.24167719  0.26735897  1
  O2-  O139  1  0.49762706  0.23856440  0.60845066  1
  O2-  O140  1  0.50211940  0.24408218  0.93757175  1
  O2-  O141  1  0.50199506  0.75117909  0.27386991  1
  O2-  O142  1  0.49768212  0.75710034  0.60437297  1
  O2-  O143  1  0.50140343  0.75294726  0.94233729  1
  O2-  O144  1  0.07365010  0.17808433  0.08609544  1
  O2-  O145  1  0.06882938  0.18024232  0.43255563  1
  O2-  O146  1  0.07204405  0.18441512  0.75823283  1
  O2-  O147  1  0.07813431  0.68019211  0.08951924  1
  O2-  O148  1  0.07282845  0.67579025  0.42217865  1
  O2-  O149  1  0.07556437  0.67524635  0.75571212  1
  O2-  O150  1  0.56866134  0.17261422  0.08673616  1
  O2-  O151  1  0.57099401  0.17942135  0.43155729  1
  O2-  O152  1  0.57540150  0.17784725  0.75641320  1
  O2-  O153  1  0.56815745  0.67980058  0.08977479  1
  O2-  O154  1  0.57207675  0.67708036  0.41975435  1
  O2-  O155  1  0.56880343  0.68092487  0.76551194  1
  O2-  O156  1  0.17174796  0.43506450  0.24621002  1
  O2-  O157  1  0.17846833  0.43251022  0.57837357  1
  O2-  O158  1  0.17787083  0.43266707  0.90978572  1
  O2-  O159  1  0.18360061  0.92583554  0.23395855  1
  O2-  O160  1  0.17875053  0.92892107  0.57137077  1
  O2-  O161  1  0.18202180  0.92086467  0.91229271  1
  O2-  O162  1  0.67517250  0.43528059  0.24535589  1
  O2-  O163  1  0.67538373  0.43209633  0.57690209  1
  O2-  O164  1  0.67448963  0.43517208  0.90219529  1
  O2-  O165  1  0.68290745  0.92307893  0.23406937  1
  O2-  O166  1  0.68060677  0.92457093  0.57758266  1
  O2-  O167  1  0.67907645  0.92337307  0.90815786  1
  O2-  O168  1  0.43055644  0.32254478  0.09782105  1
  O2-  O169  1  0.43469682  0.32336269  0.43219339  1
  O2-  O170  1  0.43055393  0.32142325  0.76602750  1
  O2-  O171  1  0.42588439  0.81843524  0.08994942  1
  O2-  O172  1  0.42820529  0.81309361  0.42444482  1
  O2-  O173  1  0.42842006  0.81865962  0.75619008  1
  O2-  O174  1  0.93334864  0.32092566  0.09827854  1
  O2-  O175  1  0.92960907  0.32579905  0.43260255  1
  O2-  O176  1  0.92918038  0.32354387  0.76916862  1
  O2-  O177  1  0.93007228  0.81960392  0.08918621  1
  O2-  O178  1  0.92818101  0.81810689  0.43149358  1
  O2-  O179  1  0.93115089  0.81820685  0.76733398  1
  O2-  O180  1  0.32068182  0.07125221  0.23361589  1
  O2-  O181  1  0.31927541  0.07499508  0.56919335  1
  O2-  O182  1  0.31834680  0.07017500  0.90129414  1
  O2-  O183  1  0.32166923  0.56972646  0.23367069  1
  O2-  O184  1  0.32329870  0.56953412  0.57815978  1
  O2-  O185  1  0.31963444  0.57230573  0.90713688  1
  O2-  O186  1  0.81824255  0.07034670  0.23376266  1
  O2-  O187  1  0.82018506  0.07394703  0.56714229  1
  O2-  O188  1  0.82058676  0.06916814  0.90017536  1
  O2-  O189  1  0.82022198  0.57097891  0.24346519  1
  O2-  O190  1  0.81942253  0.57022063  0.56521360  1
  O2-  O191  1  0.82047681  0.57465308  0.90322841  1
  O2-  O192  1  0.04714256  0.07973297  0.26296690  1
  O2-  O193  1  0.05076141  0.08351719  0.61130483  1
  O2-  O194  1  0.05139151  0.08050417  0.93705084  1
  O2-  O195  1  0.04686044  0.58687039  0.26796977  1
  O2-  O196  1  0.04950382  0.58438340  0.60266084  1
  O2-  O197  1  0.04840654  0.58640330  0.93730086  1
  O2-  O198  1  0.54943532  0.07258420  0.26760677  1
  O2-  O199  1  0.55424729  0.07852244  0.60816016  1
  O2-  O200  1  0.54793394  0.08125957  0.93468659  1
  O2-  O201  1  0.53951950  0.58862396  0.26673962  1
  O2-  O202  1  0.53744953  0.58676845  0.59519368  1
  O2-  O203  1  0.53931426  0.59046324  0.93526918  1
  O2-  O204  1  0.16514453  0.21240663  0.26224124  1
  O2-  O205  1  0.15988404  0.21266063  0.60437951  1
  O2-  O206  1  0.16290273  0.20842226  0.93337477  1
  O2-  O207  1  0.16993641  0.70138293  0.27259154  1
  O2-  O208  1  0.17121645  0.69885388  0.60578681  1
  O2-  O209  1  0.16364561  0.70734381  0.93364783  1
  O2-  O210  1  0.66328300  0.21077898  0.26238637  1
  O2-  O211  1  0.66193481  0.20759181  0.60110223  1
  O2-  O212  1  0.66510651  0.20306514  0.93687184  1
  O2-  O213  1  0.66290489  0.70410982  0.26495404  1
  O2-  O214  1  0.66636531  0.70982066  0.59572888  1
  O2-  O215  1  0.66297778  0.70667788  0.93751377  1
  O2-  O216  1  0.09062957  0.46201062  0.06547905  1
  O2-  O217  1  0.08508008  0.46355238  0.40076235  1
  O2-  O218  1  0.08972644  0.46198225  0.73354021  1
  O2-  O219  1  0.08470072  0.94818676  0.06072852  1
  O2-  O220  1  0.07838275  0.95431148  0.39758941  1
  O2-  O221  1  0.08197570  0.95687721  0.74094121  1
  O2-  O222  1  0.58184549  0.46678782  0.07032134  1
  O2-  O223  1  0.59175132  0.46742049  0.40018137  1
  O2-  O224  1  0.58526387  0.46386289  0.72871691  1
  O2-  O225  1  0.58318939  0.94868258  0.05882760  1
  O2-  O226  1  0.57913581  0.94501197  0.40112652  1
  O2-  O227  1  0.58420227  0.94521125  0.72904470  1
  O2-  O228  1  0.20339963  0.33684820  0.06099607  1
  O2-  O229  1  0.19399652  0.33500146  0.39649601  1
  O2-  O230  1  0.20572275  0.33956126  0.73207417  1
  O2-  O231  1  0.20747468  0.83189799  0.06397036  1
  O2-  O232  1  0.20782261  0.83148298  0.40209415  1
  O2-  O233  1  0.20594225  0.82812880  0.73735757  1
  O2-  O234  1  0.69817802  0.32952817  0.06790056  1
  O2-  O235  1  0.69839406  0.33680987  0.39601485  1
  O2-  O236  1  0.69306775  0.33440562  0.72813115  1
  O2-  O237  1  0.70293769  0.83323154  0.06083513  1
  O2-  O238  1  0.70838960  0.82512861  0.39819452  1
  O2-  O239  1  0.70864105  0.83336649  0.72914298  1
  O2-  O240  1  0.46676982  0.41798320  0.26647964  1
  O2-  O241  1  0.46162625  0.41422958  0.59842742  1
  O2-  O242  1  0.46021448  0.41809718  0.93178753  1
  O2-  O243  1  0.45262690  0.91067107  0.27243895  1
  O2-  O244  1  0.44836154  0.91849818  0.60747821  1
  O2-  O245  1  0.45360452  0.91336943  0.93692229  1
  O2-  O246  1  0.96003826  0.42074736  0.26559794  1
  O2-  O247  1  0.96314525  0.41715595  0.60249415  1
  O2-  O248  1  0.96423559  0.41735672  0.93433068  1
  O2-  O249  1  0.95813520  0.91600219  0.26232618  1
  O2-  O250  1  0.96134732  0.91942550  0.60240253  1
  O2-  O251  1  0.95844726  0.91145905  0.93655686  1
  O2-  O252  1  0.32559411  0.31016600  0.27100358  1
  O2-  O253  1  0.32912019  0.29581633  0.60033931  1
  O2-  O254  1  0.33091558  0.29243318  0.93286944  1
  O2-  O255  1  0.33825479  0.78477371  0.27162557  1
  O2-  O256  1  0.33421390  0.79299845  0.60544896  1
  O2-  O257  1  0.33796322  0.78986064  0.93548242  1
  O2-  O258  1  0.82551114  0.30247118  0.26822559  1
  O2-  O259  1  0.82666775  0.30007945  0.60488558  1
  O2-  O260  1  0.82889820  0.29460853  0.93515350  1
  O2-  O261  1  0.83576679  0.78336910  0.26193387  1
  O2-  O262  1  0.83729830  0.78730725  0.59844930  1
  O2-  O263  1  0.83699256  0.79219658  0.93781563  1
  O2-  O264  1  0.41714904  0.04006535  0.06589412  1
  O2-  O265  1  0.41844489  0.04399197  0.39988617  1
  O2-  O266  1  0.42143576  0.04798550  0.73580678  1
  O2-  O267  1  0.41344305  0.54653409  0.05929976  1
  O2-  O268  1  0.42000936  0.53994150  0.40184178  1
  O2-  O269  1  0.41557083  0.54065102  0.72927777  1
  O2-  O270  1  0.91854837  0.03907816  0.06558907  1
  O2-  O271  1  0.91850974  0.04458392  0.39731358  1
  O2-  O272  1  0.91522566  0.04288972  0.73590709  1
  O2-  O273  1  0.92396894  0.54911636  0.06787114  1
  O2-  O274  1  0.91634748  0.54851342  0.39426449  1
  O2-  O275  1  0.92021179  0.54598441  0.73212914  1
  O2-  O276  1  0.28882109  0.16824522  0.06667667  1
  O2-  O277  1  0.29387140  0.17570463  0.39609326  1
  O2-  O278  1  0.28801130  0.17143283  0.73523587  1
  O2-  O279  1  0.29127426  0.66237924  0.05984251  1
  O2-  O280  1  0.29174480  0.66261182  0.40571644  1
  O2-  O281  1  0.29791821  0.66143548  0.73191811  1
  O2-  O282  1  0.79206089  0.16690324  0.06724351  1
  O2-  O283  1  0.78880951  0.17182594  0.39801667  1
  O2-  O284  1  0.78539862  0.16899426  0.73450696  1
  O2-  O285  1  0.79018416  0.66871744  0.07020932  1
  O2-  O286  1  0.78840483  0.65972525  0.39471206  1
  O2-  O287  1  0.78609416  0.66552959  0.73228661  1
