# generated using pymatgen
data_Ca2Al2SiO7
_symmetry_space_group_name_H-M   'P 1'
_cell_length_a   15.45618562
_cell_length_b   15.45715570
_cell_length_c   15.28305523
_cell_angle_alpha   89.99813134
_cell_angle_beta   90.00262052
_cell_angle_gamma   89.99987359
_symmetry_Int_Tables_number   1
_chemical_formula_structural   Ca2Al2SiO7
_chemical_formula_sum   'Ca48 Al48 Si24 O168'
_cell_volume   3651.25435659
_cell_formula_units_Z   24
loop_
 _symmetry_equiv_pos_site_id
 _symmetry_equiv_pos_as_xyz
  1  'x, y, z'
loop_
 _atom_type_symbol
 _atom_type_oxidation_number
  Ca2+  2.0
  Al0+  0.0
  Si0+  0.0
  O2-  -2.0
loop_
 _atom_site_type_symbol
 _atom_site_label
 _atom_site_symmetry_multiplicity
 _atom_site_fract_x
 _atom_site_fract_y
 _atom_site_fract_z
 _atom_site_occupancy
  Ca2+  Ca0  1  0.16912481  0.08872675  0.17509998  1
  Ca2+  Ca1  1  0.17170445  0.08696456  0.50562684  1
  Ca2+  Ca2  1  0.16122938  0.08378243  0.83048747  1
  Ca2+  Ca3  1  0.16701539  0.58002498  0.17728939  1
  Ca2+  Ca4  1  0.17311224  0.58544952  0.50086611  1
  Ca2+  Ca5  1  0.16844135  0.58731003  0.83820186  1
  Ca2+  Ca6  1  0.66904619  0.07185090  0.17297611  1
  Ca2+  Ca7  1  0.66811078  0.06913083  0.50439592  1
  Ca2+  Ca8  1  0.66956868  0.07233974  0.83792098  1
  Ca2+  Ca9  1  0.67292122  0.58203051  0.17431537  1
  Ca2+  Ca10  1  0.66944260  0.58050523  0.50188605  1
  Ca2+  Ca11  1  0.68326058  0.58206176  0.83731003  1
  Ca2+  Ca12  1  0.08692585  0.32513548  0.16210779  1
  Ca2+  Ca13  1  0.08602709  0.32671553  0.49656864  1
  Ca2+  Ca14  1  0.07380247  0.32438085  0.82935882  1
  Ca2+  Ca15  1  0.08111180  0.82131667  0.16486728  1
  Ca2+  Ca16  1  0.07323385  0.83382408  0.49337561  1
  Ca2+  Ca17  1  0.07848072  0.82894422  0.82409807  1
  Ca2+  Ca18  1  0.57657740  0.34119827  0.16873040  1
  Ca2+  Ca19  1  0.57572468  0.33609466  0.48917491  1
  Ca2+  Ca20  1  0.58184551  0.33023193  0.82810851  1
  Ca2+  Ca21  1  0.58106476  0.83367844  0.16530203  1
  Ca2+  Ca22  1  0.58580585  0.82827087  0.49220960  1
  Ca2+  Ca23  1  0.57973505  0.84138173  0.83126389  1
  Ca2+  Ca24  1  0.32612863  0.42180852  0.18231327  1
  Ca2+  Ca25  1  0.32932460  0.42407921  0.49699603  1
  Ca2+  Ca26  1  0.33097357  0.42401292  0.83302554  1
  Ca2+  Ca27  1  0.33372382  0.92149397  0.17218072  1
  Ca2+  Ca28  1  0.32339863  0.92793157  0.50787811  1
  Ca2+  Ca29  1  0.32695568  0.91963479  0.83469752  1
  Ca2+  Ca30  1  0.83462163  0.42050977  0.16977683  1
  Ca2+  Ca31  1  0.83193806  0.42109316  0.50598817  1
  Ca2+  Ca32  1  0.84779329  0.42400683  0.83694085  1
  Ca2+  Ca33  1  0.82478911  0.91025695  0.17276851  1
  Ca2+  Ca34  1  0.82671861  0.90514224  0.50439159  1
  Ca2+  Ca35  1  0.82314364  0.90674918  0.83533795  1
  Ca2+  Ca36  1  0.41210989  0.17183493  0.16959010  1
  Ca2+  Ca37  1  0.41085105  0.16864115  0.49263306  1
  Ca2+  Ca38  1  0.41692066  0.16394916  0.82798590  1
  Ca2+  Ca39  1  0.42381883  0.66648766  0.16447630  1
  Ca2+  Ca40  1  0.42089940  0.66128194  0.49105556  1
  Ca2+  Ca41  1  0.41666273  0.67410152  0.82910321  1
  Ca2+  Ca42  1  0.92837171  0.17383228  0.15950804  1
  Ca2+  Ca43  1  0.93018089  0.16695540  0.49512522  1
  Ca2+  Ca44  1  0.92243069  0.17623340  0.82355762  1
  Ca2+  Ca45  1  0.92529085  0.66483470  0.16513588  1
  Ca2+  Ca46  1  0.91617967  0.67604284  0.49520733  1
  Ca2+  Ca47  1  0.91880616  0.66460615  0.82828641  1
  Al0+  Al48  1  0.00003482  -0.00193711  -0.00190475  1
  Al0+  Al49  1  -0.00173347  0.00136426  0.32199057  1
  Al0+  Al50  1  -0.00149126  -0.00024098  0.66199912  1
  Al0+  Al51  1  0.00276975  0.49984069  -0.00142819  1
  Al0+  Al52  1  -0.00042179  0.49980911  0.33678758  1
  Al0+  Al53  1  0.00111309  0.49913038  0.66530136  1
  Al0+  Al54  1  0.49892929  0.00034326  0.00121315  1
  Al0+  Al55  1  0.50126492  0.00067345  0.34144068  1
  Al0+  Al56  1  0.49869843  -0.00036142  0.67223618  1
  Al0+  Al57  1  0.50131880  0.50165151  -0.00370994  1
  Al0+  Al58  1  0.50107958  0.50016117  0.33035693  1
  Al0+  Al59  1  0.50021436  0.49996040  0.67273793  1
  Al0+  Al60  1  0.25084808  0.25036376  -0.00559010  1
  Al0+  Al61  1  0.25073572  0.25207499  0.33294073  1
  Al0+  Al62  1  0.25177715  0.25224413  0.66916363  1
  Al0+  Al63  1  0.25197278  0.75216414  -0.00655702  1
  Al0+  Al64  1  0.24995899  0.75238866  0.33424378  1
  Al0+  Al65  1  0.25148897  0.75190505  0.67308965  1
  Al0+  Al66  1  0.74795590  0.25018062  -0.00280459  1
  Al0+  Al67  1  0.74988484  0.24814937  0.33724426  1
  Al0+  Al68  1  0.74732988  0.24826860  0.66183450  1
  Al0+  Al69  1  0.74958871  0.74665090  0.01035383  1
  Al0+  Al70  1  0.74791311  0.74938159  0.32867719  1
  Al0+  Al71  1  0.74911870  0.74642272  0.67222908  1
  Al0+  Al72  1  0.32235693  0.57156035  0.68209335  1
  Al0+  Al73  1  0.07174032  0.18191151  0.31855151  1
  Al0+  Al74  1  0.17542280  0.92998163  0.68145193  1
  Al0+  Al75  1  0.32139729  0.57391995  0.34543504  1
  Al0+  Al76  1  0.07295296  0.17636646  0.98298903  1
  Al0+  Al77  1  0.17682590  0.42900117  0.34830365  1
  Al0+  Al78  1  0.07144445  0.17964029  0.64936727  1
  Al0+  Al79  1  0.43099476  0.31981291  0.32056044  1
  Al0+  Al80  1  0.67885126  0.93017685  0.01622564  1
  Al0+  Al81  1  0.68054626  0.92763531  0.68117148  1
  Al0+  Al82  1  0.92717674  0.32322010  0.64828376  1
  Al0+  Al83  1  0.07297678  0.67807932  0.32056160  1
  Al0+  Al84  1  0.31949300  0.07291815  0.68357414  1
  Al0+  Al85  1  0.31924146  0.07070117  0.34537885  1
  Al0+  Al86  1  0.43157824  0.82208679  0.98585463  1
  Al0+  Al87  1  0.07111026  0.67988775  0.98552993  1
  Al0+  Al88  1  0.92792673  0.32027898  0.98631355  1
  Al0+  Al89  1  0.56909291  0.67858272  0.32013985  1
  Al0+  Al90  1  0.92737228  0.82084271  0.31619948  1
  Al0+  Al91  1  0.92730017  0.81826638  0.65518759  1
  Al0+  Al92  1  0.67958307  0.42805083  0.34564463  1
  Al0+  Al93  1  0.68125678  0.92846350  0.34828907  1
  Al0+  Al94  1  0.82121818  0.56785062  0.67891131  1
  Al0+  Al95  1  0.82345289  0.56768761  0.01611006  1
  Si0+  Si96  1  0.43170136  0.32262921  0.65161031  1
  Si0+  Si97  1  0.56914920  0.17878594  0.98570534  1
  Si0+  Si98  1  0.31935931  0.07143172  0.01600398  1
  Si0+  Si99  1  0.32245952  0.57332046  0.01468834  1
  Si0+  Si100  1  0.57344472  0.67729732  0.98106782  1
  Si0+  Si101  1  0.92571935  0.81971973  0.98383595  1
  Si0+  Si102  1  0.17824373  0.92750667  0.01551026  1
  Si0+  Si103  1  0.18343338  0.43004423  0.01383805  1
  Si0+  Si104  1  0.57303254  0.17582683  0.31743231  1
  Si0+  Si105  1  0.17893813  0.42918469  0.68567527  1
  Si0+  Si106  1  0.82382564  0.07194068  0.34974529  1
  Si0+  Si107  1  0.92489044  0.32209716  0.31767626  1
  Si0+  Si108  1  0.82091170  0.07306703  0.68220783  1
  Si0+  Si109  1  0.17515900  0.92838439  0.34691803  1
  Si0+  Si110  1  0.56895143  0.67952175  0.65366210  1
  Si0+  Si111  1  0.42855512  0.82514972  0.32033493  1
  Si0+  Si112  1  0.82243003  0.07379871  0.01580166  1
  Si0+  Si113  1  0.67749263  0.42587793  0.68334892  1
  Si0+  Si114  1  0.42925163  0.32289923  0.98357267  1
  Si0+  Si115  1  0.56916390  0.17614449  0.65077528  1
  Si0+  Si116  1  0.82160910  0.57146213  0.35071558  1
  Si0+  Si117  1  0.42872770  0.82225521  0.65083688  1
  Si0+  Si118  1  0.67547483  0.42636955  0.01645906  1
  Si0+  Si119  1  0.07529661  0.67839897  0.65026066  1
  O2-  O120  1  0.24445819  0.00406949  0.05726217  1
  O2-  O121  1  0.24329824  -0.00248139  0.39122349  1
  O2-  O122  1  0.24570620  0.00323914  0.73382186  1
  O2-  O123  1  0.25413299  0.50084297  0.05717380  1
  O2-  O124  1  0.24549822  0.50607626  0.39564729  1
  O2-  O125  1  0.24380850  0.50190096  0.73048530  1
  O2-  O126  1  0.75716900  0.00207418  0.06134076  1
  O2-  O127  1  0.75818690  0.00051885  0.39491493  1
  O2-  O128  1  0.75594238  0.00142854  0.72836973  1
  O2-  O129  1  0.74754069  0.49177590  0.05934808  1
  O2-  O130  1  0.75568916  0.49953658  0.39409585  1
  O2-  O131  1  0.75246528  0.48732436  0.72717359  1
  O2-  O132  1  -0.00337983  0.25699547  0.27304432  1
  O2-  O133  1  -0.00098740  0.25111567  0.59890602  1
  O2-  O134  1  -0.00487244  0.24373878  0.93618910  1
  O2-  O135  1  0.00110773  0.74922205  0.26854678  1
  O2-  O136  1  0.00571314  0.74722085  0.60816593  1
  O2-  O137  1  -0.00431177  0.75350686  0.93838074  1
  O2-  O138  1  0.50654632  0.24621241  0.27194821  1
  O2-  O139  1  0.50025077  0.24937994  0.60943316  1
  O2-  O140  1  0.50171900  0.25305429  0.94220409  1
  O2-  O141  1  0.49268578  0.75267191  0.27496677  1
  O2-  O142  1  0.49750138  0.74904747  0.60934421  1
  O2-  O143  1  0.50691558  0.74827672  0.93732496  1
  O2-  O144  1  0.07707271  0.18150189  0.09658568  1
  O2-  O145  1  0.07224762  0.18116195  0.43112751  1
  O2-  O146  1  0.06919680  0.18198237  0.76297149  1
  O2-  O147  1  0.07286462  0.67979254  0.09825910  1
  O2-  O148  1  0.07294471  0.68104023  0.43410465  1
  O2-  O149  1  0.07419957  0.67904651  0.75634072  1
  O2-  O150  1  0.56703522  0.17776072  0.09049442  1
  O2-  O151  1  0.57084568  0.17539098  0.42303527  1
  O2-  O152  1  0.56873881  0.17748156  0.75663718  1
  O2-  O153  1  0.56998855  0.67355419  0.08641365  1
  O2-  O154  1  0.57003879  0.67915200  0.43382245  1
  O2-  O155  1  0.56790255  0.68034137  0.75887812  1
  O2-  O156  1  0.18067451  0.42716004  0.23391582  1
  O2-  O157  1  0.18197698  0.42780499  0.58041166  1
  O2-  O158  1  0.18646404  0.43080495  0.90862816  1
  O2-  O159  1  0.17875544  0.92791434  0.24086374  1
  O2-  O160  1  0.17925342  0.92831235  0.56785080  1
  O2-  O161  1  0.18053691  0.92599039  0.91075057  1
  O2-  O162  1  0.68018155  0.43016443  0.23231095  1
  O2-  O163  1  0.67174402  0.42986303  0.57819336  1
  O2-  O164  1  0.66998760  0.42783787  0.91101665  1
  O2-  O165  1  0.67896982  0.93198074  0.23510183  1
  O2-  O166  1  0.67993166  0.92730168  0.56838580  1
  O2-  O167  1  0.67846207  0.93283504  0.90288567  1
  O2-  O168  1  0.42801415  0.32343560  0.08837909  1
  O2-  O169  1  0.43201799  0.31946850  0.43377105  1
  O2-  O170  1  0.43520214  0.32354053  0.75748359  1
  O2-  O171  1  0.43159195  0.82186116  0.09904712  1
  O2-  O172  1  0.43151649  0.82620287  0.42586376  1
  O2-  O173  1  0.43122060  0.82245979  0.75633765  1
  O2-  O174  1  0.92949468  0.31970884  0.10006777  1
  O2-  O175  1  0.92269399  0.31845145  0.42286922  1
  O2-  O176  1  0.92877656  0.32150814  0.76206814  1
  O2-  O177  1  0.92761742  0.81878057  0.08921191  1
  O2-  O178  1  0.92634113  0.81875911  0.43015034  1
  O2-  O179  1  0.92524602  0.81383699  0.76850616  1
  O2-  O180  1  0.31994734  0.06950363  0.23148151  1
  O2-  O181  1  0.32180353  0.07128080  0.57018596  1
  O2-  O182  1  0.32225298  0.07078672  0.91121753  1
  O2-  O183  1  0.32272893  0.57072289  0.23125408  1
  O2-  O184  1  0.32615850  0.56827587  0.56965219  1
  O2-  O185  1  0.32217787  0.57089148  0.90925043  1
  O2-  O186  1  0.82007112  0.07401481  0.24398196  1
  O2-  O187  1  0.81645044  0.07434706  0.57687898  1
  O2-  O188  1  0.81824963  0.07533338  0.91025142  1
  O2-  O189  1  0.82135604  0.56982071  0.24488384  1
  O2-  O190  1  0.81483547  0.57065762  0.56625125  1
  O2-  O191  1  0.82141266  0.56781326  0.90271976  1
  O2-  O192  1  0.04247000  0.08644590  0.26113737  1
  O2-  O193  1  0.04481464  0.08074975  0.59666797  1
  O2-  O194  1  0.05046449  0.07505915  0.93374099  1
  O2-  O195  1  0.04462060  0.57850191  0.26857885  1
  O2-  O196  1  0.05198524  0.58390343  0.60648090  1
  O2-  O197  1  0.04271124  0.58314174  0.93111809  1
  O2-  O198  1  0.54334707  0.08332638  0.27097977  1
  O2-  O199  1  0.53860031  0.08489096  0.60413547  1
  O2-  O200  1  0.53637622  0.08959309  0.93620023  1
  O2-  O201  1  0.53970853  0.58382089  0.26203687  1
  O2-  O202  1  0.54150384  0.58631935  0.60844669  1
  O2-  O203  1  0.54613703  0.58502548  0.93198606  1
  O2-  O204  1  0.16744529  0.21435298  0.26375331  1
  O2-  O205  1  0.17189287  0.21047724  0.60116908  1
  O2-  O206  1  0.16974058  0.20971238  0.92882398  1
  O2-  O207  1  0.17179599  0.70626749  0.26633576  1
  O2-  O208  1  0.17010444  0.70409334  0.60714086  1
  O2-  O209  1  0.16714822  0.71120421  0.93050928  1
  O2-  O210  1  0.66763351  0.19860756  0.27233465  1
  O2-  O211  1  0.66116073  0.19926611  0.60235566  1
  O2-  O212  1  0.66097718  0.20269547  0.93598890  1
  O2-  O213  1  0.66330974  0.71027531  0.26297664  1
  O2-  O214  1  0.66023802  0.70793923  0.60674895  1
  O2-  O215  1  0.66893616  0.70183351  0.93941675  1
  O2-  O216  1  0.09181489  0.45675790  0.06056039  1
  O2-  O217  1  0.07751733  0.45053358  0.40210248  1
  O2-  O218  1  0.08414757  0.45110032  0.73035020  1
  O2-  O219  1  0.08381304  0.94766314  0.06138264  1
  O2-  O220  1  0.07990750  0.95385243  0.38838358  1
  O2-  O221  1  0.07547305  0.95480493  0.73370743  1
  O2-  O222  1  0.58249069  0.45682354  0.06282403  1
  O2-  O223  1  0.58414779  0.46156282  0.39974185  1
  O2-  O224  1  0.58764504  0.45751538  0.73438495  1
  O2-  O225  1  0.58312794  0.96602628  0.06926248  1
  O2-  O226  1  0.58661269  0.96118405  0.40486758  1
  O2-  O227  1  0.58500536  0.96162624  0.73546356  1
  O2-  O228  1  0.21324068  0.33768464  0.05966315  1
  O2-  O229  1  0.21411648  0.33451556  0.40256598  1
  O2-  O230  1  0.21102888  0.33877102  0.73449125  1
  O2-  O231  1  0.21380267  0.83789614  0.06288015  1
  O2-  O232  1  0.19991465  0.83612522  0.39538265  1
  O2-  O233  1  0.20731061  0.83343522  0.73733701  1
  O2-  O234  1  0.69440426  0.33048278  0.06059473  1
  O2-  O235  1  0.70318106  0.32970030  0.40034455  1
  O2-  O236  1  0.69423176  0.32863431  0.72566021  1
  O2-  O237  1  0.70420184  0.83215074  0.06952564  1
  O2-  O238  1  0.70936779  0.83014116  0.40006630  1
  O2-  O239  1  0.70953338  0.83177489  0.73744570  1
  O2-  O240  1  0.46284932  0.41450480  0.26344636  1
  O2-  O241  1  0.46348609  0.41362951  0.60526038  1
  O2-  O242  1  0.45651072  0.41476580  0.93483617  1
  O2-  O243  1  0.46028258  0.91685842  0.27293443  1
  O2-  O244  1  0.45855172  0.91399143  0.60500515  1
  O2-  O245  1  0.46262960  0.91861575  0.93114438  1
  O2-  O246  1  0.94615301  0.41794934  0.27533500  1
  O2-  O247  1  0.95557115  0.42205377  0.59625363  1
  O2-  O248  1  0.96412207  0.41577587  0.93282456  1
  O2-  O249  1  0.95132008  0.91909075  0.26051044  1
  O2-  O250  1  0.95033492  0.91626844  0.60074753  1
  O2-  O251  1  0.94654433  0.91506372  0.93936150  1
  O2-  O252  1  0.33646990  0.28755465  0.26372632  1
  O2-  O253  1  0.33863068  0.29827000  0.60684924  1
  O2-  O254  1  0.33970207  0.29322547  0.93334139  1
  O2-  O255  1  0.33332290  0.80650265  0.27508915  1
  O2-  O256  1  0.33554962  0.79690707  0.60609942  1
  O2-  O257  1  0.33698552  0.79073286  0.92848769  1
  O2-  O258  1  0.83212516  0.29348749  0.27037775  1
  O2-  O259  1  0.82589409  0.29797998  0.59907791  1
  O2-  O260  1  0.82654951  0.29988880  0.93410988  1
  O2-  O261  1  0.83020766  0.79000060  0.26270912  1
  O2-  O262  1  0.83146417  0.78188147  0.60171258  1
  O2-  O263  1  0.83113022  0.79116764  0.94143194  1
  O2-  O264  1  0.40983654  0.04075097  0.06413949  1
  O2-  O265  1  0.41517569  0.04224319  0.40154878  1
  O2-  O266  1  0.41672498  0.04094450  0.73816298  1
  O2-  O267  1  0.41636736  0.54659731  0.05848052  1
  O2-  O268  1  0.41817753  0.53954810  0.39783137  1
  O2-  O269  1  0.41634041  0.53569114  0.74002667  1
  O2-  O270  1  0.91804393  0.05153321  0.05956784  1
  O2-  O271  1  0.91919386  0.04822379  0.39221859  1
  O2-  O272  1  0.91585092  0.05195066  0.72556554  1
  O2-  O273  1  0.92034623  0.53659243  0.06946604  1
  O2-  O274  1  0.91539202  0.55056427  0.39765659  1
  O2-  O275  1  0.91999475  0.54287307  0.73235376  1
  O2-  O276  1  0.29503280  0.16592905  0.06058928  1
  O2-  O277  1  0.28989085  0.16719885  0.39866546  1
  O2-  O278  1  0.29759647  0.17315991  0.73651128  1
  O2-  O279  1  0.29553960  0.66616021  0.05892002  1
  O2-  O280  1  0.29964139  0.67390608  0.39888928  1
  O2-  O281  1  0.29698165  0.66911609  0.73662807  1
  O2-  O282  1  0.79254743  0.16624898  0.06263595  1
  O2-  O283  1  0.79660227  0.16347854  0.39886120  1
  O2-  O284  1  0.78987513  0.16526640  0.72970077  1
  O2-  O285  1  0.79153026  0.66216765  0.07315832  1
  O2-  O286  1  0.78953066  0.66362592  0.39471465  1
  O2-  O287  1  0.78403864  0.65991540  0.73776537  1
