# generated using pymatgen
data_Ca2Al2SiO7
_symmetry_space_group_name_H-M   'P 1'
_cell_length_a   15.46071666
_cell_length_b   15.46181923
_cell_length_c   15.28581543
_cell_angle_alpha   89.98648925
_cell_angle_beta   89.98372400
_cell_angle_gamma   90.02028631
_symmetry_Int_Tables_number   1
_chemical_formula_structural   Ca2Al2SiO7
_chemical_formula_sum   'Ca48 Al48 Si24 O168'
_cell_volume   3654.08602401
_cell_formula_units_Z   24
loop_
 _symmetry_equiv_pos_site_id
 _symmetry_equiv_pos_as_xyz
  1  'x, y, z'
loop_
 _atom_type_symbol
 _atom_type_oxidation_number
  Ca2+  2.0
  Al0+  0.0
  Si0+  0.0
  O2-  -2.0
loop_
 _atom_site_type_symbol
 _atom_site_label
 _atom_site_symmetry_multiplicity
 _atom_site_fract_x
 _atom_site_fract_y
 _atom_site_fract_z
 _atom_site_occupancy
  Ca2+  Ca0  1  0.17454011  0.09359247  0.16598174  1
  Ca2+  Ca1  1  0.17565172  0.09123731  0.50476047  1
  Ca2+  Ca2  1  0.17508125  0.09892513  0.83453943  1
  Ca2+  Ca3  1  0.17239020  0.57441268  0.17871231  1
  Ca2+  Ca4  1  0.17835192  0.56897408  0.50472905  1
  Ca2+  Ca5  1  0.17072556  0.57629995  0.83455851  1
  Ca2+  Ca6  1  0.67222091  0.07800146  0.17058867  1
  Ca2+  Ca7  1  0.67942435  0.08673382  0.50170405  1
  Ca2+  Ca8  1  0.67582492  0.08119374  0.84601899  1
  Ca2+  Ca9  1  0.67712813  0.58388916  0.17189337  1
  Ca2+  Ca10  1  0.66584135  0.58782299  0.49975933  1
  Ca2+  Ca11  1  0.66674057  0.58002179  0.83762158  1
  Ca2+  Ca12  1  0.07456925  0.33175092  0.16377547  1
  Ca2+  Ca13  1  0.08428157  0.33338576  0.49653879  1
  Ca2+  Ca14  1  0.07923059  0.32470783  0.83188086  1
  Ca2+  Ca15  1  0.07494864  0.82933391  0.15886284  1
  Ca2+  Ca16  1  0.08264167  0.83060488  0.49598502  1
  Ca2+  Ca17  1  0.07441899  0.83732843  0.83185871  1
  Ca2+  Ca18  1  0.57474301  0.32589053  0.16392123  1
  Ca2+  Ca19  1  0.56754020  0.33495870  0.49422340  1
  Ca2+  Ca20  1  0.57918841  0.32431773  0.83002385  1
  Ca2+  Ca21  1  0.59511518  0.83247664  0.16619041  1
  Ca2+  Ca22  1  0.58768143  0.82341309  0.49334769  1
  Ca2+  Ca23  1  0.58759418  0.82893001  0.83068601  1
  Ca2+  Ca24  1  0.32507370  0.41695681  0.17935747  1
  Ca2+  Ca25  1  0.32838816  0.41500433  0.50716630  1
  Ca2+  Ca26  1  0.33047706  0.41075534  0.82784639  1
  Ca2+  Ca27  1  0.33322910  0.92963791  0.17017066  1
  Ca2+  Ca28  1  0.33600554  0.92967965  0.50226353  1
  Ca2+  Ca29  1  0.33303088  0.92894813  0.83879273  1
  Ca2+  Ca30  1  0.84179308  0.42271572  0.17302855  1
  Ca2+  Ca31  1  0.83593047  0.41922209  0.49821253  1
  Ca2+  Ca32  1  0.83761683  0.42310339  0.84132118  1
  Ca2+  Ca33  1  0.82802635  0.92668198  0.16913595  1
  Ca2+  Ca34  1  0.82905764  0.92753073  0.50006246  1
  Ca2+  Ca35  1  0.83006037  0.92683623  0.84211143  1
  Ca2+  Ca36  1  0.41620713  0.16637691  0.16134133  1
  Ca2+  Ca37  1  0.40648509  0.17542371  0.49559129  1
  Ca2+  Ca38  1  0.42095358  0.16362659  0.82810847  1
  Ca2+  Ca39  1  0.42228477  0.66468871  0.16706090  1
  Ca2+  Ca40  1  0.42488127  0.65816546  0.49299942  1
  Ca2+  Ca41  1  0.42208483  0.66860314  0.82091948  1
  Ca2+  Ca42  1  0.91600527  0.17459675  0.15652762  1
  Ca2+  Ca43  1  0.92128899  0.16719334  0.49281827  1
  Ca2+  Ca44  1  0.92434582  0.16015219  0.82848534  1
  Ca2+  Ca45  1  0.90911697  0.67026064  0.15876369  1
  Ca2+  Ca46  1  0.91647447  0.66649519  0.49156415  1
  Ca2+  Ca47  1  0.90810347  0.67448164  0.83457003  1
  Al0+  Al48  1  0.00148998  -0.00143868  -0.00506976  1
  Al0+  Al49  1  0.00077857  -0.00120382  0.33407747  1
  Al0+  Al50  1  -0.00039198  0.00036616  0.66310199  1
  Al0+  Al51  1  0.00233450  0.50002716  -0.00028243  1
  Al0+  Al52  1  0.00135469  0.49946400  0.33865226  1
  Al0+  Al53  1  0.00054064  0.50086913  0.67164955  1
  Al0+  Al54  1  0.49895134  -0.00095315  0.00326470  1
  Al0+  Al55  1  0.49978459  -0.00235604  0.34278559  1
  Al0+  Al56  1  0.50186208  -0.00226656  0.66847076  1
  Al0+  Al57  1  0.49988933  0.50088905  -0.00014933  1
  Al0+  Al58  1  0.50223849  0.50036365  0.32279854  1
  Al0+  Al59  1  0.50144669  0.49976353  0.66349115  1
  Al0+  Al60  1  0.24794750  0.25334472  0.00167253  1
  Al0+  Al61  1  0.24818666  0.24971987  0.33503111  1
  Al0+  Al62  1  0.24832081  0.24986465  0.66816558  1
  Al0+  Al63  1  0.25148437  0.75060685  -0.00044722  1
  Al0+  Al64  1  0.25158192  0.74994530  0.33467924  1
  Al0+  Al65  1  0.24912472  0.75053799  0.66832752  1
  Al0+  Al66  1  0.74615746  0.25286548  -0.00429526  1
  Al0+  Al67  1  0.74978955  0.25177257  0.33331368  1
  Al0+  Al68  1  0.75112505  0.25187841  0.67078779  1
  Al0+  Al69  1  0.75035266  0.74837350  0.00038691  1
  Al0+  Al70  1  0.74999106  0.74981279  0.33662097  1
  Al0+  Al71  1  0.75004050  0.75118942  0.66151613  1
  Al0+  Al72  1  0.81990336  0.56723797  0.01196692  1
  Al0+  Al73  1  0.92899438  0.32100866  0.32126250  1
  Al0+  Al74  1  0.82110218  0.07189178  0.68115819  1
  Al0+  Al75  1  0.32061843  0.06986607  0.68097798  1
  Al0+  Al76  1  0.31935350  0.07022627  0.34672759  1
  Al0+  Al77  1  0.06850744  0.18025937  0.65081168  1
  Al0+  Al78  1  0.82027868  0.56991888  0.34700038  1
  Al0+  Al79  1  0.92680381  0.32325138  0.98507187  1
  Al0+  Al80  1  0.43134525  0.31677667  0.65422400  1
  Al0+  Al81  1  0.92861997  0.81921904  0.98635214  1
  Al0+  Al82  1  0.82356890  0.07406698  0.01410341  1
  Al0+  Al83  1  0.56848452  0.17736924  0.98799438  1
  Al0+  Al84  1  0.32445890  0.57138811  0.34661148  1
  Al0+  Al85  1  0.17790241  0.42815640  0.68598695  1
  Al0+  Al86  1  0.42735731  0.31910945  0.31906270  1
  Al0+  Al87  1  0.82249298  0.07443965  0.34722144  1
  Al0+  Al88  1  0.07023996  0.17936628  0.98505303  1
  Al0+  Al89  1  0.67899789  0.92866995  0.01431083  1
  Al0+  Al90  1  0.67965222  0.92863181  0.35051274  1
  Al0+  Al91  1  0.57149219  0.68020476  0.31586385  1
  Al0+  Al92  1  0.31849625  0.07169851  0.01298703  1
  Al0+  Al93  1  0.32351917  0.57051832  0.68201982  1
  Al0+  Al94  1  0.17946717  0.42862127  0.34914772  1
  Al0+  Al95  1  0.57002415  0.68044563  0.65249696  1
  Si0+  Si96  1  0.68077444  0.92687855  0.68367758  1
  Si0+  Si97  1  0.67712850  0.42767203  0.34935126  1
  Si0+  Si98  1  0.57005778  0.67962361  0.98436957  1
  Si0+  Si99  1  0.67352419  0.42786529  0.01773793  1
  Si0+  Si100  1  0.57498408  0.17521893  0.65015619  1
  Si0+  Si101  1  0.17649809  0.92680882  0.68326193  1
  Si0+  Si102  1  0.82070558  0.57264436  0.68140462  1
  Si0+  Si103  1  0.42572560  0.82337354  0.64938694  1
  Si0+  Si104  1  0.57170930  0.17604189  0.31925843  1
  Si0+  Si105  1  0.67839509  0.43001565  0.68120458  1
  Si0+  Si106  1  0.92977202  0.82018009  0.31817108  1
  Si0+  Si107  1  0.32262693  0.57413157  0.01526966  1
  Si0+  Si108  1  0.07177886  0.67928274  0.32006770  1
  Si0+  Si109  1  0.93000462  0.81980143  0.64877019  1
  Si0+  Si110  1  0.17686346  0.92566501  0.34902910  1
  Si0+  Si111  1  0.18091363  0.43160028  0.01688201  1
  Si0+  Si112  1  0.92656050  0.32522223  0.64958604  1
  Si0+  Si113  1  0.42740330  0.82078212  0.98465982  1
  Si0+  Si114  1  0.17819845  0.92447678  0.01633361  1
  Si0+  Si115  1  0.07101310  0.17602384  0.31628777  1
  Si0+  Si116  1  0.42718263  0.32335172  0.98323312  1
  Si0+  Si117  1  0.42722456  0.82374938  0.31566961  1
  Si0+  Si118  1  0.07174607  0.67752394  0.65101340  1
  Si0+  Si119  1  0.07479730  0.67794903  0.98283113  1
  O2-  O120  1  0.24191166  -0.00186608  0.05923122  1
  O2-  O121  1  0.24417429  -0.00460153  0.39269147  1
  O2-  O122  1  0.24681058  -0.00639851  0.72724886  1
  O2-  O123  1  0.25248778  0.50300390  0.05745534  1
  O2-  O124  1  0.25698271  0.49610166  0.39701208  1
  O2-  O125  1  0.25133210  0.50044380  0.73492101  1
  O2-  O126  1  0.74959743  0.00296767  0.06266014  1
  O2-  O127  1  0.74881789  0.00433564  0.39844141  1
  O2-  O128  1  0.74269895  0.00094841  0.72768994  1
  O2-  O129  1  0.74928743  0.48976523  0.06008375  1
  O2-  O130  1  0.74644700  0.49544590  0.39486229  1
  O2-  O131  1  0.75196230  0.49953653  0.72280095  1
  O2-  O132  1  -0.00156374  0.24150165  0.27434304  1
  O2-  O133  1  -0.00696447  0.25496237  0.60547351  1
  O2-  O134  1  -0.00875135  0.24435798  0.93487064  1
  O2-  O135  1  0.00146149  0.74968872  0.27590154  1
  O2-  O136  1  0.00097030  0.74823678  0.60711428  1
  O2-  O137  1  0.00490724  0.74550745  0.93829535  1
  O2-  O138  1  0.50000092  0.24144170  0.27408106  1
  O2-  O139  1  0.50300011  0.23969706  0.60545128  1
  O2-  O140  1  0.49419442  0.25269318  0.94032267  1
  O2-  O141  1  0.49594558  0.75532718  0.27021201  1
  O2-  O142  1  0.49195452  0.75197690  0.60613353  1
  O2-  O143  1  0.49837767  0.74961116  0.94216134  1
  O2-  O144  1  0.07460578  0.18464458  0.09853255  1
  O2-  O145  1  0.07147281  0.17556486  0.42196178  1
  O2-  O146  1  0.06760937  0.18049539  0.76362216  1
  O2-  O147  1  0.07646073  0.67964884  0.08860391  1
  O2-  O148  1  0.06996254  0.68216923  0.42529131  1
  O2-  O149  1  0.07033431  0.67864537  0.75614558  1
  O2-  O150  1  0.56525469  0.17772542  0.10123685  1
  O2-  O151  1  0.57270364  0.18009839  0.42500949  1
  O2-  O152  1  0.57469020  0.17692426  0.75588423  1
  O2-  O153  1  0.56953174  0.67880140  0.08905638  1
  O2-  O154  1  0.57193422  0.68158091  0.42902455  1
  O2-  O155  1  0.57245397  0.68298812  0.76625299  1
  O2-  O156  1  0.17860381  0.43184791  0.23492159  1
  O2-  O157  1  0.17683316  0.43055223  0.57288728  1
  O2-  O158  1  0.18144370  0.43182401  0.91199875  1
  O2-  O159  1  0.17595727  0.92265768  0.24359372  1
  O2-  O160  1  0.17632166  0.92529820  0.57761360  1
  O2-  O161  1  0.18296796  0.91630192  0.91130802  1
  O2-  O162  1  0.67760875  0.42820833  0.24383968  1
  O2-  O163  1  0.67808464  0.43010645  0.57629589  1
  O2-  O164  1  0.66672719  0.43381049  0.91204939  1
  O2-  O165  1  0.68352033  0.92863281  0.23708973  1
  O2-  O166  1  0.68443097  0.92374206  0.57857122  1
  O2-  O167  1  0.68026495  0.92717376  0.90028503  1
  O2-  O168  1  0.42780183  0.32482637  0.08883278  1
  O2-  O169  1  0.42820405  0.31907137  0.43224377  1
  O2-  O170  1  0.43511563  0.31620188  0.76762099  1
  O2-  O171  1  0.42320456  0.81824358  0.08930148  1
  O2-  O172  1  0.42598949  0.82313965  0.42106673  1
  O2-  O173  1  0.42717694  0.82383123  0.75542188  1
  O2-  O174  1  0.93325050  0.32741630  0.09849174  1
  O2-  O175  1  0.93123525  0.32205218  0.43446656  1
  O2-  O176  1  0.92649245  0.32717211  0.75493013  1
  O2-  O177  1  0.92987434  0.81606981  0.09956708  1
  O2-  O178  1  0.93235919  0.81931965  0.42370163  1
  O2-  O179  1  0.92861846  0.81781677  0.75388784  1
  O2-  O180  1  0.31822986  0.06967006  0.23339350  1
  O2-  O181  1  0.31821251  0.06915332  0.56793640  1
  O2-  O182  1  0.31892975  0.06960228  0.89992344  1
  O2-  O183  1  0.31903761  0.57198612  0.23224697  1
  O2-  O184  1  0.32321965  0.56836466  0.56898066  1
  O2-  O185  1  0.32293388  0.57614908  0.91045960  1
  O2-  O186  1  0.82375728  0.07313623  0.23402860  1
  O2-  O187  1  0.82126981  0.06997276  0.56810003  1
  O2-  O188  1  0.82214215  0.06921657  0.90025541  1
  O2-  O189  1  0.82054166  0.57043516  0.23397521  1
  O2-  O190  1  0.82145315  0.57341988  0.57647815  1
  O2-  O191  1  0.81515810  0.56983520  0.89822738  1
  O2-  O192  1  0.05190378  0.08018859  0.27131237  1
  O2-  O193  1  0.04036694  0.08263702  0.59637541  1
  O2-  O194  1  0.05469482  0.07764728  0.93325908  1
  O2-  O195  1  0.04397004  0.58748803  0.27382270  1
  O2-  O196  1  0.04179072  0.58611471  0.60449633  1
  O2-  O197  1  0.05010721  0.58464986  0.93693776  1
  O2-  O198  1  0.54815216  0.08015202  0.27788899  1
  O2-  O199  1  0.55537866  0.07902901  0.60725024  1
  O2-  O200  1  0.53720263  0.08092703  0.93308040  1
  O2-  O201  1  0.54441091  0.58474076  0.25748460  1
  O2-  O202  1  0.54397100  0.58316396  0.59818568  1
  O2-  O203  1  0.54212484  0.58753909  0.93656516  1
  O2-  O204  1  0.16292049  0.20636555  0.26976839  1
  O2-  O205  1  0.16533535  0.21191220  0.59829082  1
  O2-  O206  1  0.16655843  0.21769545  0.93176097  1
  O2-  O207  1  0.16366764  0.70640361  0.27173279  1
  O2-  O208  1  0.16349367  0.70552576  0.60337087  1
  O2-  O209  1  0.16801050  0.70483171  0.93579499  1
  O2-  O210  1  0.66376249  0.20476205  0.27177911  1
  O2-  O211  1  0.66781351  0.20632523  0.60529266  1
  O2-  O212  1  0.66344207  0.20832449  0.93023250  1
  O2-  O213  1  0.66910812  0.71334010  0.26396527  1
  O2-  O214  1  0.66594653  0.71314292  0.59701801  1
  O2-  O215  1  0.66110100  0.70766454  0.93602225  1
  O2-  O216  1  0.08987703  0.46073868  0.06460796  1
  O2-  O217  1  0.08482983  0.46258632  0.40529330  1
  O2-  O218  1  0.08031388  0.46012055  0.73993296  1
  O2-  O219  1  0.08259624  0.94473071  0.05923464  1
  O2-  O220  1  0.08327270  0.94857214  0.39641211  1
  O2-  O221  1  0.08292671  0.95373695  0.72810897  1
  O2-  O222  1  0.58310510  0.46102657  0.06707128  1
  O2-  O223  1  0.58404107  0.45704807  0.39363386  1
  O2-  O224  1  0.58940847  0.46144407  0.73117359  1
  O2-  O225  1  0.57978002  0.95231290  0.06720246  1
  O2-  O226  1  0.58016858  0.94840872  0.40453310  1
  O2-  O227  1  0.58422340  0.94351158  0.72703547  1
  O2-  O228  1  0.20919287  0.34136874  0.06620614  1
  O2-  O229  1  0.20341654  0.32956106  0.40095218  1
  O2-  O230  1  0.20907775  0.33108926  0.73897195  1
  O2-  O231  1  0.20826389  0.83316713  0.06630098  1
  O2-  O232  1  0.20316699  0.83312554  0.39744638  1
  O2-  O233  1  0.19779523  0.83257506  0.73052064  1
  O2-  O234  1  0.68975406  0.33172906  0.06037264  1
  O2-  O235  1  0.70047562  0.33487022  0.39752972  1
  O2-  O236  1  0.70326840  0.33837040  0.73088177  1
  O2-  O237  1  0.71014770  0.83066687  0.06619584  1
  O2-  O238  1  0.71396692  0.83269312  0.40481415  1
  O2-  O239  1  0.71302029  0.83495137  0.73047910  1
  O2-  O240  1  0.45964476  0.41365868  0.26169015  1
  O2-  O241  1  0.46487333  0.41249618  0.60018929  1
  O2-  O242  1  0.45515955  0.41676618  0.93689066  1
  O2-  O243  1  0.45285346  0.91826511  0.27111162  1
  O2-  O244  1  0.45444288  0.91606168  0.60237764  1
  O2-  O245  1  0.45568307  0.91196300  0.93694267  1
  O2-  O246  1  0.96431097  0.41763492  0.26856648  1
  O2-  O247  1  0.95361014  0.41973931  0.60512499  1
  O2-  O248  1  0.96318564  0.41962465  0.93053435  1
  O2-  O249  1  0.95743081  0.91189446  0.27046363  1
  O2-  O250  1  0.95932950  0.91019520  0.60011778  1
  O2-  O251  1  0.95914260  0.91409537  0.92880823  1
  O2-  O252  1  0.33011840  0.28923692  0.26555675  1
  O2-  O253  1  0.33358893  0.28855454  0.60210925  1
  O2-  O254  1  0.33298667  0.29964508  0.93890408  1
  O2-  O255  1  0.33323291  0.79840456  0.26872742  1
  O2-  O256  1  0.33002874  0.80304211  0.60534401  1
  O2-  O257  1  0.33654463  0.79283283  0.93447411  1
  O2-  O258  1  0.82996495  0.29835575  0.26773719  1
  O2-  O259  1  0.83104318  0.30288543  0.60555048  1
  O2-  O260  1  0.82376570  0.31031123  0.93628041  1
  O2-  O261  1  0.83899196  0.78951867  0.27240804  1
  O2-  O262  1  0.83950958  0.79037602  0.60006269  1
  O2-  O263  1  0.83403849  0.78346061  0.93009702  1
  O2-  O264  1  0.41279736  0.03724472  0.06806852  1
  O2-  O265  1  0.41446445  0.04106790  0.40390534  1
  O2-  O266  1  0.41915694  0.04028713  0.73328552  1
  O2-  O267  1  0.41510680  0.54698306  0.06152038  1
  O2-  O268  1  0.42623662  0.54739518  0.39215270  1
  O2-  O269  1  0.42244129  0.54183938  0.73431622  1
  O2-  O270  1  0.92307463  0.04388224  0.06354471  1
  O2-  O271  1  0.92036882  0.04168533  0.39994888  1
  O2-  O272  1  0.91675462  0.03472413  0.73241166  1
  O2-  O273  1  0.91965135  0.54442648  0.06374036  1
  O2-  O274  1  0.91618194  0.54072905  0.40293012  1
  O2-  O275  1  0.91256996  0.54870128  0.73028171  1
  O2-  O276  1  0.28898184  0.16918244  0.06637750  1
  O2-  O277  1  0.28651383  0.16530773  0.40121496  1
  O2-  O278  1  0.28871289  0.16528743  0.73506455  1
  O2-  O279  1  0.29540883  0.66575106  0.06320687  1
  O2-  O280  1  0.29501451  0.66942560  0.39945065  1
  O2-  O281  1  0.29553568  0.67071595  0.73310762  1
  O2-  O282  1  0.79549041  0.17478985  0.06165253  1
  O2-  O283  1  0.79462438  0.17274791  0.40134159  1
  O2-  O284  1  0.79625290  0.17043268  0.73410372  1
  O2-  O285  1  0.78562014  0.66225687  0.06627199  1
  O2-  O286  1  0.78986952  0.66538893  0.40264484  1
  O2-  O287  1  0.78989204  0.66452256  0.72724799  1
