# generated using pymatgen
data_Ca2Al2SiO7
_symmetry_space_group_name_H-M   'P 1'
_cell_length_a   15.45529427
_cell_length_b   15.45500690
_cell_length_c   15.28157182
_cell_angle_alpha   90.00244358
_cell_angle_beta   89.99644647
_cell_angle_gamma   90.01037578
_symmetry_Int_Tables_number   1
_chemical_formula_structural   Ca2Al2SiO7
_chemical_formula_sum   'Ca48 Al48 Si24 O168'
_cell_volume   3650.18184232
_cell_formula_units_Z   24
loop_
 _symmetry_equiv_pos_site_id
 _symmetry_equiv_pos_as_xyz
  1  'x, y, z'
loop_
 _atom_type_symbol
 _atom_type_oxidation_number
  Ca2+  2.0
  Al0+  0.0
  Si0+  0.0
  O2-  -2.0
loop_
 _atom_site_type_symbol
 _atom_site_label
 _atom_site_symmetry_multiplicity
 _atom_site_fract_x
 _atom_site_fract_y
 _atom_site_fract_z
 _atom_site_occupancy
  Ca2+  Ca0  1  0.16827840  0.08205196  0.16090432  1
  Ca2+  Ca1  1  0.16683732  0.07752515  0.50772030  1
  Ca2+  Ca2  1  0.16422299  0.07720703  0.84021622  1
  Ca2+  Ca3  1  0.18094131  0.58067187  0.17434226  1
  Ca2+  Ca4  1  0.17701381  0.57842998  0.50894282  1
  Ca2+  Ca5  1  0.17858937  0.57933269  0.83568422  1
  Ca2+  Ca6  1  0.67386873  0.07575505  0.17154767  1
  Ca2+  Ca7  1  0.66354390  0.07082881  0.50855610  1
  Ca2+  Ca8  1  0.66892053  0.08174678  0.83568090  1
  Ca2+  Ca9  1  0.66871588  0.58033850  0.17863357  1
  Ca2+  Ca10  1  0.66686040  0.58770795  0.49908589  1
  Ca2+  Ca11  1  0.66331430  0.58595768  0.83191687  1
  Ca2+  Ca12  1  0.08803257  0.32893531  0.16114937  1
  Ca2+  Ca13  1  0.08850483  0.33554737  0.50042833  1
  Ca2+  Ca14  1  0.08242058  0.32132044  0.82264352  1
  Ca2+  Ca15  1  0.07281585  0.83691508  0.15878042  1
  Ca2+  Ca16  1  0.07819231  0.83407467  0.49513954  1
  Ca2+  Ca17  1  0.08042853  0.84371169  0.83098245  1
  Ca2+  Ca18  1  0.57772401  0.33810084  0.16127270  1
  Ca2+  Ca19  1  0.58705832  0.32828196  0.49683481  1
  Ca2+  Ca20  1  0.57606356  0.32589541  0.82862437  1
  Ca2+  Ca21  1  0.58118412  0.82712684  0.16475740  1
  Ca2+  Ca22  1  0.58234570  0.82623630  0.49664132  1
  Ca2+  Ca23  1  0.56892062  0.83290174  0.82301917  1
  Ca2+  Ca24  1  0.33374435  0.42532751  0.17304868  1
  Ca2+  Ca25  1  0.32585896  0.42817637  0.50442076  1
  Ca2+  Ca26  1  0.33814071  0.42584209  0.83791434  1
  Ca2+  Ca27  1  0.33310097  0.91745866  0.16243723  1
  Ca2+  Ca28  1  0.32774714  0.91370268  0.51109897  1
  Ca2+  Ca29  1  0.32490965  0.91590042  0.84149507  1
  Ca2+  Ca30  1  0.82564292  0.42499369  0.17757249  1
  Ca2+  Ca31  1  0.83302476  0.42026873  0.50247275  1
  Ca2+  Ca32  1  0.83402351  0.41237785  0.83341807  1
  Ca2+  Ca33  1  0.83443740  0.91760883  0.17041350  1
  Ca2+  Ca34  1  0.82016048  0.90733009  0.50145164  1
  Ca2+  Ca35  1  0.82689585  0.92102751  0.84014139  1
  Ca2+  Ca36  1  0.41536894  0.17420902  0.15656699  1
  Ca2+  Ca37  1  0.42382114  0.16364574  0.49992799  1
  Ca2+  Ca38  1  0.41381572  0.17021692  0.82963823  1
  Ca2+  Ca39  1  0.41988916  0.66376967  0.16116838  1
  Ca2+  Ca40  1  0.42037145  0.66500356  0.49936167  1
  Ca2+  Ca41  1  0.41302806  0.67439880  0.82674825  1
  Ca2+  Ca42  1  0.92267395  0.16529770  0.15673007  1
  Ca2+  Ca43  1  0.92243719  0.17207099  0.50192220  1
  Ca2+  Ca44  1  0.92620393  0.16523735  0.82788528  1
  Ca2+  Ca45  1  0.91072058  0.67724664  0.16532236  1
  Ca2+  Ca46  1  0.91669899  0.67052642  0.49047415  1
  Ca2+  Ca47  1  0.91970733  0.67391733  0.83103009  1
  Al0+  Al48  1  -0.00243587  0.00033610  -0.00032942  1
  Al0+  Al49  1  0.00119146  0.00170235  0.32920384  1
  Al0+  Al50  1  -0.00139454  0.00241989  0.66349528  1
  Al0+  Al51  1  -0.00117457  0.50123125  0.00111729  1
  Al0+  Al52  1  0.00078722  0.49892626  0.33657089  1
  Al0+  Al53  1  -0.00043696  0.50104903  0.66862564  1
  Al0+  Al54  1  0.50031082  -0.00198618  0.00142780  1
  Al0+  Al55  1  0.50093248  0.00014550  0.33438348  1
  Al0+  Al56  1  0.49886627  -0.00045925  0.66340547  1
  Al0+  Al57  1  0.50056669  0.49820114  -0.00162881  1
  Al0+  Al58  1  0.50024127  0.49921543  0.33763356  1
  Al0+  Al59  1  0.50258839  0.50080271  0.66703954  1
  Al0+  Al60  1  0.25012203  0.24925909  -0.00698535  1
  Al0+  Al61  1  0.25174428  0.24866739  0.33653108  1
  Al0+  Al62  1  0.24939351  0.25004477  0.66279870  1
  Al0+  Al63  1  0.24964894  0.74790770  0.00690665  1
  Al0+  Al64  1  0.24997308  0.75219635  0.33603393  1
  Al0+  Al65  1  0.24789633  0.75079925  0.67109862  1
  Al0+  Al66  1  0.74985590  0.24965725  0.00566186  1
  Al0+  Al67  1  0.75291325  0.24837339  0.33443687  1
  Al0+  Al68  1  0.75088935  0.25072354  0.65887126  1
  Al0+  Al69  1  0.75102616  0.74883882  -0.00539320  1
  Al0+  Al70  1  0.74855028  0.75106579  0.33074946  1
  Al0+  Al71  1  0.74790576  0.75029814  0.67094772  1
  Al0+  Al72  1  0.17777600  0.92888636  0.01661389  1
  Al0+  Al73  1  0.92987760  0.32323102  0.65022807  1
  Al0+  Al74  1  0.32271086  0.07255550  0.01367849  1
  Al0+  Al75  1  0.57200065  0.67904120  0.65054060  1
  Al0+  Al76  1  0.81944085  0.07040336  0.01283347  1
  Al0+  Al77  1  0.32284456  0.56995474  0.68417095  1
  Al0+  Al78  1  0.32186861  0.56957304  0.01514003  1
  Al0+  Al79  1  0.18004361  0.42667667  0.34762171  1
  Al0+  Al80  1  0.17703582  0.93054302  0.67936506  1
  Al0+  Al81  1  0.42569630  0.82028551  0.65160160  1
  Al0+  Al82  1  0.17753426  0.42811241  0.68423564  1
  Al0+  Al83  1  0.92992479  0.81985479  0.31980630  1
  Al0+  Al84  1  0.42969402  0.32056036  0.98666073  1
  Al0+  Al85  1  0.07246867  0.17823868  0.64881328  1
  Al0+  Al86  1  0.32199448  0.57405377  0.34998880  1
  Al0+  Al87  1  0.67860811  0.42687065  0.34954490  1
  Al0+  Al88  1  0.57030485  0.17903695  0.65344299  1
  Al0+  Al89  1  0.06949992  0.18074210  0.98629913  1
  Al0+  Al90  1  0.81996828  0.57221026  0.34788471  1
  Al0+  Al91  1  0.92953881  0.82062840  0.98402254  1
  Al0+  Al92  1  0.67986489  0.93067985  0.34640247  1
  Al0+  Al93  1  0.56766060  0.67937000  0.31906342  1
  Al0+  Al94  1  0.42842650  0.82023129  0.98780034  1
  Al0+  Al95  1  0.67764583  0.92804744  0.68197840  1
  Si0+  Si96  1  0.82129690  0.57221720  0.68349603  1
  Si0+  Si97  1  0.68095331  0.42668899  0.68241945  1
  Si0+  Si98  1  0.81930685  0.07279206  0.68177255  1
  Si0+  Si99  1  0.07241377  0.18004101  0.31580645  1
  Si0+  Si100  1  0.17718437  0.42756068  0.01461683  1
  Si0+  Si101  1  0.17788448  0.93135967  0.34723589  1
  Si0+  Si102  1  0.82550575  0.07173710  0.35180425  1
  Si0+  Si103  1  0.07395320  0.67685575  0.31747924  1
  Si0+  Si104  1  0.07215233  0.67657630  0.98402407  1
  Si0+  Si105  1  0.57411309  0.17747415  0.98637173  1
  Si0+  Si106  1  0.82177364  0.57234491  0.01440407  1
  Si0+  Si107  1  0.57193086  0.67697802  0.98299417  1
  Si0+  Si108  1  0.92803644  0.82156058  0.65246074  1
  Si0+  Si109  1  0.57299438  0.17651037  0.31710785  1
  Si0+  Si110  1  0.43081709  0.31760481  0.32007151  1
  Si0+  Si111  1  0.67774547  0.92554510  0.01674148  1
  Si0+  Si112  1  0.68029845  0.42958681  0.01336921  1
  Si0+  Si113  1  0.32158474  0.07083768  0.34831383  1
  Si0+  Si114  1  0.06942498  0.67997845  0.65325871  1
  Si0+  Si115  1  0.42545638  0.82476361  0.31540500  1
  Si0+  Si116  1  0.32272182  0.07206215  0.68146499  1
  Si0+  Si117  1  0.92902600  0.32180793  0.31637524  1
  Si0+  Si118  1  0.92589791  0.32419053  0.98601581  1
  Si0+  Si119  1  0.42845218  0.32339528  0.64817180  1
  O2-  O120  1  0.25218970  -0.00028699  0.06593649  1
  O2-  O121  1  0.25344229  -0.00305076  0.38954249  1
  O2-  O122  1  0.25217156  0.00509240  0.72468229  1
  O2-  O123  1  0.24600100  0.49501323  0.06044484  1
  O2-  O124  1  0.24568470  0.50468707  0.39681811  1
  O2-  O125  1  0.25382326  0.49491212  0.73469063  1
  O2-  O126  1  0.74573574  -0.00471586  0.06064235  1
  O2-  O127  1  0.75470747  0.00490461  0.39492092  1
  O2-  O128  1  0.75098092  0.00463699  0.72739608  1
  O2-  O129  1  0.75154004  0.50026094  0.05499214  1
  O2-  O130  1  0.75036522  0.49897527  0.39989454  1
  O2-  O131  1  0.75092565  0.49925909  0.72467178  1
  O2-  O132  1  0.00194175  0.25242081  0.27442893  1
  O2-  O133  1  0.00497338  0.25491876  0.59901702  1
  O2-  O134  1  -0.00416990  0.25768193  0.94177923  1
  O2-  O135  1  0.00411741  0.74432308  0.27255660  1
  O2-  O136  1  -0.00048361  0.75172977  0.60987590  1
  O2-  O137  1  0.00674292  0.74808463  0.93809102  1
  O2-  O138  1  0.50550056  0.25083788  0.27544075  1
  O2-  O139  1  0.49564240  0.25279125  0.60429593  1
  O2-  O140  1  0.50107767  0.24129788  0.94199995  1
  O2-  O141  1  0.49027362  0.75155131  0.27234613  1
  O2-  O142  1  0.49808113  0.74914565  0.60110837  1
  O2-  O143  1  0.50346744  0.74624776  0.94056510  1
  O2-  O144  1  0.06852164  0.18315431  0.10025399  1
  O2-  O145  1  0.07158461  0.17722146  0.42039963  1
  O2-  O146  1  0.06768546  0.17472696  0.76213043  1
  O2-  O147  1  0.06753208  0.67404023  0.08962389  1
  O2-  O148  1  0.07377933  0.68066832  0.42333862  1
  O2-  O149  1  0.06665755  0.67960026  0.75842988  1
  O2-  O150  1  0.57662947  0.18224866  0.09226992  1
  O2-  O151  1  0.56998570  0.17451921  0.42207430  1
  O2-  O152  1  0.57114680  0.18214965  0.76683541  1
  O2-  O153  1  0.57358952  0.67567883  0.08883199  1
  O2-  O154  1  0.56940355  0.68238057  0.43134512  1
  O2-  O155  1  0.57356931  0.68121193  0.76445795  1
  O2-  O156  1  0.18491676  0.42322450  0.23355615  1
  O2-  O157  1  0.17845624  0.43361866  0.57067527  1
  O2-  O158  1  0.17597252  0.43062188  0.90960594  1
  O2-  O159  1  0.17523905  0.93393026  0.24260758  1
  O2-  O160  1  0.17613288  0.93118517  0.56536308  1
  O2-  O161  1  0.17718079  0.93169448  0.90312642  1
  O2-  O162  1  0.67995771  0.42732504  0.23502248  1
  O2-  O163  1  0.68223104  0.42510704  0.57783864  1
  O2-  O164  1  0.68136263  0.42770297  0.90819108  1
  O2-  O165  1  0.67976242  0.93318757  0.23309580  1
  O2-  O166  1  0.68114799  0.92727664  0.56865041  1
  O2-  O167  1  0.67858189  0.92650964  0.91120206  1
  O2-  O168  1  0.43326415  0.32284053  0.10034416  1
  O2-  O169  1  0.43016707  0.31245718  0.42483749  1
  O2-  O170  1  0.43127295  0.32293375  0.75410153  1
  O2-  O171  1  0.43235924  0.81897469  0.10116394  1
  O2-  O172  1  0.42565091  0.82852315  0.42055593  1
  O2-  O173  1  0.42550988  0.82028983  0.76540676  1
  O2-  O174  1  0.92529867  0.32438396  0.09183476  1
  O2-  O175  1  0.92676169  0.32001815  0.42087042  1
  O2-  O176  1  0.92715230  0.31952955  0.76431695  1
  O2-  O177  1  0.92713138  0.81804823  0.09725153  1
  O2-  O178  1  0.93239436  0.82005328  0.43335735  1
  O2-  O179  1  0.92866926  0.82060634  0.75764263  1
  O2-  O180  1  0.32102627  0.07430868  0.24353151  1
  O2-  O181  1  0.32264405  0.06969995  0.57503875  1
  O2-  O182  1  0.32181293  0.07285239  0.90056093  1
  O2-  O183  1  0.32279518  0.57044467  0.23592065  1
  O2-  O184  1  0.32062704  0.57004898  0.57076657  1
  O2-  O185  1  0.32313338  0.56869401  0.90262422  1
  O2-  O186  1  0.82525589  0.07161906  0.24580069  1
  O2-  O187  1  0.81884974  0.07129107  0.57603483  1
  O2-  O188  1  0.81663629  0.07156605  0.89984430  1
  O2-  O189  1  0.81743000  0.57052666  0.23356729  1
  O2-  O190  1  0.82206452  0.57469375  0.57888983  1
  O2-  O191  1  0.82254674  0.57261755  0.90923215  1
  O2-  O192  1  0.04273558  0.08954033  0.26651129  1
  O2-  O193  1  0.03702139  0.08241472  0.59262535  1
  O2-  O194  1  0.03449333  0.08560681  0.93337198  1
  O2-  O195  1  0.05165022  0.58173762  0.27303184  1
  O2-  O196  1  0.04000521  0.58949573  0.60494531  1
  O2-  O197  1  0.04179487  0.58470443  0.93574064  1
  O2-  O198  1  0.54165237  0.08658341  0.26791015  1
  O2-  O199  1  0.53905272  0.08387190  0.59673348  1
  O2-  O200  1  0.55540948  0.08159136  0.94356662  1
  O2-  O201  1  0.54136728  0.57989221  0.26656829  1
  O2-  O202  1  0.54961227  0.57825167  0.59988235  1
  O2-  O203  1  0.54714433  0.58328911  0.93703613  1
  O2-  O204  1  0.16540807  0.20765414  0.27015330  1
  O2-  O205  1  0.17237407  0.20080722  0.59537599  1
  O2-  O206  1  0.16544216  0.20712179  0.93003698  1
  O2-  O207  1  0.16728387  0.70469758  0.27131100  1
  O2-  O208  1  0.16060042  0.70783497  0.60567715  1
  O2-  O209  1  0.16739715  0.69809713  0.94121777  1
  O2-  O210  1  0.66753127  0.19960190  0.27245371  1
  O2-  O211  1  0.66513875  0.20996927  0.59647442  1
  O2-  O212  1  0.66553362  0.20928093  0.93876232  1
  O2-  O213  1  0.66320429  0.71270650  0.26331912  1
  O2-  O214  1  0.67093127  0.70987342  0.59922257  1
  O2-  O215  1  0.66570210  0.70058334  0.93640420  1
  O2-  O216  1  0.08270006  0.45221088  0.06141650  1
  O2-  O217  1  0.07885072  0.44604589  0.39721823  1
  O2-  O218  1  0.07947460  0.45907745  0.73669585  1
  O2-  O219  1  0.07994939  0.96111828  0.06880907  1
  O2-  O220  1  0.08794253  0.96421854  0.39571009  1
  O2-  O221  1  0.07959671  0.96218315  0.73179464  1
  O2-  O222  1  0.58941988  0.45841919  0.06172074  1
  O2-  O223  1  0.58032450  0.45131201  0.40236491  1
  O2-  O224  1  0.58927540  0.45334468  0.73071347  1
  O2-  O225  1  0.58477072  0.94929930  0.06420005  1
  O2-  O226  1  0.58359561  0.96218324  0.40089892  1
  O2-  O227  1  0.58041357  0.95989751  0.73328529  1
  O2-  O228  1  0.20212039  0.33303690  0.05785432  1
  O2-  O229  1  0.21370009  0.33044787  0.40274433  1
  O2-  O230  1  0.20042500  0.32569308  0.73066991  1
  O2-  O231  1  0.20222848  0.82992628  0.07036330  1
  O2-  O232  1  0.19936658  0.83810990  0.39442845  1
  O2-  O233  1  0.20322879  0.83410392  0.73487782  1
  O2-  O234  1  0.70570746  0.33874296  0.06416157  1
  O2-  O235  1  0.70789024  0.32736798  0.40018152  1
  O2-  O236  1  0.71133022  0.33564197  0.73035909  1
  O2-  O237  1  0.70675085  0.83162055  0.06060256  1
  O2-  O238  1  0.71230490  0.83513042  0.39979798  1
  O2-  O239  1  0.71080240  0.83370686  0.73847219  1
  O2-  O240  1  0.45562494  0.41072694  0.27398882  1
  O2-  O241  1  0.45809692  0.41559865  0.60270010  1
  O2-  O242  1  0.46752363  0.41365900  0.92990364  1
  O2-  O243  1  0.45619012  0.91727669  0.26871126  1
  O2-  O244  1  0.45271023  0.91890603  0.59857683  1
  O2-  O245  1  0.45749311  0.91766732  0.93383924  1
  O2-  O246  1  0.95312769  0.41498916  0.26919700  1
  O2-  O247  1  0.95370313  0.42394767  0.59959746  1
  O2-  O248  1  0.94718528  0.41910238  0.94039386  1
  O2-  O249  1  0.96232864  0.91671043  0.26564545  1
  O2-  O250  1  0.95308797  0.91320932  0.60426479  1
  O2-  O251  1  0.95712245  0.91766780  0.93054880  1
  O2-  O252  1  0.34070891  0.28492557  0.27154490  1
  O2-  O253  1  0.33461538  0.29989832  0.60242439  1
  O2-  O254  1  0.33394338  0.29436160  0.93004982  1
  O2-  O255  1  0.32947473  0.80458563  0.27143371  1
  O2-  O256  1  0.32628959  0.79222557  0.59972332  1
  O2-  O257  1  0.33001632  0.79000992  0.93770188  1
  O2-  O258  1  0.83770442  0.29178907  0.26763673  1
  O2-  O259  1  0.83366930  0.29214864  0.59406513  1
  O2-  O260  1  0.83209718  0.29684012  0.94093913  1
  O2-  O261  1  0.83400845  0.79025526  0.26403004  1
  O2-  O262  1  0.83670688  0.79003455  0.60709025  1
  O2-  O263  1  0.83446693  0.78662926  0.92795630  1
  O2-  O264  1  0.42213204  0.04685755  0.06804071  1
  O2-  O265  1  0.41435175  0.04601296  0.39519599  1
  O2-  O266  1  0.41602168  0.04794093  0.72771383  1
  O2-  O267  1  0.41898680  0.53592640  0.06752736  1
  O2-  O268  1  0.41803626  0.54110954  0.40293579  1
  O2-  O269  1  0.42315606  0.54378916  0.73523159  1
  O2-  O270  1  0.91436124  0.03926169  0.06899932  1
  O2-  O271  1  0.91904878  0.04490592  0.39658498  1
  O2-  O272  1  0.91262610  0.04554362  0.72695385  1
  O2-  O273  1  0.91316689  0.54664815  0.06385241  1
  O2-  O274  1  0.91967463  0.54677937  0.39929075  1
  O2-  O275  1  0.91231453  0.54572119  0.73299708  1
  O2-  O276  1  0.29221728  0.17161783  0.06619013  1
  O2-  O277  1  0.29123823  0.15990009  0.39895532  1
  O2-  O278  1  0.30084804  0.16763762  0.72413056  1
  O2-  O279  1  0.29193238  0.66433975  0.07241455  1
  O2-  O280  1  0.29668536  0.67409477  0.40148716  1
  O2-  O281  1  0.28809428  0.66684563  0.73625941  1
  O2-  O282  1  0.79011305  0.16647798  0.07098408  1
  O2-  O283  1  0.80227836  0.16588533  0.39652419  1
  O2-  O284  1  0.79341980  0.16686845  0.72634880  1
  O2-  O285  1  0.79217221  0.66383639  0.06146804  1
  O2-  O286  1  0.79080085  0.67021781  0.39993238  1
  O2-  O287  1  0.79102362  0.66201823  0.73410168  1
