# generated using pymatgen
data_Ca2Al2SiO7
_symmetry_space_group_name_H-M   'P 1'
_cell_length_a   15.46903262
_cell_length_b   15.46807522
_cell_length_c   15.29049612
_cell_angle_alpha   90.01533849
_cell_angle_beta   90.01188492
_cell_angle_gamma   90.00849672
_symmetry_Int_Tables_number   1
_chemical_formula_structural   Ca2Al2SiO7
_chemical_formula_sum   'Ca48 Al48 Si24 O168'
_cell_volume   3658.65094854
_cell_formula_units_Z   24
loop_
 _symmetry_equiv_pos_site_id
 _symmetry_equiv_pos_as_xyz
  1  'x, y, z'
loop_
 _atom_type_symbol
 _atom_type_oxidation_number
  Ca2+  2.0
  Al0+  0.0
  Si0+  0.0
  O2-  -2.0
loop_
 _atom_site_type_symbol
 _atom_site_label
 _atom_site_symmetry_multiplicity
 _atom_site_fract_x
 _atom_site_fract_y
 _atom_site_fract_z
 _atom_site_occupancy
  Ca2+  Ca0  1  0.16080464  0.07815477  0.17154065  1
  Ca2+  Ca1  1  0.15784541  0.07384083  0.49815116  1
  Ca2+  Ca2  1  0.16246393  0.07245154  0.84056785  1
  Ca2+  Ca3  1  0.16880324  0.57796650  0.17826006  1
  Ca2+  Ca4  1  0.15626548  0.57603574  0.49577572  1
  Ca2+  Ca5  1  0.17009989  0.57975083  0.83936314  1
  Ca2+  Ca6  1  0.66804799  0.07340022  0.16982390  1
  Ca2+  Ca7  1  0.67146152  0.07033679  0.50748049  1
  Ca2+  Ca8  1  0.67836310  0.07875966  0.84057136  1
  Ca2+  Ca9  1  0.67468445  0.57825505  0.17343667  1
  Ca2+  Ca10  1  0.66784353  0.58371850  0.49573379  1
  Ca2+  Ca11  1  0.67151165  0.58019691  0.84121764  1
  Ca2+  Ca12  1  0.08089786  0.32393830  0.16675254  1
  Ca2+  Ca13  1  0.07180583  0.32763503  0.48662180  1
  Ca2+  Ca14  1  0.07311505  0.32272511  0.82873394  1
  Ca2+  Ca15  1  0.07898906  0.83620095  0.16550465  1
  Ca2+  Ca16  1  0.07777993  0.83289627  0.48778474  1
  Ca2+  Ca17  1  0.08500360  0.83658066  0.83071206  1
  Ca2+  Ca18  1  0.57551536  0.34747050  0.16392546  1
  Ca2+  Ca19  1  0.57792670  0.33446896  0.48944505  1
  Ca2+  Ca20  1  0.58320667  0.33756095  0.83465563  1
  Ca2+  Ca21  1  0.58697079  0.83139451  0.16139168  1
  Ca2+  Ca22  1  0.59524687  0.82473155  0.49263546  1
  Ca2+  Ca23  1  0.58829811  0.83247888  0.82761624  1
  Ca2+  Ca24  1  0.33037531  0.41089491  0.17620042  1
  Ca2+  Ca25  1  0.32778264  0.41274725  0.49593264  1
  Ca2+  Ca26  1  0.33506131  0.41770482  0.84039345  1
  Ca2+  Ca27  1  0.32334655  0.91127029  0.17002761  1
  Ca2+  Ca28  1  0.31821039  0.91080756  0.50111370  1
  Ca2+  Ca29  1  0.32448893  0.91219512  0.84068803  1
  Ca2+  Ca30  1  0.82980311  0.42678926  0.17676324  1
  Ca2+  Ca31  1  0.84112150  0.42049973  0.49969121  1
  Ca2+  Ca32  1  0.82890648  0.42141716  0.84329606  1
  Ca2+  Ca33  1  0.82764461  0.91923815  0.17077790  1
  Ca2+  Ca34  1  0.82851636  0.91824260  0.50124356  1
  Ca2+  Ca35  1  0.82322901  0.92580339  0.83863654  1
  Ca2+  Ca36  1  0.41776704  0.17789052  0.16311429  1
  Ca2+  Ca37  1  0.41900796  0.17125013  0.49166671  1
  Ca2+  Ca38  1  0.41879295  0.17112885  0.83509279  1
  Ca2+  Ca39  1  0.42605244  0.67157307  0.16396701  1
  Ca2+  Ca40  1  0.43077470  0.66757756  0.49443972  1
  Ca2+  Ca41  1  0.42591250  0.67541436  0.83008435  1
  Ca2+  Ca42  1  0.92601724  0.16221652  0.16325059  1
  Ca2+  Ca43  1  0.91500484  0.17484666  0.49344559  1
  Ca2+  Ca44  1  0.91459314  0.16241185  0.83001514  1
  Ca2+  Ca45  1  0.91348553  0.66711507  0.17036223  1
  Ca2+  Ca46  1  0.91917327  0.67576908  0.48494502  1
  Ca2+  Ca47  1  0.91402975  0.66682589  0.83230119  1
  Al0+  Al48  1  0.00009649  -0.00209155  0.00089901  1
  Al0+  Al49  1  -0.00084968  -0.00037976  0.33076199  1
  Al0+  Al50  1  0.00065099  -0.00105941  0.67341818  1
  Al0+  Al51  1  0.00247001  0.49939506  0.00205349  1
  Al0+  Al52  1  0.00112166  0.50050543  0.33457892  1
  Al0+  Al53  1  0.00054396  0.49818114  0.66668562  1
  Al0+  Al54  1  0.49708957  0.00224664  -0.00236512  1
  Al0+  Al55  1  0.49882448  0.00037151  0.33847152  1
  Al0+  Al56  1  0.49558550  -0.00001885  0.66807069  1
  Al0+  Al57  1  0.49930754  0.50351745  -0.00355924  1
  Al0+  Al58  1  0.50072513  0.50249551  0.32948843  1
  Al0+  Al59  1  0.49943235  0.50234867  0.66312899  1
  Al0+  Al60  1  0.24891755  0.24842872  -0.01186951  1
  Al0+  Al61  1  0.25085199  0.25018976  0.33189592  1
  Al0+  Al62  1  0.24862412  0.24946576  0.66722773  1
  Al0+  Al63  1  0.25087640  0.74869680  -0.00080638  1
  Al0+  Al64  1  0.25137511  0.74951984  0.33634791  1
  Al0+  Al65  1  0.25208528  0.74712154  0.67027518  1
  Al0+  Al66  1  0.74836302  0.25099621  0.00875920  1
  Al0+  Al67  1  0.74755600  0.25012677  0.33147513  1
  Al0+  Al68  1  0.74835218  0.25153459  0.66564683  1
  Al0+  Al69  1  0.75245980  0.74933208  0.00384855  1
  Al0+  Al70  1  0.75095463  0.74912660  0.33103677  1
  Al0+  Al71  1  0.75189409  0.74827971  0.66580573  1
  Al0+  Al72  1  0.06994753  0.17896382  0.31915659  1
  Al0+  Al73  1  0.07341559  0.67930146  0.31880052  1
  Al0+  Al74  1  0.42809581  0.82236963  0.98696929  1
  Al0+  Al75  1  0.67694815  0.42862990  0.34975255  1
  Al0+  Al76  1  0.18014508  0.42803652  0.34616534  1
  Al0+  Al77  1  0.18122262  0.92816223  0.01511309  1
  Al0+  Al78  1  0.57125381  0.68116730  0.31760242  1
  Al0+  Al79  1  0.43034506  0.32224873  0.98519620  1
  Al0+  Al80  1  0.67644244  0.43053379  0.01440626  1
  Al0+  Al81  1  0.06823397  0.17720365  0.98362615  1
  Al0+  Al82  1  0.82226551  0.07181098  0.01717088  1
  Al0+  Al83  1  0.92769649  0.32065713  0.65397989  1
  Al0+  Al84  1  0.82499968  0.57057362  0.01580274  1
  Al0+  Al85  1  0.57212377  0.68158089  0.65206440  1
  Al0+  Al86  1  0.43156094  0.31983408  0.32110882  1
  Al0+  Al87  1  0.67826976  0.92592212  0.68053044  1
  Al0+  Al88  1  0.81919006  0.07331009  0.68022694  1
  Al0+  Al89  1  0.18109237  0.92844343  0.68097755  1
  Al0+  Al90  1  0.67618354  0.92971113  0.01424803  1
  Al0+  Al91  1  0.92548711  0.32241583  0.31668215  1
  Al0+  Al92  1  0.67840418  0.92947838  0.34667833  1
  Al0+  Al93  1  0.82132626  0.56958515  0.35113063  1
  Al0+  Al94  1  0.17858441  0.92904049  0.34617980  1
  Al0+  Al95  1  0.92880563  0.82150965  0.31692788  1
  Si0+  Si96  1  0.07228399  0.67752228  0.98411134  1
  Si0+  Si97  1  0.57294890  0.68189153  0.98239536  1
  Si0+  Si98  1  0.82243622  0.07234206  0.34925846  1
  Si0+  Si99  1  0.42591933  0.82255523  0.64888977  1
  Si0+  Si100  1  0.56959088  0.17882351  0.65260830  1
  Si0+  Si101  1  0.07127438  0.17639663  0.65005090  1
  Si0+  Si102  1  0.32186473  0.07564310  0.68554909  1
  Si0+  Si103  1  0.32297418  0.57274095  0.35110392  1
  Si0+  Si104  1  0.57181117  0.17452077  0.31729611  1
  Si0+  Si105  1  0.07365135  0.67738972  0.65339732  1
  Si0+  Si106  1  0.93207545  0.81975212  0.65392627  1
  Si0+  Si107  1  0.42764911  0.82387295  0.31840825  1
  Si0+  Si108  1  0.57323116  0.17780127  0.98276452  1
  Si0+  Si109  1  0.82305422  0.56944494  0.68111437  1
  Si0+  Si110  1  0.18183519  0.42693857  0.01304023  1
  Si0+  Si111  1  0.32061697  0.07479489  0.01617578  1
  Si0+  Si112  1  0.92775478  0.32307076  0.98514175  1
  Si0+  Si113  1  0.42825363  0.32179727  0.65121065  1
  Si0+  Si114  1  0.92940311  0.81951535  0.98257335  1
  Si0+  Si115  1  0.32133796  0.07264640  0.34990924  1
  Si0+  Si116  1  0.32275360  0.56783851  0.68314210  1
  Si0+  Si117  1  0.32002094  0.57066691  0.01429930  1
  Si0+  Si118  1  0.67657032  0.43052218  0.68049131  1
  Si0+  Si119  1  0.17844292  0.42859003  0.68316440  1
  O2-  O120  1  0.25524747  0.00368661  0.06090531  1
  O2-  O121  1  0.25264335  0.00379660  0.39408110  1
  O2-  O122  1  0.25482175  0.00430170  0.72772893  1
  O2-  O123  1  0.25432407  0.49540845  0.05621450  1
  O2-  O124  1  0.25226267  0.50529302  0.39486479  1
  O2-  O125  1  0.25081804  0.49783869  0.72629360  1
  O2-  O126  1  0.74725488  0.00185104  0.06494135  1
  O2-  O127  1  0.75152148  0.00572831  0.39329634  1
  O2-  O128  1  0.74624988  0.00166982  0.72972198  1
  O2-  O129  1  0.75337053  0.49724630  0.06298248  1
  O2-  O130  1  0.75274766  0.49476024  0.40287962  1
  O2-  O131  1  0.75068085  0.49900725  0.72202490  1
  O2-  O132  1  -0.00368618  0.24859906  0.26805513  1
  O2-  O133  1  0.00107682  0.24411264  0.60805385  1
  O2-  O134  1  -0.01004572  0.24952567  0.93819340  1
  O2-  O135  1  0.00283342  0.75075589  0.26697170  1
  O2-  O136  1  0.00515175  0.75039918  0.61226749  1
  O2-  O137  1  0.00005367  0.74669700  0.94073152  1
  O2-  O138  1  0.50879083  0.24881768  0.27358298  1
  O2-  O139  1  0.49708268  0.24887197  0.61005610  1
  O2-  O140  1  0.50764506  0.25055458  0.93804077  1
  O2-  O141  1  0.49922893  0.75947735  0.27321737  1
  O2-  O142  1  0.50212347  0.76194572  0.60573571  1
  O2-  O143  1  0.50911360  0.75536120  0.93816619  1
  O2-  O144  1  0.07221003  0.17979445  0.09596223  1
  O2-  O145  1  0.06911108  0.17904184  0.43336924  1
  O2-  O146  1  0.07274153  0.17860325  0.75576075  1
  O2-  O147  1  0.07606636  0.67687190  0.08824199  1
  O2-  O148  1  0.07222177  0.68223810  0.43349183  1
  O2-  O149  1  0.07291475  0.67507498  0.75890799  1
  O2-  O150  1  0.56869806  0.17338147  0.08764742  1
  O2-  O151  1  0.56705260  0.17236777  0.42341202  1
  O2-  O152  1  0.56904266  0.18150875  0.75756856  1
  O2-  O153  1  0.56964102  0.67967224  0.08743646  1
  O2-  O154  1  0.56884616  0.68123634  0.43121302  1
  O2-  O155  1  0.56921781  0.67841903  0.76524723  1
  O2-  O156  1  0.18492484  0.42689991  0.23287431  1
  O2-  O157  1  0.17877130  0.42926122  0.57851603  1
  O2-  O158  1  0.18193173  0.43124124  0.90719421  1
  O2-  O159  1  0.18160109  0.92861902  0.23355591  1
  O2-  O160  1  0.18051481  0.92770408  0.56808535  1
  O2-  O161  1  0.18277095  0.92765469  0.90146929  1
  O2-  O162  1  0.67370761  0.43542050  0.23693660  1
  O2-  O163  1  0.67273878  0.43106151  0.57625465  1
  O2-  O164  1  0.67651603  0.43405324  0.89934234  1
  O2-  O165  1  0.67583957  0.93219236  0.23403392  1
  O2-  O166  1  0.68314229  0.92573451  0.56715666  1
  O2-  O167  1  0.67888213  0.93022631  0.90033270  1
  O2-  O168  1  0.42770657  0.32107889  0.09767217  1
  O2-  O169  1  0.43029281  0.31709199  0.43498120  1
  O2-  O170  1  0.42924060  0.32335375  0.75628979  1
  O2-  O171  1  0.42428995  0.81525004  0.09947200  1
  O2-  O172  1  0.42582286  0.82116960  0.42421612  1
  O2-  O173  1  0.42201596  0.81735405  0.75436685  1
  O2-  O174  1  0.93474364  0.32667752  0.08959456  1
  O2-  O175  1  0.92952748  0.32016330  0.43107946  1
  O2-  O176  1  0.93061106  0.32483359  0.76721330  1
  O2-  O177  1  0.93039839  0.82032891  0.08700346  1
  O2-  O178  1  0.93075920  0.82208199  0.43165918  1
  O2-  O179  1  0.93208573  0.81694782  0.75921353  1
  O2-  O180  1  0.32295801  0.07299234  0.24464369  1
  O2-  O181  1  0.32231323  0.08022195  0.58036510  1
  O2-  O182  1  0.31801755  0.07540941  0.91023763  1
  O2-  O183  1  0.32268311  0.57236583  0.24531555  1
  O2-  O184  1  0.32450838  0.56667198  0.57868972  1
  O2-  O185  1  0.31774152  0.57012091  0.90848275  1
  O2-  O186  1  0.82256199  0.06963777  0.24394923  1
  O2-  O187  1  0.81807443  0.07313582  0.56685032  1
  O2-  O188  1  0.82117565  0.06922218  0.90310501  1
  O2-  O189  1  0.81938304  0.57012181  0.23799521  1
  O2-  O190  1  0.82606503  0.57004291  0.57697530  1
  O2-  O191  1  0.82439897  0.56972771  0.90064929  1
  O2-  O192  1  0.04336795  0.08096143  0.26563306  1
  O2-  O193  1  0.04758169  0.08112544  0.60704376  1
  O2-  O194  1  0.03926366  0.07938296  0.93013897  1
  O2-  O195  1  0.04836633  0.57998854  0.26779637  1
  O2-  O196  1  0.04445416  0.58582405  0.60672655  1
  O2-  O197  1  0.04636495  0.58492118  0.93510388  1
  O2-  O198  1  0.53885316  0.08368418  0.26977535  1
  O2-  O199  1  0.54187072  0.08638340  0.60541004  1
  O2-  O200  1  0.54268332  0.08735837  0.93204494  1
  O2-  O201  1  0.53507344  0.58770795  0.26205202  1
  O2-  O202  1  0.53425329  0.58707730  0.59769974  1
  O2-  O203  1  0.54031651  0.59129754  0.93324133  1
  O2-  O204  1  0.16815078  0.20858528  0.26710587  1
  O2-  O205  1  0.16510393  0.20335374  0.60503187  1
  O2-  O206  1  0.16226837  0.21058699  0.92494350  1
  O2-  O207  1  0.17387586  0.70403552  0.26835998  1
  O2-  O208  1  0.16719580  0.70069707  0.60826545  1
  O2-  O209  1  0.16290938  0.70679131  0.93400030  1
  O2-  O210  1  0.66697594  0.19175177  0.27308646  1
  O2-  O211  1  0.65985545  0.20771122  0.60387540  1
  O2-  O212  1  0.66818479  0.20210939  0.93820542  1
  O2-  O213  1  0.66714034  0.70951833  0.26372932  1
  O2-  O214  1  0.67055519  0.70639764  0.59863133  1
  O2-  O215  1  0.66871423  0.70223648  0.93789886  1
  O2-  O216  1  0.09132179  0.45584577  0.06020992  1
  O2-  O217  1  0.08507208  0.45863262  0.40303484  1
  O2-  O218  1  0.08833189  0.45942229  0.73256061  1
  O2-  O219  1  0.08396739  0.95698106  0.06591064  1
  O2-  O220  1  0.08197347  0.96012468  0.40034720  1
  O2-  O221  1  0.08511351  0.95724661  0.73719240  1
  O2-  O222  1  0.57871397  0.46476606  0.06493719  1
  O2-  O223  1  0.57920323  0.46315987  0.40247738  1
  O2-  O224  1  0.58547142  0.46151183  0.72852120  1
  O2-  O225  1  0.57568064  0.95552481  0.06391866  1
  O2-  O226  1  0.58139352  0.95752089  0.40280489  1
  O2-  O227  1  0.57537049  0.94755102  0.72696272  1
  O2-  O228  1  0.20954156  0.33395232  0.05584616  1
  O2-  O229  1  0.21523196  0.33366769  0.40266837  1
  O2-  O230  1  0.20512071  0.33608879  0.73005636  1
  O2-  O231  1  0.21307130  0.83105058  0.06662060  1
  O2-  O232  1  0.21090183  0.83327549  0.40233292  1
  O2-  O233  1  0.21171876  0.83074672  0.73469586  1
  O2-  O234  1  0.69120515  0.32950805  0.06511485  1
  O2-  O235  1  0.69438513  0.32542167  0.39796090  1
  O2-  O236  1  0.70135576  0.33823939  0.72789742  1
  O2-  O237  1  0.70560704  0.83113875  0.06476084  1
  O2-  O238  1  0.71250964  0.83372357  0.39894990  1
  O2-  O239  1  0.71122793  0.82870426  0.73396195  1
  O2-  O240  1  0.45707431  0.41744372  0.26741786  1
  O2-  O241  1  0.45680003  0.41287994  0.60375566  1
  O2-  O242  1  0.45807994  0.42013703  0.92970904  1
  O2-  O243  1  0.44785516  0.91943493  0.27508314  1
  O2-  O244  1  0.43800560  0.92033196  0.60717172  1
  O2-  O245  1  0.44665901  0.92225573  0.93372309  1
  O2-  O246  1  0.95781540  0.42019383  0.26712157  1
  O2-  O247  1  0.96325421  0.41620271  0.59993954  1
  O2-  O248  1  0.96018404  0.41452995  0.93602651  1
  O2-  O249  1  0.95680310  0.91889848  0.26346526  1
  O2-  O250  1  0.95885659  0.91242489  0.60826027  1
  O2-  O251  1  0.95987818  0.90967488  0.93384282  1
  O2-  O252  1  0.33664325  0.28677339  0.26597497  1
  O2-  O253  1  0.33466469  0.29571994  0.60603271  1
  O2-  O254  1  0.33603380  0.28964941  0.92625887  1
  O2-  O255  1  0.33577766  0.79392866  0.27188218  1
  O2-  O256  1  0.33564262  0.78611693  0.60154261  1
  O2-  O257  1  0.33500119  0.78199543  0.92979618  1
  O2-  O258  1  0.82469919  0.30057441  0.26658401  1
  O2-  O259  1  0.82975377  0.29534116  0.60012687  1
  O2-  O260  1  0.83004926  0.30465645  0.94456887  1
  O2-  O261  1  0.83246383  0.79066637  0.26304810  1
  O2-  O262  1  0.84164640  0.78985671  0.60565656  1
  O2-  O263  1  0.83780133  0.79067620  0.93437985  1
  O2-  O264  1  0.41546890  0.05475359  0.06052103  1
  O2-  O265  1  0.41357897  0.04767575  0.39971636  1
  O2-  O266  1  0.41574098  0.05252273  0.73238096  1
  O2-  O267  1  0.41342971  0.54837821  0.05926154  1
  O2-  O268  1  0.41478190  0.54292806  0.39776341  1
  O2-  O269  1  0.41310065  0.53764513  0.73272863  1
  O2-  O270  1  0.91915827  0.03843665  0.06835639  1
  O2-  O271  1  0.91462888  0.04424361  0.39654201  1
  O2-  O272  1  0.91719879  0.04411563  0.73358130  1
  O2-  O273  1  0.92438967  0.54483290  0.06743993  1
  O2-  O274  1  0.92152478  0.54589057  0.40343424  1
  O2-  O275  1  0.91453243  0.54153506  0.73042694  1
  O2-  O276  1  0.29137641  0.16843362  0.05977122  1
  O2-  O277  1  0.29536398  0.16538171  0.39759192  1
  O2-  O278  1  0.29513362  0.16883486  0.73346790  1
  O2-  O279  1  0.28769868  0.65947427  0.06275437  1
  O2-  O280  1  0.30062245  0.66593477  0.39937499  1
  O2-  O281  1  0.29500389  0.65901067  0.73219808  1
  O2-  O282  1  0.80002147  0.17136408  0.06913557  1
  O2-  O283  1  0.79931721  0.16725901  0.39324951  1
  O2-  O284  1  0.78997101  0.17173318  0.73421563  1
  O2-  O285  1  0.79780818  0.66875488  0.06722511  1
  O2-  O286  1  0.78954193  0.66784494  0.40278391  1
  O2-  O287  1  0.79535349  0.66089750  0.72918399  1
