# generated using pymatgen
data_Ca2Al2SiO7
_symmetry_space_group_name_H-M   'P 1'
_cell_length_a   15.45489136
_cell_length_b   15.45560021
_cell_length_c   15.28209525
_cell_angle_alpha   90.00241394
_cell_angle_beta   90.00559207
_cell_angle_gamma   90.00403142
_symmetry_Int_Tables_number   1
_chemical_formula_structural   Ca2Al2SiO7
_chemical_formula_sum   'Ca48 Al48 Si24 O168'
_cell_volume   3650.35187857
_cell_formula_units_Z   24
loop_
 _symmetry_equiv_pos_site_id
 _symmetry_equiv_pos_as_xyz
  1  'x, y, z'
loop_
 _atom_type_symbol
 _atom_type_oxidation_number
  Ca2+  2.0
  Al0+  0.0
  Si0+  0.0
  O2-  -2.0
loop_
 _atom_site_type_symbol
 _atom_site_label
 _atom_site_symmetry_multiplicity
 _atom_site_fract_x
 _atom_site_fract_y
 _atom_site_fract_z
 _atom_site_occupancy
  Ca2+  Ca0  1  0.16701446  0.07330793  0.16620745  1
  Ca2+  Ca1  1  0.16684389  0.06754129  0.50424684  1
  Ca2+  Ca2  1  0.17035290  0.07161391  0.84383216  1
  Ca2+  Ca3  1  0.16040495  0.58179349  0.17383106  1
  Ca2+  Ca4  1  0.16880258  0.58245907  0.50208139  1
  Ca2+  Ca5  1  0.17302785  0.58891442  0.83710119  1
  Ca2+  Ca6  1  0.67683130  0.08382096  0.17315489  1
  Ca2+  Ca7  1  0.67363049  0.07823996  0.50530595  1
  Ca2+  Ca8  1  0.67657284  0.07837869  0.83696699  1
  Ca2+  Ca9  1  0.66902304  0.58063899  0.17260713  1
  Ca2+  Ca10  1  0.66654490  0.58699275  0.50524170  1
  Ca2+  Ca11  1  0.65411842  0.57381398  0.83472191  1
  Ca2+  Ca12  1  0.08319932  0.32804204  0.15928488  1
  Ca2+  Ca13  1  0.08257748  0.33193326  0.49281916  1
  Ca2+  Ca14  1  0.08264158  0.32172378  0.83192032  1
  Ca2+  Ca15  1  0.07749982  0.83262163  0.16100877  1
  Ca2+  Ca16  1  0.08083131  0.83141457  0.49122695  1
  Ca2+  Ca17  1  0.08324769  0.83831240  0.83477699  1
  Ca2+  Ca18  1  0.58104911  0.32841247  0.16061538  1
  Ca2+  Ca19  1  0.58744338  0.32870599  0.49615867  1
  Ca2+  Ca20  1  0.58390718  0.33684530  0.83207749  1
  Ca2+  Ca21  1  0.57973237  0.82703765  0.16176992  1
  Ca2+  Ca22  1  0.58327502  0.82733732  0.49672741  1
  Ca2+  Ca23  1  0.57178954  0.83430574  0.82251045  1
  Ca2+  Ca24  1  0.32729462  0.41457333  0.16993361  1
  Ca2+  Ca25  1  0.32847664  0.42387582  0.50262625  1
  Ca2+  Ca26  1  0.34091531  0.42597947  0.83848668  1
  Ca2+  Ca27  1  0.32291275  0.91040574  0.16559797  1
  Ca2+  Ca28  1  0.32209907  0.90507063  0.50439459  1
  Ca2+  Ca29  1  0.32741282  0.91303309  0.84191243  1
  Ca2+  Ca30  1  0.83022175  0.42478960  0.17136427  1
  Ca2+  Ca31  1  0.82814308  0.42863350  0.50330912  1
  Ca2+  Ca32  1  0.81962361  0.41869692  0.83886168  1
  Ca2+  Ca33  1  0.84612130  0.92361944  0.16961972  1
  Ca2+  Ca34  1  0.83216685  0.92479900  0.50506265  1
  Ca2+  Ca35  1  0.83006346  0.92029380  0.83740852  1
  Ca2+  Ca36  1  0.41939708  0.16962824  0.15814458  1
  Ca2+  Ca37  1  0.42724937  0.16665810  0.49215447  1
  Ca2+  Ca38  1  0.40893603  0.17342113  0.83311217  1
  Ca2+  Ca39  1  0.42135559  0.67128405  0.16255097  1
  Ca2+  Ca40  1  0.42540474  0.66582628  0.50298448  1
  Ca2+  Ca41  1  0.41698582  0.67788437  0.82525559  1
  Ca2+  Ca42  1  0.92109774  0.16026971  0.15947080  1
  Ca2+  Ca43  1  0.90968807  0.16564835  0.49609225  1
  Ca2+  Ca44  1  0.91924914  0.15353692  0.83462387  1
  Ca2+  Ca45  1  0.92457347  0.67529718  0.16275654  1
  Ca2+  Ca46  1  0.91879129  0.67610542  0.48486541  1
  Ca2+  Ca47  1  0.92301406  0.67185968  0.83426120  1
  Al0+  Al48  1  0.00025841  -0.00100306  -0.00122936  1
  Al0+  Al49  1  0.00109309  0.00176166  0.34006815  1
  Al0+  Al50  1  0.00302312  -0.00040697  0.67166370  1
  Al0+  Al51  1  -0.00065718  0.50019815  -0.00643288  1
  Al0+  Al52  1  -0.00155998  0.49931674  0.33937129  1
  Al0+  Al53  1  -0.00083772  0.49723797  0.66723532  1
  Al0+  Al54  1  0.50186479  0.00074179  -0.00075999  1
  Al0+  Al55  1  0.50091841  0.00148268  0.32710370  1
  Al0+  Al56  1  0.49826743  0.00245116  0.66340641  1
  Al0+  Al57  1  0.49942158  0.49743020  0.00432694  1
  Al0+  Al58  1  0.49813609  0.49938855  0.32929938  1
  Al0+  Al59  1  0.49835564  0.50070283  0.66884794  1
  Al0+  Al60  1  0.25070332  0.25045085  -0.00686612  1
  Al0+  Al61  1  0.24991246  0.25037650  0.33941549  1
  Al0+  Al62  1  0.24790563  0.24937113  0.66169536  1
  Al0+  Al63  1  0.25195718  0.74846817  -0.00085181  1
  Al0+  Al64  1  0.25092012  0.74805735  0.33506189  1
  Al0+  Al65  1  0.24924760  0.74808858  0.67029965  1
  Al0+  Al66  1  0.74895013  0.25055912  0.00856833  1
  Al0+  Al67  1  0.74967346  0.25047517  0.33200431  1
  Al0+  Al68  1  0.75172365  0.25275186  0.67372224  1
  Al0+  Al69  1  0.75164966  0.74759126  -0.00550114  1
  Al0+  Al70  1  0.74925971  0.75163014  0.32678784  1
  Al0+  Al71  1  0.75165485  0.75112772  0.66789201  1
  Al0+  Al72  1  0.81947215  0.06752128  0.01570031  1
  Al0+  Al73  1  0.17814712  0.42841760  0.34616558  1
  Al0+  Al74  1  0.32294971  0.07399098  0.01421831  1
  Al0+  Al75  1  0.67812065  0.43068465  0.01736280  1
  Al0+  Al76  1  0.57245656  0.17941662  0.31914405  1
  Al0+  Al77  1  0.57126083  0.67835509  0.31850947  1
  Al0+  Al78  1  0.06984941  0.17961547  0.98711296  1
  Al0+  Al79  1  0.42994446  0.31964933  0.98576653  1
  Al0+  Al80  1  0.31818756  0.56761198  0.68077936  1
  Al0+  Al81  1  0.92927340  0.82203991  0.98202091  1
  Al0+  Al82  1  0.07227674  0.67724564  0.98353580  1
  Al0+  Al83  1  0.18096576  0.92765637  0.01693430  1
  Al0+  Al84  1  0.43158183  0.82137111  0.98723925  1
  Al0+  Al85  1  0.57126188  0.67916627  0.65279976  1
  Al0+  Al86  1  0.18221014  0.92860380  0.68193597  1
  Al0+  Al87  1  0.82045020  0.07085875  0.34743268  1
  Al0+  Al88  1  0.67997388  0.43215304  0.67921567  1
  Al0+  Al89  1  0.07154942  0.67718490  0.32081161  1
  Al0+  Al90  1  0.81872300  0.57294382  0.34517543  1
  Al0+  Al91  1  0.42644913  0.82344204  0.65052041  1
  Al0+  Al92  1  0.92994290  0.82447656  0.31960076  1
  Al0+  Al93  1  0.82058717  0.07087326  0.68283704  1
  Al0+  Al94  1  0.67650152  0.92720461  0.68034967  1
  Al0+  Al95  1  0.18105649  0.92894620  0.34713293  1
  Si0+  Si96  1  0.67678918  0.42950708  0.34941942  1
  Si0+  Si97  1  0.57309062  0.18170364  0.65327905  1
  Si0+  Si98  1  0.93083683  0.82183718  0.65119772  1
  Si0+  Si99  1  0.57465427  0.17877286  0.98200280  1
  Si0+  Si100  1  0.17787192  0.42903091  0.01151161  1
  Si0+  Si101  1  0.32379411  0.07259543  0.35000629  1
  Si0+  Si102  1  0.67476695  0.92818776  0.34787385  1
  Si0+  Si103  1  0.57190744  0.67655229  0.98391390  1
  Si0+  Si104  1  0.32255280  0.07549417  0.68115065  1
  Si0+  Si105  1  0.67726130  0.92442997  0.01657808  1
  Si0+  Si106  1  0.07127504  0.18024938  0.32053570  1
  Si0+  Si107  1  0.42721442  0.82227101  0.31593351  1
  Si0+  Si108  1  0.32387753  0.57160446  0.35033891  1
  Si0+  Si109  1  0.92589740  0.32249307  0.98335410  1
  Si0+  Si110  1  0.92880809  0.32135503  0.31929784  1
  Si0+  Si111  1  0.92812750  0.32076786  0.65031612  1
  Si0+  Si112  1  0.17586022  0.42509258  0.68522193  1
  Si0+  Si113  1  0.82420474  0.57207033  0.01667895  1
  Si0+  Si114  1  0.06991250  0.67685428  0.65105953  1
  Si0+  Si115  1  0.06984462  0.17833378  0.64882240  1
  Si0+  Si116  1  0.42801567  0.32201723  0.65010149  1
  Si0+  Si117  1  0.42654659  0.32045221  0.31726175  1
  Si0+  Si118  1  0.82479720  0.57409160  0.68411065  1
  Si0+  Si119  1  0.32028112  0.57003871  0.01665740  1
  O2-  O120  1  0.25402174  0.00005473  0.06569251  1
  O2-  O121  1  0.25878557  0.00089617  0.39485604  1
  O2-  O122  1  0.26016136  0.00162674  0.72499947  1
  O2-  O123  1  0.24550767  0.50161203  0.05644279  1
  O2-  O124  1  0.25112026  0.50510928  0.39208526  1
  O2-  O125  1  0.24405890  0.49305925  0.73003931  1
  O2-  O126  1  0.74695768  -0.00892956  0.06294510  1
  O2-  O127  1  0.74553618  -0.00445850  0.39170873  1
  O2-  O128  1  0.74885864  -0.00172402  0.73141553  1
  O2-  O129  1  0.75330565  0.50571237  0.06134349  1
  O2-  O130  1  0.74045502  0.50238416  0.39400912  1
  O2-  O131  1  0.75049272  0.51054244  0.72707766  1
  O2-  O132  1  0.00010380  0.25065910  0.27744279  1
  O2-  O133  1  -0.00131740  0.24960161  0.60682407  1
  O2-  O134  1  -0.00742092  0.25191954  0.93889097  1
  O2-  O135  1  0.00213929  0.75138594  0.27106532  1
  O2-  O136  1  -0.00272137  0.74610276  0.60915544  1
  O2-  O137  1  0.00276073  0.75083723  0.93227467  1
  O2-  O138  1  0.49562878  0.25247254  0.27351334  1
  O2-  O139  1  0.49884106  0.24994281  0.60966902  1
  O2-  O140  1  0.50269879  0.24398361  0.93692474  1
  O2-  O141  1  0.49696775  0.75380664  0.27273890  1
  O2-  O142  1  0.50376879  0.75553049  0.60203223  1
  O2-  O143  1  0.50942791  0.75037573  0.93993283  1
  O2-  O144  1  0.06965767  0.18279510  0.10077616  1
  O2-  O145  1  0.07035447  0.18188264  0.42600628  1
  O2-  O146  1  0.07151764  0.18040876  0.75367815  1
  O2-  O147  1  0.06925588  0.67225152  0.09664142  1
  O2-  O148  1  0.06965071  0.67808778  0.43509349  1
  O2-  O149  1  0.06886205  0.67590878  0.75589786  1
  O2-  O150  1  0.57517537  0.18250846  0.08765884  1
  O2-  O151  1  0.57246507  0.18239109  0.43315611  1
  O2-  O152  1  0.57356054  0.18434859  0.75802835  1
  O2-  O153  1  0.56947427  0.67605923  0.08988626  1
  O2-  O154  1  0.56953276  0.67705844  0.43136407  1
  O2-  O155  1  0.56512826  0.67562570  0.76609537  1
  O2-  O156  1  0.18016636  0.42476980  0.23285564  1
  O2-  O157  1  0.17624105  0.42515826  0.57936077  1
  O2-  O158  1  0.17979704  0.42911874  0.90643757  1
  O2-  O159  1  0.18031906  0.93070089  0.23476091  1
  O2-  O160  1  0.17970450  0.93006379  0.56838770  1
  O2-  O161  1  0.18260713  0.92923034  0.90328821  1
  O2-  O162  1  0.67900223  0.42912083  0.24402975  1
  O2-  O163  1  0.68302066  0.42940988  0.56608545  1
  O2-  O164  1  0.67784277  0.43215614  0.90385461  1
  O2-  O165  1  0.67140055  0.93063472  0.24248106  1
  O2-  O166  1  0.67900940  0.92896765  0.56631798  1
  O2-  O167  1  0.67693312  0.92754973  0.91104557  1
  O2-  O168  1  0.42999518  0.32048560  0.09889014  1
  O2-  O169  1  0.42685357  0.32015799  0.42330430  1
  O2-  O170  1  0.42698375  0.32184398  0.75502753  1
  O2-  O171  1  0.43113281  0.81599751  0.10066671  1
  O2-  O172  1  0.42705991  0.82222277  0.42137172  1
  O2-  O173  1  0.42584373  0.82061620  0.76410239  1
  O2-  O174  1  0.92970931  0.32530344  0.08920012  1
  O2-  O175  1  0.92846417  0.32032631  0.42481727  1
  O2-  O176  1  0.92975759  0.32292427  0.75502869  1
  O2-  O177  1  0.93071119  0.82146106  0.09549846  1
  O2-  O178  1  0.93102982  0.82414408  0.43402150  1
  O2-  O179  1  0.93263293  0.82216460  0.75593543  1
  O2-  O180  1  0.32094565  0.07684387  0.24503653  1
  O2-  O181  1  0.31850683  0.08100125  0.57544780  1
  O2-  O182  1  0.31861539  0.07536727  0.90038718  1
  O2-  O183  1  0.32656067  0.56972549  0.24468355  1
  O2-  O184  1  0.31689322  0.56469763  0.56751965  1
  O2-  O185  1  0.32242971  0.56815296  0.91156946  1
  O2-  O186  1  0.82136076  0.07184290  0.23465669  1
  O2-  O187  1  0.81862008  0.07204866  0.56892590  1
  O2-  O188  1  0.81704890  0.06826755  0.90283476  1
  O2-  O189  1  0.81953300  0.56765553  0.23235406  1
  O2-  O190  1  0.82790106  0.57073148  0.57845747  1
  O2-  O191  1  0.82560280  0.56915666  0.91093301  1
  O2-  O192  1  0.04281354  0.08891249  0.27418434  1
  O2-  O193  1  0.04171741  0.08614355  0.60240248  1
  O2-  O194  1  0.03961299  0.08414016  0.93179164  1
  O2-  O195  1  0.04132810  0.57796854  0.27026278  1
  O2-  O196  1  0.04549153  0.58243680  0.60594053  1
  O2-  O197  1  0.04287456  0.57965504  0.92668833  1
  O2-  O198  1  0.54488975  0.08348742  0.26264058  1
  O2-  O199  1  0.54820001  0.09026394  0.60355929  1
  O2-  O200  1  0.55520297  0.08350137  0.93779530  1
  O2-  O201  1  0.53949664  0.58168438  0.26390019  1
  O2-  O202  1  0.53734816  0.58155807  0.59904641  1
  O2-  O203  1  0.53846732  0.58443144  0.94006041  1
  O2-  O204  1  0.16359294  0.20885622  0.27519607  1
  O2-  O205  1  0.16076808  0.20703586  0.59886705  1
  O2-  O206  1  0.16322578  0.21403877  0.92902925  1
  O2-  O207  1  0.17274224  0.69851528  0.27090049  1
  O2-  O208  1  0.16162352  0.70549660  0.60502209  1
  O2-  O209  1  0.17193873  0.70314170  0.93269165  1
  O2-  O210  1  0.66728439  0.21334013  0.26350935  1
  O2-  O211  1  0.66399534  0.21488814  0.60659547  1
  O2-  O212  1  0.66688445  0.21088749  0.93666710  1
  O2-  O213  1  0.66629020  0.70758578  0.26114627  1
  O2-  O214  1  0.67324486  0.70111938  0.60291249  1
  O2-  O215  1  0.66782317  0.69139273  0.93948068  1
  O2-  O216  1  0.08415700  0.45289285  0.05731713  1
  O2-  O217  1  0.08231152  0.45548377  0.40383453  1
  O2-  O218  1  0.08139799  0.44834058  0.73011430  1
  O2-  O219  1  0.08260745  0.95905601  0.06701275  1
  O2-  O220  1  0.08751631  0.96436892  0.40462829  1
  O2-  O221  1  0.08810705  0.96423113  0.73676898  1
  O2-  O222  1  0.58213447  0.46089726  0.07298712  1
  O2-  O223  1  0.58042454  0.44885426  0.39229901  1
  O2-  O224  1  0.58235409  0.45847788  0.73340793  1
  O2-  O225  1  0.58427188  0.95063145  0.06338320  1
  O2-  O226  1  0.58205799  0.95630191  0.39516764  1
  O2-  O227  1  0.57718150  0.95751627  0.73077130  1
  O2-  O228  1  0.20871045  0.33835224  0.05879282  1
  O2-  O229  1  0.21094379  0.33400358  0.40546368  1
  O2-  O230  1  0.20174437  0.33033199  0.72819823  1
  O2-  O231  1  0.21091318  0.82872984  0.06856678  1
  O2-  O232  1  0.20969212  0.83113302  0.40122495  1
  O2-  O233  1  0.20783112  0.83129078  0.73539724  1
  O2-  O234  1  0.70862058  0.33510190  0.07277278  1
  O2-  O235  1  0.70787248  0.33763338  0.39577323  1
  O2-  O236  1  0.71449047  0.33896839  0.73740949  1
  O2-  O237  1  0.69994735  0.82817618  0.05858995  1
  O2-  O238  1  0.69825319  0.83344244  0.39146475  1
  O2-  O239  1  0.70329129  0.82879403  0.73426049  1
  O2-  O240  1  0.44947947  0.41387355  0.27017343  1
  O2-  O241  1  0.45740847  0.41255384  0.60200353  1
  O2-  O242  1  0.46396500  0.41620416  0.93252588  1
  O2-  O243  1  0.45052116  0.91606286  0.26960069  1
  O2-  O244  1  0.44579942  0.92494805  0.59880989  1
  O2-  O245  1  0.45691418  0.91967997  0.93359172  1
  O2-  O246  1  0.95767298  0.41246490  0.27208066  1
  O2-  O247  1  0.95649537  0.41236481  0.60109226  1
  O2-  O248  1  0.95228468  0.41386803  0.93336970  1
  O2-  O249  1  0.96222369  0.92299997  0.26891415  1
  O2-  O250  1  0.96366134  0.91296345  0.60495701  1
  O2-  O251  1  0.95752159  0.91983138  0.92856205  1
  O2-  O252  1  0.33256047  0.29356234  0.27222655  1
  O2-  O253  1  0.33542620  0.29556871  0.60209633  1
  O2-  O254  1  0.33426100  0.29334745  0.92737029  1
  O2-  O255  1  0.33472053  0.79307945  0.26985594  1
  O2-  O256  1  0.32982585  0.78547876  0.59861398  1
  O2-  O257  1  0.33682690  0.78626621  0.93333035  1
  O2-  O258  1  0.83735606  0.29527055  0.27098330  1
  O2-  O259  1  0.83622446  0.29274703  0.60294348  1
  O2-  O260  1  0.83072192  0.29735728  0.94100572  1
  O2-  O261  1  0.83130695  0.80033586  0.26606159  1
  O2-  O262  1  0.83729828  0.79926067  0.60484869  1
  O2-  O263  1  0.83105121  0.79191474  0.92767442  1
  O2-  O264  1  0.42428286  0.05167877  0.06391559  1
  O2-  O265  1  0.41965459  0.05032431  0.39310960  1
  O2-  O266  1  0.41893540  0.06019920  0.72398614  1
  O2-  O267  1  0.40957344  0.53744874  0.06604019  1
  O2-  O268  1  0.41510279  0.53957621  0.39843086  1
  O2-  O269  1  0.41316626  0.53524604  0.73640882  1
  O2-  O270  1  0.91752308  0.03932495  0.06775746  1
  O2-  O271  1  0.91646934  0.04345491  0.40441947  1
  O2-  O272  1  0.91939219  0.04213033  0.73351994  1
  O2-  O273  1  0.91693571  0.54182245  0.06228877  1
  O2-  O274  1  0.91194757  0.53750730  0.40352292  1
  O2-  O275  1  0.91547888  0.54014363  0.73187329  1
  O2-  O276  1  0.29187014  0.17303409  0.06549506  1
  O2-  O277  1  0.29672688  0.16467236  0.39948747  1
  O2-  O278  1  0.29084632  0.16769637  0.72782009  1
  O2-  O279  1  0.29546964  0.66144011  0.06505021  1
  O2-  O280  1  0.30201923  0.66508539  0.39750788  1
  O2-  O281  1  0.28652354  0.66258228  0.73637772  1
  O2-  O282  1  0.79062606  0.16490967  0.06979101  1
  O2-  O283  1  0.78875684  0.16855087  0.40016634  1
  O2-  O284  1  0.79407286  0.16931754  0.73625162  1
  O2-  O285  1  0.80094781  0.66684928  0.06064312  1
  O2-  O286  1  0.79137988  0.67128372  0.39741388  1
  O2-  O287  1  0.80729685  0.66949814  0.72809828  1
