# generated using pymatgen
data_Ca2Al2SiO7
_symmetry_space_group_name_H-M   'P 1'
_cell_length_a   15.46003451
_cell_length_b   15.45946494
_cell_length_c   15.28446101
_cell_angle_alpha   90.00002044
_cell_angle_beta   89.99726097
_cell_angle_gamma   90.00636279
_symmetry_Int_Tables_number   1
_chemical_formula_structural   Ca2Al2SiO7
_chemical_formula_sum   'Ca48 Al48 Si24 O168'
_cell_volume   3653.04517430
_cell_formula_units_Z   24
loop_
 _symmetry_equiv_pos_site_id
 _symmetry_equiv_pos_as_xyz
  1  'x, y, z'
loop_
 _atom_type_symbol
 _atom_type_oxidation_number
  Ca2+  2.0
  Al0+  0.0
  Si0+  0.0
  O2-  -2.0
loop_
 _atom_site_type_symbol
 _atom_site_label
 _atom_site_symmetry_multiplicity
 _atom_site_fract_x
 _atom_site_fract_y
 _atom_site_fract_z
 _atom_site_occupancy
  Ca2+  Ca0  1  0.16355874  0.07602485  0.17482159  1
  Ca2+  Ca1  1  0.16633790  0.08415630  0.49630190  1
  Ca2+  Ca2  1  0.16560072  0.07783847  0.84266579  1
  Ca2+  Ca3  1  0.16379556  0.58296683  0.17072474  1
  Ca2+  Ca4  1  0.17041063  0.58574121  0.50696878  1
  Ca2+  Ca5  1  0.16852526  0.58675571  0.83553254  1
  Ca2+  Ca6  1  0.67603956  0.07745482  0.17270405  1
  Ca2+  Ca7  1  0.67447190  0.07522323  0.50614535  1
  Ca2+  Ca8  1  0.67544288  0.07762882  0.83906439  1
  Ca2+  Ca9  1  0.67638711  0.57594400  0.17735368  1
  Ca2+  Ca10  1  0.67009346  0.58109199  0.50124851  1
  Ca2+  Ca11  1  0.66473302  0.58398664  0.83429430  1
  Ca2+  Ca12  1  0.07666732  0.31617608  0.16024529  1
  Ca2+  Ca13  1  0.07505052  0.32705886  0.49444305  1
  Ca2+  Ca14  1  0.07090291  0.32500059  0.83255650  1
  Ca2+  Ca15  1  0.09292672  0.82574590  0.16171789  1
  Ca2+  Ca16  1  0.08778688  0.82372141  0.49274588  1
  Ca2+  Ca17  1  0.08917222  0.82539227  0.83139422  1
  Ca2+  Ca18  1  0.57530550  0.33660418  0.16494178  1
  Ca2+  Ca19  1  0.57218397  0.33850361  0.49381927  1
  Ca2+  Ca20  1  0.57420562  0.33249476  0.82848946  1
  Ca2+  Ca21  1  0.58072192  0.84251097  0.16102912  1
  Ca2+  Ca22  1  0.59293707  0.83218417  0.49783492  1
  Ca2+  Ca23  1  0.58330785  0.83554369  0.82864237  1
  Ca2+  Ca24  1  0.33435939  0.41443907  0.17209196  1
  Ca2+  Ca25  1  0.33375718  0.41884326  0.50757415  1
  Ca2+  Ca26  1  0.34059726  0.42236428  0.83479036  1
  Ca2+  Ca27  1  0.32497646  0.92055095  0.17149112  1
  Ca2+  Ca28  1  0.32860527  0.92208573  0.49732358  1
  Ca2+  Ca29  1  0.32928640  0.91507099  0.84191375  1
  Ca2+  Ca30  1  0.83191328  0.41911800  0.17357036  1
  Ca2+  Ca31  1  0.83202362  0.41790959  0.50195929  1
  Ca2+  Ca32  1  0.83902857  0.41347897  0.83772861  1
  Ca2+  Ca33  1  0.82632415  0.92532645  0.17302546  1
  Ca2+  Ca34  1  0.82841425  0.92687956  0.50452842  1
  Ca2+  Ca35  1  0.82485896  0.92515385  0.84028087  1
  Ca2+  Ca36  1  0.41145120  0.17514659  0.16376004  1
  Ca2+  Ca37  1  0.41321461  0.17615980  0.49000803  1
  Ca2+  Ca38  1  0.41581321  0.17762035  0.82899696  1
  Ca2+  Ca39  1  0.42103296  0.67756925  0.15973051  1
  Ca2+  Ca40  1  0.42248617  0.66412068  0.50067165  1
  Ca2+  Ca41  1  0.42119600  0.67419085  0.82644518  1
  Ca2+  Ca42  1  0.92020145  0.16089292  0.16113830  1
  Ca2+  Ca43  1  0.91389199  0.16565208  0.49573759  1
  Ca2+  Ca44  1  0.91045608  0.16923647  0.83187229  1
  Ca2+  Ca45  1  0.92526121  0.66533686  0.16395745  1
  Ca2+  Ca46  1  0.92654095  0.66547725  0.49123762  1
  Ca2+  Ca47  1  0.92943064  0.66847482  0.82777841  1
  Al0+  Al48  1  0.00073431  -0.00402710  0.00399438  1
  Al0+  Al49  1  -0.00091841  -0.00361738  0.33855118  1
  Al0+  Al50  1  0.00044860  -0.00052827  0.67161953  1
  Al0+  Al51  1  0.00285905  0.49887093  -0.00655064  1
  Al0+  Al52  1  0.00164937  0.49949830  0.33224383  1
  Al0+  Al53  1  0.00091796  0.49749967  0.65971796  1
  Al0+  Al54  1  0.49844810  0.00208165  -0.00236364  1
  Al0+  Al55  1  0.49878539  0.00156021  0.34036190  1
  Al0+  Al56  1  0.49775914  0.00078582  0.66999119  1
  Al0+  Al57  1  0.50051502  0.50199951  -0.00176417  1
  Al0+  Al58  1  0.49998172  0.50178135  0.33058042  1
  Al0+  Al59  1  0.49936182  0.50291878  0.66436011  1
  Al0+  Al60  1  0.24808191  0.25309592  -0.00944487  1
  Al0+  Al61  1  0.24725595  0.25128801  0.32851899  1
  Al0+  Al62  1  0.24707702  0.25085061  0.66478808  1
  Al0+  Al63  1  0.25439204  0.74965711  -0.00416196  1
  Al0+  Al64  1  0.25222505  0.74960702  0.33255432  1
  Al0+  Al65  1  0.25274265  0.74891247  0.66611621  1
  Al0+  Al66  1  0.74818713  0.25116824  0.00165395  1
  Al0+  Al67  1  0.74562858  0.25126974  0.34064726  1
  Al0+  Al68  1  0.74868761  0.25070833  0.66608844  1
  Al0+  Al69  1  0.75161006  0.74777563  0.00443692  1
  Al0+  Al70  1  0.75282855  0.74765208  0.33831264  1
  Al0+  Al71  1  0.75061528  0.74905160  0.66689950  1
  Al0+  Al72  1  0.06977924  0.17381420  0.98516067  1
  Al0+  Al73  1  0.17912163  0.92617820  0.34909278  1
  Al0+  Al74  1  0.07186451  0.68047300  0.65168018  1
  Al0+  Al75  1  0.67688857  0.92772033  0.01540404  1
  Al0+  Al76  1  0.42885429  0.32319560  0.98490555  1
  Al0+  Al77  1  0.82207294  0.07195974  0.34944347  1
  Al0+  Al78  1  0.67813640  0.92695284  0.68385755  1
  Al0+  Al79  1  0.18143334  0.92741054  0.01262387  1
  Al0+  Al80  1  0.43182569  0.82269368  0.98738708  1
  Al0+  Al81  1  0.42883385  0.32193475  0.31868775  1
  Al0+  Al82  1  0.07205711  0.67960423  0.98530956  1
  Al0+  Al83  1  0.31852320  0.07404065  0.34683812  1
  Al0+  Al84  1  0.82079506  0.07228752  0.01667052  1
  Al0+  Al85  1  0.07293512  0.67899984  0.31807064  1
  Al0+  Al86  1  0.67725047  0.92827443  0.34911680  1
  Al0+  Al87  1  0.67634209  0.42998800  0.34939370  1
  Al0+  Al88  1  0.06758286  0.17714483  0.32081414  1
  Al0+  Al89  1  0.92722675  0.31934150  0.98746374  1
  Al0+  Al90  1  0.57193354  0.68135174  0.65231937  1
  Al0+  Al91  1  0.82147707  0.07258180  0.68453004  1
  Al0+  Al92  1  0.42898858  0.32059156  0.65194134  1
  Al0+  Al93  1  0.32073446  0.56954183  0.68131843  1
  Al0+  Al94  1  0.82417865  0.56870699  0.34916098  1
  Al0+  Al95  1  0.92742183  0.31909038  0.65078837  1
  Si0+  Si96  1  0.17902211  0.43011307  0.01457389  1
  Si0+  Si97  1  0.67836351  0.43142738  0.68267525  1
  Si0+  Si98  1  0.17631323  0.42717550  0.68496151  1
  Si0+  Si99  1  0.18004145  0.42917235  0.34681837  1
  Si0+  Si100  1  0.67708136  0.43085648  0.01367249  1
  Si0+  Si101  1  0.18150770  0.92840889  0.68187763  1
  Si0+  Si102  1  0.43073162  0.82212373  0.31943581  1
  Si0+  Si103  1  0.32233508  0.56993216  0.01593753  1
  Si0+  Si104  1  0.56993706  0.17764011  0.64958588  1
  Si0+  Si105  1  0.57271060  0.67990955  0.31792800  1
  Si0+  Si106  1  0.92746526  0.81980452  0.31631925  1
  Si0+  Si107  1  0.92591909  0.81987145  0.98378008  1
  Si0+  Si108  1  0.92897376  0.82213991  0.65062515  1
  Si0+  Si109  1  0.82378402  0.56932882  0.68243920  1
  Si0+  Si110  1  0.42787946  0.82410736  0.64771336  1
  Si0+  Si111  1  0.82468268  0.56891609  0.01282815  1
  Si0+  Si112  1  0.92530302  0.32117732  0.31806619  1
  Si0+  Si113  1  0.32019444  0.07657946  0.01406080  1
  Si0+  Si114  1  0.57102340  0.17704486  0.31734271  1
  Si0+  Si115  1  0.31962010  0.07420234  0.68246216  1
  Si0+  Si116  1  0.07132387  0.17523359  0.64929470  1
  Si0+  Si117  1  0.57129050  0.17919702  0.98331470  1
  Si0+  Si118  1  0.57385644  0.67865835  0.98532590  1
  Si0+  Si119  1  0.32120058  0.57134203  0.34679441  1
  O2-  O120  1  0.25113581  0.00795764  0.05751581  1
  O2-  O121  1  0.24694646  0.00238651  0.39887353  1
  O2-  O122  1  0.25026474  0.00157358  0.72431986  1
  O2-  O123  1  0.25197892  0.49888451  0.05869270  1
  O2-  O124  1  0.25055399  0.50056493  0.38928831  1
  O2-  O125  1  0.24626306  0.49508382  0.72935083  1
  O2-  O126  1  0.74887176  -0.00083014  0.06511374  1
  O2-  O127  1  0.74852156  0.00080960  0.39831071  1
  O2-  O128  1  0.74943478  -0.00032327  0.73293772  1
  O2-  O129  1  0.75243653  0.49835127  0.05405916  1
  O2-  O130  1  0.75188928  0.49761776  0.40027522  1
  O2-  O131  1  0.75229286  0.49914242  0.72613892  1
  O2-  O132  1  -0.01278217  0.24643205  0.27443883  1
  O2-  O133  1  -0.00040597  0.24124862  0.60610770  1
  O2-  O134  1  -0.00690601  0.24197313  0.93662733  1
  O2-  O135  1  -0.00083366  0.75397747  0.27108882  1
  O2-  O136  1  -0.00238341  0.75433559  0.60428044  1
  O2-  O137  1  -0.00223760  0.75435790  0.93861332  1
  O2-  O138  1  0.50261474  0.24632276  0.27210660  1
  O2-  O139  1  0.50018771  0.24440030  0.60359672  1
  O2-  O140  1  0.50155545  0.24716929  0.93842195  1
  O2-  O141  1  0.50692917  0.75617223  0.27683409  1
  O2-  O142  1  0.50168241  0.76019995  0.60461024  1
  O2-  O143  1  0.51164197  0.75302373  0.94161632  1
  O2-  O144  1  0.07229163  0.17747601  0.09872091  1
  O2-  O145  1  0.07005253  0.18338387  0.43392088  1
  O2-  O146  1  0.07439125  0.17615476  0.75463614  1
  O2-  O147  1  0.07089835  0.67779398  0.09829118  1
  O2-  O148  1  0.07416223  0.67953353  0.43114647  1
  O2-  O149  1  0.07183005  0.68217041  0.76500101  1
  O2-  O150  1  0.57108070  0.18065736  0.08875676  1
  O2-  O151  1  0.56810319  0.17759129  0.42287638  1
  O2-  O152  1  0.56779413  0.18063142  0.75550383  1
  O2-  O153  1  0.57000835  0.67366940  0.09082237  1
  O2-  O154  1  0.56909612  0.67718150  0.42290018  1
  O2-  O155  1  0.56875792  0.67917449  0.76569098  1
  O2-  O156  1  0.18094763  0.43023765  0.24145989  1
  O2-  O157  1  0.17762144  0.42727255  0.57898549  1
  O2-  O158  1  0.17856986  0.43248535  0.90965142  1
  O2-  O159  1  0.18457533  0.92301095  0.23572039  1
  O2-  O160  1  0.18290428  0.92767729  0.57705018  1
  O2-  O161  1  0.18596585  0.92534014  0.89892486  1
  O2-  O162  1  0.67498191  0.43383803  0.23514261  1
  O2-  O163  1  0.67702144  0.43407441  0.57806379  1
  O2-  O164  1  0.67338931  0.43388052  0.90842310  1
  O2-  O165  1  0.67700914  0.92976105  0.23552853  1
  O2-  O166  1  0.68076925  0.92826588  0.57059841  1
  O2-  O167  1  0.67877131  0.92754805  0.90215085  1
  O2-  O168  1  0.43088450  0.32492224  0.09790522  1
  O2-  O169  1  0.42878754  0.32356797  0.43172971  1
  O2-  O170  1  0.43202918  0.32039396  0.76519708  1
  O2-  O171  1  0.42970952  0.81885783  0.10077707  1
  O2-  O172  1  0.42749743  0.81819030  0.42434881  1
  O2-  O173  1  0.42494228  0.82158723  0.75339876  1
  O2-  O174  1  0.93056394  0.32459822  0.10074250  1
  O2-  O175  1  0.93027075  0.32384695  0.42363864  1
  O2-  O176  1  0.92986632  0.32158649  0.76373611  1
  O2-  O177  1  0.92295254  0.81523100  0.08904133  1
  O2-  O178  1  0.92747537  0.81639708  0.42203121  1
  O2-  O179  1  0.93100627  0.81929892  0.75643556  1
  O2-  O180  1  0.31852105  0.07314909  0.23311052  1
  O2-  O181  1  0.31899157  0.07547420  0.57766529  1
  O2-  O182  1  0.31957632  0.07569182  0.90790911  1
  O2-  O183  1  0.32151358  0.57157947  0.24134879  1
  O2-  O184  1  0.31977954  0.56858555  0.56781068  1
  O2-  O185  1  0.32356003  0.56891036  0.91095471  1
  O2-  O186  1  0.82102204  0.07052294  0.23596381  1
  O2-  O187  1  0.82079617  0.07136965  0.57132162  1
  O2-  O188  1  0.81696150  0.07271685  0.90325324  1
  O2-  O189  1  0.82338469  0.56704394  0.23467413  1
  O2-  O190  1  0.82373313  0.56774510  0.57775756  1
  O2-  O191  1  0.82409512  0.56937321  0.90747799  1
  O2-  O192  1  0.04465041  0.07670739  0.27116642  1
  O2-  O193  1  0.04995729  0.07972111  0.60544017  1
  O2-  O194  1  0.04932074  0.07253975  0.93495023  1
  O2-  O195  1  0.04239953  0.58154797  0.26453648  1
  O2-  O196  1  0.04338884  0.58313982  0.59891563  1
  O2-  O197  1  0.04116401  0.58429962  0.92910699  1
  O2-  O198  1  0.54494015  0.08321005  0.27189580  1
  O2-  O199  1  0.54497293  0.08306521  0.60559025  1
  O2-  O200  1  0.54604755  0.08663527  0.93517099  1
  O2-  O201  1  0.53872918  0.59153032  0.26732319  1
  O2-  O202  1  0.53542890  0.58742071  0.59667232  1
  O2-  O203  1  0.54146847  0.58856364  0.93562824  1
  O2-  O204  1  0.16105352  0.21406864  0.26437431  1
  O2-  O205  1  0.16332526  0.20487277  0.60167856  1
  O2-  O206  1  0.16489602  0.20891289  0.92856444  1
  O2-  O207  1  0.17075401  0.70846316  0.26464258  1
  O2-  O208  1  0.16923770  0.71129729  0.59921723  1
  O2-  O209  1  0.16901509  0.70974964  0.93186574  1
  O2-  O210  1  0.66469744  0.20407784  0.27183540  1
  O2-  O211  1  0.66298208  0.20459429  0.60453817  1
  O2-  O212  1  0.66320177  0.20816132  0.93598480  1
  O2-  O213  1  0.66738835  0.70030159  0.27319071  1
  O2-  O214  1  0.67058866  0.70501556  0.59852860  1
  O2-  O215  1  0.67021435  0.69551805  0.94155442  1
  O2-  O216  1  0.08870652  0.46127494  0.06275972  1
  O2-  O217  1  0.08891843  0.45661796  0.39519846  1
  O2-  O218  1  0.08321736  0.45589825  0.73003701  1
  O2-  O219  1  0.08285250  0.94724597  0.06654856  1
  O2-  O220  1  0.07992979  0.94716296  0.40205813  1
  O2-  O221  1  0.08895319  0.95193779  0.72968565  1
  O2-  O222  1  0.58760325  0.46397967  0.06329908  1
  O2-  O223  1  0.57956364  0.46572554  0.40200530  1
  O2-  O224  1  0.58824198  0.46402769  0.73091217  1
  O2-  O225  1  0.57688021  0.95691613  0.06520958  1
  O2-  O226  1  0.57862875  0.95300764  0.40334664  1
  O2-  O227  1  0.57717511  0.95357647  0.73377497  1
  O2-  O228  1  0.20626906  0.33728824  0.06019778  1
  O2-  O229  1  0.20825749  0.33881897  0.39563335  1
  O2-  O230  1  0.20025696  0.33289016  0.73039520  1
  O2-  O231  1  0.21943361  0.83224428  0.06581803  1
  O2-  O232  1  0.21564186  0.83008279  0.40310677  1
  O2-  O233  1  0.21318998  0.83770328  0.72930911  1
  O2-  O234  1  0.69914060  0.33843859  0.06141760  1
  O2-  O235  1  0.69557279  0.33097255  0.40356086  1
  O2-  O236  1  0.70213027  0.33825948  0.72892803  1
  O2-  O237  1  0.70245815  0.82725395  0.06699380  1
  O2-  O238  1  0.70586270  0.82909563  0.39974016  1
  O2-  O239  1  0.70575612  0.82715303  0.73524238  1
  O2-  O240  1  0.46047423  0.41867544  0.26387004  1
  O2-  O241  1  0.46175097  0.41697032  0.59960317  1
  O2-  O242  1  0.46352835  0.41917844  0.93121161  1
  O2-  O243  1  0.45295773  0.91616914  0.27419799  1
  O2-  O244  1  0.44617657  0.92057292  0.60484203  1
  O2-  O245  1  0.45331293  0.92080853  0.93170967  1
  O2-  O246  1  0.95802779  0.41223138  0.27076627  1
  O2-  O247  1  0.96173786  0.41351963  0.59446477  1
  O2-  O248  1  0.96247818  0.41446059  0.93054458  1
  O2-  O249  1  0.94959672  0.91458245  0.27246815  1
  O2-  O250  1  0.95499520  0.91638018  0.60649588  1
  O2-  O251  1  0.94914455  0.91410695  0.93940655  1
  O2-  O252  1  0.33223487  0.29270014  0.26387041  1
  O2-  O253  1  0.32988223  0.29381132  0.60091826  1
  O2-  O254  1  0.33251750  0.29740794  0.92864825  1
  O2-  O255  1  0.34219057  0.78746906  0.26952606  1
  O2-  O256  1  0.33745254  0.79118488  0.59991527  1
  O2-  O257  1  0.34004380  0.78415598  0.92894309  1
  O2-  O258  1  0.82742633  0.30498336  0.27776809  1
  O2-  O259  1  0.82870919  0.29434067  0.59809188  1
  O2-  O260  1  0.82599587  0.30003419  0.93546526  1
  O2-  O261  1  0.83514536  0.79002866  0.26907344  1
  O2-  O262  1  0.83566733  0.79607455  0.60541203  1
  O2-  O263  1  0.83400113  0.78968946  0.93569702  1
  O2-  O264  1  0.41439057  0.05254024  0.05870558  1
  O2-  O265  1  0.41547001  0.04626399  0.40276659  1
  O2-  O266  1  0.41165596  0.04908600  0.73077393  1
  O2-  O267  1  0.41435470  0.54266012  0.06403737  1
  O2-  O268  1  0.41277806  0.54369555  0.39389038  1
  O2-  O269  1  0.41713730  0.53835707  0.73598516  1
  O2-  O270  1  0.91963153  0.04311111  0.06747493  1
  O2-  O271  1  0.91890525  0.04212621  0.40445939  1
  O2-  O272  1  0.92095652  0.04522101  0.73681089  1
  O2-  O273  1  0.91626927  0.53963646  0.05961122  1
  O2-  O274  1  0.92272377  0.54030980  0.40201759  1
  O2-  O275  1  0.91580573  0.53951982  0.72872727  1
  O2-  O276  1  0.29574493  0.17178499  0.05734969  1
  O2-  O277  1  0.28803140  0.17232707  0.39964481  1
  O2-  O278  1  0.29025520  0.16563069  0.73043371  1
  O2-  O279  1  0.29419611  0.66162105  0.06259619  1
  O2-  O280  1  0.29411431  0.66208563  0.39567807  1
  O2-  O281  1  0.29093824  0.66681854  0.73527560  1
  O2-  O282  1  0.79204709  0.17166196  0.06870459  1
  O2-  O283  1  0.79531351  0.17096463  0.40157181  1
  O2-  O284  1  0.79058777  0.17184382  0.73542282  1
  O2-  O285  1  0.79849998  0.65960035  0.06294062  1
  O2-  O286  1  0.79641897  0.66602186  0.40337046  1
  O2-  O287  1  0.79691942  0.66135922  0.72961580  1
