# generated using pymatgen
data_Ca2Al2SiO7
_symmetry_space_group_name_H-M   'P 1'
_cell_length_a   15.46244226
_cell_length_b   15.46369093
_cell_length_c   15.28656013
_cell_angle_alpha   89.99912770
_cell_angle_beta   89.99340439
_cell_angle_gamma   90.01110741
_symmetry_Int_Tables_number   1
_chemical_formula_structural   Ca2Al2SiO7
_chemical_formula_sum   'Ca48 Al48 Si24 O168'
_cell_volume   3655.11469766
_cell_formula_units_Z   24
loop_
 _symmetry_equiv_pos_site_id
 _symmetry_equiv_pos_as_xyz
  1  'x, y, z'
loop_
 _atom_type_symbol
 _atom_type_oxidation_number
  Ca2+  2.0
  Al0+  0.0
  Si0+  0.0
  O2-  -2.0
loop_
 _atom_site_type_symbol
 _atom_site_label
 _atom_site_symmetry_multiplicity
 _atom_site_fract_x
 _atom_site_fract_y
 _atom_site_fract_z
 _atom_site_occupancy
  Ca2+  Ca0  1  0.16737013  0.07813459  0.16555620  1
  Ca2+  Ca1  1  0.16777490  0.07179872  0.50425892  1
  Ca2+  Ca2  1  0.16935505  0.07487278  0.84408007  1
  Ca2+  Ca3  1  0.17995872  0.57683972  0.17118050  1
  Ca2+  Ca4  1  0.17169390  0.56943628  0.49993347  1
  Ca2+  Ca5  1  0.17108531  0.57505064  0.83881908  1
  Ca2+  Ca6  1  0.66990422  0.09117237  0.17103131  1
  Ca2+  Ca7  1  0.67474807  0.09642313  0.50229841  1
  Ca2+  Ca8  1  0.66814551  0.09344036  0.83661530  1
  Ca2+  Ca9  1  0.67350674  0.58033463  0.17062427  1
  Ca2+  Ca10  1  0.67497161  0.58882589  0.50230382  1
  Ca2+  Ca11  1  0.67664593  0.57620123  0.84517072  1
  Ca2+  Ca12  1  0.07809439  0.33136722  0.15721611  1
  Ca2+  Ca13  1  0.08537571  0.33739085  0.49493404  1
  Ca2+  Ca14  1  0.08264087  0.33125185  0.83238943  1
  Ca2+  Ca15  1  0.07993229  0.83703684  0.15761992  1
  Ca2+  Ca16  1  0.08494925  0.83528082  0.49530671  1
  Ca2+  Ca17  1  0.08204553  0.83720736  0.83372228  1
  Ca2+  Ca18  1  0.57692101  0.32707859  0.15975772  1
  Ca2+  Ca19  1  0.57871917  0.32547868  0.49146698  1
  Ca2+  Ca20  1  0.58263469  0.32821936  0.83639093  1
  Ca2+  Ca21  1  0.57807163  0.82424120  0.16057012  1
  Ca2+  Ca22  1  0.58227314  0.82556529  0.49278394  1
  Ca2+  Ca23  1  0.57385931  0.83505674  0.83432457  1
  Ca2+  Ca24  1  0.33777282  0.41934544  0.17234346  1
  Ca2+  Ca25  1  0.32947683  0.41283712  0.49686731  1
  Ca2+  Ca26  1  0.33198304  0.41786536  0.84197087  1
  Ca2+  Ca27  1  0.32699701  0.91858496  0.16493641  1
  Ca2+  Ca28  1  0.32110404  0.91248932  0.50302586  1
  Ca2+  Ca29  1  0.32450700  0.92039666  0.84649690  1
  Ca2+  Ca30  1  0.83039718  0.42005993  0.16620487  1
  Ca2+  Ca31  1  0.83307170  0.42989468  0.50486318  1
  Ca2+  Ca32  1  0.82976544  0.42360962  0.84423424  1
  Ca2+  Ca33  1  0.83444323  0.92251332  0.17086496  1
  Ca2+  Ca34  1  0.82960943  0.93084789  0.50310747  1
  Ca2+  Ca35  1  0.83319436  0.92214662  0.83838260  1
  Ca2+  Ca36  1  0.42098171  0.17606921  0.15579003  1
  Ca2+  Ca37  1  0.42868631  0.17112099  0.48984705  1
  Ca2+  Ca38  1  0.42437295  0.16503626  0.83296498  1
  Ca2+  Ca39  1  0.41581166  0.66471683  0.16092940  1
  Ca2+  Ca40  1  0.42142761  0.66493963  0.48966231  1
  Ca2+  Ca41  1  0.40686327  0.67197004  0.83598329  1
  Ca2+  Ca42  1  0.92253675  0.17109579  0.15713928  1
  Ca2+  Ca43  1  0.91450531  0.16469628  0.49536692  1
  Ca2+  Ca44  1  0.91977238  0.17081605  0.83442107  1
  Ca2+  Ca45  1  0.91593398  0.66960084  0.15871874  1
  Ca2+  Ca46  1  0.91506503  0.66533509  0.49402634  1
  Ca2+  Ca47  1  0.90954693  0.67051534  0.83204420  1
  Al0+  Al48  1  -0.00165614  -0.00156176  -0.00537752  1
  Al0+  Al49  1  -0.00181533  0.00052856  0.34143689  1
  Al0+  Al50  1  -0.00205484  0.00054191  0.67281729  1
  Al0+  Al51  1  0.00069516  0.50170681  -0.00043294  1
  Al0+  Al52  1  0.00027303  0.50158300  0.33874264  1
  Al0+  Al53  1  0.00153975  0.50181976  0.67367907  1
  Al0+  Al54  1  0.49944596  -0.00217936  -0.00375643  1
  Al0+  Al55  1  0.50040631  -0.00249976  0.33013164  1
  Al0+  Al56  1  0.50045788  -0.00075393  0.65747138  1
  Al0+  Al57  1  0.50259317  0.49761453  0.00262353  1
  Al0+  Al58  1  0.50216741  0.50002254  0.33058027  1
  Al0+  Al59  1  0.50001209  0.50113257  0.66497862  1
  Al0+  Al60  1  0.25062902  0.24740636  -0.00492501  1
  Al0+  Al61  1  0.24945795  0.24711289  0.33387178  1
  Al0+  Al62  1  0.24902688  0.24915674  0.66822183  1
  Al0+  Al63  1  0.24852590  0.74802629  0.00310986  1
  Al0+  Al64  1  0.24858610  0.74794716  0.34090578  1
  Al0+  Al65  1  0.24711337  0.74911483  0.66766325  1
  Al0+  Al66  1  0.75135780  0.25158874  -0.00254740  1
  Al0+  Al67  1  0.75208003  0.25218252  0.33450695  1
  Al0+  Al68  1  0.75122425  0.25268257  0.66640637  1
  Al0+  Al69  1  0.75103500  0.75143017  -0.00176205  1
  Al0+  Al70  1  0.74981885  0.75227452  0.33289669  1
  Al0+  Al71  1  0.75002810  0.75353262  0.66893717  1
  Al0+  Al72  1  0.81842070  0.07305103  0.68297755  1
  Al0+  Al73  1  0.81854721  0.07201086  0.34506222  1
  Al0+  Al74  1  0.07139655  0.17768588  0.98487539  1
  Al0+  Al75  1  0.42779892  0.81791904  0.98761008  1
  Al0+  Al76  1  0.32341138  0.07162974  0.01462058  1
  Al0+  Al77  1  0.93013089  0.32316434  0.98475939  1
  Al0+  Al78  1  0.82003819  0.57315653  0.68147549  1
  Al0+  Al79  1  0.57151723  0.18049088  0.65047083  1
  Al0+  Al80  1  0.82236892  0.57318086  0.01656966  1
  Al0+  Al81  1  0.17889189  0.42617091  0.34559387  1
  Al0+  Al82  1  0.68031856  0.42683329  0.01695460  1
  Al0+  Al83  1  0.42739454  0.31918747  0.31782068  1
  Al0+  Al84  1  0.17726479  0.92938574  0.01544802  1
  Al0+  Al85  1  0.57245922  0.67999293  0.31927180  1
  Al0+  Al86  1  0.17888342  0.93008589  0.34703131  1
  Al0+  Al87  1  0.17943856  0.92857252  0.68246663  1
  Al0+  Al88  1  0.82011492  0.57301271  0.34711358  1
  Al0+  Al89  1  0.32110628  0.56901282  0.01245075  1
  Al0+  Al90  1  0.32416915  0.56963173  0.34856774  1
  Al0+  Al91  1  0.18051426  0.42759330  0.68204933  1
  Al0+  Al92  1  0.57129917  0.17752898  0.98477886  1
  Al0+  Al93  1  0.57405248  0.17808943  0.31721176  1
  Al0+  Al94  1  0.42834859  0.32292544  0.98363455  1
  Al0+  Al95  1  0.92796014  0.82028533  0.98600911  1
  Si0+  Si96  1  0.57173244  0.68047179  0.65312372  1
  Si0+  Si97  1  0.67729911  0.42971442  0.68261263  1
  Si0+  Si98  1  0.81937671  0.06990233  0.01373952  1
  Si0+  Si99  1  0.93149529  0.32371764  0.32094159  1
  Si0+  Si100  1  0.07047192  0.67826581  0.31955043  1
  Si0+  Si101  1  0.06998513  0.67897085  0.64978539  1
  Si0+  Si102  1  0.07238733  0.67860362  0.98292730  1
  Si0+  Si103  1  0.93160209  0.32306549  0.65067719  1
  Si0+  Si104  1  0.67750021  0.92806885  0.01420153  1
  Si0+  Si105  1  0.06978215  0.17795536  0.65018821  1
  Si0+  Si106  1  0.67645677  0.92863280  0.68354875  1
  Si0+  Si107  1  0.32363839  0.07002769  0.68082745  1
  Si0+  Si108  1  0.32331225  0.57128638  0.68279222  1
  Si0+  Si109  1  0.42619917  0.32350133  0.64895105  1
  Si0+  Si110  1  0.17828157  0.42586447  0.01507478  1
  Si0+  Si111  1  0.67689419  0.92760169  0.34878455  1
  Si0+  Si112  1  0.92841765  0.82225342  0.64926842  1
  Si0+  Si113  1  0.42640553  0.81940295  0.65040790  1
  Si0+  Si114  1  0.57279016  0.67782047  0.98302989  1
  Si0+  Si115  1  0.67969510  0.42876715  0.35141834  1
  Si0+  Si116  1  0.06907025  0.17614339  0.32160787  1
  Si0+  Si117  1  0.42393930  0.81989456  0.31668807  1
  Si0+  Si118  1  0.32400535  0.07104236  0.34999778  1
  Si0+  Si119  1  0.93116128  0.82200662  0.32058371  1
  O2-  O120  1  0.24876558  0.00183525  0.06456252  1
  O2-  O121  1  0.25652373  0.00101541  0.39516238  1
  O2-  O122  1  0.25547523  0.00198722  0.72657061  1
  O2-  O123  1  0.25130505  0.48964864  0.05874140  1
  O2-  O124  1  0.25425497  0.49454487  0.39670232  1
  O2-  O125  1  0.25921931  0.49872546  0.72662044  1
  O2-  O126  1  0.74619659  0.00146495  0.05625606  1
  O2-  O127  1  0.73840122  0.00309708  0.39259397  1
  O2-  O128  1  0.74018877  0.00130908  0.72825963  1
  O2-  O129  1  0.75149738  0.50063595  0.06623994  1
  O2-  O130  1  0.74542174  0.50024013  0.39667837  1
  O2-  O131  1  0.74394420  0.50035596  0.72654363  1
  O2-  O132  1  0.00384362  0.25303657  0.28064538  1
  O2-  O133  1  0.00099784  0.25087088  0.60645795  1
  O2-  O134  1  0.00356119  0.25328029  0.93354237  1
  O2-  O135  1  0.00127506  0.75106293  0.27747077  1
  O2-  O136  1  -0.00128613  0.75044313  0.60683926  1
  O2-  O137  1  0.00092457  0.74450974  0.93826521  1
  O2-  O138  1  0.49814791  0.24565182  0.26850206  1
  O2-  O139  1  0.49512915  0.25446407  0.60539383  1
  O2-  O140  1  0.49825393  0.24833195  0.93434676  1
  O2-  O141  1  0.49356371  0.75125818  0.27423753  1
  O2-  O142  1  0.49811788  0.74840339  0.60936705  1
  O2-  O143  1  0.50047379  0.74231251  0.93755544  1
  O2-  O144  1  0.06669565  0.17654102  0.09927852  1
  O2-  O145  1  0.06584332  0.17369157  0.42712059  1
  O2-  O146  1  0.06858273  0.17782139  0.75450150  1
  O2-  O147  1  0.07261750  0.67989157  0.08878554  1
  O2-  O148  1  0.06813674  0.67865000  0.42512321  1
  O2-  O149  1  0.07119288  0.67975884  0.75438526  1
  O2-  O150  1  0.57234454  0.17810442  0.09797509  1
  O2-  O151  1  0.57411550  0.18265600  0.43134761  1
  O2-  O152  1  0.57051065  0.18044497  0.76283811  1
  O2-  O153  1  0.57486620  0.68277835  0.08832955  1
  O2-  O154  1  0.57418329  0.68474692  0.43347846  1
  O2-  O155  1  0.57215287  0.68203064  0.75761233  1
  O2-  O156  1  0.17338390  0.42993647  0.23279038  1
  O2-  O157  1  0.17904620  0.42973469  0.56907843  1
  O2-  O158  1  0.17745236  0.43028226  0.90909377  1
  O2-  O159  1  0.17472120  0.93210353  0.23498942  1
  O2-  O160  1  0.17999276  0.92878521  0.56879562  1
  O2-  O161  1  0.17923255  0.92953371  0.90175955  1
  O2-  O162  1  0.68369127  0.42716486  0.24663716  1
  O2-  O163  1  0.67859148  0.43126785  0.57674772  1
  O2-  O164  1  0.68167505  0.42940627  0.90254093  1
  O2-  O165  1  0.68147232  0.92281007  0.24362039  1
  O2-  O166  1  0.67989181  0.92366783  0.57797661  1
  O2-  O167  1  0.67936234  0.92626644  0.90889988  1
  O2-  O168  1  0.42962330  0.32291247  0.09689227  1
  O2-  O169  1  0.42866804  0.31679845  0.43235307  1
  O2-  O170  1  0.42659302  0.32538189  0.75386336  1
  O2-  O171  1  0.42981117  0.81680011  0.10047848  1
  O2-  O172  1  0.42490878  0.81926265  0.42318363  1
  O2-  O173  1  0.42593037  0.81940072  0.75522115  1
  O2-  O174  1  0.93114031  0.32067298  0.09917903  1
  O2-  O175  1  0.93142954  0.32402130  0.42652224  1
  O2-  O176  1  0.93279614  0.32248109  0.75518524  1
  O2-  O177  1  0.92859681  0.82221285  0.09961809  1
  O2-  O178  1  0.93215644  0.82210293  0.42606361  1
  O2-  O179  1  0.92738314  0.82136221  0.75396712  1
  O2-  O180  1  0.32249588  0.07088183  0.24517650  1
  O2-  O181  1  0.32124285  0.06760251  0.57480560  1
  O2-  O182  1  0.32452691  0.06650925  0.90048374  1
  O2-  O183  1  0.31990988  0.57267537  0.23545577  1
  O2-  O184  1  0.32316780  0.57321497  0.57753365  1
  O2-  O185  1  0.31612784  0.57084626  0.89879997  1
  O2-  O186  1  0.82347500  0.06838894  0.23225519  1
  O2-  O187  1  0.81946356  0.07071383  0.56950651  1
  O2-  O188  1  0.81887134  0.06814246  0.90856623  1
  O2-  O189  1  0.82136497  0.57311047  0.23513915  1
  O2-  O190  1  0.81897932  0.57306012  0.56791031  1
  O2-  O191  1  0.81839215  0.57385670  0.90263956  1
  O2-  O192  1  0.03332438  0.08729181  0.27378594  1
  O2-  O193  1  0.03821426  0.08618591  0.60366230  1
  O2-  O194  1  0.03706594  0.08229646  0.92933239  1
  O2-  O195  1  0.04031389  0.58768946  0.27201144  1
  O2-  O196  1  0.04076598  0.58698816  0.60307440  1
  O2-  O197  1  0.05007204  0.58456496  0.93637816  1
  O2-  O198  1  0.55502310  0.07505470  0.27040978  1
  O2-  O199  1  0.54547466  0.08226285  0.59499810  1
  O2-  O200  1  0.54620405  0.07833549  0.93091682  1
  O2-  O201  1  0.54862128  0.58215984  0.26641699  1
  O2-  O202  1  0.54792656  0.58772678  0.60476172  1
  O2-  O203  1  0.55236005  0.58269046  0.93956725  1
  O2-  O204  1  0.16305705  0.19534208  0.27627719  1
  O2-  O205  1  0.16325291  0.20262661  0.60346482  1
  O2-  O206  1  0.17029348  0.19910048  0.93056258  1
  O2-  O207  1  0.16354090  0.70450658  0.27479668  1
  O2-  O208  1  0.16170970  0.70734381  0.60127495  1
  O2-  O209  1  0.16386846  0.70704786  0.93437218  1
  O2-  O210  1  0.67291082  0.20946584  0.26685576  1
  O2-  O211  1  0.66877150  0.21422885  0.59803257  1
  O2-  O212  1  0.66917057  0.20871971  0.93196701  1
  O2-  O213  1  0.66715739  0.71604772  0.26434995  1
  O2-  O214  1  0.66242770  0.71286865  0.60464232  1
  O2-  O215  1  0.66388959  0.70947890  0.93497797  1
  O2-  O216  1  0.08629473  0.45600333  0.06157235  1
  O2-  O217  1  0.08380354  0.46111305  0.40339063  1
  O2-  O218  1  0.08672974  0.46343311  0.73752687  1
  O2-  O219  1  0.07740042  0.95797302  0.06546622  1
  O2-  O220  1  0.08461889  0.96372079  0.40520830  1
  O2-  O221  1  0.08265917  0.95889822  0.73441325  1
  O2-  O222  1  0.58250886  0.45384611  0.07006018  1
  O2-  O223  1  0.58540641  0.45164743  0.39640911  1
  O2-  O224  1  0.58254579  0.45326132  0.72716735  1
  O2-  O225  1  0.58513296  0.95090162  0.06121131  1
  O2-  O226  1  0.58031486  0.94275035  0.39334643  1
  O2-  O227  1  0.57964720  0.94909339  0.72453519  1
  O2-  O228  1  0.19604211  0.32957344  0.05665375  1
  O2-  O229  1  0.20148025  0.32619797  0.39979652  1
  O2-  O230  1  0.20485691  0.32895762  0.73480410  1
  O2-  O231  1  0.20562206  0.83107604  0.06753708  1
  O2-  O232  1  0.20646743  0.83330038  0.40340760  1
  O2-  O233  1  0.20773194  0.83060921  0.73426141  1
  O2-  O234  1  0.71258242  0.32969339  0.07015433  1
  O2-  O235  1  0.70999730  0.33742215  0.40012249  1
  O2-  O236  1  0.70646671  0.33786372  0.72861859  1
  O2-  O237  1  0.70886246  0.83810373  0.06282321  1
  O2-  O238  1  0.71097979  0.83864289  0.39992723  1
  O2-  O239  1  0.70615595  0.83785376  0.73289063  1
  O2-  O240  1  0.45568513  0.41838699  0.26807853  1
  O2-  O241  1  0.45151916  0.41790639  0.60263487  1
  O2-  O242  1  0.45952154  0.42088331  0.92976480  1
  O2-  O243  1  0.44812959  0.91384839  0.27151366  1
  O2-  O244  1  0.45322369  0.90991111  0.59966247  1
  O2-  O245  1  0.46099232  0.91178591  0.92980571  1
  O2-  O246  1  0.95872365  0.41541874  0.27350037  1
  O2-  O247  1  0.96159621  0.41552593  0.60472853  1
  O2-  O248  1  0.95591626  0.42260791  0.93223411  1
  O2-  O249  1  0.96032018  0.91394955  0.27427797  1
  O2-  O250  1  0.95787791  0.91456339  0.60326672  1
  O2-  O251  1  0.95849770  0.91470769  0.92804274  1
  O2-  O252  1  0.32718673  0.29343942  0.26690701  1
  O2-  O253  1  0.33190704  0.29719947  0.60386617  1
  O2-  O254  1  0.32933755  0.29781529  0.93063572  1
  O2-  O255  1  0.32992186  0.79342131  0.27290390  1
  O2-  O256  1  0.33460812  0.78989766  0.60295414  1
  O2-  O257  1  0.33142525  0.78610749  0.93289724  1
  O2-  O258  1  0.84057211  0.29488032  0.27367174  1
  O2-  O259  1  0.83914053  0.29721032  0.60332044  1
  O2-  O260  1  0.83394668  0.29175784  0.93015338  1
  O2-  O261  1  0.83899467  0.79653217  0.27370156  1
  O2-  O262  1  0.83560608  0.79585510  0.60204316  1
  O2-  O263  1  0.83162831  0.79203370  0.92886728  1
  O2-  O264  1  0.42065742  0.03872680  0.06711897  1
  O2-  O265  1  0.41871813  0.04619473  0.39546580  1
  O2-  O266  1  0.41831995  0.04385188  0.72339348  1
  O2-  O267  1  0.41995023  0.54609890  0.06401190  1
  O2-  O268  1  0.42415912  0.54554513  0.40083404  1
  O2-  O269  1  0.41901182  0.55248227  0.72760197  1
  O2-  O270  1  0.90996264  0.03807217  0.06036483  1
  O2-  O271  1  0.91071100  0.03542146  0.40502894  1
  O2-  O272  1  0.91302355  0.03860416  0.73725518  1
  O2-  O273  1  0.92258424  0.54805513  0.06683319  1
  O2-  O274  1  0.91541086  0.54117640  0.40362795  1
  O2-  O275  1  0.91623282  0.54342930  0.73466195  1
  O2-  O276  1  0.29601991  0.17079167  0.06593332  1
  O2-  O277  1  0.29634615  0.16284711  0.39855390  1
  O2-  O278  1  0.29960315  0.16419105  0.72517859  1
  O2-  O279  1  0.28590021  0.66279487  0.06857938  1
  O2-  O280  1  0.29227575  0.66586625  0.40518690  1
  O2-  O281  1  0.29165561  0.66326902  0.72880757  1
  O2-  O282  1  0.79547257  0.16256862  0.06011449  1
  O2-  O283  1  0.79392394  0.16966754  0.40127260  1
  O2-  O284  1  0.79189713  0.17143453  0.73472087  1
  O2-  O285  1  0.79311493  0.67259837  0.06710633  1
  O2-  O286  1  0.79006998  0.67047839  0.40119475  1
  O2-  O287  1  0.79077456  0.67105830  0.73318909  1
