# generated using pymatgen
data_Ca2Al2SiO7
_symmetry_space_group_name_H-M   'P 1'
_cell_length_a   15.46480131
_cell_length_b   15.46594817
_cell_length_c   15.28817200
_cell_angle_alpha   89.98472292
_cell_angle_beta   90.00921379
_cell_angle_gamma   90.01916612
_symmetry_Int_Tables_number   1
_chemical_formula_structural   Ca2Al2SiO7
_chemical_formula_sum   'Ca48 Al48 Si24 O168'
_cell_volume   3656.59119938
_cell_formula_units_Z   24
loop_
 _symmetry_equiv_pos_site_id
 _symmetry_equiv_pos_as_xyz
  1  'x, y, z'
loop_
 _atom_type_symbol
 _atom_type_oxidation_number
  Ca2+  2.0
  Al0+  0.0
  Si0+  0.0
  O2-  -2.0
loop_
 _atom_site_type_symbol
 _atom_site_label
 _atom_site_symmetry_multiplicity
 _atom_site_fract_x
 _atom_site_fract_y
 _atom_site_fract_z
 _atom_site_occupancy
  Ca2+  Ca0  1  0.17121504  0.08436540  0.16724734  1
  Ca2+  Ca1  1  0.16795267  0.08276952  0.51381842  1
  Ca2+  Ca2  1  0.17328412  0.08180665  0.83982638  1
  Ca2+  Ca3  1  0.15495459  0.57711950  0.16622616  1
  Ca2+  Ca4  1  0.17082101  0.57781459  0.50865655  1
  Ca2+  Ca5  1  0.17013274  0.57326216  0.83987491  1
  Ca2+  Ca6  1  0.66940782  0.08954084  0.16978524  1
  Ca2+  Ca7  1  0.66029299  0.08078248  0.49767209  1
  Ca2+  Ca8  1  0.67165598  0.08708301  0.84411148  1
  Ca2+  Ca9  1  0.67469617  0.58125389  0.16765934  1
  Ca2+  Ca10  1  0.67950545  0.57883813  0.51006542  1
  Ca2+  Ca11  1  0.67407523  0.57297813  0.84039849  1
  Ca2+  Ca12  1  0.07699043  0.33058510  0.15889449  1
  Ca2+  Ca13  1  0.09292398  0.32264459  0.50031394  1
  Ca2+  Ca14  1  0.08088266  0.33602442  0.82944178  1
  Ca2+  Ca15  1  0.08651059  0.82033696  0.15804670  1
  Ca2+  Ca16  1  0.08422109  0.82720597  0.49510803  1
  Ca2+  Ca17  1  0.09098875  0.83156274  0.83203751  1
  Ca2+  Ca18  1  0.57903772  0.32753615  0.15252179  1
  Ca2+  Ca19  1  0.57881343  0.33333785  0.50038494  1
  Ca2+  Ca20  1  0.57555487  0.33740285  0.83060768  1
  Ca2+  Ca21  1  0.58747367  0.82927845  0.16060283  1
  Ca2+  Ca22  1  0.58134946  0.83484550  0.49326760  1
  Ca2+  Ca23  1  0.58534768  0.82464261  0.83275341  1
  Ca2+  Ca24  1  0.32981136  0.41014120  0.16065957  1
  Ca2+  Ca25  1  0.32923593  0.42146463  0.51292002  1
  Ca2+  Ca26  1  0.32475908  0.40814556  0.83582351  1
  Ca2+  Ca27  1  0.33130636  0.92067310  0.16243534  1
  Ca2+  Ca28  1  0.32423504  0.92698105  0.51135799  1
  Ca2+  Ca29  1  0.32288531  0.92845245  0.83795427  1
  Ca2+  Ca30  1  0.83392200  0.42223358  0.16374394  1
  Ca2+  Ca31  1  0.82911298  0.42649716  0.50708564  1
  Ca2+  Ca32  1  0.82398614  0.41820562  0.84385806  1
  Ca2+  Ca33  1  0.82780739  0.92343801  0.16655398  1
  Ca2+  Ca34  1  0.82657207  0.91575485  0.50014636  1
  Ca2+  Ca35  1  0.83460874  0.92653818  0.83939795  1
  Ca2+  Ca36  1  0.42818224  0.16820515  0.15649172  1
  Ca2+  Ca37  1  0.41404318  0.17505106  0.49794686  1
  Ca2+  Ca38  1  0.41116654  0.17437880  0.83224831  1
  Ca2+  Ca39  1  0.42580778  0.67028655  0.15473910  1
  Ca2+  Ca40  1  0.41386094  0.66716863  0.49889179  1
  Ca2+  Ca41  1  0.42244895  0.65821693  0.83002449  1
  Ca2+  Ca42  1  0.91965080  0.17012020  0.15710885  1
  Ca2+  Ca43  1  0.93147915  0.16853546  0.49611440  1
  Ca2+  Ca44  1  0.91757215  0.17453004  0.83116728  1
  Ca2+  Ca45  1  0.92125647  0.66044695  0.15965124  1
  Ca2+  Ca46  1  0.91946658  0.66194477  0.49434484  1
  Ca2+  Ca47  1  0.91869821  0.65964258  0.83446826  1
  Al0+  Al48  1  -0.00083931  -0.00327564  0.00981770  1
  Al0+  Al49  1  -0.00024840  -0.00130132  0.32900277  1
  Al0+  Al50  1  -0.00275435  -0.00267825  0.66338813  1
  Al0+  Al51  1  0.00060887  0.49922201  -0.00185629  1
  Al0+  Al52  1  0.00066195  0.49899815  0.33662350  1
  Al0+  Al53  1  0.00006497  0.50158698  0.66940155  1
  Al0+  Al54  1  0.49909563  -0.00169134  -0.00143566  1
  Al0+  Al55  1  0.49843970  0.00149784  0.33399929  1
  Al0+  Al56  1  0.49950271  -0.00204018  0.67000652  1
  Al0+  Al57  1  0.49950086  0.49933204  -0.00386626  1
  Al0+  Al58  1  0.49866712  0.50155337  0.33286681  1
  Al0+  Al59  1  0.50301998  0.49955913  0.66437263  1
  Al0+  Al60  1  0.25135950  0.24877905  0.00801977  1
  Al0+  Al61  1  0.24982892  0.25053857  0.32879127  1
  Al0+  Al62  1  0.25182392  0.25070374  0.66453429  1
  Al0+  Al63  1  0.25039047  0.74983601  -0.00160279  1
  Al0+  Al64  1  0.24981563  0.75072081  0.32873684  1
  Al0+  Al65  1  0.25154540  0.75085082  0.67135138  1
  Al0+  Al66  1  0.75146853  0.25027510  0.00186237  1
  Al0+  Al67  1  0.75028674  0.25087988  0.33461567  1
  Al0+  Al68  1  0.74976120  0.24918722  0.66472032  1
  Al0+  Al69  1  0.75201576  0.75052387  -0.00291776  1
  Al0+  Al70  1  0.74995502  0.75152644  0.34134366  1
  Al0+  Al71  1  0.75112723  0.75068047  0.66822518  1
  Al0+  Al72  1  0.06986746  0.67961546  0.32064187  1
  Al0+  Al73  1  0.57272925  0.67957934  0.98609381  1
  Al0+  Al74  1  0.32272597  0.57253086  0.68060415  1
  Al0+  Al75  1  0.42771953  0.31990755  0.98363923  1
  Al0+  Al76  1  0.06939499  0.17960088  0.65699299  1
  Al0+  Al77  1  0.67885255  0.93185783  0.34618561  1
  Al0+  Al78  1  0.43066739  0.32053822  0.65164177  1
  Al0+  Al79  1  0.67678751  0.42891836  0.01623657  1
  Al0+  Al80  1  0.82016330  0.07235292  0.01286441  1
  Al0+  Al81  1  0.56922117  0.18015794  0.32091854  1
  Al0+  Al82  1  0.07084269  0.67867744  0.98396924  1
  Al0+  Al83  1  0.17531734  0.92901943  0.67997866  1
  Al0+  Al84  1  0.93075333  0.32007798  0.98695958  1
  Al0+  Al85  1  0.32167682  0.07117707  0.01800624  1
  Al0+  Al86  1  0.17894232  0.42945736  0.01509168  1
  Al0+  Al87  1  0.82069634  0.56944598  0.34782658  1
  Al0+  Al88  1  0.82105308  0.57125587  0.01561481  1
  Al0+  Al89  1  0.68050075  0.42652427  0.68159438  1
  Al0+  Al90  1  0.82180759  0.57290454  0.68369831  1
  Al0+  Al91  1  0.18001676  0.42839630  0.68073641  1
  Al0+  Al92  1  0.07192636  0.17750468  0.31832666  1
  Al0+  Al93  1  0.57244119  0.17755833  0.98472550  1
  Al0+  Al94  1  0.17826462  0.92705836  0.01797465  1
  Al0+  Al95  1  0.32123493  0.07247665  0.68091261  1
  Si0+  Si96  1  0.57399387  0.17460070  0.64914115  1
  Si0+  Si97  1  0.92727507  0.82099596  0.64927418  1
  Si0+  Si98  1  0.67468597  0.42762076  0.35055276  1
  Si0+  Si99  1  0.42905275  0.82143674  0.31859890  1
  Si0+  Si100  1  0.07155015  0.17559258  0.98615236  1
  Si0+  Si101  1  0.67787885  0.92885154  0.68181217  1
  Si0+  Si102  1  0.82010153  0.06944841  0.67824286  1
  Si0+  Si103  1  0.92496049  0.82148972  0.31554267  1
  Si0+  Si104  1  0.17890777  0.92732529  0.34797705  1
  Si0+  Si105  1  0.07218337  0.67992443  0.65215517  1
  Si0+  Si106  1  0.92911931  0.32144938  0.31846582  1
  Si0+  Si107  1  0.32216318  0.57211086  0.01703677  1
  Si0+  Si108  1  0.57163387  0.68048844  0.32069358  1
  Si0+  Si109  1  0.82413951  0.07401616  0.35190000  1
  Si0+  Si110  1  0.57231859  0.68082460  0.64933777  1
  Si0+  Si111  1  0.42794617  0.32486199  0.31564410  1
  Si0+  Si112  1  0.67808283  0.92765179  0.01390861  1
  Si0+  Si113  1  0.18080633  0.42949203  0.34843318  1
  Si0+  Si114  1  0.42741552  0.82162957  0.98027083  1
  Si0+  Si115  1  0.31869775  0.07060422  0.34887043  1
  Si0+  Si116  1  0.42967187  0.82114784  0.65062537  1
  Si0+  Si117  1  0.92887227  0.82273412  0.98246927  1
  Si0+  Si118  1  0.92652296  0.32336515  0.64911495  1
  Si0+  Si119  1  0.32222078  0.57362095  0.34636621  1
  O2-  O120  1  0.24824662  0.00046514  0.06884152  1
  O2-  O121  1  0.24317946  0.00393366  0.39124590  1
  O2-  O122  1  0.24376086  0.00478934  0.72808802  1
  O2-  O123  1  0.25277214  0.50525769  0.06313122  1
  O2-  O124  1  0.25299542  0.50085035  0.38825325  1
  O2-  O125  1  0.25206353  0.50023554  0.73076934  1
  O2-  O126  1  0.74082397  0.00132032  0.05811376  1
  O2-  O127  1  0.75309460  0.00646686  0.39523810  1
  O2-  O128  1  0.74447005  0.00404441  0.72169561  1
  O2-  O129  1  0.74767658  0.50172851  0.06684916  1
  O2-  O130  1  0.74388388  0.49645592  0.39387630  1
  O2-  O131  1  0.75474786  0.49593953  0.73112978  1
  O2-  O132  1  -0.00684402  0.24849741  0.27400714  1
  O2-  O133  1  -0.00175071  0.25672307  0.60618150  1
  O2-  O134  1  0.00484360  0.24455223  0.94028031  1
  O2-  O135  1  -0.00569228  0.75306979  0.27290219  1
  O2-  O136  1  -0.00087143  0.74936670  0.60926052  1
  O2-  O137  1  -0.00226746  0.75504612  0.93740098  1
  O2-  O138  1  0.50025900  0.25932545  0.27384322  1
  O2-  O139  1  0.50476652  0.24362825  0.60608204  1
  O2-  O140  1  0.50072205  0.24865698  0.93384401  1
  O2-  O141  1  0.50021019  0.75023462  0.27700031  1
  O2-  O142  1  0.49914096  0.74952207  0.60574183  1
  O2-  O143  1  0.49639407  0.75230484  0.93756306  1
  O2-  O144  1  0.06839303  0.17828756  0.09225536  1
  O2-  O145  1  0.07410434  0.17890928  0.43190145  1
  O2-  O146  1  0.06450252  0.17705643  0.76943397  1
  O2-  O147  1  0.06816908  0.67924825  0.09765362  1
  O2-  O148  1  0.07173970  0.68189062  0.43413151  1
  O2-  O149  1  0.07266022  0.68164655  0.75658155  1
  O2-  O150  1  0.57078150  0.17874415  0.09888860  1
  O2-  O151  1  0.56398314  0.17859305  0.43421608  1
  O2-  O152  1  0.57706070  0.17247948  0.75380311  1
  O2-  O153  1  0.57162832  0.68366929  0.10031053  1
  O2-  O154  1  0.56921787  0.68173135  0.42578672  1
  O2-  O155  1  0.57342554  0.68468287  0.75404353  1
  O2-  O156  1  0.17968610  0.42980892  0.24362580  1
  O2-  O157  1  0.18161744  0.43046430  0.56595456  1
  O2-  O158  1  0.17892266  0.42979262  0.90255562  1
  O2-  O159  1  0.18369698  0.92389175  0.24378090  1
  O2-  O160  1  0.17782823  0.92841978  0.56522925  1
  O2-  O161  1  0.17929052  0.92917147  0.90454540  1
  O2-  O162  1  0.67192087  0.42920927  0.24565285  1
  O2-  O163  1  0.68143842  0.42970901  0.56692432  1
  O2-  O164  1  0.67793000  0.42976548  0.90300135  1
  O2-  O165  1  0.68004838  0.92992827  0.23368869  1
  O2-  O166  1  0.67805412  0.92742480  0.57643067  1
  O2-  O167  1  0.68169625  0.92590135  0.90800214  1
  O2-  O168  1  0.42921022  0.31896499  0.09799905  1
  O2-  O169  1  0.42563715  0.32507222  0.42130723  1
  O2-  O170  1  0.42947520  0.32023074  0.76354900  1
  O2-  O171  1  0.42867980  0.82044504  0.08681297  1
  O2-  O172  1  0.42820192  0.82022126  0.42384379  1
  O2-  O173  1  0.43318382  0.82242351  0.75493346  1
  O2-  O174  1  0.93265842  0.31925572  0.10063184  1
  O2-  O175  1  0.93155326  0.32120181  0.42432830  1
  O2-  O176  1  0.92371842  0.32023714  0.75422450  1
  O2-  O177  1  0.92659337  0.82218847  0.08801612  1
  O2-  O178  1  0.92571332  0.82225589  0.42160595  1
  O2-  O179  1  0.92351698  0.82462329  0.75358869  1
  O2-  O180  1  0.32019830  0.06775847  0.24444323  1
  O2-  O181  1  0.32139559  0.06941799  0.56611439  1
  O2-  O182  1  0.31979277  0.07042808  0.90466391  1
  O2-  O183  1  0.32566614  0.57593121  0.24200110  1
  O2-  O184  1  0.31851924  0.57420932  0.56572978  1
  O2-  O185  1  0.32071977  0.57253128  0.91185281  1
  O2-  O186  1  0.82414282  0.07328473  0.24674733  1
  O2-  O187  1  0.82094206  0.06635688  0.57304420  1
  O2-  O188  1  0.82225796  0.06895536  0.89913065  1
  O2-  O189  1  0.81986220  0.56989803  0.23548710  1
  O2-  O190  1  0.81969716  0.57394667  0.56920988  1
  O2-  O191  1  0.81926821  0.56984801  0.90260622  1
  O2-  O192  1  0.04610094  0.07917803  0.26553010  1
  O2-  O193  1  0.03524242  0.08395203  0.59987590  1
  O2-  O194  1  0.04516411  0.08053699  0.94498840  1
  O2-  O195  1  0.04008535  0.58160076  0.26940232  1
  O2-  O196  1  0.04631613  0.58748805  0.60381939  1
  O2-  O197  1  0.03938163  0.58321958  0.92983226  1
  O2-  O198  1  0.53566075  0.08433371  0.26699233  1
  O2-  O199  1  0.54811085  0.07949576  0.60458666  1
  O2-  O200  1  0.54843362  0.07663054  0.93437622  1
  O2-  O201  1  0.54484686  0.58848987  0.27335177  1
  O2-  O202  1  0.54820128  0.58891886  0.60079280  1
  O2-  O203  1  0.54160020  0.58418193  0.93156642  1
  O2-  O204  1  0.16696751  0.21121687  0.26347391  1
  O2-  O205  1  0.16586831  0.20823481  0.60033967  1
  O2-  O206  1  0.16680461  0.19969345  0.94542596  1
  O2-  O207  1  0.16600808  0.71051363  0.26526510  1
  O2-  O208  1  0.16408812  0.70966554  0.60458741  1
  O2-  O209  1  0.16856049  0.70809435  0.93185059  1
  O2-  O210  1  0.67032722  0.20226839  0.27212042  1
  O2-  O211  1  0.66719267  0.19985905  0.60018390  1
  O2-  O212  1  0.67227601  0.20326853  0.93490551  1
  O2-  O213  1  0.66323397  0.71094669  0.27533990  1
  O2-  O214  1  0.66300466  0.71397888  0.60158736  1
  O2-  O215  1  0.66732224  0.71381005  0.93022449  1
  O2-  O216  1  0.08352900  0.46222512  0.07000301  1
  O2-  O217  1  0.09021864  0.45699921  0.39767012  1
  O2-  O218  1  0.08092621  0.45478255  0.73130250  1
  O2-  O219  1  0.07979839  0.94935712  0.07310854  1
  O2-  O220  1  0.08325961  0.94758086  0.39115310  1
  O2-  O221  1  0.07442082  0.94990451  0.72966384  1
  O2-  O222  1  0.57762713  0.45741451  0.06781352  1
  O2-  O223  1  0.58068583  0.45428061  0.39675138  1
  O2-  O224  1  0.58301984  0.45800886  0.73177353  1
  O2-  O225  1  0.58221900  0.94389354  0.05782280  1
  O2-  O226  1  0.58185571  0.96213994  0.40193565  1
  O2-  O227  1  0.58537164  0.94943389  0.72972305  1
  O2-  O228  1  0.20933849  0.33422050  0.07204730  1
  O2-  O229  1  0.20996317  0.33712162  0.39478216  1
  O2-  O230  1  0.20730646  0.33032360  0.73221015  1
  O2-  O231  1  0.21154581  0.82893436  0.07008750  1
  O2-  O232  1  0.21246260  0.83724432  0.39654038  1
  O2-  O233  1  0.20880844  0.83362557  0.73374296  1
  O2-  O234  1  0.70826129  0.33175897  0.06913639  1
  O2-  O235  1  0.70018341  0.33393347  0.39692954  1
  O2-  O236  1  0.70420332  0.32611021  0.73169372  1
  O2-  O237  1  0.71031881  0.83703799  0.06217763  1
  O2-  O238  1  0.70892249  0.83685259  0.40518839  1
  O2-  O239  1  0.71081049  0.83941614  0.72959537  1
  O2-  O240  1  0.44873877  0.42027444  0.27056492  1
  O2-  O241  1  0.46256994  0.41705468  0.59496185  1
  O2-  O242  1  0.45143217  0.41947333  0.93202007  1
  O2-  O243  1  0.45819209  0.91232294  0.27118610  1
  O2-  O244  1  0.45959508  0.91212417  0.60103279  1
  O2-  O245  1  0.45370873  0.91415748  0.93361999  1
  O2-  O246  1  0.96077077  0.41280412  0.27206057  1
  O2-  O247  1  0.95024544  0.41855262  0.60496577  1
  O2-  O248  1  0.96199728  0.41483603  0.93128494  1
  O2-  O249  1  0.94815617  0.91551154  0.26965447  1
  O2-  O250  1  0.95373469  0.91108405  0.59688575  1
  O2-  O251  1  0.95527323  0.91697703  0.93743208  1
  O2-  O252  1  0.33563800  0.29627450  0.26922112  1
  O2-  O253  1  0.33476737  0.29055019  0.59409226  1
  O2-  O254  1  0.32828404  0.28836942  0.93431270  1
  O2-  O255  1  0.33883218  0.79296539  0.26885285  1
  O2-  O256  1  0.33730853  0.79403864  0.60263710  1
  O2-  O257  1  0.33431713  0.79643144  0.93468059  1
  O2-  O258  1  0.83319092  0.30232059  0.27484072  1
  O2-  O259  1  0.83484239  0.29406871  0.59991258  1
  O2-  O260  1  0.83514515  0.28823813  0.93281702  1
  O2-  O261  1  0.83059744  0.79583013  0.27174369  1
  O2-  O262  1  0.83571220  0.79188146  0.60010987  1
  O2-  O263  1  0.83602799  0.79859398  0.93386798  1
  O2-  O264  1  0.41982127  0.03732075  0.07002673  1
  O2-  O265  1  0.40826949  0.03834913  0.39750864  1
  O2-  O266  1  0.41777646  0.03906652  0.73375440  1
  O2-  O267  1  0.41556042  0.54600244  0.06330348  1
  O2-  O268  1  0.41441598  0.54868208  0.39588495  1
  O2-  O269  1  0.42363030  0.54879297  0.72751938  1
  O2-  O270  1  0.91277933  0.03711503  0.07188112  1
  O2-  O271  1  0.91744813  0.04393406  0.39737310  1
  O2-  O272  1  0.90846553  0.03540512  0.72695233  1
  O2-  O273  1  0.91874862  0.53952993  0.06732240  1
  O2-  O274  1  0.91675974  0.53690296  0.40335447  1
  O2-  O275  1  0.92271667  0.55270586  0.73186100  1
  O2-  O276  1  0.29515248  0.16770994  0.07505991  1
  O2-  O277  1  0.29403497  0.16504917  0.39308520  1
  O2-  O278  1  0.29648571  0.17109929  0.73146058  1
  O2-  O279  1  0.29976399  0.66685987  0.06212567  1
  O2-  O280  1  0.29276216  0.66531577  0.39410839  1
  O2-  O281  1  0.29787401  0.67056909  0.73430206  1
  O2-  O282  1  0.79358347  0.16756400  0.07043565  1
  O2-  O283  1  0.80117938  0.16808464  0.39847676  1
  O2-  O284  1  0.79806548  0.16284196  0.72394059  1
  O2-  O285  1  0.79457917  0.67168749  0.06612405  1
  O2-  O286  1  0.79170697  0.66631700  0.40300317  1
  O2-  O287  1  0.78959688  0.67044499  0.73522119  1
