# generated using pymatgen
data_Ca2Al2SiO7
_symmetry_space_group_name_H-M   'P 1'
_cell_length_a   15.46006611
_cell_length_b   15.45893658
_cell_length_c   15.28451964
_cell_angle_alpha   89.99726247
_cell_angle_beta   90.02027152
_cell_angle_gamma   89.99885711
_symmetry_Int_Tables_number   1
_chemical_formula_structural   Ca2Al2SiO7
_chemical_formula_sum   'Ca48 Al48 Si24 O168'
_cell_volume   3652.94159739
_cell_formula_units_Z   24
loop_
 _symmetry_equiv_pos_site_id
 _symmetry_equiv_pos_as_xyz
  1  'x, y, z'
loop_
 _atom_type_symbol
 _atom_type_oxidation_number
  Ca2+  2.0
  Al0+  0.0
  Si0+  0.0
  O2-  -2.0
loop_
 _atom_site_type_symbol
 _atom_site_label
 _atom_site_symmetry_multiplicity
 _atom_site_fract_x
 _atom_site_fract_y
 _atom_site_fract_z
 _atom_site_occupancy
  Ca2+  Ca0  1  0.16561030  0.07614713  0.17273751  1
  Ca2+  Ca1  1  0.17034116  0.07640341  0.50518555  1
  Ca2+  Ca2  1  0.15487766  0.07843333  0.83857883  1
  Ca2+  Ca3  1  0.16599731  0.57334775  0.16732188  1
  Ca2+  Ca4  1  0.16785498  0.58580180  0.50750650  1
  Ca2+  Ca5  1  0.16362002  0.57842038  0.83791038  1
  Ca2+  Ca6  1  0.67549296  0.08658402  0.17526036  1
  Ca2+  Ca7  1  0.66565864  0.08118994  0.50652229  1
  Ca2+  Ca8  1  0.66828649  0.08425750  0.83742905  1
  Ca2+  Ca9  1  0.67348745  0.57574622  0.17996383  1
  Ca2+  Ca10  1  0.66362995  0.57572313  0.50484708  1
  Ca2+  Ca11  1  0.66254441  0.57573941  0.83303199  1
  Ca2+  Ca12  1  0.07572350  0.32431909  0.15244433  1
  Ca2+  Ca13  1  0.07522181  0.32863528  0.49936697  1
  Ca2+  Ca14  1  0.07435467  0.32709195  0.82701478  1
  Ca2+  Ca15  1  0.07838053  0.83992864  0.15898987  1
  Ca2+  Ca16  1  0.08992871  0.83271990  0.49837798  1
  Ca2+  Ca17  1  0.07898603  0.83760250  0.82828997  1
  Ca2+  Ca18  1  0.58311137  0.32206600  0.16148692  1
  Ca2+  Ca19  1  0.59269746  0.32461217  0.49638926  1
  Ca2+  Ca20  1  0.58641013  0.32057603  0.82957872  1
  Ca2+  Ca21  1  0.59551427  0.82793622  0.16861469  1
  Ca2+  Ca22  1  0.59667659  0.82616966  0.49346315  1
  Ca2+  Ca23  1  0.58400457  0.82840252  0.82268484  1
  Ca2+  Ca24  1  0.32780868  0.40410186  0.16347461  1
  Ca2+  Ca25  1  0.33375463  0.41906545  0.50381538  1
  Ca2+  Ca26  1  0.32922328  0.41570449  0.84198289  1
  Ca2+  Ca27  1  0.32163021  0.92440047  0.17362114  1
  Ca2+  Ca28  1  0.32751374  0.92144913  0.50166456  1
  Ca2+  Ca29  1  0.32038851  0.91893273  0.83727027  1
  Ca2+  Ca30  1  0.82915350  0.41918245  0.17487872  1
  Ca2+  Ca31  1  0.82330510  0.41756641  0.50304828  1
  Ca2+  Ca32  1  0.83423181  0.40914859  0.83362740  1
  Ca2+  Ca33  1  0.83440029  0.93016037  0.17113118  1
  Ca2+  Ca34  1  0.82263768  0.92319085  0.49921153  1
  Ca2+  Ca35  1  0.83076123  0.92246900  0.83982338  1
  Ca2+  Ca36  1  0.42818954  0.16203316  0.16343358  1
  Ca2+  Ca37  1  0.42676888  0.16158130  0.49422101  1
  Ca2+  Ca38  1  0.42452076  0.16994411  0.83204607  1
  Ca2+  Ca39  1  0.42368677  0.66828915  0.16709319  1
  Ca2+  Ca40  1  0.42985775  0.67019206  0.49598433  1
  Ca2+  Ca41  1  0.42132023  0.66991154  0.82657821  1
  Ca2+  Ca42  1  0.91516224  0.16775354  0.15612611  1
  Ca2+  Ca43  1  0.91561242  0.16658948  0.50010153  1
  Ca2+  Ca44  1  0.92311854  0.17069134  0.83306923  1
  Ca2+  Ca45  1  0.91250534  0.67511811  0.16300670  1
  Ca2+  Ca46  1  0.91898526  0.66566122  0.49641375  1
  Ca2+  Ca47  1  0.92280138  0.67523958  0.82857837  1
  Al0+  Al48  1  -0.00418368  -0.00095109  -0.00010028  1
  Al0+  Al49  1  -0.00069665  -0.00132178  0.34247204  1
  Al0+  Al50  1  -0.00077352  0.00078995  0.66515084  1
  Al0+  Al51  1  0.00049658  0.50119164  0.00241135  1
  Al0+  Al52  1  0.00020847  0.49990752  0.33532417  1
  Al0+  Al53  1  -0.00043165  0.50195869  0.65905549  1
  Al0+  Al54  1  0.49886153  -0.00522210  -0.00355895  1
  Al0+  Al55  1  0.49770520  -0.00198021  0.33377089  1
  Al0+  Al56  1  0.49783097  0.00079114  0.66899887  1
  Al0+  Al57  1  0.50008354  0.50031873  -0.00104768  1
  Al0+  Al58  1  0.49768689  0.49990689  0.33077898  1
  Al0+  Al59  1  0.50065063  0.50166837  0.66875709  1
  Al0+  Al60  1  0.25230604  0.24834574  -0.00218300  1
  Al0+  Al61  1  0.24897085  0.24868563  0.33800607  1
  Al0+  Al62  1  0.24980413  0.25106824  0.66325305  1
  Al0+  Al63  1  0.25209610  0.74890861  0.00562512  1
  Al0+  Al64  1  0.25043224  0.74675603  0.33352436  1
  Al0+  Al65  1  0.25026140  0.75177076  0.66762614  1
  Al0+  Al66  1  0.74993538  0.24974619  -0.00311468  1
  Al0+  Al67  1  0.75101964  0.25206752  0.33558894  1
  Al0+  Al68  1  0.74931240  0.25177290  0.66432074  1
  Al0+  Al69  1  0.75131884  0.74840241  -0.00609267  1
  Al0+  Al70  1  0.75460911  0.75033247  0.33371547  1
  Al0+  Al71  1  0.75122756  0.74971280  0.66725996  1
  Al0+  Al72  1  0.67851066  0.92849033  0.68116793  1
  Al0+  Al73  1  0.82261136  0.57180402  0.34866696  1
  Al0+  Al74  1  0.17964009  0.93056291  0.68227630  1
  Al0+  Al75  1  0.67889042  0.92960598  0.34512210  1
  Al0+  Al76  1  0.57124983  0.17848709  0.32056379  1
  Al0+  Al77  1  0.56862410  0.17924301  0.65211157  1
  Al0+  Al78  1  0.57190889  0.17610466  0.98527124  1
  Al0+  Al79  1  0.57255187  0.67992743  0.31904806  1
  Al0+  Al80  1  0.92850879  0.32158527  0.64854960  1
  Al0+  Al81  1  0.67936142  0.42967547  0.68319535  1
  Al0+  Al82  1  0.82086522  0.07410007  0.34956423  1
  Al0+  Al83  1  0.57140217  0.68005423  0.65301637  1
  Al0+  Al84  1  0.07105295  0.68189948  0.65396853  1
  Al0+  Al85  1  0.92863659  0.32450528  0.98639410  1
  Al0+  Al86  1  0.17806776  0.93032968  0.01322189  1
  Al0+  Al87  1  0.32129818  0.07208871  0.34851892  1
  Al0+  Al88  1  0.07205178  0.17740360  0.64897488  1
  Al0+  Al89  1  0.42945972  0.32168496  0.98496723  1
  Al0+  Al90  1  0.81679138  0.07048443  0.01163844  1
  Al0+  Al91  1  0.92953609  0.82055764  0.98657637  1
  Al0+  Al92  1  0.67670564  0.43020759  0.34737145  1
  Al0+  Al93  1  0.17820515  0.92716795  0.34918959  1
  Al0+  Al94  1  0.07104990  0.17704702  0.98826223  1
  Al0+  Al95  1  0.17957955  0.42787305  0.01174295  1
  Si0+  Si96  1  0.42476058  0.32238742  0.31698154  1
  Si0+  Si97  1  0.67608917  0.92434569  0.01488776  1
  Si0+  Si98  1  0.42572498  0.82053932  0.31512176  1
  Si0+  Si99  1  0.67886411  0.43004161  0.01437160  1
  Si0+  Si100  1  0.07044063  0.17845771  0.31939539  1
  Si0+  Si101  1  0.82079148  0.57283524  0.01365708  1
  Si0+  Si102  1  0.17880644  0.42866335  0.34931013  1
  Si0+  Si103  1  0.42791855  0.82181230  0.65005889  1
  Si0+  Si104  1  0.82050358  0.07271212  0.68500778  1
  Si0+  Si105  1  0.82404975  0.57181897  0.68547004  1
  Si0+  Si106  1  0.32038947  0.57054486  0.34931608  1
  Si0+  Si107  1  0.92723703  0.82323874  0.64751298  1
  Si0+  Si108  1  0.42765949  0.32387995  0.64986067  1
  Si0+  Si109  1  0.32060696  0.57100589  0.68161690  1
  Si0+  Si110  1  0.57151824  0.67941533  0.98451130  1
  Si0+  Si111  1  0.17811231  0.42997006  0.68020642  1
  Si0+  Si112  1  0.93210662  0.82089597  0.31830335  1
  Si0+  Si113  1  0.07334982  0.67671828  0.31595770  1
  Si0+  Si114  1  0.93080685  0.32147378  0.31746911  1
  Si0+  Si115  1  0.07416182  0.67857397  0.98595414  1
  Si0+  Si116  1  0.32144146  0.07479772  0.68600511  1
  Si0+  Si117  1  0.32446266  0.57187801  0.01898360  1
  Si0+  Si118  1  0.42647826  0.81865988  0.98442639  1
  Si0+  Si119  1  0.32509436  0.07110776  0.01603530  1
  O2-  O120  1  0.25064671  0.00741767  0.05906996  1
  O2-  O121  1  0.24978906  -0.00050247  0.39838116  1
  O2-  O122  1  0.24902819  0.00965307  0.73021839  1
  O2-  O123  1  0.25634651  0.50088149  0.06078338  1
  O2-  O124  1  0.25048981  0.49883258  0.39188210  1
  O2-  O125  1  0.25008550  0.49968919  0.72350182  1
  O2-  O126  1  0.73889508  -0.00164069  0.05794077  1
  O2-  O127  1  0.74176297  0.00831427  0.39748258  1
  O2-  O128  1  0.75188041  0.00344481  0.72911027  1
  O2-  O129  1  0.75260965  0.49897844  0.05551793  1
  O2-  O130  1  0.74627689  0.50462008  0.39784793  1
  O2-  O131  1  0.75537505  0.50355174  0.73065345  1
  O2-  O132  1  -0.00125738  0.24764899  0.27534497  1
  O2-  O133  1  -0.00096887  0.24804467  0.59818924  1
  O2-  O134  1  0.00412035  0.25459456  0.93904550  1
  O2-  O135  1  0.00471742  0.75040163  0.27536048  1
  O2-  O136  1  -0.00166585  0.75626447  0.60398217  1
  O2-  O137  1  0.00850796  0.74937011  0.94131973  1
  O2-  O138  1  0.49520545  0.25395672  0.27542562  1
  O2-  O139  1  0.49448920  0.25452711  0.60503676  1
  O2-  O140  1  0.50038482  0.24913962  0.93533411  1
  O2-  O141  1  0.50049120  0.75726732  0.27094496  1
  O2-  O142  1  0.50262120  0.75982039  0.60564845  1
  O2-  O143  1  0.50096384  0.75088676  0.94268492  1
  O2-  O144  1  0.06805120  0.17738539  0.10263282  1
  O2-  O145  1  0.07118282  0.18245553  0.42413645  1
  O2-  O146  1  0.07165386  0.17959723  0.76250385  1
  O2-  O147  1  0.07254764  0.67713844  0.09178048  1
  O2-  O148  1  0.07456315  0.67550832  0.42099624  1
  O2-  O149  1  0.07014037  0.68082637  0.76716316  1
  O2-  O150  1  0.57223307  0.17738656  0.09906845  1
  O2-  O151  1  0.57023215  0.18039421  0.43357270  1
  O2-  O152  1  0.56750006  0.17917908  0.76507043  1
  O2-  O153  1  0.57255664  0.67961469  0.08964361  1
  O2-  O154  1  0.56926342  0.67946201  0.43184643  1
  O2-  O155  1  0.56626688  0.67919212  0.76671798  1
  O2-  O156  1  0.17860080  0.42934140  0.24411217  1
  O2-  O157  1  0.18087672  0.43246043  0.57469953  1
  O2-  O158  1  0.17932961  0.43354111  0.89867634  1
  O2-  O159  1  0.17739397  0.92866447  0.23521111  1
  O2-  O160  1  0.18561116  0.92703963  0.56974234  1
  O2-  O161  1  0.18062718  0.92800449  0.90025889  1
  O2-  O162  1  0.67962219  0.43025449  0.23295530  1
  O2-  O163  1  0.67723393  0.43247745  0.57053670  1
  O2-  O164  1  0.67707336  0.43273975  0.90933338  1
  O2-  O165  1  0.68537130  0.92784833  0.23126409  1
  O2-  O166  1  0.68070204  0.92812516  0.56843096  1
  O2-  O167  1  0.67818345  0.92125096  0.90921940  1
  O2-  O168  1  0.43291481  0.32313557  0.09863557  1
  O2-  O169  1  0.42208667  0.32453071  0.42247571  1
  O2-  O170  1  0.42709168  0.32414235  0.75530898  1
  O2-  O171  1  0.42382498  0.81687210  0.08914627  1
  O2-  O172  1  0.42042560  0.81474227  0.42031592  1
  O2-  O173  1  0.42590293  0.81655001  0.75614774  1
  O2-  O174  1  0.92873079  0.32540822  0.10052615  1
  O2-  O175  1  0.93430180  0.32425200  0.42210971  1
  O2-  O176  1  0.93232744  0.32279232  0.76208300  1
  O2-  O177  1  0.92857570  0.81835755  0.09981571  1
  O2-  O178  1  0.93260063  0.81924362  0.42314991  1
  O2-  O179  1  0.92798001  0.82130026  0.75351475  1
  O2-  O180  1  0.31822486  0.07268381  0.23454488  1
  O2-  O181  1  0.32251717  0.07237861  0.58058831  1
  O2-  O182  1  0.32901765  0.06667854  0.91069877  1
  O2-  O183  1  0.31895927  0.57267659  0.24431489  1
  O2-  O184  1  0.32031593  0.57023210  0.57630558  1
  O2-  O185  1  0.32474676  0.57504850  0.91333419  1
  O2-  O186  1  0.82442234  0.07240152  0.23571126  1
  O2-  O187  1  0.81887508  0.07139026  0.57933636  1
  O2-  O188  1  0.81762176  0.06817534  0.89871558  1
  O2-  O189  1  0.82332034  0.56943302  0.23415124  1
  O2-  O190  1  0.82375881  0.57175187  0.58015595  1
  O2-  O191  1  0.81863604  0.57656213  0.90893171  1
  O2-  O192  1  0.04448712  0.08397415  0.27700174  1
  O2-  O193  1  0.04488931  0.07835101  0.59667942  1
  O2-  O194  1  0.03538494  0.08225946  0.93344680  1
  O2-  O195  1  0.04268399  0.58525581  0.26859208  1
  O2-  O196  1  0.04259059  0.58659121  0.59626154  1
  O2-  O197  1  0.04554541  0.58653621  0.93892183  1
  O2-  O198  1  0.54128327  0.08084312  0.26721108  1
  O2-  O199  1  0.53702884  0.08190837  0.59981501  1
  O2-  O200  1  0.54494804  0.07615384  0.93402706  1
  O2-  O201  1  0.53677967  0.58465768  0.26398915  1
  O2-  O202  1  0.53380728  0.58557230  0.59941578  1
  O2-  O203  1  0.54176756  0.58841249  0.93692159  1
  O2-  O204  1  0.16231834  0.20783931  0.27285883  1
  O2-  O205  1  0.17051063  0.20766999  0.59626027  1
  O2-  O206  1  0.17206420  0.19622415  0.93804571  1
  O2-  O207  1  0.16637314  0.69969270  0.26861824  1
  O2-  O208  1  0.16855804  0.71103054  0.59962965  1
  O2-  O209  1  0.16993220  0.69922452  0.94258380  1
  O2-  O210  1  0.66830024  0.21149355  0.26755303  1
  O2-  O211  1  0.66514921  0.21023211  0.59961341  1
  O2-  O212  1  0.66815954  0.20767224  0.93056528  1
  O2-  O213  1  0.67063559  0.70895203  0.26567360  1
  O2-  O214  1  0.67029593  0.70454844  0.60165291  1
  O2-  O215  1  0.66231577  0.70529709  0.93473748  1
  O2-  O216  1  0.08485372  0.46197853  0.06937445  1
  O2-  O217  1  0.08868805  0.45944756  0.39735768  1
  O2-  O218  1  0.08671411  0.46123095  0.72548039  1
  O2-  O219  1  0.08061932  0.95841605  0.06605498  1
  O2-  O220  1  0.08151811  0.95343425  0.40473870  1
  O2-  O221  1  0.07969901  0.95611785  0.73244079  1
  O2-  O222  1  0.58817027  0.46103725  0.06198691  1
  O2-  O223  1  0.57647631  0.45539949  0.39782771  1
  O2-  O224  1  0.58335844  0.46433525  0.73744922  1
  O2-  O225  1  0.57937158  0.93997672  0.05792946  1
  O2-  O226  1  0.57601085  0.94190838  0.39298272  1
  O2-  O227  1  0.57965059  0.95496414  0.73371325  1
  O2-  O228  1  0.20958884  0.33093176  0.06698039  1
  O2-  O229  1  0.20502461  0.33763091  0.39822121  1
  O2-  O230  1  0.20446833  0.33751828  0.72635200  1
  O2-  O231  1  0.21027120  0.83351358  0.06736660  1
  O2-  O232  1  0.20725110  0.82703034  0.39857754  1
  O2-  O233  1  0.21424131  0.83453468  0.73666265  1
  O2-  O234  1  0.70457882  0.33737473  0.06017682  1
  O2-  O235  1  0.70986199  0.33457377  0.40141885  1
  O2-  O236  1  0.71000939  0.33260880  0.73624438  1
  O2-  O237  1  0.70802320  0.83162679  0.05987644  1
  O2-  O238  1  0.71627740  0.83433114  0.39893524  1
  O2-  O239  1  0.70926126  0.83099194  0.73499023  1
  O2-  O240  1  0.44596991  0.41666422  0.27003967  1
  O2-  O241  1  0.45350682  0.41802754  0.60506547  1
  O2-  O242  1  0.45498398  0.42187774  0.93280051  1
  O2-  O243  1  0.44334406  0.91585350  0.27038453  1
  O2-  O244  1  0.44531368  0.91790731  0.60806515  1
  O2-  O245  1  0.44972607  0.91000783  0.93450354  1
  O2-  O246  1  0.96208577  0.41283385  0.27007938  1
  O2-  O247  1  0.95943301  0.41884669  0.59436152  1
  O2-  O248  1  0.95488983  0.42406265  0.93426187  1
  O2-  O249  1  0.96049604  0.91352883  0.27204670  1
  O2-  O250  1  0.94987435  0.91725270  0.60264424  1
  O2-  O251  1  0.95755983  0.91583196  0.93051159  1
  O2-  O252  1  0.33072065  0.29480491  0.27139595  1
  O2-  O253  1  0.33341420  0.30221410  0.60314448  1
  O2-  O254  1  0.33080759  0.29639249  0.93103723  1
  O2-  O255  1  0.33539095  0.78559005  0.26605438  1
  O2-  O256  1  0.33796805  0.78804213  0.60205208  1
  O2-  O257  1  0.33659195  0.78590657  0.93525496  1
  O2-  O258  1  0.83763594  0.29790860  0.27135191  1
  O2-  O259  1  0.82973754  0.29495028  0.59665428  1
  O2-  O260  1  0.83161652  0.29495162  0.93290477  1
  O2-  O261  1  0.84228081  0.79163832  0.26800977  1
  O2-  O262  1  0.83513562  0.79364618  0.60143620  1
  O2-  O263  1  0.83577033  0.78552567  0.92885523  1
  O2-  O264  1  0.41585258  0.03692376  0.06429322  1
  O2-  O265  1  0.41850689  0.04211468  0.40253226  1
  O2-  O266  1  0.41282906  0.04503642  0.73420654  1
  O2-  O267  1  0.41849347  0.54759474  0.06547068  1
  O2-  O268  1  0.41185012  0.54336294  0.39728751  1
  O2-  O269  1  0.41133874  0.54390623  0.73134489  1
  O2-  O270  1  0.91125991  0.03593648  0.06775768  1
  O2-  O271  1  0.91521501  0.03870665  0.40588012  1
  O2-  O272  1  0.91471068  0.04642272  0.72908025  1
  O2-  O273  1  0.91378985  0.55100513  0.06143450  1
  O2-  O274  1  0.92035157  0.54102350  0.40210823  1
  O2-  O275  1  0.91860228  0.54580431  0.72997286  1
  O2-  O276  1  0.30791566  0.16709400  0.05945315  1
  O2-  O277  1  0.29338455  0.16967537  0.40403999  1
  O2-  O278  1  0.30003274  0.17094820  0.72878132  1
  O2-  O279  1  0.29722758  0.66343502  0.06861359  1
  O2-  O280  1  0.29128096  0.66049512  0.39908398  1
  O2-  O281  1  0.29215208  0.66209637  0.72994045  1
  O2-  O282  1  0.78994206  0.16841667  0.06613537  1
  O2-  O283  1  0.80033619  0.17409263  0.40087246  1
  O2-  O284  1  0.79467196  0.16668010  0.72894302  1
  O2-  O285  1  0.78846891  0.66304664  0.06260748  1
  O2-  O286  1  0.80138273  0.67148390  0.39994731  1
  O2-  O287  1  0.79914825  0.66581657  0.73124465  1
