# generated using pymatgen
data_Ca2Al2SiO7
_symmetry_space_group_name_H-M   'P 1'
_cell_length_a   15.45685543
_cell_length_b   15.45672861
_cell_length_c   15.28292665
_cell_angle_alpha   90.00419189
_cell_angle_beta   89.99564468
_cell_angle_gamma   89.97856337
_symmetry_Int_Tables_number   1
_chemical_formula_structural   Ca2Al2SiO7
_chemical_formula_sum   'Ca48 Al48 Si24 O168'
_cell_volume   3651.28070591
_cell_formula_units_Z   24
loop_
 _symmetry_equiv_pos_site_id
 _symmetry_equiv_pos_as_xyz
  1  'x, y, z'
loop_
 _atom_type_symbol
 _atom_type_oxidation_number
  Ca2+  2.0
  Al0+  0.0
  Si0+  0.0
  O2-  -2.0
loop_
 _atom_site_type_symbol
 _atom_site_label
 _atom_site_symmetry_multiplicity
 _atom_site_fract_x
 _atom_site_fract_y
 _atom_site_fract_z
 _atom_site_occupancy
  Ca2+  Ca0  1  0.16664162  0.08284961  0.16715232  1
  Ca2+  Ca1  1  0.16808393  0.09319923  0.50049458  1
  Ca2+  Ca2  1  0.16020755  0.07979258  0.84170855  1
  Ca2+  Ca3  1  0.16906572  0.57891494  0.16956946  1
  Ca2+  Ca4  1  0.17264154  0.57470918  0.50619280  1
  Ca2+  Ca5  1  0.16025530  0.56991428  0.84167250  1
  Ca2+  Ca6  1  0.67080646  0.07865772  0.17407702  1
  Ca2+  Ca7  1  0.66964559  0.08156359  0.50421305  1
  Ca2+  Ca8  1  0.68415692  0.08631748  0.83973372  1
  Ca2+  Ca9  1  0.66295277  0.58609692  0.17157346  1
  Ca2+  Ca10  1  0.66603932  0.58280336  0.50085846  1
  Ca2+  Ca11  1  0.66656618  0.58401618  0.83830543  1
  Ca2+  Ca12  1  0.07822588  0.32496844  0.15878027  1
  Ca2+  Ca13  1  0.07796225  0.32651988  0.49751038  1
  Ca2+  Ca14  1  0.08153907  0.32493752  0.82697770  1
  Ca2+  Ca15  1  0.08352489  0.82802084  0.15366236  1
  Ca2+  Ca16  1  0.07431366  0.83790251  0.50076904  1
  Ca2+  Ca17  1  0.07786376  0.83541083  0.83455299  1
  Ca2+  Ca18  1  0.57638468  0.32629643  0.16260884  1
  Ca2+  Ca19  1  0.57902114  0.32508676  0.49557532  1
  Ca2+  Ca20  1  0.56990767  0.33495778  0.83161755  1
  Ca2+  Ca21  1  0.57982830  0.82670831  0.16160789  1
  Ca2+  Ca22  1  0.58020966  0.83214241  0.49275765  1
  Ca2+  Ca23  1  0.57341669  0.83237380  0.83298508  1
  Ca2+  Ca24  1  0.32834994  0.41752079  0.16848190  1
  Ca2+  Ca25  1  0.33125411  0.42061931  0.50785193  1
  Ca2+  Ca26  1  0.32271084  0.40922992  0.83993886  1
  Ca2+  Ca27  1  0.32812807  0.91703990  0.17091200  1
  Ca2+  Ca28  1  0.33519613  0.92433489  0.50311552  1
  Ca2+  Ca29  1  0.33045615  0.91529008  0.84122434  1
  Ca2+  Ca30  1  0.83890223  0.41498680  0.16830116  1
  Ca2+  Ca31  1  0.83678561  0.41148975  0.50456809  1
  Ca2+  Ca32  1  0.83620053  0.41204524  0.83974636  1
  Ca2+  Ca33  1  0.83318188  0.92257860  0.16846606  1
  Ca2+  Ca34  1  0.82673096  0.92136733  0.50858715  1
  Ca2+  Ca35  1  0.84657739  0.92722278  0.83889664  1
  Ca2+  Ca36  1  0.42086381  0.16289468  0.16488374  1
  Ca2+  Ca37  1  0.41597373  0.17203755  0.49292669  1
  Ca2+  Ca38  1  0.41028937  0.17971606  0.83117582  1
  Ca2+  Ca39  1  0.42488484  0.66607389  0.15935021  1
  Ca2+  Ca40  1  0.41811348  0.67134015  0.49386190  1
  Ca2+  Ca41  1  0.41577882  0.67833648  0.83368965  1
  Ca2+  Ca42  1  0.92473121  0.17246931  0.15873182  1
  Ca2+  Ca43  1  0.92471735  0.17229796  0.49593347  1
  Ca2+  Ca44  1  0.92552886  0.16757380  0.82807828  1
  Ca2+  Ca45  1  0.92382745  0.67561484  0.15600185  1
  Ca2+  Ca46  1  0.91561886  0.67245276  0.49892067  1
  Ca2+  Ca47  1  0.92201186  0.67777012  0.83426457  1
  Al0+  Al48  1  0.00172067  0.00098799  0.00626831  1
  Al0+  Al49  1  -0.00138216  0.00127447  0.33089053  1
  Al0+  Al50  1  0.00073255  -0.00093931  0.66037212  1
  Al0+  Al51  1  -0.00134634  0.50001866  0.00091671  1
  Al0+  Al52  1  -0.00097256  0.50213260  0.33262216  1
  Al0+  Al53  1  0.00026129  0.49993621  0.66819194  1
  Al0+  Al54  1  0.50318246  -0.00022201  -0.00409873  1
  Al0+  Al55  1  0.49841173  0.00011697  0.33793595  1
  Al0+  Al56  1  0.49999159  -0.00197611  0.66628296  1
  Al0+  Al57  1  0.50093955  0.49864504  -0.00715515  1
  Al0+  Al58  1  0.50040616  0.50147815  0.33601361  1
  Al0+  Al59  1  0.50055090  0.50119727  0.66429136  1
  Al0+  Al60  1  0.25006757  0.24961613  0.00019842  1
  Al0+  Al61  1  0.24740083  0.24988827  0.33396549  1
  Al0+  Al62  1  0.25141007  0.25127939  0.66208559  1
  Al0+  Al63  1  0.25151721  0.74808606  -0.00281984  1
  Al0+  Al64  1  0.24816626  0.75015007  0.34106527  1
  Al0+  Al65  1  0.25212326  0.75045563  0.66165861  1
  Al0+  Al66  1  0.75014819  0.25056597  0.00473111  1
  Al0+  Al67  1  0.74824646  0.25093199  0.32679386  1
  Al0+  Al68  1  0.75007558  0.25007632  0.67004089  1
  Al0+  Al69  1  0.74980548  0.75014114  -0.00733810  1
  Al0+  Al70  1  0.74815601  0.74974773  0.33502727  1
  Al0+  Al71  1  0.74949871  0.74912137  0.66507943  1
  Al0+  Al72  1  0.57182466  0.67781977  0.98367545  1
  Al0+  Al73  1  0.07120817  0.17965450  0.98483819  1
  Al0+  Al74  1  0.82179209  0.07123264  0.01635825  1
  Al0+  Al75  1  0.92964922  0.82038982  0.65205797  1
  Al0+  Al76  1  0.82081532  0.06940268  0.67941934  1
  Al0+  Al77  1  0.56912261  0.17714339  0.32066290  1
  Al0+  Al78  1  0.18147780  0.92783643  0.01205624  1
  Al0+  Al79  1  0.42965290  0.31859250  0.98881794  1
  Al0+  Al80  1  0.07158772  0.17764767  0.65033292  1
  Al0+  Al81  1  0.42848702  0.82286170  0.98733224  1
  Al0+  Al82  1  0.56964476  0.67971919  0.32050133  1
  Al0+  Al83  1  0.07341844  0.67696285  0.98630886  1
  Al0+  Al84  1  0.42944955  0.32117401  0.65162895  1
  Al0+  Al85  1  0.17741457  0.42789958  0.01524597  1
  Al0+  Al86  1  0.92740957  0.32218855  0.65220449  1
  Al0+  Al87  1  0.07221080  0.17820595  0.31452593  1
  Al0+  Al88  1  0.32198849  0.57082927  0.34711839  1
  Al0+  Al89  1  0.92869902  0.32302127  0.31695687  1
  Al0+  Al90  1  0.93023035  0.82262402  0.98729623  1
  Al0+  Al91  1  0.18079030  0.42963640  0.68087353  1
  Al0+  Al92  1  0.92753791  0.32113696  0.98439839  1
  Al0+  Al93  1  0.42838580  0.82177639  0.64954624  1
  Al0+  Al94  1  0.68009850  0.92880543  0.34684503  1
  Al0+  Al95  1  0.31895583  0.07056297  0.34653180  1
  Si0+  Si96  1  0.81935395  0.57242608  0.01492148  1
  Si0+  Si97  1  0.67726475  0.92719012  0.01618413  1
  Si0+  Si98  1  0.32361084  0.57340821  0.68530311  1
  Si0+  Si99  1  0.82081940  0.57114423  0.34826563  1
  Si0+  Si100  1  0.57378559  0.17680162  0.98341506  1
  Si0+  Si101  1  0.82114924  0.07359071  0.35075454  1
  Si0+  Si102  1  0.42616259  0.82186763  0.31804587  1
  Si0+  Si103  1  0.57236801  0.17878671  0.65261646  1
  Si0+  Si104  1  0.32236799  0.07106074  0.68158180  1
  Si0+  Si105  1  0.07134576  0.68079446  0.32042560  1
  Si0+  Si106  1  0.57180751  0.67893045  0.64745247  1
  Si0+  Si107  1  0.17679428  0.42948414  0.35070355  1
  Si0+  Si108  1  0.67731564  0.92582792  0.68572870  1
  Si0+  Si109  1  0.42802819  0.32311152  0.31821267  1
  Si0+  Si110  1  0.17515591  0.92682598  0.35212271  1
  Si0+  Si111  1  0.18020776  0.92871484  0.68016564  1
  Si0+  Si112  1  0.82094466  0.57230518  0.68271533  1
  Si0+  Si113  1  0.67702935  0.43024783  0.01617085  1
  Si0+  Si114  1  0.07201972  0.67691598  0.64911915  1
  Si0+  Si115  1  0.32328647  0.57000840  0.01489976  1
  Si0+  Si116  1  0.32485416  0.07224691  0.01481613  1
  Si0+  Si117  1  0.67841258  0.42948105  0.68194187  1
  Si0+  Si118  1  0.67866328  0.42828399  0.34810418  1
  Si0+  Si119  1  0.92744292  0.81979227  0.31968406  1
  O2-  O120  1  0.25902638  0.00028827  0.05803623  1
  O2-  O121  1  0.24225782  -0.00205843  0.39491297  1
  O2-  O122  1  0.25056884  0.00044528  0.72274886  1
  O2-  O123  1  0.25240246  0.50406987  0.06027331  1
  O2-  O124  1  0.24897362  0.49496766  0.39480219  1
  O2-  O125  1  0.25505737  0.50497758  0.72913047  1
  O2-  O126  1  0.74603995  -0.00448781  0.06069386  1
  O2-  O127  1  0.75311187  0.00431732  0.39545658  1
  O2-  O128  1  0.74691353  -0.00606914  0.72866308  1
  O2-  O129  1  0.74860561  0.50116540  0.05799557  1
  O2-  O130  1  0.75293262  0.49663668  0.39016524  1
  O2-  O131  1  0.75177940  0.49863567  0.72376241  1
  O2-  O132  1  -0.00053028  0.25058976  0.26720548  1
  O2-  O133  1  -0.00128743  0.25019507  0.60234977  1
  O2-  O134  1  0.00011577  0.25134797  0.93355338  1
  O2-  O135  1  0.00353624  0.75440322  0.27796839  1
  O2-  O136  1  0.00349890  0.74545821  0.60362397  1
  O2-  O137  1  0.00396650  0.75203635  0.93746276  1
  O2-  O138  1  0.49296851  0.25081149  0.27414516  1
  O2-  O139  1  0.50244870  0.24476409  0.60602483  1
  O2-  O140  1  0.50162406  0.24193024  0.94001950  1
  O2-  O141  1  0.49264140  0.75130625  0.27389496  1
  O2-  O142  1  0.50379337  0.74778934  0.60331101  1
  O2-  O143  1  0.50026555  0.75100607  0.93614923  1
  O2-  O144  1  0.07124942  0.18042528  0.09814679  1
  O2-  O145  1  0.07104899  0.17990691  0.42812501  1
  O2-  O146  1  0.07162117  0.17538399  0.76340555  1
  O2-  O147  1  0.07094448  0.67814462  0.10086812  1
  O2-  O148  1  0.06835376  0.67947881  0.42567083  1
  O2-  O149  1  0.07082829  0.67714783  0.75424602  1
  O2-  O150  1  0.57255707  0.17719091  0.08929088  1
  O2-  O151  1  0.56983080  0.18072005  0.43403174  1
  O2-  O152  1  0.57192846  0.18221743  0.75814314  1
  O2-  O153  1  0.57072161  0.67716593  0.09755543  1
  O2-  O154  1  0.57096061  0.68060117  0.43352032  1
  O2-  O155  1  0.57222060  0.67822218  0.75266166  1
  O2-  O156  1  0.17653381  0.43240447  0.24517204  1
  O2-  O157  1  0.18283333  0.43285699  0.56734443  1
  O2-  O158  1  0.17951373  0.42731786  0.90209021  1
  O2-  O159  1  0.17735442  0.92108445  0.24697520  1
  O2-  O160  1  0.18149547  0.92824404  0.57487786  1
  O2-  O161  1  0.18121811  0.92969044  0.89850638  1
  O2-  O162  1  0.67540222  0.43073100  0.24323132  1
  O2-  O163  1  0.67703646  0.43068331  0.57656647  1
  O2-  O164  1  0.67592238  0.43079689  0.91082361  1
  O2-  O165  1  0.68295605  0.92708468  0.23386375  1
  O2-  O166  1  0.67767091  0.92582304  0.57972637  1
  O2-  O167  1  0.67472388  0.92955727  0.91072169  1
  O2-  O168  1  0.43261125  0.31934822  0.10205559  1
  O2-  O169  1  0.43189186  0.32334385  0.42406035  1
  O2-  O170  1  0.43002377  0.32056450  0.76471689  1
  O2-  O171  1  0.42966014  0.82243158  0.10105342  1
  O2-  O172  1  0.42854462  0.82058106  0.42385660  1
  O2-  O173  1  0.42833587  0.82152664  0.76226398  1
  O2-  O174  1  0.92840704  0.32010762  0.09788639  1
  O2-  O175  1  0.92933009  0.32371993  0.43060741  1
  O2-  O176  1  0.92703366  0.32180817  0.76496316  1
  O2-  O177  1  0.92926441  0.81870885  0.10155262  1
  O2-  O178  1  0.92722610  0.81652072  0.42509515  1
  O2-  O179  1  0.93259120  0.82022304  0.76446093  1
  O2-  O180  1  0.32170547  0.06639554  0.23363064  1
  O2-  O181  1  0.32367538  0.06996402  0.57639565  1
  O2-  O182  1  0.32452603  0.07305681  0.90893811  1
  O2-  O183  1  0.32125466  0.57066532  0.23409656  1
  O2-  O184  1  0.32304344  0.57219669  0.57921956  1
  O2-  O185  1  0.32423511  0.56815525  0.90938926  1
  O2-  O186  1  0.82005515  0.07094189  0.24528594  1
  O2-  O187  1  0.81658308  0.06790151  0.56609643  1
  O2-  O188  1  0.82118613  0.07069739  0.90288461  1
  O2-  O189  1  0.82044601  0.57404303  0.24344720  1
  O2-  O190  1  0.81868223  0.57457322  0.57714541  1
  O2-  O191  1  0.81785445  0.57259276  0.90969265  1
  O2-  O192  1  0.04521765  0.07798381  0.26403642  1
  O2-  O193  1  0.04468748  0.08015354  0.59497116  1
  O2-  O194  1  0.04208653  0.08048909  0.93544966  1
  O2-  O195  1  0.04176084  0.59038306  0.27209353  1
  O2-  O196  1  0.04421757  0.58465043  0.60177133  1
  O2-  O197  1  0.03845086  0.58169868  0.93268186  1
  O2-  O198  1  0.53809491  0.08072261  0.26678664  1
  O2-  O199  1  0.55001356  0.08356454  0.60893627  1
  O2-  O200  1  0.55533882  0.08271088  0.93630937  1
  O2-  O201  1  0.54175269  0.58188192  0.26747250  1
  O2-  O202  1  0.54662357  0.58523721  0.60107174  1
  O2-  O203  1  0.54394309  0.58065485  0.92840934  1
  O2-  O204  1  0.17168225  0.20553647  0.26328793  1
  O2-  O205  1  0.16937482  0.20835969  0.59753578  1
  O2-  O206  1  0.17070014  0.20463967  0.93327293  1
  O2-  O207  1  0.16432366  0.70651021  0.27475672  1
  O2-  O208  1  0.16563247  0.70242932  0.60290666  1
  O2-  O209  1  0.17217597  0.69870955  0.93305625  1
  O2-  O210  1  0.66353249  0.20894274  0.26385823  1
  O2-  O211  1  0.66423489  0.20749723  0.60517975  1
  O2-  O212  1  0.66511712  0.20916218  0.93804787  1
  O2-  O213  1  0.66642704  0.71059674  0.26686358  1
  O2-  O214  1  0.66577107  0.70315716  0.60125513  1
  O2-  O215  1  0.66899003  0.70477256  0.92816891  1
  O2-  O216  1  0.08123187  0.46018124  0.06966207  1
  O2-  O217  1  0.08476053  0.46130260  0.39734436  1
  O2-  O218  1  0.08346620  0.46012496  0.73403316  1
  O2-  O219  1  0.08720665  0.95853119  0.07054730  1
  O2-  O220  1  0.07982097  0.95142946  0.39608266  1
  O2-  O221  1  0.08748419  0.95510689  0.72559305  1
  O2-  O222  1  0.58561724  0.45948316  0.06404119  1
  O2-  O223  1  0.58930665  0.45929239  0.39905610  1
  O2-  O224  1  0.58747797  0.46112148  0.73010706  1
  O2-  O225  1  0.58396961  0.95325856  0.06380784  1
  O2-  O226  1  0.58339101  0.95791482  0.40175056  1
  O2-  O227  1  0.58317184  0.95171432  0.73077499  1
  O2-  O228  1  0.21265596  0.33276203  0.06985215  1
  O2-  O229  1  0.19870583  0.33479392  0.39518538  1
  O2-  O230  1  0.21428263  0.33274138  0.73274804  1
  O2-  O231  1  0.20995912  0.82976239  0.06635298  1
  O2-  O232  1  0.20054491  0.83492168  0.40277227  1
  O2-  O233  1  0.20848446  0.83604272  0.72578174  1
  O2-  O234  1  0.70286771  0.33869645  0.06528208  1
  O2-  O235  1  0.70382957  0.33551009  0.39536529  1
  O2-  O236  1  0.70212686  0.33771892  0.73093709  1
  O2-  O237  1  0.70255106  0.83200944  0.05933684  1
  O2-  O238  1  0.71257139  0.83313856  0.40346637  1
  O2-  O239  1  0.70151704  0.83096314  0.72933372  1
  O2-  O240  1  0.45867817  0.41492718  0.27241115  1
  O2-  O241  1  0.46152102  0.41789087  0.59853485  1
  O2-  O242  1  0.46319461  0.41186048  0.93085161  1
  O2-  O243  1  0.45330802  0.91470179  0.27338762  1
  O2-  O244  1  0.45915311  0.91894916  0.59605982  1
  O2-  O245  1  0.45688015  0.92035677  0.93120453  1
  O2-  O246  1  0.95550001  0.42347853  0.26611916  1
  O2-  O247  1  0.95393988  0.42217432  0.60054259  1
  O2-  O248  1  0.95020361  0.42192852  0.93566528  1
  O2-  O249  1  0.94830768  0.91393225  0.27510664  1
  O2-  O250  1  0.96164788  0.91393781  0.59358210  1
  O2-  O251  1  0.96107574  0.92014600  0.93633443  1
  O2-  O252  1  0.33240437  0.30231450  0.27597031  1
  O2-  O253  1  0.33508840  0.29073327  0.59469829  1
  O2-  O254  1  0.33442780  0.28806700  0.93301691  1
  O2-  O255  1  0.33014584  0.79811208  0.27673982  1
  O2-  O256  1  0.33273648  0.79131023  0.59319680  1
  O2-  O257  1  0.33227733  0.79309475  0.93126633  1
  O2-  O258  1  0.82862462  0.29960889  0.26548304  1
  O2-  O259  1  0.82723080  0.29535976  0.60097759  1
  O2-  O260  1  0.82666400  0.29514170  0.93543267  1
  O2-  O261  1  0.83838251  0.78572633  0.27220566  1
  O2-  O262  1  0.83268144  0.78828447  0.59870556  1
  O2-  O263  1  0.83362679  0.79417776  0.93166830  1
  O2-  O264  1  0.42081226  0.04985019  0.05852319  1
  O2-  O265  1  0.41391518  0.03954858  0.40448522  1
  O2-  O266  1  0.41405294  0.04308355  0.72955300  1
  O2-  O267  1  0.41661941  0.53999073  0.06017239  1
  O2-  O268  1  0.41845240  0.54175235  0.40359100  1
  O2-  O269  1  0.41861963  0.54912397  0.72869935  1
  O2-  O270  1  0.91608636  0.03875869  0.07324442  1
  O2-  O271  1  0.91535703  0.04762427  0.39553628  1
  O2-  O272  1  0.91831003  0.03604774  0.73032563  1
  O2-  O273  1  0.91046445  0.54593126  0.06462095  1
  O2-  O274  1  0.91331641  0.54736759  0.39733555  1
  O2-  O275  1  0.91361755  0.54863425  0.72931106  1
  O2-  O276  1  0.29766084  0.16403934  0.06316501  1
  O2-  O277  1  0.29123684  0.16871811  0.40120098  1
  O2-  O278  1  0.29615917  0.16407037  0.72657733  1
  O2-  O279  1  0.30173650  0.66448028  0.06074321  1
  O2-  O280  1  0.28991791  0.66622518  0.40440842  1
  O2-  O281  1  0.29797618  0.66845936  0.72815848  1
  O2-  O282  1  0.78836092  0.16691884  0.07136760  1
  O2-  O283  1  0.79330151  0.16789731  0.39390442  1
  O2-  O284  1  0.78910968  0.16540275  0.73496148  1
  O2-  O285  1  0.79103455  0.66475553  0.06197533  1
  O2-  O286  1  0.78852972  0.66034733  0.39889374  1
  O2-  O287  1  0.78947006  0.66277398  0.73121341  1
