# generated using pymatgen
data_Ca2Al2SiO7
_symmetry_space_group_name_H-M   'P 1'
_cell_length_a   15.45089805
_cell_length_b   15.45130986
_cell_length_c   15.27889935
_cell_angle_alpha   89.99397750
_cell_angle_beta   89.99605483
_cell_angle_gamma   89.99232364
_symmetry_Int_Tables_number   1
_chemical_formula_structural   Ca2Al2SiO7
_chemical_formula_sum   'Ca48 Al48 Si24 O168'
_cell_volume   3647.63262299
_cell_formula_units_Z   24
loop_
 _symmetry_equiv_pos_site_id
 _symmetry_equiv_pos_as_xyz
  1  'x, y, z'
loop_
 _atom_type_symbol
 _atom_type_oxidation_number
  Ca2+  2.0
  Al0+  0.0
  Si0+  0.0
  O2-  -2.0
loop_
 _atom_site_type_symbol
 _atom_site_label
 _atom_site_symmetry_multiplicity
 _atom_site_fract_x
 _atom_site_fract_y
 _atom_site_fract_z
 _atom_site_occupancy
  Ca2+  Ca0  1  0.16842704  0.08514088  0.17637582  1
  Ca2+  Ca1  1  0.17684959  0.09123077  0.50035923  1
  Ca2+  Ca2  1  0.17437115  0.08999566  0.83589620  1
  Ca2+  Ca3  1  0.17732129  0.58995588  0.16905410  1
  Ca2+  Ca4  1  0.17886650  0.58020744  0.51028033  1
  Ca2+  Ca5  1  0.16844594  0.58306024  0.83721813  1
  Ca2+  Ca6  1  0.66917038  0.07949611  0.17815200  1
  Ca2+  Ca7  1  0.66316784  0.07398940  0.50182737  1
  Ca2+  Ca8  1  0.66499316  0.08000153  0.83682065  1
  Ca2+  Ca9  1  0.67094992  0.58911848  0.17110804  1
  Ca2+  Ca10  1  0.66589125  0.57785240  0.50559618  1
  Ca2+  Ca11  1  0.67186530  0.57274722  0.83795569  1
  Ca2+  Ca12  1  0.08780307  0.31940686  0.16507989  1
  Ca2+  Ca13  1  0.08112998  0.33331471  0.49906096  1
  Ca2+  Ca14  1  0.08038497  0.33571148  0.82662019  1
  Ca2+  Ca15  1  0.06935182  0.83259390  0.15815064  1
  Ca2+  Ca16  1  0.07968327  0.82862843  0.49615216  1
  Ca2+  Ca17  1  0.08007659  0.81952878  0.83134865  1
  Ca2+  Ca18  1  0.57871735  0.32159800  0.16708767  1
  Ca2+  Ca19  1  0.57107928  0.33326406  0.49255852  1
  Ca2+  Ca20  1  0.58109761  0.32992480  0.82604004  1
  Ca2+  Ca21  1  0.57979937  0.83161404  0.16593562  1
  Ca2+  Ca22  1  0.58942642  0.82933839  0.49424982  1
  Ca2+  Ca23  1  0.57843777  0.83361934  0.83117928  1
  Ca2+  Ca24  1  0.33706745  0.42565083  0.17267260  1
  Ca2+  Ca25  1  0.33432159  0.42232289  0.50899106  1
  Ca2+  Ca26  1  0.33285704  0.42648120  0.83251069  1
  Ca2+  Ca27  1  0.33240072  0.92026689  0.17182284  1
  Ca2+  Ca28  1  0.33971056  0.93460745  0.50365277  1
  Ca2+  Ca29  1  0.33449041  0.92060447  0.83738804  1
  Ca2+  Ca30  1  0.83429713  0.42425606  0.16701880  1
  Ca2+  Ca31  1  0.82473052  0.41081514  0.50938436  1
  Ca2+  Ca32  1  0.83250183  0.41695568  0.83554783  1
  Ca2+  Ca33  1  0.83147949  0.91845362  0.17901159  1
  Ca2+  Ca34  1  0.82606733  0.91744423  0.49730303  1
  Ca2+  Ca35  1  0.82743339  0.91077343  0.83645131  1
  Ca2+  Ca36  1  0.42514333  0.16453698  0.16575257  1
  Ca2+  Ca37  1  0.41326037  0.17770510  0.49162029  1
  Ca2+  Ca38  1  0.42189401  0.17173936  0.82548130  1
  Ca2+  Ca39  1  0.41856949  0.66716862  0.16314034  1
  Ca2+  Ca40  1  0.42271724  0.66017051  0.49271741  1
  Ca2+  Ca41  1  0.40477910  0.67127715  0.83152700  1
  Ca2+  Ca42  1  0.92808425  0.15767149  0.16459088  1
  Ca2+  Ca43  1  0.91959031  0.16884667  0.49359307  1
  Ca2+  Ca44  1  0.92611689  0.17184828  0.82858652  1
  Ca2+  Ca45  1  0.91730232  0.67932913  0.15632915  1
  Ca2+  Ca46  1  0.92453089  0.67052147  0.49496426  1
  Ca2+  Ca47  1  0.92618004  0.65999118  0.83125339  1
  Al0+  Al48  1  -0.00028924  0.00019827  -0.01208769  1
  Al0+  Al49  1  -0.00129382  -0.00042635  0.33183074  1
  Al0+  Al50  1  0.00006910  -0.00107417  0.66589170  1
  Al0+  Al51  1  -0.00070655  0.49847399  0.00530934  1
  Al0+  Al52  1  0.00097803  0.50041657  0.33215085  1
  Al0+  Al53  1  0.00126290  0.49980207  0.65805589  1
  Al0+  Al54  1  0.50045366  -0.00014511  -0.00749360  1
  Al0+  Al55  1  0.49899719  -0.00077740  0.33901484  1
  Al0+  Al56  1  0.50105784  -0.00114498  0.67582852  1
  Al0+  Al57  1  0.49976568  0.49834897  0.00562081  1
  Al0+  Al58  1  0.50102286  0.50129749  0.32639756  1
  Al0+  Al59  1  0.50160616  0.50013170  0.67378931  1
  Al0+  Al60  1  0.25172828  0.25105270  -0.00289811  1
  Al0+  Al61  1  0.24785041  0.25245676  0.32813787  1
  Al0+  Al62  1  0.25165423  0.25139694  0.67261048  1
  Al0+  Al63  1  0.24909197  0.75180183  -0.00169375  1
  Al0+  Al64  1  0.25089289  0.74909367  0.33983203  1
  Al0+  Al65  1  0.25007434  0.75361531  0.66196278  1
  Al0+  Al66  1  0.74914260  0.24742818  -0.00211416  1
  Al0+  Al67  1  0.75005701  0.25138981  0.33265455  1
  Al0+  Al68  1  0.75140142  0.24755410  0.66793234  1
  Al0+  Al69  1  0.74699191  0.74913573  -0.00024102  1
  Al0+  Al70  1  0.75054260  0.74941975  0.32974910  1
  Al0+  Al71  1  0.74977121  0.75124785  0.67184046  1
  Al0+  Al72  1  0.32199118  0.57010351  0.34769084  1
  Al0+  Al73  1  0.68095357  0.92867761  0.68353260  1
  Al0+  Al74  1  0.07194473  0.67929673  0.65026190  1
  Al0+  Al75  1  0.92515959  0.82136006  0.98239008  1
  Al0+  Al76  1  0.92882656  0.32006022  0.65342531  1
  Al0+  Al77  1  0.31954297  0.07151010  0.68195621  1
  Al0+  Al78  1  0.57091591  0.17916196  0.98484106  1
  Al0+  Al79  1  0.32203470  0.57317367  0.68192366  1
  Al0+  Al80  1  0.42730342  0.32221925  0.31713856  1
  Al0+  Al81  1  0.07032184  0.67834639  0.98704204  1
  Al0+  Al82  1  0.57081842  0.67966587  0.32081782  1
  Al0+  Al83  1  0.31877098  0.57252060  0.01562402  1
  Al0+  Al84  1  0.06850166  0.18094395  0.32210967  1
  Al0+  Al85  1  0.93083938  0.81841008  0.32118516  1
  Al0+  Al86  1  0.82021905  0.56985814  0.01402229  1
  Al0+  Al87  1  0.17748428  0.42993709  0.68147198  1
  Al0+  Al88  1  0.57093870  0.17683729  0.32107965  1
  Al0+  Al89  1  0.07291674  0.17899122  0.98452519  1
  Al0+  Al90  1  0.31969965  0.07164156  0.34431950  1
  Al0+  Al91  1  0.42974998  0.81941076  0.98725017  1
  Al0+  Al92  1  0.43108711  0.32131563  0.65469340  1
  Al0+  Al93  1  0.82303492  0.07313591  0.34809521  1
  Al0+  Al94  1  0.67886181  0.92794683  0.34728513  1
  Al0+  Al95  1  0.67930682  0.42710125  0.67897296  1
  Si0+  Si96  1  0.32158539  0.07110364  0.01494834  1
  Si0+  Si97  1  0.07296827  0.17718010  0.64976713  1
  Si0+  Si98  1  0.82211466  0.57157312  0.68061565  1
  Si0+  Si99  1  0.42930817  0.32359946  0.98138076  1
  Si0+  Si100  1  0.82419061  0.07182064  0.68576225  1
  Si0+  Si101  1  0.82160157  0.07016204  0.01343142  1
  Si0+  Si102  1  0.67775732  0.42461444  0.01968819  1
  Si0+  Si103  1  0.17624174  0.92840658  0.68397682  1
  Si0+  Si104  1  0.82185952  0.57168563  0.34831006  1
  Si0+  Si105  1  0.17699217  0.42813515  0.34990774  1
  Si0+  Si106  1  0.42972215  0.82296313  0.65057013  1
  Si0+  Si107  1  0.07439383  0.67709589  0.31638345  1
  Si0+  Si108  1  0.92601575  0.82182374  0.64818531  1
  Si0+  Si109  1  0.57108784  0.68033021  0.65475154  1
  Si0+  Si110  1  0.17838640  0.93130520  0.01308070  1
  Si0+  Si111  1  0.92525558  0.32482851  0.31494571  1
  Si0+  Si112  1  0.68041133  0.43024083  0.34677529  1
  Si0+  Si113  1  0.17636450  0.92761552  0.34944925  1
  Si0+  Si114  1  0.17715649  0.42622844  0.01931675  1
  Si0+  Si115  1  0.57120809  0.67548943  0.98213488  1
  Si0+  Si116  1  0.67780477  0.93017753  0.01549987  1
  Si0+  Si117  1  0.57195708  0.17571586  0.64979995  1
  Si0+  Si118  1  0.42632470  0.82252780  0.31965029  1
  Si0+  Si119  1  0.92820767  0.32117552  0.98502741  1
  O2-  O120  1  0.24760818  0.00343274  0.05740953  1
  O2-  O121  1  0.24605892  -0.00385444  0.39260621  1
  O2-  O122  1  0.24257430  -0.00096666  0.72903707  1
  O2-  O123  1  0.24427438  0.49722161  0.06264859  1
  O2-  O124  1  0.24618714  0.49656615  0.39340975  1
  O2-  O125  1  0.24772145  0.50352566  0.73172724  1
  O2-  O126  1  0.75309539  -0.00304648  0.05666975  1
  O2-  O127  1  0.74731994  0.00402170  0.39695584  1
  O2-  O128  1  0.75578480  0.00302013  0.73060750  1
  O2-  O129  1  0.74443570  0.49636255  0.06262291  1
  O2-  O130  1  0.75425123  0.49787388  0.39072645  1
  O2-  O131  1  0.75631283  0.50006634  0.72484656  1
  O2-  O132  1  -0.00795419  0.25314433  0.27275307  1
  O2-  O133  1  0.00342472  0.24531774  0.60650008  1
  O2-  O134  1  -0.00089906  0.25531383  0.94010254  1
  O2-  O135  1  0.00631762  0.74595096  0.27242961  1
  O2-  O136  1  -0.00388535  0.75412829  0.60483029  1
  O2-  O137  1  -0.00543857  0.74562327  0.93490249  1
  O2-  O138  1  0.49657692  0.24582052  0.26962815  1
  O2-  O139  1  0.50505435  0.24629712  0.60659001  1
  O2-  O140  1  0.49852197  0.25535345  0.93751841  1
  O2-  O141  1  0.49503634  0.75403455  0.27541041  1
  O2-  O142  1  0.49786175  0.74828478  0.61039337  1
  O2-  O143  1  0.49955172  0.74086970  0.93789752  1
  O2-  O144  1  0.07195927  0.17722530  0.09778114  1
  O2-  O145  1  0.06974418  0.18381693  0.43502455  1
  O2-  O146  1  0.07057120  0.17693933  0.75558214  1
  O2-  O147  1  0.07057897  0.68473551  0.10070788  1
  O2-  O148  1  0.07221535  0.67764066  0.42204768  1
  O2-  O149  1  0.06984278  0.67932132  0.76339573  1
  O2-  O150  1  0.56999249  0.17702260  0.09776933  1
  O2-  O151  1  0.57027436  0.17971945  0.43454744  1
  O2-  O152  1  0.57026247  0.17668034  0.75593483  1
  O2-  O153  1  0.57222977  0.67909362  0.08783972  1
  O2-  O154  1  0.57183431  0.67773822  0.43446989  1
  O2-  O155  1  0.57281245  0.68258838  0.75970799  1
  O2-  O156  1  0.17549490  0.42898210  0.24416852  1
  O2-  O157  1  0.17913219  0.43018840  0.56776246  1
  O2-  O158  1  0.17681985  0.42529822  0.91397217  1
  O2-  O159  1  0.17682822  0.92773687  0.24340042  1
  O2-  O160  1  0.17687108  0.92899184  0.57825750  1
  O2-  O161  1  0.18127874  0.93170487  0.90803765  1
  O2-  O162  1  0.68252601  0.43137568  0.24161620  1
  O2-  O163  1  0.67846028  0.43068667  0.56553594  1
  O2-  O164  1  0.67870204  0.42449243  0.91385371  1
  O2-  O165  1  0.68015127  0.92720964  0.23330986  1
  O2-  O166  1  0.68128489  0.92662958  0.57080108  1
  O2-  O167  1  0.67739965  0.93240635  0.91019549  1
  O2-  O168  1  0.42948294  0.32215444  0.08693476  1
  O2-  O169  1  0.42893966  0.32380506  0.43110632  1
  O2-  O170  1  0.43401397  0.32016750  0.76786317  1
  O2-  O171  1  0.43195156  0.82259304  0.10037071  1
  O2-  O172  1  0.42653210  0.82216640  0.42528069  1
  O2-  O173  1  0.43051056  0.82321181  0.75593983  1
  O2-  O174  1  0.92718498  0.31929501  0.09063573  1
  O2-  O175  1  0.92570632  0.32710273  0.42043892  1
  O2-  O176  1  0.92903541  0.31850340  0.76685085  1
  O2-  O177  1  0.92724914  0.82409457  0.09616150  1
  O2-  O178  1  0.93091495  0.81536275  0.43445301  1
  O2-  O179  1  0.92543575  0.82032022  0.75360049  1
  O2-  O180  1  0.31905573  0.06805647  0.23069868  1
  O2-  O181  1  0.31941851  0.07167865  0.56858868  1
  O2-  O182  1  0.32112171  0.06931217  0.90980936  1
  O2-  O183  1  0.32001556  0.57178223  0.23436551  1
  O2-  O184  1  0.32437662  0.57039349  0.56822647  1
  O2-  O185  1  0.31751054  0.57221748  0.90290978  1
  O2-  O186  1  0.82513770  0.06899623  0.23388115  1
  O2-  O187  1  0.82473515  0.07175471  0.58049666  1
  O2-  O188  1  0.81899489  0.07160705  0.90832951  1
  O2-  O189  1  0.82044995  0.57146613  0.24315021  1
  O2-  O190  1  0.81813171  0.57422081  0.57472763  1
  O2-  O191  1  0.81962590  0.56568725  0.90066172  1
  O2-  O192  1  0.04097687  0.08365103  0.26689283  1
  O2-  O193  1  0.04885830  0.08271244  0.60443054  1
  O2-  O194  1  0.04148518  0.08553699  0.92572906  1
  O2-  O195  1  0.04989233  0.58319856  0.27073760  1
  O2-  O196  1  0.04162955  0.58460336  0.59291543  1
  O2-  O197  1  0.04454358  0.57733341  0.93796651  1
  O2-  O198  1  0.54364124  0.07717807  0.26934401  1
  O2-  O199  1  0.54376580  0.08121691  0.60772568  1
  O2-  O200  1  0.53801415  0.08491908  0.92777452  1
  O2-  O201  1  0.54171406  0.58574711  0.26150235  1
  O2-  O202  1  0.54575784  0.58734717  0.60870683  1
  O2-  O203  1  0.55059723  0.57885660  0.94080023  1
  O2-  O204  1  0.16264508  0.21244921  0.26314193  1
  O2-  O205  1  0.16720337  0.20426701  0.60696791  1
  O2-  O206  1  0.17010061  0.20880978  0.93133285  1
  O2-  O207  1  0.16920063  0.70304537  0.27347309  1
  O2-  O208  1  0.16734528  0.71367833  0.59488565  1
  O2-  O209  1  0.16593830  0.71185875  0.93218686  1
  O2-  O210  1  0.66879830  0.20775034  0.26697711  1
  O2-  O211  1  0.66762160  0.19662357  0.60764919  1
  O2-  O212  1  0.66796259  0.20777203  0.92977257  1
  O2-  O213  1  0.66585772  0.71086433  0.26391544  1
  O2-  O214  1  0.66270866  0.71003915  0.60714629  1
  O2-  O215  1  0.66308908  0.70353449  0.93445771  1
  O2-  O216  1  0.08273174  0.44613745  0.06616908  1
  O2-  O217  1  0.08249399  0.45285648  0.39590752  1
  O2-  O218  1  0.07726270  0.45763599  0.73171754  1
  O2-  O219  1  0.08474636  0.95926388  0.05708066  1
  O2-  O220  1  0.08377340  0.95390106  0.39624764  1
  O2-  O221  1  0.08121305  0.94930861  0.72953300  1
  O2-  O222  1  0.58378270  0.44757550  0.06578966  1
  O2-  O223  1  0.58939999  0.46242068  0.39252958  1
  O2-  O224  1  0.58743276  0.46173272  0.73903905  1
  O2-  O225  1  0.58668454  0.96269849  0.06126049  1
  O2-  O226  1  0.57987711  0.95065420  0.40224079  1
  O2-  O227  1  0.58546105  0.95887763  0.74033533  1
  O2-  O228  1  0.20793867  0.33299453  0.06514307  1
  O2-  O229  1  0.20107560  0.33428275  0.39517317  1
  O2-  O230  1  0.20502187  0.33253357  0.73659048  1
  O2-  O231  1  0.20720640  0.84101163  0.06238988  1
  O2-  O232  1  0.20059984  0.83444215  0.39727366  1
  O2-  O233  1  0.20625209  0.83622475  0.73012033  1
  O2-  O234  1  0.70721069  0.33158965  0.06524700  1
  O2-  O235  1  0.70438429  0.33822512  0.39536201  1
  O2-  O236  1  0.70877897  0.33027720  0.73352412  1
  O2-  O237  1  0.69839353  0.83559161  0.06013952  1
  O2-  O238  1  0.71316966  0.83049628  0.40013943  1
  O2-  O239  1  0.71102051  0.83269883  0.74053755  1
  O2-  O240  1  0.46248130  0.41695069  0.26123096  1
  O2-  O241  1  0.46379731  0.41874126  0.60292096  1
  O2-  O242  1  0.45537308  0.41777055  0.93692902  1
  O2-  O243  1  0.45117544  0.91593864  0.27320321  1
  O2-  O244  1  0.46345571  0.91399054  0.60518527  1
  O2-  O245  1  0.46380620  0.91313640  0.92889902  1
  O2-  O246  1  0.95400238  0.41789251  0.26800000  1
  O2-  O247  1  0.95552541  0.41569799  0.59556508  1
  O2-  O248  1  0.95172323  0.41546442  0.94006734  1
  O2-  O249  1  0.95940547  0.91507750  0.26634481  1
  O2-  O250  1  0.95134889  0.91610735  0.60308595  1
  O2-  O251  1  0.95557826  0.91708474  0.92592653  1
  O2-  O252  1  0.32875555  0.29815176  0.26331914  1
  O2-  O253  1  0.33336174  0.29067349  0.60297955  1
  O2-  O254  1  0.33596675  0.29777733  0.93566402  1
  O2-  O255  1  0.33221008  0.79699781  0.27390910  1
  O2-  O256  1  0.33686087  0.80315644  0.60256863  1
  O2-  O257  1  0.33263178  0.79337806  0.93197078  1
  O2-  O258  1  0.83116534  0.30395759  0.26861206  1
  O2-  O259  1  0.83223813  0.28812335  0.59885777  1
  O2-  O260  1  0.83548612  0.29372914  0.93810041  1
  O2-  O261  1  0.83626598  0.78598019  0.26483251  1
  O2-  O262  1  0.83229121  0.79379447  0.60353709  1
  O2-  O263  1  0.82500404  0.79487264  0.93261024  1
  O2-  O264  1  0.41309894  0.03826574  0.05980352  1
  O2-  O265  1  0.41431855  0.04197262  0.40271013  1
  O2-  O266  1  0.41424258  0.03734534  0.73785329  1
  O2-  O267  1  0.41688831  0.54254819  0.06868023  1
  O2-  O268  1  0.42044221  0.53917438  0.39788055  1
  O2-  O269  1  0.41902606  0.54468550  0.73749920  1
  O2-  O270  1  0.91597529  0.04361944  0.05653437  1
  O2-  O271  1  0.91962273  0.04051427  0.40270640  1
  O2-  O272  1  0.91866566  0.04653790  0.73112719  1
  O2-  O273  1  0.91559205  0.53951286  0.07174910  1
  O2-  O274  1  0.91573582  0.54765585  0.39383452  1
  O2-  O275  1  0.91651596  0.54591246  0.72327128  1
  O2-  O276  1  0.29735233  0.16478437  0.05997766  1
  O2-  O277  1  0.28607253  0.16860786  0.39623525  1
  O2-  O278  1  0.29084078  0.16674896  0.73928478  1
  O2-  O279  1  0.28827604  0.67023221  0.06879529  1
  O2-  O280  1  0.29479054  0.66709766  0.40380598  1
  O2-  O281  1  0.29455097  0.67449369  0.72908327  1
  O2-  O282  1  0.79332461  0.16147945  0.06153131  1
  O2-  O283  1  0.80026710  0.17424503  0.39832094  1
  O2-  O284  1  0.79838879  0.16458802  0.73355684  1
  O2-  O285  1  0.78776047  0.66705508  0.06760541  1
  O2-  O286  1  0.79079399  0.66158904  0.39638691  1
  O2-  O287  1  0.79460323  0.66303549  0.72958785  1
