# generated using pymatgen
data_Ca2Al2SiO7
_symmetry_space_group_name_H-M   'P 1'
_cell_length_a   15.46097401
_cell_length_b   15.46240062
_cell_length_c   15.28603821
_cell_angle_alpha   89.98381513
_cell_angle_beta   90.00529489
_cell_angle_gamma   90.01512209
_symmetry_Int_Tables_number   1
_chemical_formula_structural   Ca2Al2SiO7
_chemical_formula_sum   'Ca48 Al48 Si24 O168'
_cell_volume   3654.33769801
_cell_formula_units_Z   24
loop_
 _symmetry_equiv_pos_site_id
 _symmetry_equiv_pos_as_xyz
  1  'x, y, z'
loop_
 _atom_type_symbol
 _atom_type_oxidation_number
  Ca2+  2.0
  Al0+  0.0
  Si0+  0.0
  O2-  -2.0
loop_
 _atom_site_type_symbol
 _atom_site_label
 _atom_site_symmetry_multiplicity
 _atom_site_fract_x
 _atom_site_fract_y
 _atom_site_fract_z
 _atom_site_occupancy
  Ca2+  Ca0  1  0.15921481  0.08248747  0.16603682  1
  Ca2+  Ca1  1  0.16518806  0.08040907  0.51112848  1
  Ca2+  Ca2  1  0.16552928  0.07830164  0.84051147  1
  Ca2+  Ca3  1  0.17719960  0.59269473  0.17373273  1
  Ca2+  Ca4  1  0.17277429  0.59417016  0.50615295  1
  Ca2+  Ca5  1  0.17612782  0.59368669  0.83453757  1
  Ca2+  Ca6  1  0.66601940  0.06826246  0.17206367  1
  Ca2+  Ca7  1  0.66640172  0.07941533  0.50466297  1
  Ca2+  Ca8  1  0.66741435  0.07815619  0.83796343  1
  Ca2+  Ca9  1  0.68027606  0.58279338  0.17718054  1
  Ca2+  Ca10  1  0.67779975  0.57575040  0.50227817  1
  Ca2+  Ca11  1  0.68041930  0.58173375  0.83395678  1
  Ca2+  Ca12  1  0.08064360  0.32592943  0.16574299  1
  Ca2+  Ca13  1  0.08148686  0.32278000  0.49139213  1
  Ca2+  Ca14  1  0.08883789  0.32097140  0.82931940  1
  Ca2+  Ca15  1  0.07704985  0.82952755  0.16060634  1
  Ca2+  Ca16  1  0.08028990  0.82597364  0.50157439  1
  Ca2+  Ca17  1  0.07491801  0.83571754  0.82549643  1
  Ca2+  Ca18  1  0.58389991  0.33773992  0.16597390  1
  Ca2+  Ca19  1  0.58986493  0.33484355  0.49785668  1
  Ca2+  Ca20  1  0.58193614  0.32841077  0.82258711  1
  Ca2+  Ca21  1  0.58832986  0.82978851  0.16471508  1
  Ca2+  Ca22  1  0.57995741  0.82553690  0.49070185  1
  Ca2+  Ca23  1  0.58101941  0.83471749  0.83053391  1
  Ca2+  Ca24  1  0.33051517  0.42598039  0.16974528  1
  Ca2+  Ca25  1  0.33254505  0.42928811  0.50272706  1
  Ca2+  Ca26  1  0.33267910  0.42732958  0.83442555  1
  Ca2+  Ca27  1  0.32557001  0.92215852  0.16571204  1
  Ca2+  Ca28  1  0.32240835  0.92188710  0.51008944  1
  Ca2+  Ca29  1  0.31629629  0.92563793  0.83587140  1
  Ca2+  Ca30  1  0.83251960  0.42477112  0.17736037  1
  Ca2+  Ca31  1  0.83297656  0.42313052  0.50418032  1
  Ca2+  Ca32  1  0.83488656  0.42734159  0.83434264  1
  Ca2+  Ca33  1  0.82543791  0.90930450  0.16745946  1
  Ca2+  Ca34  1  0.82831146  0.90989811  0.50224460  1
  Ca2+  Ca35  1  0.83241664  0.91069686  0.83971657  1
  Ca2+  Ca36  1  0.41561286  0.16726747  0.15970447  1
  Ca2+  Ca37  1  0.42063350  0.16416043  0.50077332  1
  Ca2+  Ca38  1  0.41971277  0.15822799  0.82590092  1
  Ca2+  Ca39  1  0.42369285  0.65770946  0.16531689  1
  Ca2+  Ca40  1  0.42080770  0.66122314  0.49117851  1
  Ca2+  Ca41  1  0.41442606  0.66491046  0.82767041  1
  Ca2+  Ca42  1  0.92362197  0.17259117  0.16448018  1
  Ca2+  Ca43  1  0.92682410  0.17290269  0.49315376  1
  Ca2+  Ca44  1  0.92974391  0.16324855  0.82717720  1
  Ca2+  Ca45  1  0.91818458  0.66480201  0.16134132  1
  Ca2+  Ca46  1  0.92257094  0.66328151  0.49717413  1
  Ca2+  Ca47  1  0.91615357  0.67551117  0.82598296  1
  Al0+  Al48  1  -0.00174433  -0.00013577  -0.00269830  1
  Al0+  Al49  1  -0.00043469  -0.00123686  0.32994763  1
  Al0+  Al50  1  -0.00385277  -0.00105410  0.65991483  1
  Al0+  Al51  1  0.00168221  0.49944278  0.00142729  1
  Al0+  Al52  1  0.00303481  0.49904196  0.32812138  1
  Al0+  Al53  1  0.00130446  0.50044317  0.66915469  1
  Al0+  Al54  1  0.49916693  -0.00160310  0.00676924  1
  Al0+  Al55  1  0.49890779  -0.00066579  0.33641353  1
  Al0+  Al56  1  0.49904732  -0.00014499  0.66404385  1
  Al0+  Al57  1  0.50035839  0.49906040  0.00012701  1
  Al0+  Al58  1  0.50051543  0.49997659  0.33476308  1
  Al0+  Al59  1  0.49983100  0.49855979  0.67371544  1
  Al0+  Al60  1  0.25177328  0.25240773  -0.00177267  1
  Al0+  Al61  1  0.25306441  0.25030220  0.32913859  1
  Al0+  Al62  1  0.25447173  0.25270515  0.66379977  1
  Al0+  Al63  1  0.25287506  0.75265667  0.00870472  1
  Al0+  Al64  1  0.24991395  0.75485969  0.33323520  1
  Al0+  Al65  1  0.24911364  0.75407463  0.67248747  1
  Al0+  Al66  1  0.74926493  0.25008986  -0.00185046  1
  Al0+  Al67  1  0.74984247  0.24764577  0.33010242  1
  Al0+  Al68  1  0.74862415  0.24742063  0.66656537  1
  Al0+  Al69  1  0.74972549  0.74754184  0.00298685  1
  Al0+  Al70  1  0.74789038  0.74900717  0.33855292  1
  Al0+  Al71  1  0.74772675  0.74896096  0.66615170  1
  Al0+  Al72  1  0.31969054  0.07262075  0.01544980  1
  Al0+  Al73  1  0.31876022  0.57208946  0.34671523  1
  Al0+  Al74  1  0.67947395  0.92932102  0.01271311  1
  Al0+  Al75  1  0.82563768  0.57058909  0.34919206  1
  Al0+  Al76  1  0.07272586  0.68006359  0.31945381  1
  Al0+  Al77  1  0.07315400  0.17724905  0.31722817  1
  Al0+  Al78  1  0.57060904  0.17814618  0.65254450  1
  Al0+  Al79  1  0.67837032  0.92895326  0.34945197  1
  Al0+  Al80  1  0.07238300  0.67925181  0.65418601  1
  Al0+  Al81  1  0.06967802  0.18131298  0.98483955  1
  Al0+  Al82  1  0.07284051  0.18003983  0.65358393  1
  Al0+  Al83  1  0.17503082  0.93051423  0.01724973  1
  Al0+  Al84  1  0.68012556  0.42672310  0.68273021  1
  Al0+  Al85  1  0.56930475  0.67875212  0.31996573  1
  Al0+  Al86  1  0.17493536  0.93197779  0.68127442  1
  Al0+  Al87  1  0.32121022  0.57150618  0.01512689  1
  Al0+  Al88  1  0.92773793  0.32144187  0.31848293  1
  Al0+  Al89  1  0.92827947  0.81751693  0.98770798  1
  Al0+  Al90  1  0.82148311  0.56933269  0.01423911  1
  Al0+  Al91  1  0.32132240  0.07277630  0.67956495  1
  Al0+  Al92  1  0.82337364  0.57209248  0.68282845  1
  Al0+  Al93  1  0.31949762  0.57232846  0.67956286  1
  Al0+  Al94  1  0.92501784  0.82055724  0.64974155  1
  Al0+  Al95  1  0.67919778  0.42689429  0.34731595  1
  Si0+  Si96  1  0.17782517  0.42668410  0.68215194  1
  Si0+  Si97  1  0.43122584  0.32088753  0.31693851  1
  Si0+  Si98  1  0.56989479  0.67842618  0.98393894  1
  Si0+  Si99  1  0.42818435  0.82418172  0.31483745  1
  Si0+  Si100  1  0.92667640  0.82005726  0.31627545  1
  Si0+  Si101  1  0.82205065  0.07040999  0.34980190  1
  Si0+  Si102  1  0.18023754  0.42613180  0.34884248  1
  Si0+  Si103  1  0.43073251  0.32225594  0.98330235  1
  Si0+  Si104  1  0.56966343  0.17704976  0.98628940  1
  Si0+  Si105  1  0.82197340  0.07407107  0.01604203  1
  Si0+  Si106  1  0.81951888  0.07008490  0.68061385  1
  Si0+  Si107  1  0.92781568  0.32143955  0.65230761  1
  Si0+  Si108  1  0.42954991  0.82073332  0.65302116  1
  Si0+  Si109  1  0.67775298  0.92847815  0.68090349  1
  Si0+  Si110  1  0.17751569  0.93141169  0.34964986  1
  Si0+  Si111  1  0.92598383  0.32381549  0.98114999  1
  Si0+  Si112  1  0.32100754  0.07285251  0.34906744  1
  Si0+  Si113  1  0.43011088  0.32510553  0.64747225  1
  Si0+  Si114  1  0.67860421  0.42660935  0.01601324  1
  Si0+  Si115  1  0.17918654  0.42748477  0.01695072  1
  Si0+  Si116  1  0.42940413  0.82212230  0.98462343  1
  Si0+  Si117  1  0.57063652  0.17607804  0.31666003  1
  Si0+  Si118  1  0.07583699  0.67826709  0.98499042  1
  Si0+  Si119  1  0.56873234  0.67741962  0.65280706  1
  O2-  O120  1  0.24467697  0.00552393  0.06760286  1
  O2-  O121  1  0.24560947  0.00653869  0.38997205  1
  O2-  O122  1  0.24201073  0.00991822  0.72970545  1
  O2-  O123  1  0.24181534  0.50190390  0.06114932  1
  O2-  O124  1  0.24128460  0.50112629  0.39420009  1
  O2-  O125  1  0.24159508  0.50074272  0.72589886  1
  O2-  O126  1  0.75357069  0.00458158  0.05959230  1
  O2-  O127  1  0.75372092  0.00242523  0.39629091  1
  O2-  O128  1  0.75034257  -0.00289042  0.72342456  1
  O2-  O129  1  0.75030843  0.49088057  0.06000001  1
  O2-  O130  1  0.75522047  0.49487772  0.39631159  1
  O2-  O131  1  0.75299036  0.49753277  0.73225075  1
  O2-  O132  1  0.00075378  0.24962746  0.26884236  1
  O2-  O133  1  0.00079621  0.25748389  0.60758286  1
  O2-  O134  1  -0.00585182  0.25484290  0.93678838  1
  O2-  O135  1  -0.00713391  0.74903044  0.27225379  1
  O2-  O136  1  -0.00318480  0.74680853  0.60266464  1
  O2-  O137  1  0.00565104  0.74520468  0.94135692  1
  O2-  O138  1  0.50246904  0.24967234  0.27427398  1
  O2-  O139  1  0.49797616  0.25440551  0.60477136  1
  O2-  O140  1  0.50012434  0.24868338  0.94270301  1
  O2-  O141  1  0.49513041  0.75354200  0.27082873  1
  O2-  O142  1  0.49616430  0.74640680  0.60982888  1
  O2-  O143  1  0.49775161  0.74849687  0.94133072  1
  O2-  O144  1  0.06820976  0.18425256  0.09762811  1
  O2-  O145  1  0.07388726  0.17834505  0.43100601  1
  O2-  O146  1  0.07080473  0.18033378  0.76682821  1
  O2-  O147  1  0.07505694  0.67971941  0.09077299  1
  O2-  O148  1  0.07678936  0.68477799  0.43201936  1
  O2-  O149  1  0.07463058  0.68301444  0.76785252  1
  O2-  O150  1  0.56892319  0.17789388  0.09151219  1
  O2-  O151  1  0.56794208  0.17333683  0.42155052  1
  O2-  O152  1  0.56857625  0.17578615  0.76616008  1
  O2-  O153  1  0.56932043  0.67836969  0.08900260  1
  O2-  O154  1  0.56588425  0.68002249  0.43330374  1
  O2-  O155  1  0.56861720  0.68088627  0.75844091  1
  O2-  O156  1  0.18626117  0.42268052  0.24336536  1
  O2-  O157  1  0.18090456  0.42325714  0.57675178  1
  O2-  O158  1  0.18258666  0.42472690  0.91135995  1
  O2-  O159  1  0.17840481  0.93056595  0.24473660  1
  O2-  O160  1  0.17938978  0.93061379  0.56718547  1
  O2-  O161  1  0.17596625  0.93040267  0.90400100  1
  O2-  O162  1  0.67789982  0.43005109  0.23325885  1
  O2-  O163  1  0.68093527  0.42844008  0.56952186  1
  O2-  O164  1  0.67701119  0.42650870  0.91072922  1
  O2-  O165  1  0.67808644  0.93048835  0.23618478  1
  O2-  O166  1  0.67648582  0.93000919  0.57597033  1
  O2-  O167  1  0.67751314  0.93153972  0.89929536  1
  O2-  O168  1  0.43307933  0.32424097  0.08863776  1
  O2-  O169  1  0.42924953  0.31954386  0.42165463  1
  O2-  O170  1  0.43117476  0.32765226  0.75318521  1
  O2-  O171  1  0.43126324  0.82327939  0.08958453  1
  O2-  O172  1  0.42926640  0.82553166  0.42071966  1
  O2-  O173  1  0.43313732  0.82148158  0.75829978  1
  O2-  O174  1  0.92468141  0.32220184  0.08638130  1
  O2-  O175  1  0.92921876  0.31801477  0.43244726  1
  O2-  O176  1  0.92747704  0.31734128  0.75807981  1
  O2-  O177  1  0.92626221  0.81465494  0.10086067  1
  O2-  O178  1  0.92918976  0.82283140  0.42152415  1
  O2-  O179  1  0.92311049  0.82044547  0.76354218  1
  O2-  O180  1  0.32427882  0.07159178  0.24418036  1
  O2-  O181  1  0.32322254  0.06770503  0.56563622  1
  O2-  O182  1  0.32210318  0.06933690  0.90242467  1
  O2-  O183  1  0.32011667  0.56810250  0.23361348  1
  O2-  O184  1  0.32188055  0.57096175  0.56655296  1
  O2-  O185  1  0.32284952  0.56973784  0.90195160  1
  O2-  O186  1  0.81954456  0.06913876  0.24405670  1
  O2-  O187  1  0.81726610  0.07171297  0.57563665  1
  O2-  O188  1  0.81926172  0.07569336  0.91021365  1
  O2-  O189  1  0.82177900  0.57167608  0.23522368  1
  O2-  O190  1  0.82176400  0.57186817  0.56978157  1
  O2-  O191  1  0.81847068  0.57047821  0.90143905  1
  O2-  O192  1  0.04267804  0.07935780  0.26412658  1
  O2-  O193  1  0.03812303  0.08560501  0.59869231  1
  O2-  O194  1  0.03828573  0.08464739  0.93158946  1
  O2-  O195  1  0.05298593  0.58087072  0.26579032  1
  O2-  O196  1  0.05186853  0.57762036  0.60341666  1
  O2-  O197  1  0.05521534  0.58216632  0.94171306  1
  O2-  O198  1  0.53768810  0.08555970  0.26892315  1
  O2-  O199  1  0.53754315  0.08277711  0.59614934  1
  O2-  O200  1  0.54083148  0.08486662  0.94006699  1
  O2-  O201  1  0.53701612  0.58301042  0.26462779  1
  O2-  O202  1  0.54104187  0.58484064  0.60832503  1
  O2-  O203  1  0.54189535  0.58637962  0.93672379  1
  O2-  O204  1  0.17209356  0.20609203  0.26481944  1
  O2-  O205  1  0.17105109  0.20808041  0.60096737  1
  O2-  O206  1  0.16731567  0.21360684  0.93265113  1
  O2-  O207  1  0.16747312  0.71774239  0.26445725  1
  O2-  O208  1  0.17034844  0.71330795  0.60177426  1
  O2-  O209  1  0.17091620  0.70530119  0.94254364  1
  O2-  O210  1  0.66302125  0.19825171  0.26840799  1
  O2-  O211  1  0.66777672  0.20538155  0.59766067  1
  O2-  O212  1  0.66250824  0.20210974  0.93866053  1
  O2-  O213  1  0.66606504  0.71138209  0.26698765  1
  O2-  O214  1  0.65899172  0.70712465  0.60471248  1
  O2-  O215  1  0.66048527  0.70911806  0.93659492  1
  O2-  O216  1  0.08329328  0.44495336  0.06100459  1
  O2-  O217  1  0.08395539  0.44294163  0.39046334  1
  O2-  O218  1  0.08310382  0.44396561  0.72871202  1
  O2-  O219  1  0.07577725  0.95725041  0.06932219  1
  O2-  O220  1  0.08430749  0.95562912  0.39562329  1
  O2-  O221  1  0.07391304  0.95533017  0.72995819  1
  O2-  O222  1  0.58564730  0.45476638  0.06180571  1
  O2-  O223  1  0.58191768  0.45761146  0.40075242  1
  O2-  O224  1  0.58247378  0.45563983  0.73725329  1
  O2-  O225  1  0.58491238  0.96005119  0.07026843  1
  O2-  O226  1  0.58181484  0.96135447  0.40310473  1
  O2-  O227  1  0.58690368  0.95919017  0.72837480  1
  O2-  O228  1  0.21256896  0.33771340  0.06575282  1
  O2-  O229  1  0.21393631  0.33506389  0.39653287  1
  O2-  O230  1  0.21156045  0.33651352  0.73126824  1
  O2-  O231  1  0.20904444  0.83483355  0.07262688  1
  O2-  O232  1  0.21095989  0.84243867  0.39864773  1
  O2-  O233  1  0.21050543  0.83794400  0.73798292  1
  O2-  O234  1  0.69830948  0.33067853  0.06082467  1
  O2-  O235  1  0.69982302  0.32448566  0.39555428  1
  O2-  O236  1  0.70502616  0.32653457  0.73468336  1
  O2-  O237  1  0.71032644  0.83333436  0.06723287  1
  O2-  O238  1  0.70614066  0.83283751  0.40467877  1
  O2-  O239  1  0.70143400  0.83602138  0.72848813  1
  O2-  O240  1  0.45995057  0.41169082  0.26813036  1
  O2-  O241  1  0.45865232  0.41799193  0.60104815  1
  O2-  O242  1  0.46153339  0.41260676  0.93371367  1
  O2-  O243  1  0.45742988  0.91686257  0.26823094  1
  O2-  O244  1  0.46109969  0.90962867  0.60214589  1
  O2-  O245  1  0.46187586  0.91257805  0.93716166  1
  O2-  O246  1  0.95639170  0.41833945  0.26277490  1
  O2-  O247  1  0.94825121  0.41710489  0.60927619  1
  O2-  O248  1  0.95329632  0.41747280  0.93563361  1
  O2-  O249  1  0.95406638  0.91286785  0.26893436  1
  O2-  O250  1  0.95100951  0.91830145  0.59412611  1
  O2-  O251  1  0.95267973  0.91638264  0.93470076  1
  O2-  O252  1  0.34103649  0.29233499  0.26624438  1
  O2-  O253  1  0.33715572  0.30202788  0.59909724  1
  O2-  O254  1  0.33850724  0.29874439  0.93553350  1
  O2-  O255  1  0.33404259  0.80187990  0.26949705  1
  O2-  O256  1  0.33626184  0.79735344  0.60748376  1
  O2-  O257  1  0.33651020  0.79553593  0.93887105  1
  O2-  O258  1  0.82997083  0.29116178  0.26319039  1
  O2-  O259  1  0.83624519  0.29036231  0.60583892  1
  O2-  O260  1  0.83139539  0.29942496  0.93547088  1
  O2-  O261  1  0.83091796  0.79780075  0.27381351  1
  O2-  O262  1  0.82538014  0.79332626  0.59772908  1
  O2-  O263  1  0.83157327  0.78538289  0.93340681  1
  O2-  O264  1  0.41618660  0.04017524  0.07094828  1
  O2-  O265  1  0.41099280  0.04101610  0.39756740  1
  O2-  O266  1  0.41736197  0.03575841  0.73280350  1
  O2-  O267  1  0.41703042  0.53458975  0.06767105  1
  O2-  O268  1  0.41382414  0.53635151  0.39992285  1
  O2-  O269  1  0.41390515  0.53864743  0.73641896  1
  O2-  O270  1  0.91480854  0.04900790  0.06183609  1
  O2-  O271  1  0.91628349  0.04496429  0.39473117  1
  O2-  O272  1  0.91113559  0.04271563  0.72771881  1
  O2-  O273  1  0.92061573  0.54399537  0.06586615  1
  O2-  O274  1  0.92622382  0.54469429  0.39859167  1
  O2-  O275  1  0.92254551  0.54699686  0.73656122  1
  O2-  O276  1  0.29864836  0.17412953  0.06520776  1
  O2-  O277  1  0.29955886  0.16703282  0.39433081  1
  O2-  O278  1  0.30719456  0.17582039  0.72722552  1
  O2-  O279  1  0.29858877  0.66895181  0.07046283  1
  O2-  O280  1  0.29391584  0.67176992  0.39734672  1
  O2-  O281  1  0.29276698  0.66910543  0.73534652  1
  O2-  O282  1  0.79515353  0.16752124  0.06247486  1
  O2-  O283  1  0.79555141  0.16361024  0.39536188  1
  O2-  O284  1  0.79024050  0.15972363  0.73102405  1
  O2-  O285  1  0.78510752  0.66284187  0.06974686  1
  O2-  O286  1  0.79286077  0.66725011  0.40211468  1
  O2-  O287  1  0.78665692  0.66874922  0.73564309  1
