# generated using pymatgen
data_Ca2Al2SiO7
_symmetry_space_group_name_H-M   'P 1'
_cell_length_a   15.46895083
_cell_length_b   15.46768184
_cell_length_c   15.29049434
_cell_angle_alpha   90.00048295
_cell_angle_beta   90.01173215
_cell_angle_gamma   89.98650761
_symmetry_Int_Tables_number   1
_chemical_formula_structural   Ca2Al2SiO7
_chemical_formula_sum   'Ca48 Al48 Si24 O168'
_cell_volume   3658.53820536
_cell_formula_units_Z   24
loop_
 _symmetry_equiv_pos_site_id
 _symmetry_equiv_pos_as_xyz
  1  'x, y, z'
loop_
 _atom_type_symbol
 _atom_type_oxidation_number
  Ca2+  2.0
  Al0+  0.0
  Si0+  0.0
  O2-  -2.0
loop_
 _atom_site_type_symbol
 _atom_site_label
 _atom_site_symmetry_multiplicity
 _atom_site_fract_x
 _atom_site_fract_y
 _atom_site_fract_z
 _atom_site_occupancy
  Ca2+  Ca0  1  0.17048286  0.07512964  0.17897104  1
  Ca2+  Ca1  1  0.16834765  0.07584661  0.49759300  1
  Ca2+  Ca2  1  0.16557185  0.07005760  0.83870047  1
  Ca2+  Ca3  1  0.18066837  0.58315784  0.17488997  1
  Ca2+  Ca4  1  0.17340483  0.59482830  0.50082328  1
  Ca2+  Ca5  1  0.17380387  0.58251786  0.84000367  1
  Ca2+  Ca6  1  0.67041426  0.07984998  0.17817392  1
  Ca2+  Ca7  1  0.66596953  0.08004910  0.50041366  1
  Ca2+  Ca8  1  0.66405196  0.09101359  0.83747068  1
  Ca2+  Ca9  1  0.65795116  0.58087548  0.16902723  1
  Ca2+  Ca10  1  0.66250339  0.58621051  0.50302125  1
  Ca2+  Ca11  1  0.66760723  0.57839421  0.84627515  1
  Ca2+  Ca12  1  0.08454423  0.32569455  0.16760324  1
  Ca2+  Ca13  1  0.07587114  0.32883739  0.49210608  1
  Ca2+  Ca14  1  0.07353218  0.33694484  0.82566830  1
  Ca2+  Ca15  1  0.08458619  0.83681492  0.16865715  1
  Ca2+  Ca16  1  0.08523665  0.83035457  0.49069275  1
  Ca2+  Ca17  1  0.08685954  0.82950863  0.82771707  1
  Ca2+  Ca18  1  0.57510683  0.32829869  0.15920293  1
  Ca2+  Ca19  1  0.57155594  0.32680847  0.49808704  1
  Ca2+  Ca20  1  0.57825826  0.33017934  0.83182011  1
  Ca2+  Ca21  1  0.58061525  0.82867761  0.16659562  1
  Ca2+  Ca22  1  0.58104527  0.82400930  0.48806454  1
  Ca2+  Ca23  1  0.58434993  0.81843315  0.82878214  1
  Ca2+  Ca24  1  0.34826173  0.42577971  0.17071140  1
  Ca2+  Ca25  1  0.33875490  0.41898288  0.49867210  1
  Ca2+  Ca26  1  0.34218687  0.42006596  0.83847902  1
  Ca2+  Ca27  1  0.32599668  0.91970502  0.17966834  1
  Ca2+  Ca28  1  0.32453709  0.91036851  0.50020687  1
  Ca2+  Ca29  1  0.32083711  0.91271669  0.83827773  1
  Ca2+  Ca30  1  0.82517851  0.42379804  0.16701538  1
  Ca2+  Ca31  1  0.83259901  0.41656818  0.50589229  1
  Ca2+  Ca32  1  0.82723966  0.42305516  0.84311313  1
  Ca2+  Ca33  1  0.82607124  0.91768192  0.17978029  1
  Ca2+  Ca34  1  0.83254405  0.91575567  0.49336049  1
  Ca2+  Ca35  1  0.83003448  0.91927217  0.83679221  1
  Ca2+  Ca36  1  0.41351323  0.17539501  0.16081629  1
  Ca2+  Ca37  1  0.40873739  0.17598720  0.49292692  1
  Ca2+  Ca38  1  0.42710937  0.17759484  0.82718805  1
  Ca2+  Ca39  1  0.42048508  0.66672994  0.16785713  1
  Ca2+  Ca40  1  0.42482296  0.67106159  0.49001196  1
  Ca2+  Ca41  1  0.42750912  0.65832061  0.83331557  1
  Ca2+  Ca42  1  0.92329855  0.15341859  0.16936493  1
  Ca2+  Ca43  1  0.91962321  0.16782291  0.49313288  1
  Ca2+  Ca44  1  0.91623293  0.17664491  0.82668391  1
  Ca2+  Ca45  1  0.91977245  0.67040618  0.16692430  1
  Ca2+  Ca46  1  0.93232513  0.67280585  0.49002103  1
  Ca2+  Ca47  1  0.92290137  0.66408330  0.82762074  1
  Al0+  Al48  1  -0.00150774  -0.00231387  0.00051671  1
  Al0+  Al49  1  -0.00100939  0.00080195  0.33455991  1
  Al0+  Al50  1  -0.00185766  0.00064785  0.67393771  1
  Al0+  Al51  1  0.00077070  0.50054859  0.00483306  1
  Al0+  Al52  1  -0.00081327  0.49936936  0.32828343  1
  Al0+  Al53  1  0.00119614  0.50144838  0.65837107  1
  Al0+  Al54  1  0.49787681  -0.00048437  -0.00577529  1
  Al0+  Al55  1  0.50039780  0.00069062  0.33920514  1
  Al0+  Al56  1  0.50035840  -0.00093272  0.66762698  1
  Al0+  Al57  1  0.50096597  0.49999212  0.00084131  1
  Al0+  Al58  1  0.49966370  0.49821797  0.33349400  1
  Al0+  Al59  1  0.50126572  0.49844477  0.66042546  1
  Al0+  Al60  1  0.24798876  0.24829947  -0.00824484  1
  Al0+  Al61  1  0.24644015  0.25188325  0.32768761  1
  Al0+  Al62  1  0.24890448  0.25013158  0.66670412  1
  Al0+  Al63  1  0.24794206  0.74830847  0.00795626  1
  Al0+  Al64  1  0.25277579  0.74802738  0.33447823  1
  Al0+  Al65  1  0.25138205  0.74882872  0.67119303  1
  Al0+  Al66  1  0.75252312  0.25142882  0.00251075  1
  Al0+  Al67  1  0.74878659  0.25288630  0.33800666  1
  Al0+  Al68  1  0.74903915  0.25150535  0.66016938  1
  Al0+  Al69  1  0.75268590  0.75291415  -0.00189310  1
  Al0+  Al70  1  0.75271566  0.74751490  0.33100534  1
  Al0+  Al71  1  0.75240692  0.75084911  0.66481047  1
  Al0+  Al72  1  0.18048706  0.92877214  0.34911637  1
  Al0+  Al73  1  0.92978017  0.32172455  0.65377263  1
  Al0+  Al74  1  0.32133430  0.56874209  0.34917621  1
  Al0+  Al75  1  0.82031194  0.07244794  0.34953123  1
  Al0+  Al76  1  0.32155531  0.07536708  0.34695992  1
  Al0+  Al77  1  0.07397396  0.67779506  0.31547976  1
  Al0+  Al78  1  0.67808596  0.92645559  0.34839107  1
  Al0+  Al79  1  0.57259510  0.67948131  0.65422033  1
  Al0+  Al80  1  0.42857848  0.32153602  0.98419605  1
  Al0+  Al81  1  0.06765389  0.18049475  0.32036889  1
  Al0+  Al82  1  0.57155187  0.17680187  0.64950099  1
  Al0+  Al83  1  0.93120157  0.82097519  0.31785585  1
  Al0+  Al84  1  0.57159497  0.67820642  0.31805755  1
  Al0+  Al85  1  0.42718171  0.32001018  0.64943799  1
  Al0+  Al86  1  0.82319185  0.57460101  0.01562564  1
  Al0+  Al87  1  0.32098751  0.56751932  0.01349116  1
  Al0+  Al88  1  0.07218763  0.68110103  0.65483493  1
  Al0+  Al89  1  0.17847678  0.92951424  0.01594722  1
  Al0+  Al90  1  0.57115814  0.68219327  0.98701427  1
  Al0+  Al91  1  0.67976560  0.42947974  0.01588849  1
  Al0+  Al92  1  0.18018851  0.92950273  0.68173529  1
  Al0+  Al93  1  0.42948184  0.82404666  0.31982007  1
  Al0+  Al94  1  0.42835211  0.31824949  0.31850238  1
  Al0+  Al95  1  0.57360815  0.17711112  0.98732579  1
  Si0+  Si96  1  0.67861121  0.43070499  0.35176440  1
  Si0+  Si97  1  0.93011940  0.82203104  0.98238322  1
  Si0+  Si98  1  0.32184884  0.56811684  0.68186999  1
  Si0+  Si99  1  0.93164717  0.32236859  0.98596647  1
  Si0+  Si100  1  0.81984888  0.07130330  0.01267371  1
  Si0+  Si101  1  0.57316015  0.17838588  0.31872926  1
  Si0+  Si102  1  0.67768784  0.92950868  0.01134971  1
  Si0+  Si103  1  0.07012920  0.17609072  0.65195760  1
  Si0+  Si104  1  0.17592800  0.42480991  0.01542137  1
  Si0+  Si105  1  0.92846276  0.82465245  0.65065700  1
  Si0+  Si106  1  0.82301729  0.56983330  0.35041082  1
  Si0+  Si107  1  0.92384332  0.32314241  0.31343902  1
  Si0+  Si108  1  0.32321482  0.07471318  0.68579356  1
  Si0+  Si109  1  0.42428246  0.82141157  0.98323401  1
  Si0+  Si110  1  0.07097551  0.67873523  0.98535235  1
  Si0+  Si111  1  0.17658524  0.42863569  0.67969700  1
  Si0+  Si112  1  0.67842098  0.92665906  0.68328366  1
  Si0+  Si113  1  0.42801600  0.82055357  0.65334613  1
  Si0+  Si114  1  0.68007547  0.43066760  0.68113913  1
  Si0+  Si115  1  0.81789122  0.07240349  0.68327732  1
  Si0+  Si116  1  0.82303003  0.57110036  0.67932729  1
  Si0+  Si117  1  0.06871939  0.17585168  0.98321129  1
  Si0+  Si118  1  0.32105443  0.07204425  0.01400619  1
  Si0+  Si119  1  0.17536471  0.42896882  0.35006753  1
  O2-  O120  1  0.25472352  0.00276163  0.05999296  1
  O2-  O121  1  0.25517548  -0.00138966  0.39864091  1
  O2-  O122  1  0.25468223  0.00462476  0.72947392  1
  O2-  O123  1  0.25022580  0.48739816  0.05810810  1
  O2-  O124  1  0.24186075  0.49858346  0.39587165  1
  O2-  O125  1  0.25062858  0.49601119  0.72316137  1
  O2-  O126  1  0.74118816  0.00805508  0.05168744  1
  O2-  O127  1  0.74792179  0.00090421  0.39953121  1
  O2-  O128  1  0.74594256  0.00202007  0.72588662  1
  O2-  O129  1  0.74710294  0.50677528  0.06552293  1
  O2-  O130  1  0.75075732  0.50098087  0.39391840  1
  O2-  O131  1  0.74977959  0.50352748  0.72345380  1
  O2-  O132  1  -0.00991046  0.25167939  0.27061782  1
  O2-  O133  1  0.00467012  0.24752087  0.60791903  1
  O2-  O134  1  0.00233668  0.25171231  0.94156990  1
  O2-  O135  1  0.00463725  0.75213376  0.26518247  1
  O2-  O136  1  0.00012240  0.75834499  0.60930853  1
  O2-  O137  1  -0.00037081  0.74886509  0.94128372  1
  O2-  O138  1  0.49906517  0.23949006  0.27317136  1
  O2-  O139  1  0.49335110  0.24220448  0.60052401  1
  O2-  O140  1  0.50167606  0.24902335  0.93675291  1
  O2-  O141  1  0.50305644  0.75386674  0.26930388  1
  O2-  O142  1  0.50144533  0.75737551  0.60950910  1
  O2-  O143  1  0.49493301  0.75467064  0.93823041  1
  O2-  O144  1  0.06655044  0.17446846  0.08781970  1
  O2-  O145  1  0.06666529  0.18395215  0.43370019  1
  O2-  O146  1  0.06584704  0.17659264  0.75825050  1
  O2-  O147  1  0.07037124  0.67891666  0.08943791  1
  O2-  O148  1  0.07053427  0.67769098  0.42954320  1
  O2-  O149  1  0.07018434  0.67906693  0.76866926  1
  O2-  O150  1  0.57459213  0.17567804  0.10042478  1
  O2-  O151  1  0.57633086  0.18424764  0.42396454  1
  O2-  O152  1  0.57427136  0.18248130  0.76323163  1
  O2-  O153  1  0.57216209  0.68495969  0.09895963  1
  O2-  O154  1  0.56968802  0.67803194  0.43214890  1
  O2-  O155  1  0.57245347  0.67781413  0.76775189  1
  O2-  O156  1  0.17444760  0.42916812  0.24444590  1
  O2-  O157  1  0.17348101  0.42928553  0.57539605  1
  O2-  O158  1  0.16947252  0.42963666  0.90946883  1
  O2-  O159  1  0.17984615  0.93268219  0.23552271  1
  O2-  O160  1  0.17930907  0.92872393  0.56975174  1
  O2-  O161  1  0.17733840  0.92992172  0.90203227  1
  O2-  O162  1  0.67967932  0.42970718  0.24686667  1
  O2-  O163  1  0.68143560  0.43173710  0.57610513  1
  O2-  O164  1  0.68345795  0.42910198  0.90141709  1
  O2-  O165  1  0.68024305  0.92823801  0.23399481  1
  O2-  O166  1  0.68172985  0.92298025  0.57923526  1
  O2-  O167  1  0.68288652  0.92668314  0.90583600  1
  O2-  O168  1  0.42886845  0.31880609  0.09742799  1
  O2-  O169  1  0.43025170  0.31945529  0.43156385  1
  O2-  O170  1  0.43106624  0.32336551  0.76282350  1
  O2-  O171  1  0.42552679  0.82308393  0.08805448  1
  O2-  O172  1  0.42901342  0.81913419  0.43393893  1
  O2-  O173  1  0.42709114  0.81676235  0.75939895  1
  O2-  O174  1  0.93269058  0.32230270  0.09039209  1
  O2-  O175  1  0.92594731  0.32493832  0.41935063  1
  O2-  O176  1  0.93011991  0.32159860  0.76754769  1
  O2-  O177  1  0.93009701  0.82651186  0.08641509  1
  O2-  O178  1  0.93154242  0.81786333  0.43191020  1
  O2-  O179  1  0.92640126  0.82339908  0.75685160  1
  O2-  O180  1  0.31686384  0.07663716  0.23299536  1
  O2-  O181  1  0.32069734  0.07632488  0.58084204  1
  O2-  O182  1  0.31742100  0.07041638  0.90820652  1
  O2-  O183  1  0.32301060  0.56514080  0.23618665  1
  O2-  O184  1  0.32109719  0.56934438  0.57731434  1
  O2-  O185  1  0.31838129  0.56861413  0.89939042  1
  O2-  O186  1  0.81765541  0.07231858  0.23513193  1
  O2-  O187  1  0.82083428  0.07189804  0.57917973  1
  O2-  O188  1  0.82335582  0.06994534  0.90703671  1
  O2-  O189  1  0.82467624  0.56711382  0.24560529  1
  O2-  O190  1  0.82321113  0.56908076  0.57457946  1
  O2-  O191  1  0.82594312  0.57018312  0.90099469  1
  O2-  O192  1  0.03731509  0.08471305  0.26500140  1
  O2-  O193  1  0.03952477  0.08389119  0.60716073  1
  O2-  O194  1  0.03393119  0.08650180  0.93449570  1
  O2-  O195  1  0.04208904  0.57998242  0.26309367  1
  O2-  O196  1  0.04089206  0.58720299  0.59738333  1
  O2-  O197  1  0.04377154  0.58583513  0.93846135  1
  O2-  O198  1  0.55796566  0.08119300  0.27834283  1
  O2-  O199  1  0.55335469  0.07374791  0.60296856  1
  O2-  O200  1  0.54693646  0.07887066  0.93073380  1
  O2-  O201  1  0.53796975  0.58120256  0.26654828  1
  O2-  O202  1  0.54120751  0.58455431  0.59935080  1
  O2-  O203  1  0.54167107  0.58464295  0.93395383  1
  O2-  O204  1  0.16034886  0.21475340  0.26131074  1
  O2-  O205  1  0.16503470  0.19745570  0.60912775  1
  O2-  O206  1  0.16092352  0.19734977  0.93396952  1
  O2-  O207  1  0.17381929  0.70174845  0.26605714  1
  O2-  O208  1  0.16994976  0.70971406  0.60346855  1
  O2-  O209  1  0.16263566  0.70784596  0.93790362  1
  O2-  O210  1  0.66482199  0.21117003  0.27211358  1
  O2-  O211  1  0.66721654  0.21041650  0.59534048  1
  O2-  O212  1  0.67364592  0.20609398  0.93542789  1
  O2-  O213  1  0.67211287  0.69918161  0.26801112  1
  O2-  O214  1  0.67059126  0.70715065  0.60169232  1
  O2-  O215  1  0.66808169  0.71421319  0.93213560  1
  O2-  O216  1  0.08556761  0.45373298  0.06559562  1
  O2-  O217  1  0.07983760  0.45119564  0.39466548  1
  O2-  O218  1  0.08581339  0.46101232  0.72846700  1
  O2-  O219  1  0.08150274  0.96275447  0.06703787  1
  O2-  O220  1  0.08249628  0.95993034  0.40068775  1
  O2-  O221  1  0.08283011  0.95958340  0.73754879  1
  O2-  O222  1  0.58113802  0.45470283  0.06797006  1
  O2-  O223  1  0.58833606  0.46035182  0.40023968  1
  O2-  O224  1  0.58774924  0.45825151  0.72756894  1
  O2-  O225  1  0.58226597  0.94819032  0.05454837  1
  O2-  O226  1  0.58023789  0.95088211  0.40389225  1
  O2-  O227  1  0.58470785  0.94745545  0.73062032  1
  O2-  O228  1  0.19417221  0.32715188  0.05550610  1
  O2-  O229  1  0.20231463  0.33603384  0.39573162  1
  O2-  O230  1  0.19730431  0.33501937  0.72799106  1
  O2-  O231  1  0.20451357  0.83242122  0.06897731  1
  O2-  O232  1  0.20713875  0.82941218  0.40065180  1
  O2-  O233  1  0.21283741  0.83318990  0.73804143  1
  O2-  O234  1  0.71406547  0.33319862  0.07034674  1
  O2-  O235  1  0.70677784  0.34005484  0.40132477  1
  O2-  O236  1  0.71052993  0.33895255  0.72716825  1
  O2-  O237  1  0.71352350  0.84199593  0.06046412  1
  O2-  O238  1  0.71188341  0.82842637  0.40044549  1
  O2-  O239  1  0.71268297  0.83679957  0.73314570  1
  O2-  O240  1  0.46686624  0.41245120  0.26631221  1
  O2-  O241  1  0.46166619  0.41572252  0.59520450  1
  O2-  O242  1  0.45873775  0.41956069  0.93164635  1
  O2-  O243  1  0.45411397  0.92427260  0.26813444  1
  O2-  O244  1  0.44555473  0.91662808  0.61090971  1
  O2-  O245  1  0.44588230  0.91521178  0.93509476  1
  O2-  O246  1  0.95257076  0.41464043  0.26571369  1
  O2-  O247  1  0.96048971  0.41606170  0.59628657  1
  O2-  O248  1  0.96020263  0.41414129  0.93773554  1
  O2-  O249  1  0.95373173  0.92106074  0.26640848  1
  O2-  O250  1  0.95104791  0.91995543  0.60833044  1
  O2-  O251  1  0.96019963  0.91252470  0.93184070  1
  O2-  O252  1  0.33043492  0.29548464  0.26434181  1
  O2-  O253  1  0.32523897  0.29882591  0.60013839  1
  O2-  O254  1  0.32884897  0.29620286  0.92980016  1
  O2-  O255  1  0.33256795  0.79288406  0.26674188  1
  O2-  O256  1  0.33685884  0.78897993  0.60692476  1
  O2-  O257  1  0.33068557  0.79144049  0.93876152  1
  O2-  O258  1  0.82888828  0.30048718  0.27000755  1
  O2-  O259  1  0.83488197  0.29169582  0.59806773  1
  O2-  O260  1  0.84050188  0.29367278  0.93778719  1
  O2-  O261  1  0.83454404  0.78884708  0.26366160  1
  O2-  O262  1  0.83652500  0.79725328  0.60351232  1
  O2-  O263  1  0.83887913  0.79674661  0.93198247  1
  O2-  O264  1  0.41656392  0.05028491  0.05738475  1
  O2-  O265  1  0.42230202  0.05769024  0.39842922  1
  O2-  O266  1  0.41788816  0.04995295  0.73096812  1
  O2-  O267  1  0.41789654  0.54104532  0.06747284  1
  O2-  O268  1  0.41629378  0.53315874  0.40397798  1
  O2-  O269  1  0.41422902  0.53818217  0.72795360  1
  O2-  O270  1  0.90825582  0.03503188  0.06090987  1
  O2-  O271  1  0.91794110  0.04411006  0.40324531  1
  O2-  O272  1  0.90854233  0.04457519  0.73471161  1
  O2-  O273  1  0.91919360  0.54094481  0.07018533  1
  O2-  O274  1  0.91440819  0.53870883  0.39767233  1
  O2-  O275  1  0.91458166  0.54023487  0.72636258  1
  O2-  O276  1  0.29365929  0.16644223  0.05727242  1
  O2-  O277  1  0.28355632  0.17158755  0.39945409  1
  O2-  O278  1  0.29648796  0.16823319  0.73290831  1
  O2-  O279  1  0.28669227  0.66168210  0.06882564  1
  O2-  O280  1  0.29397433  0.66550097  0.40414498  1
  O2-  O281  1  0.29395456  0.65871724  0.73167883  1
  O2-  O282  1  0.80345373  0.16487880  0.06005114  1
  O2-  O283  1  0.79461865  0.17230222  0.40194564  1
  O2-  O284  1  0.79027419  0.16553115  0.72966817  1
  O2-  O285  1  0.80154942  0.67591316  0.06392286  1
  O2-  O286  1  0.79847635  0.66196735  0.39762850  1
  O2-  O287  1  0.80048110  0.66495434  0.72595217  1
