# generated using pymatgen
data_Ca2Al2SiO7
_symmetry_space_group_name_H-M   'P 1'
_cell_length_a   15.45903036
_cell_length_b   15.45766488
_cell_length_c   15.28443580
_cell_angle_alpha   89.99824457
_cell_angle_beta   90.01368531
_cell_angle_gamma   90.00437034
_symmetry_Int_Tables_number   1
_chemical_formula_structural   Ca2Al2SiO7
_chemical_formula_sum   'Ca48 Al48 Si24 O168'
_cell_volume   3652.37646798
_cell_formula_units_Z   24
loop_
 _symmetry_equiv_pos_site_id
 _symmetry_equiv_pos_as_xyz
  1  'x, y, z'
loop_
 _atom_type_symbol
 _atom_type_oxidation_number
  Ca2+  2.0
  Al0+  0.0
  Si0+  0.0
  O2-  -2.0
loop_
 _atom_site_type_symbol
 _atom_site_label
 _atom_site_symmetry_multiplicity
 _atom_site_fract_x
 _atom_site_fract_y
 _atom_site_fract_z
 _atom_site_occupancy
  Ca2+  Ca0  1  0.16781350  0.08136397  0.16443507  1
  Ca2+  Ca1  1  0.16438408  0.08130173  0.50610085  1
  Ca2+  Ca2  1  0.16554069  0.08188069  0.84347924  1
  Ca2+  Ca3  1  0.16100539  0.57278465  0.17352104  1
  Ca2+  Ca4  1  0.16711449  0.58919264  0.50431960  1
  Ca2+  Ca5  1  0.16923734  0.58403313  0.83719222  1
  Ca2+  Ca6  1  0.65795031  0.07202223  0.16868405  1
  Ca2+  Ca7  1  0.67450202  0.07217696  0.50504897  1
  Ca2+  Ca8  1  0.67413592  0.07969052  0.83936019  1
  Ca2+  Ca9  1  0.66971041  0.57675712  0.17127323  1
  Ca2+  Ca10  1  0.66453096  0.57849292  0.50988892  1
  Ca2+  Ca11  1  0.67720503  0.57776262  0.83632074  1
  Ca2+  Ca12  1  0.08614194  0.33288464  0.15743392  1
  Ca2+  Ca13  1  0.07618651  0.33511909  0.49880456  1
  Ca2+  Ca14  1  0.08045254  0.32540652  0.82794039  1
  Ca2+  Ca15  1  0.07932947  0.82985191  0.16371353  1
  Ca2+  Ca16  1  0.07130984  0.82101297  0.49662150  1
  Ca2+  Ca17  1  0.07732009  0.83075005  0.82325910  1
  Ca2+  Ca18  1  0.58776576  0.32974434  0.15804966  1
  Ca2+  Ca19  1  0.58750270  0.33754430  0.49577597  1
  Ca2+  Ca20  1  0.59314789  0.33243833  0.83107627  1
  Ca2+  Ca21  1  0.58586222  0.83380098  0.16508293  1
  Ca2+  Ca22  1  0.58338938  0.81838423  0.49010360  1
  Ca2+  Ca23  1  0.58442759  0.82769106  0.82928986  1
  Ca2+  Ca24  1  0.31980579  0.41254916  0.16987372  1
  Ca2+  Ca25  1  0.32518892  0.42510867  0.50483228  1
  Ca2+  Ca26  1  0.32703399  0.42376504  0.83537429  1
  Ca2+  Ca27  1  0.33400030  0.92038308  0.16755271  1
  Ca2+  Ca28  1  0.33427202  0.91126613  0.50104733  1
  Ca2+  Ca29  1  0.32234974  0.92299177  0.84390886  1
  Ca2+  Ca30  1  0.82566579  0.42152322  0.16906719  1
  Ca2+  Ca31  1  0.82341588  0.42302424  0.51045678  1
  Ca2+  Ca32  1  0.83401324  0.42619226  0.83525548  1
  Ca2+  Ca33  1  0.82386636  0.91587726  0.17173456  1
  Ca2+  Ca34  1  0.83669895  0.91412839  0.50385739  1
  Ca2+  Ca35  1  0.83430855  0.91955741  0.83593144  1
  Ca2+  Ca36  1  0.42146409  0.16690511  0.15622637  1
  Ca2+  Ca37  1  0.41940878  0.17093138  0.49674270  1
  Ca2+  Ca38  1  0.42108881  0.16466331  0.83583927  1
  Ca2+  Ca39  1  0.42280478  0.67043898  0.16864708  1
  Ca2+  Ca40  1  0.42610510  0.66434406  0.49531993  1
  Ca2+  Ca41  1  0.42284387  0.66322521  0.82365473  1
  Ca2+  Ca42  1  0.92300296  0.17145434  0.15838006  1
  Ca2+  Ca43  1  0.91439745  0.17013758  0.50521333  1
  Ca2+  Ca44  1  0.92571696  0.16985682  0.82162460  1
  Ca2+  Ca45  1  0.91448067  0.66798634  0.16715400  1
  Ca2+  Ca46  1  0.91698266  0.67154683  0.49635532  1
  Ca2+  Ca47  1  0.91762351  0.66851943  0.82375701  1
  Al0+  Al48  1  -0.00001035  -0.00048719  0.00084030  1
  Al0+  Al49  1  0.00200004  0.00104455  0.32984441  1
  Al0+  Al50  1  0.00014522  -0.00047618  0.66246768  1
  Al0+  Al51  1  0.00064218  0.50251854  0.00674609  1
  Al0+  Al52  1  -0.00198849  0.49735835  0.33451644  1
  Al0+  Al53  1  -0.00045937  0.49710412  0.66297477  1
  Al0+  Al54  1  0.49943067  0.00137007  -0.00006073  1
  Al0+  Al55  1  0.50105966  0.00076151  0.33755980  1
  Al0+  Al56  1  0.49905500  0.00137483  0.66660554  1
  Al0+  Al57  1  0.50035346  0.50091007  0.00213367  1
  Al0+  Al58  1  0.49678032  0.49878980  0.33011692  1
  Al0+  Al59  1  0.49625095  0.49830227  0.67157231  1
  Al0+  Al60  1  0.25177586  0.25100702  0.00146615  1
  Al0+  Al61  1  0.25038202  0.25027963  0.33927506  1
  Al0+  Al62  1  0.25278948  0.24903650  0.66283991  1
  Al0+  Al63  1  0.25017522  0.75120802  0.00364185  1
  Al0+  Al64  1  0.25056488  0.75073121  0.32491078  1
  Al0+  Al65  1  0.25005703  0.75143757  0.66892514  1
  Al0+  Al66  1  0.75090554  0.25133305  -0.00288976  1
  Al0+  Al67  1  0.75145109  0.24978847  0.33557435  1
  Al0+  Al68  1  0.75044787  0.24530069  0.66897890  1
  Al0+  Al69  1  0.75060189  0.75095535  0.00617071  1
  Al0+  Al70  1  0.75010791  0.75000146  0.32895597  1
  Al0+  Al71  1  0.74715384  0.74815641  0.66210679  1
  Al0+  Al72  1  0.32008272  0.07085823  0.01487330  1
  Al0+  Al73  1  0.18161670  0.43179526  0.01094044  1
  Al0+  Al74  1  0.43027915  0.82356039  0.31682025  1
  Al0+  Al75  1  0.67751327  0.42864560  0.34674718  1
  Al0+  Al76  1  0.67961188  0.92866278  0.34867405  1
  Al0+  Al77  1  0.56825108  0.67780646  0.65597316  1
  Al0+  Al78  1  0.92903060  0.82313648  0.31484213  1
  Al0+  Al79  1  0.82179690  0.06724332  0.68056468  1
  Al0+  Al80  1  0.07000603  0.67688972  0.31635608  1
  Al0+  Al81  1  0.07097470  0.17994558  0.98758554  1
  Al0+  Al82  1  0.07325821  0.17895812  0.65069895  1
  Al0+  Al83  1  0.92709000  0.81993479  0.65320024  1
  Al0+  Al84  1  0.82244874  0.57257171  0.67965091  1
  Al0+  Al85  1  0.57137032  0.67581758  0.31604213  1
  Al0+  Al86  1  0.82185770  0.57251957  0.01696277  1
  Al0+  Al87  1  0.67732543  0.42774957  0.68200067  1
  Al0+  Al88  1  0.07336291  0.67701313  0.65473049  1
  Al0+  Al89  1  0.67988442  0.93127605  0.01194241  1
  Al0+  Al90  1  0.57160587  0.17919903  0.98548461  1
  Al0+  Al91  1  0.17611275  0.92767091  0.01628944  1
  Al0+  Al92  1  0.92688520  0.32053023  0.65145477  1
  Al0+  Al93  1  0.31790862  0.57192776  0.67924195  1
  Al0+  Al94  1  0.17734241  0.42811322  0.34968408  1
  Al0+  Al95  1  0.67909307  0.42800944  0.01535246  1
  Si0+  Si96  1  0.42814826  0.32371268  0.98230634  1
  Si0+  Si97  1  0.32107310  0.07072099  0.35082011  1
  Si0+  Si98  1  0.31952434  0.57292699  0.34856390  1
  Si0+  Si99  1  0.82486308  0.07187595  0.34951502  1
  Si0+  Si100  1  0.92825847  0.82000885  0.98511144  1
  Si0+  Si101  1  0.42967045  0.32021835  0.65081392  1
  Si0+  Si102  1  0.67583180  0.92720971  0.68239400  1
  Si0+  Si103  1  0.57128686  0.17731413  0.65038571  1
  Si0+  Si104  1  0.82321403  0.07320228  0.01556024  1
  Si0+  Si105  1  0.17779043  0.42552768  0.68208256  1
  Si0+  Si106  1  0.42811186  0.82408486  0.65263113  1
  Si0+  Si107  1  0.92824417  0.31876796  0.31722532  1
  Si0+  Si108  1  0.07376600  0.18043403  0.31725466  1
  Si0+  Si109  1  0.57159032  0.67951251  0.98438352  1
  Si0+  Si110  1  0.42715147  0.31961353  0.31865689  1
  Si0+  Si111  1  0.92893998  0.32469074  0.98378788  1
  Si0+  Si112  1  0.32428257  0.57483415  0.01870335  1
  Si0+  Si113  1  0.82014610  0.57097147  0.35091302  1
  Si0+  Si114  1  0.57129659  0.18117818  0.32057375  1
  Si0+  Si115  1  0.07163721  0.67880794  0.98560555  1
  Si0+  Si116  1  0.32299573  0.07312296  0.68211775  1
  Si0+  Si117  1  0.18060935  0.93122960  0.67953712  1
  Si0+  Si118  1  0.42882450  0.82119085  0.98385378  1
  Si0+  Si119  1  0.17883935  0.92870787  0.34916316  1
  O2-  O120  1  0.24792782  0.00022684  0.06651596  1
  O2-  O121  1  0.25150923  -0.00177477  0.39275311  1
  O2-  O122  1  0.25015457  0.00377677  0.72222179  1
  O2-  O123  1  0.25506913  0.50602548  0.06120008  1
  O2-  O124  1  0.24752952  0.50804564  0.39374816  1
  O2-  O125  1  0.23904827  0.50128507  0.72583680  1
  O2-  O126  1  0.75138757  0.00853248  0.06037260  1
  O2-  O127  1  0.75945011  -0.00072462  0.39284841  1
  O2-  O128  1  0.74817973  -0.00855091  0.72709027  1
  O2-  O129  1  0.74970796  0.49998358  0.06620217  1
  O2-  O130  1  0.74615853  0.50754178  0.39434572  1
  O2-  O131  1  0.75159928  0.49877012  0.72956356  1
  O2-  O132  1  0.00220444  0.25049294  0.27502411  1
  O2-  O133  1  0.00236084  0.25160073  0.60029803  1
  O2-  O134  1  -0.00437879  0.25324232  0.94071960  1
  O2-  O135  1  -0.00062400  0.74941491  0.26455221  1
  O2-  O136  1  -0.00483115  0.74270278  0.60536004  1
  O2-  O137  1  0.00182258  0.75106739  0.94376279  1
  O2-  O138  1  0.50281234  0.25372432  0.27698911  1
  O2-  O139  1  0.50389240  0.25207195  0.60854471  1
  O2-  O140  1  0.50087782  0.25846451  0.93857243  1
  O2-  O141  1  0.50364178  0.75303833  0.26643733  1
  O2-  O142  1  0.49619447  0.75528426  0.60914040  1
  O2-  O143  1  0.49783896  0.74831773  0.94166168  1
  O2-  O144  1  0.06938212  0.18230468  0.10134502  1
  O2-  O145  1  0.07483592  0.18018232  0.42201791  1
  O2-  O146  1  0.07479144  0.17954189  0.76439679  1
  O2-  O147  1  0.07117951  0.67814036  0.09035579  1
  O2-  O148  1  0.06992696  0.67930995  0.42986825  1
  O2-  O149  1  0.07686531  0.68344740  0.76869192  1
  O2-  O150  1  0.56799649  0.17823017  0.09919586  1
  O2-  O151  1  0.56903634  0.18157502  0.42593282  1
  O2-  O152  1  0.56797601  0.17334634  0.75513485  1
  O2-  O153  1  0.57006669  0.68033956  0.08925409  1
  O2-  O154  1  0.56708025  0.67351056  0.42983390  1
  O2-  O155  1  0.56686968  0.68006472  0.76954600  1
  O2-  O156  1  0.18152772  0.42375577  0.23645668  1
  O2-  O157  1  0.18387531  0.42212241  0.57664697  1
  O2-  O158  1  0.18238592  0.43354612  0.89790184  1
  O2-  O159  1  0.17816252  0.93280853  0.24443653  1
  O2-  O160  1  0.18392400  0.93118596  0.57427540  1
  O2-  O161  1  0.17774061  0.92710448  0.90212980  1
  O2-  O162  1  0.68167326  0.42431189  0.23412261  1
  O2-  O163  1  0.67568519  0.43027132  0.56799989  1
  O2-  O164  1  0.68009008  0.43010719  0.90229210  1
  O2-  O165  1  0.67686982  0.93481848  0.23550066  1
  O2-  O166  1  0.67201728  0.93156449  0.57704859  1
  O2-  O167  1  0.68201130  0.92962654  0.89876082  1
  O2-  O168  1  0.42628760  0.32114695  0.08823727  1
  O2-  O169  1  0.42555949  0.31680582  0.42390594  1
  O2-  O170  1  0.42546559  0.31766574  0.75549726  1
  O2-  O171  1  0.42991857  0.82148321  0.08863980  1
  O2-  O172  1  0.43061428  0.82242801  0.43086812  1
  O2-  O173  1  0.42877818  0.82609862  0.75841393  1
  O2-  O174  1  0.93007403  0.32277151  0.09006032  1
  O2-  O175  1  0.92649607  0.31645021  0.42182216  1
  O2-  O176  1  0.92903071  0.31829557  0.76525685  1
  O2-  O177  1  0.92810662  0.81994143  0.08986099  1
  O2-  O178  1  0.93223360  0.82440581  0.42822213  1
  O2-  O179  1  0.93100462  0.82319439  0.76731959  1
  O2-  O180  1  0.32084229  0.07396313  0.24623501  1
  O2-  O181  1  0.32577973  0.07246608  0.57678414  1
  O2-  O182  1  0.31981714  0.06840113  0.90089314  1
  O2-  O183  1  0.32064702  0.56872552  0.24293632  1
  O2-  O184  1  0.32011667  0.56976559  0.56628210  1
  O2-  O185  1  0.32381025  0.57539810  0.91282317  1
  O2-  O186  1  0.82348109  0.07530594  0.24384580  1
  O2-  O187  1  0.81835176  0.06748621  0.56726437  1
  O2-  O188  1  0.82423100  0.06950212  0.91012018  1
  O2-  O189  1  0.82145163  0.56623406  0.24521141  1
  O2-  O190  1  0.81853519  0.57324775  0.56621643  1
  O2-  O191  1  0.82261689  0.57425333  0.90348751  1
  O2-  O192  1  0.04787202  0.08854699  0.26945133  1
  O2-  O193  1  0.04337209  0.08171619  0.59655760  1
  O2-  O194  1  0.04208380  0.08189664  0.93492712  1
  O2-  O195  1  0.04069995  0.57684231  0.26599138  1
  O2-  O196  1  0.05716253  0.57537799  0.60506963  1
  O2-  O197  1  0.04338726  0.58703242  0.93860307  1
  O2-  O198  1  0.53963347  0.09035745  0.27429950  1
  O2-  O199  1  0.53727930  0.08789525  0.60050814  1
  O2-  O200  1  0.53618693  0.08445599  0.92972795  1
  O2-  O201  1  0.53697351  0.57925968  0.26118330  1
  O2-  O202  1  0.53228892  0.58212097  0.60331045  1
  O2-  O203  1  0.54504934  0.58676013  0.93817998  1
  O2-  O204  1  0.16616479  0.20961067  0.27175222  1
  O2-  O205  1  0.17314996  0.20376402  0.59764360  1
  O2-  O206  1  0.16849605  0.21015666  0.93525589  1
  O2-  O207  1  0.16887215  0.70297335  0.26321312  1
  O2-  O208  1  0.16943692  0.71305793  0.60002375  1
  O2-  O209  1  0.16551596  0.70443771  0.94036286  1
  O2-  O210  1  0.66406263  0.20551258  0.27362327  1
  O2-  O211  1  0.66377102  0.19962796  0.60309054  1
  O2-  O212  1  0.66975565  0.20535543  0.93142527  1
  O2-  O213  1  0.67059961  0.70047476  0.26462529  1
  O2-  O214  1  0.66319227  0.70518819  0.59829206  1
  O2-  O215  1  0.66304810  0.71169067  0.93916317  1
  O2-  O216  1  0.08639079  0.46053920  0.06834489  1
  O2-  O217  1  0.07855720  0.45264264  0.40123861  1
  O2-  O218  1  0.08127200  0.44024964  0.72417776  1
  O2-  O219  1  0.07844600  0.95652442  0.07004738  1
  O2-  O220  1  0.08828810  0.96035615  0.39685703  1
  O2-  O221  1  0.08875474  0.95806560  0.72612658  1
  O2-  O222  1  0.57891005  0.45361452  0.06672752  1
  O2-  O223  1  0.57647108  0.45168933  0.39575155  1
  O2-  O224  1  0.57874366  0.45435463  0.73503941  1
  O2-  O225  1  0.58339072  0.96178377  0.06567395  1
  O2-  O226  1  0.58533474  0.96477821  0.40465136  1
  O2-  O227  1  0.58359208  0.95820111  0.72964825  1
  O2-  O228  1  0.21361230  0.33630261  0.06691509  1
  O2-  O229  1  0.21450713  0.33421249  0.40547785  1
  O2-  O230  1  0.21375500  0.33473775  0.72860043  1
  O2-  O231  1  0.20603975  0.83025746  0.07002876  1
  O2-  O232  1  0.20706625  0.83585337  0.39373374  1
  O2-  O233  1  0.20959253  0.84141786  0.73002140  1
  O2-  O234  1  0.70648852  0.32822706  0.06695443  1
  O2-  O235  1  0.71111698  0.33246976  0.40104823  1
  O2-  O236  1  0.70248168  0.32686727  0.73050027  1
  O2-  O237  1  0.71137383  0.83703810  0.06870448  1
  O2-  O238  1  0.70553148  0.82933657  0.39891203  1
  O2-  O239  1  0.69581190  0.83171728  0.72527460  1
  O2-  O240  1  0.44674022  0.41223016  0.27036446  1
  O2-  O241  1  0.45411501  0.41244586  0.60324546  1
  O2-  O242  1  0.44882735  0.41958514  0.93827501  1
  O2-  O243  1  0.45790464  0.92401160  0.26676019  1
  O2-  O244  1  0.45175834  0.91803460  0.60528937  1
  O2-  O245  1  0.45753181  0.91233073  0.93593772  1
  O2-  O246  1  0.95374119  0.41076712  0.27002703  1
  O2-  O247  1  0.95102893  0.41868465  0.59594371  1
  O2-  O248  1  0.95891274  0.41794246  0.93991206  1
  O2-  O249  1  0.95920248  0.92195928  0.26221639  1
  O2-  O250  1  0.96082696  0.91546569  0.59776421  1
  O2-  O251  1  0.95443244  0.91284735  0.93862225  1
  O2-  O252  1  0.33733307  0.28482874  0.27100716  1
  O2-  O253  1  0.34108704  0.28814437  0.59890614  1
  O2-  O254  1  0.33698651  0.29348858  0.93392446  1
  O2-  O255  1  0.33253827  0.79680345  0.26167326  1
  O2-  O256  1  0.33462006  0.79906975  0.60690960  1
  O2-  O257  1  0.33536364  0.79535477  0.93767140  1
  O2-  O258  1  0.83807808  0.28697012  0.26783855  1
  O2-  O259  1  0.83011422  0.28516824  0.59797227  1
  O2-  O260  1  0.83495878  0.30271529  0.93807768  1
  O2-  O261  1  0.82978029  0.79732357  0.26294275  1
  O2-  O262  1  0.82744677  0.79829288  0.60001977  1
  O2-  O263  1  0.83655833  0.79114361  0.93811327  1
  O2-  O264  1  0.41735453  0.04026044  0.06851933  1
  O2-  O265  1  0.41279214  0.04520538  0.40008078  1
  O2-  O266  1  0.41387528  0.04391482  0.73096760  1
  O2-  O267  1  0.41746534  0.54945104  0.06481232  1
  O2-  O268  1  0.41133361  0.54161690  0.39524331  1
  O2-  O269  1  0.41016664  0.53482906  0.73790083  1
  O2-  O270  1  0.91478210  0.04501308  0.06400794  1
  O2-  O271  1  0.92023614  0.05034850  0.39395844  1
  O2-  O272  1  0.91971764  0.03896985  0.73363943  1
  O2-  O273  1  0.91915647  0.54454879  0.07225319  1
  O2-  O274  1  0.91159061  0.53952393  0.39722067  1
  O2-  O275  1  0.92249038  0.54554664  0.73157369  1
  O2-  O276  1  0.29520360  0.16971338  0.06818387  1
  O2-  O277  1  0.29113893  0.16098996  0.40081471  1
  O2-  O278  1  0.29828362  0.16574507  0.72877997  1
  O2-  O279  1  0.29989751  0.66819651  0.06464106  1
  O2-  O280  1  0.29868825  0.66879087  0.39181020  1
  O2-  O281  1  0.29363770  0.66977415  0.73534959  1
  O2-  O282  1  0.80266880  0.16875687  0.05888259  1
  O2-  O283  1  0.79394429  0.16308287  0.39757375  1
  O2-  O284  1  0.78916437  0.16173489  0.73659270  1
  O2-  O285  1  0.79132191  0.66906120  0.07176205  1
  O2-  O286  1  0.80171580  0.66774957  0.39159394  1
  O2-  O287  1  0.79216927  0.67103871  0.73264989  1
