# generated using pymatgen
data_Ca2Al2SiO7
_symmetry_space_group_name_H-M   'P 1'
_cell_length_a   15.45546672
_cell_length_b   15.45449909
_cell_length_c   15.28071002
_cell_angle_alpha   89.99292401
_cell_angle_beta   89.98552502
_cell_angle_gamma   89.99870797
_symmetry_Int_Tables_number   1
_chemical_formula_structural   Ca2Al2SiO7
_chemical_formula_sum   'Ca48 Al48 Si24 O168'
_cell_volume   3649.89671436
_cell_formula_units_Z   24
loop_
 _symmetry_equiv_pos_site_id
 _symmetry_equiv_pos_as_xyz
  1  'x, y, z'
loop_
 _atom_type_symbol
 _atom_type_oxidation_number
  Ca2+  2.0
  Al0+  0.0
  Si0+  0.0
  O2-  -2.0
loop_
 _atom_site_type_symbol
 _atom_site_label
 _atom_site_symmetry_multiplicity
 _atom_site_fract_x
 _atom_site_fract_y
 _atom_site_fract_z
 _atom_site_occupancy
  Ca2+  Ca0  1  0.17385508  0.08818042  0.16719123  1
  Ca2+  Ca1  1  0.18027220  0.08538440  0.50434315  1
  Ca2+  Ca2  1  0.17587144  0.08378419  0.83936960  1
  Ca2+  Ca3  1  0.18078533  0.57731082  0.17445529  1
  Ca2+  Ca4  1  0.17352937  0.57952196  0.50518838  1
  Ca2+  Ca5  1  0.17733390  0.58994737  0.83331620  1
  Ca2+  Ca6  1  0.66707431  0.07444254  0.17001358  1
  Ca2+  Ca7  1  0.66902558  0.08655689  0.50510826  1
  Ca2+  Ca8  1  0.66355379  0.07725684  0.83773423  1
  Ca2+  Ca9  1  0.66592492  0.57799474  0.16733630  1
  Ca2+  Ca10  1  0.67531196  0.58385356  0.50682146  1
  Ca2+  Ca11  1  0.66763578  0.58639723  0.83815604  1
  Ca2+  Ca12  1  0.08175457  0.33311979  0.16558483  1
  Ca2+  Ca13  1  0.07433403  0.34238842  0.49485765  1
  Ca2+  Ca14  1  0.07953351  0.32845509  0.83026190  1
  Ca2+  Ca15  1  0.08039401  0.83329980  0.16337690  1
  Ca2+  Ca16  1  0.08321845  0.82613826  0.50369417  1
  Ca2+  Ca17  1  0.07603154  0.82757276  0.82323532  1
  Ca2+  Ca18  1  0.57177133  0.33691579  0.16084088  1
  Ca2+  Ca19  1  0.57687530  0.32734922  0.49667530  1
  Ca2+  Ca20  1  0.58079696  0.33081291  0.83244200  1
  Ca2+  Ca21  1  0.57881969  0.82623858  0.15606596  1
  Ca2+  Ca22  1  0.57872191  0.82639232  0.50403207  1
  Ca2+  Ca23  1  0.57736365  0.82562517  0.83049416  1
  Ca2+  Ca24  1  0.33550231  0.42329188  0.17426702  1
  Ca2+  Ca25  1  0.33140317  0.42184523  0.50102581  1
  Ca2+  Ca26  1  0.34232978  0.42988740  0.83907142  1
  Ca2+  Ca27  1  0.34122658  0.92885943  0.16746270  1
  Ca2+  Ca28  1  0.33947969  0.92542086  0.50764603  1
  Ca2+  Ca29  1  0.34803609  0.92558108  0.83647202  1
  Ca2+  Ca30  1  0.82548963  0.41705152  0.17344619  1
  Ca2+  Ca31  1  0.84035774  0.42374673  0.50611082  1
  Ca2+  Ca32  1  0.82715493  0.41800259  0.83392046  1
  Ca2+  Ca33  1  0.82547659  0.92160819  0.17125053  1
  Ca2+  Ca34  1  0.83548903  0.92205937  0.50471069  1
  Ca2+  Ca35  1  0.82568073  0.91061633  0.83861629  1
  Ca2+  Ca36  1  0.40333568  0.17884172  0.16280772  1
  Ca2+  Ca37  1  0.41946363  0.16465367  0.49493948  1
  Ca2+  Ca38  1  0.41705023  0.17017282  0.82837719  1
  Ca2+  Ca39  1  0.41902927  0.66802213  0.15331691  1
  Ca2+  Ca40  1  0.41508893  0.66344862  0.49870222  1
  Ca2+  Ca41  1  0.42352251  0.67091665  0.82598220  1
  Ca2+  Ca42  1  0.92143853  0.16835345  0.16323207  1
  Ca2+  Ca43  1  0.91420869  0.18022834  0.49140294  1
  Ca2+  Ca44  1  0.92365209  0.17108561  0.82747896  1
  Ca2+  Ca45  1  0.91721176  0.66115795  0.16640443  1
  Ca2+  Ca46  1  0.91706025  0.66342028  0.49905012  1
  Ca2+  Ca47  1  0.92212706  0.66935644  0.81914525  1
  Al0+  Al48  1  0.00185458  0.00114037  -0.00463465  1
  Al0+  Al49  1  -0.00154504  -0.00114672  0.33675480  1
  Al0+  Al50  1  0.00201129  0.00131777  0.66299785  1
  Al0+  Al51  1  0.00021918  0.50015209  -0.00178559  1
  Al0+  Al52  1  -0.00039044  0.50007728  0.33188292  1
  Al0+  Al53  1  0.00002394  0.49963369  0.66649760  1
  Al0+  Al54  1  0.50143004  0.00093466  0.00889308  1
  Al0+  Al55  1  0.50090874  -0.00311503  0.33673373  1
  Al0+  Al56  1  0.50232815  0.00041517  0.66283003  1
  Al0+  Al57  1  0.50257714  0.49977410  -0.00001068  1
  Al0+  Al58  1  0.50174471  0.49913046  0.33415073  1
  Al0+  Al59  1  0.50045190  0.49841313  0.66602222  1
  Al0+  Al60  1  0.24798348  0.25126928  -0.00705527  1
  Al0+  Al61  1  0.24919315  0.24934599  0.33904835  1
  Al0+  Al62  1  0.24973718  0.25018084  0.67183965  1
  Al0+  Al63  1  0.24899986  0.75291363  0.00086593  1
  Al0+  Al64  1  0.24965079  0.75097088  0.33391612  1
  Al0+  Al65  1  0.24831612  0.75143777  0.66255814  1
  Al0+  Al66  1  0.74991689  0.25211928  0.00484896  1
  Al0+  Al67  1  0.74917990  0.24812440  0.33042980  1
  Al0+  Al68  1  0.74991181  0.24977544  0.66033431  1
  Al0+  Al69  1  0.75024063  0.75064393  0.00342429  1
  Al0+  Al70  1  0.74885376  0.74950017  0.33531619  1
  Al0+  Al71  1  0.74940510  0.75089928  0.66285165  1
  Al0+  Al72  1  0.57069670  0.67593604  0.65029422  1
  Al0+  Al73  1  0.82037191  0.07069835  0.34702441  1
  Al0+  Al74  1  0.81912218  0.56935827  0.34661157  1
  Al0+  Al75  1  0.31969952  0.06949072  0.34730572  1
  Al0+  Al76  1  0.17917946  0.42877551  0.34759336  1
  Al0+  Al77  1  0.07023878  0.17959959  0.98558724  1
  Al0+  Al78  1  0.92855667  0.32248056  0.31701758  1
  Al0+  Al79  1  0.57179098  0.67842146  0.98567460  1
  Al0+  Al80  1  0.42879157  0.32107558  0.98622697  1
  Al0+  Al81  1  0.32119258  0.57109101  0.68125628  1
  Al0+  Al82  1  0.56958313  0.17935328  0.65440567  1
  Al0+  Al83  1  0.42927381  0.82085852  0.65105050  1
  Al0+  Al84  1  0.42799226  0.82355892  0.98671781  1
  Al0+  Al85  1  0.93045408  0.31863115  0.65357609  1
  Al0+  Al86  1  0.07106389  0.67811487  0.65029038  1
  Al0+  Al87  1  0.67956263  0.42839324  0.01386149  1
  Al0+  Al88  1  0.92698324  0.82254252  0.65063222  1
  Al0+  Al89  1  0.67955858  0.92884366  0.01371315  1
  Al0+  Al90  1  0.32028392  0.07202358  0.01333631  1
  Al0+  Al91  1  0.32279972  0.06992810  0.68224878  1
  Al0+  Al92  1  0.42919660  0.31891657  0.32090373  1
  Al0+  Al93  1  0.32043149  0.57184799  0.01187772  1
  Al0+  Al94  1  0.81991207  0.57112788  0.68063976  1
  Al0+  Al95  1  0.32381290  0.57232903  0.34816063  1
  Si0+  Si96  1  0.07105534  0.67863116  0.98659739  1
  Si0+  Si97  1  0.92578476  0.32282105  0.98301475  1
  Si0+  Si98  1  0.07087128  0.17631348  0.31789685  1
  Si0+  Si99  1  0.17481909  0.92887155  0.01663942  1
  Si0+  Si100  1  0.42613479  0.32213461  0.65030761  1
  Si0+  Si101  1  0.92776445  0.82114506  0.31687521  1
  Si0+  Si102  1  0.07104272  0.67948980  0.31626374  1
  Si0+  Si103  1  0.67739239  0.42626480  0.35126353  1
  Si0+  Si104  1  0.17630458  0.42865740  0.01527777  1
  Si0+  Si105  1  0.57139122  0.17487769  0.31451653  1
  Si0+  Si106  1  0.57157829  0.67962889  0.31763318  1
  Si0+  Si107  1  0.17737865  0.92926500  0.68408406  1
  Si0+  Si108  1  0.82370158  0.57204117  0.01602179  1
  Si0+  Si109  1  0.82227921  0.07329049  0.68096228  1
  Si0+  Si110  1  0.68125712  0.93047560  0.68138933  1
  Si0+  Si111  1  0.82434292  0.07207765  0.01447957  1
  Si0+  Si112  1  0.17561788  0.92640403  0.35130445  1
  Si0+  Si113  1  0.17703835  0.42821565  0.68628767  1
  Si0+  Si114  1  0.92954131  0.82095280  0.98747695  1
  Si0+  Si115  1  0.07438317  0.17821523  0.64797022  1
  Si0+  Si116  1  0.67846893  0.42577783  0.68239126  1
  Si0+  Si117  1  0.67871234  0.92730564  0.35369468  1
  Si0+  Si118  1  0.57366839  0.17814706  0.98681541  1
  Si0+  Si119  1  0.42827819  0.82105958  0.31737641  1
  O2-  O120  1  0.24663791  -0.00493826  0.05952262  1
  O2-  O121  1  0.24586796  -0.00609675  0.39417793  1
  O2-  O122  1  0.24805801  -0.00486169  0.72923745  1
  O2-  O123  1  0.24640098  0.49614924  0.05871561  1
  O2-  O124  1  0.25200100  0.49991301  0.39740852  1
  O2-  O125  1  0.24764058  0.49544175  0.72967465  1
  O2-  O126  1  0.75456983  0.00467275  0.05888842  1
  O2-  O127  1  0.74509071  -0.00144211  0.39690273  1
  O2-  O128  1  0.75590703  -0.00140697  0.72403098  1
  O2-  O129  1  0.75539796  0.50297651  0.05939592  1
  O2-  O130  1  0.74898524  0.49171340  0.39515985  1
  O2-  O131  1  0.74292128  0.49874497  0.72698753  1
  O2-  O132  1  0.00234835  0.24523970  0.27271943  1
  O2-  O133  1  0.00553565  0.24599427  0.60389579  1
  O2-  O134  1  -0.00609198  0.25328314  0.93981268  1
  O2-  O135  1  -0.00058637  0.75099665  0.27365665  1
  O2-  O136  1  -0.00372189  0.74813584  0.60026524  1
  O2-  O137  1  -0.00118331  0.74891763  0.94531584  1
  O2-  O138  1  0.50163136  0.24256564  0.27120473  1
  O2-  O139  1  0.49281780  0.25114826  0.60695348  1
  O2-  O140  1  0.50311447  0.24421083  0.94190995  1
  O2-  O141  1  0.49531471  0.74575024  0.27617915  1
  O2-  O142  1  0.49430773  0.74309393  0.59933547  1
  O2-  O143  1  0.49678378  0.74827937  0.93729687  1
  O2-  O144  1  0.06824015  0.17916024  0.09888690  1
  O2-  O145  1  0.06878457  0.17508482  0.42321342  1
  O2-  O146  1  0.07222210  0.17813620  0.75387484  1
  O2-  O147  1  0.06931613  0.67868156  0.09205458  1
  O2-  O148  1  0.07071149  0.68067152  0.42058760  1
  O2-  O149  1  0.06957255  0.68107937  0.76480589  1
  O2-  O150  1  0.57567540  0.17950639  0.09225518  1
  O2-  O151  1  0.57124955  0.17548352  0.42033851  1
  O2-  O152  1  0.57100150  0.17933012  0.76773357  1
  O2-  O153  1  0.57254686  0.68022297  0.10007738  1
  O2-  O154  1  0.57436297  0.68221713  0.42230895  1
  O2-  O155  1  0.57275165  0.67907370  0.76361400  1
  O2-  O156  1  0.17976197  0.43093171  0.23341649  1
  O2-  O157  1  0.17696156  0.42767539  0.58078499  1
  O2-  O158  1  0.17222536  0.43158939  0.90998832  1
  O2-  O159  1  0.17365863  0.92579480  0.24544615  1
  O2-  O160  1  0.17569758  0.93282416  0.57835248  1
  O2-  O161  1  0.16716108  0.93010415  0.91186544  1
  O2-  O162  1  0.67648775  0.42930400  0.24542255  1
  O2-  O163  1  0.68074342  0.42352375  0.57686336  1
  O2-  O164  1  0.68337849  0.42463675  0.90097450  1
  O2-  O165  1  0.68013234  0.92648379  0.24779165  1
  O2-  O166  1  0.68145417  0.93322159  0.57619958  1
  O2-  O167  1  0.68218962  0.92888329  0.90050676  1
  O2-  O168  1  0.42772153  0.32056842  0.09962922  1
  O2-  O169  1  0.43209257  0.31751560  0.43395542  1
  O2-  O170  1  0.42832258  0.32235169  0.75610606  1
  O2-  O171  1  0.43043555  0.82242794  0.10107985  1
  O2-  O172  1  0.43048403  0.82370944  0.42207937  1
  O2-  O173  1  0.43474517  0.82382659  0.76429459  1
  O2-  O174  1  0.92625844  0.32350524  0.08854531  1
  O2-  O175  1  0.93000867  0.32233291  0.43002893  1
  O2-  O176  1  0.92954279  0.31515003  0.76706256  1
  O2-  O177  1  0.93096130  0.82203447  0.09300372  1
  O2-  O178  1  0.92774419  0.82158423  0.42120618  1
  O2-  O179  1  0.92814296  0.82237831  0.76513027  1
  O2-  O180  1  0.31765104  0.06992369  0.23405901  1
  O2-  O181  1  0.32160891  0.06935892  0.56889427  1
  O2-  O182  1  0.32033315  0.07094884  0.90041711  1
  O2-  O183  1  0.32293247  0.57319931  0.23412748  1
  O2-  O184  1  0.31989036  0.56755671  0.56838022  1
  O2-  O185  1  0.31851568  0.57271117  0.89889181  1
  O2-  O186  1  0.82113353  0.06602000  0.23354797  1
  O2-  O187  1  0.81932932  0.07388835  0.57599488  1
  O2-  O188  1  0.82464276  0.07091939  0.90866774  1
  O2-  O189  1  0.81648028  0.57062253  0.23306250  1
  O2-  O190  1  0.81981614  0.56832083  0.56750872  1
  O2-  O191  1  0.82611042  0.57282820  0.91073803  1
  O2-  O192  1  0.04430773  0.08228336  0.27158506  1
  O2-  O193  1  0.05137136  0.08455445  0.60186795  1
  O2-  O194  1  0.04019344  0.08368164  0.92852949  1
  O2-  O195  1  0.04154576  0.58927626  0.26700779  1
  O2-  O196  1  0.04438446  0.57932060  0.59884328  1
  O2-  O197  1  0.04456405  0.58711518  0.93794205  1
  O2-  O198  1  0.54776416  0.07906278  0.27162413  1
  O2-  O199  1  0.54194825  0.08425752  0.59635093  1
  O2-  O200  1  0.55039775  0.08320599  0.94332324  1
  O2-  O201  1  0.54985454  0.58535478  0.27258025  1
  O2-  O202  1  0.54857788  0.57546935  0.59851140  1
  O2-  O203  1  0.54873955  0.57947344  0.93336478  1
  O2-  O204  1  0.16463613  0.20268940  0.27288745  1
  O2-  O205  1  0.16864225  0.20461985  0.60406662  1
  O2-  O206  1  0.16365163  0.21147864  0.92690277  1
  O2-  O207  1  0.16260182  0.70902635  0.26795230  1
  O2-  O208  1  0.16665337  0.71015724  0.59421294  1
  O2-  O209  1  0.16153348  0.70822674  0.93854856  1
  O2-  O210  1  0.66506413  0.19906798  0.26816409  1
  O2-  O211  1  0.66430672  0.21114953  0.59666136  1
  O2-  O212  1  0.66741724  0.20455868  0.94030108  1
  O2-  O213  1  0.66146942  0.71306724  0.26879390  1
  O2-  O214  1  0.66655875  0.71084148  0.59606852  1
  O2-  O215  1  0.67094130  0.70977347  0.93495158  1
  O2-  O216  1  0.08278440  0.45516042  0.06280906  1
  O2-  O217  1  0.08149387  0.46079231  0.39934857  1
  O2-  O218  1  0.08404769  0.45466469  0.73318145  1
  O2-  O219  1  0.08272815  0.95842460  0.06594855  1
  O2-  O220  1  0.08242247  0.95117183  0.39823212  1
  O2-  O221  1  0.08388898  0.95757155  0.73113953  1
  O2-  O222  1  0.58480613  0.46047541  0.07051897  1
  O2-  O223  1  0.58603854  0.45480102  0.39945831  1
  O2-  O224  1  0.58322999  0.44553292  0.72705376  1
  O2-  O225  1  0.58637904  0.95993123  0.07406941  1
  O2-  O226  1  0.58497576  0.95082403  0.39977293  1
  O2-  O227  1  0.59157797  0.96330192  0.72894182  1
  O2-  O228  1  0.19960374  0.33383742  0.05867834  1
  O2-  O229  1  0.20276237  0.33063602  0.40276288  1
  O2-  O230  1  0.20005563  0.33372359  0.73238097  1
  O2-  O231  1  0.19616449  0.83475441  0.06391004  1
  O2-  O232  1  0.20051889  0.83288638  0.39713601  1
  O2-  O233  1  0.19729489  0.83380750  0.72765852  1
  O2-  O234  1  0.70934321  0.33312384  0.07252258  1
  O2-  O235  1  0.69846515  0.33023521  0.39316080  1
  O2-  O236  1  0.71063817  0.33390654  0.72930773  1
  O2-  O237  1  0.71334552  0.83433260  0.07145107  1
  O2-  O238  1  0.70810989  0.83529937  0.39976038  1
  O2-  O239  1  0.70704535  0.83833051  0.72863991  1
  O2-  O240  1  0.46207517  0.41587852  0.26718779  1
  O2-  O241  1  0.45388842  0.41387686  0.60263937  1
  O2-  O242  1  0.46442409  0.41546719  0.93189494  1
  O2-  O243  1  0.46146849  0.91154586  0.26947263  1
  O2-  O244  1  0.46653224  0.91584309  0.59584087  1
  O2-  O245  1  0.46201779  0.92206428  0.93750940  1
  O2-  O246  1  0.95982284  0.41837195  0.26144886  1
  O2-  O247  1  0.96069360  0.41531736  0.60066466  1
  O2-  O248  1  0.95261722  0.41622969  0.93651296  1
  O2-  O249  1  0.95619767  0.91301042  0.26882518  1
  O2-  O250  1  0.95781516  0.92100059  0.59769996  1
  O2-  O251  1  0.95647039  0.91195350  0.93832689  1
  O2-  O252  1  0.33098167  0.28895465  0.26890131  1
  O2-  O253  1  0.33098764  0.29848297  0.60726546  1
  O2-  O254  1  0.33279232  0.29379172  0.93017144  1
  O2-  O255  1  0.33382789  0.80050597  0.27176515  1
  O2-  O256  1  0.32826222  0.80255611  0.60023618  1
  O2-  O257  1  0.32631598  0.80398193  0.93680371  1
  O2-  O258  1  0.83105377  0.29132061  0.26413302  1
  O2-  O259  1  0.83570256  0.28733044  0.59681515  1
  O2-  O260  1  0.83225780  0.29684215  0.93745548  1
  O2-  O261  1  0.83574959  0.79203646  0.26962806  1
  O2-  O262  1  0.82876406  0.79869290  0.59686290  1
  O2-  O263  1  0.83747091  0.79445247  0.94096694  1
  O2-  O264  1  0.41612928  0.04494817  0.07084353  1
  O2-  O265  1  0.41714386  0.03808137  0.39984137  1
  O2-  O266  1  0.42064683  0.03867905  0.73351513  1
  O2-  O267  1  0.41754274  0.54182767  0.06416305  1
  O2-  O268  1  0.42259545  0.54472440  0.40007724  1
  O2-  O269  1  0.41892054  0.53991337  0.73400456  1
  O2-  O270  1  0.91702395  0.04342308  0.06097094  1
  O2-  O271  1  0.91587677  0.03908513  0.40252338  1
  O2-  O272  1  0.91692178  0.05035433  0.72537572  1
  O2-  O273  1  0.91750184  0.54599624  0.06284630  1
  O2-  O274  1  0.91732473  0.54280033  0.39785214  1
  O2-  O275  1  0.91655452  0.53939553  0.73460814  1
  O2-  O276  1  0.28348936  0.16859916  0.06449028  1
  O2-  O277  1  0.28930399  0.16424255  0.40405307  1
  O2-  O278  1  0.29248083  0.16717221  0.73572737  1
  O2-  O279  1  0.28867987  0.66868628  0.06618416  1
  O2-  O280  1  0.29426920  0.67140376  0.39884584  1
  O2-  O281  1  0.28894897  0.66928925  0.73158137  1
  O2-  O282  1  0.80169796  0.16605152  0.06070833  1
  O2-  O283  1  0.79054575  0.16804688  0.39998089  1
  O2-  O284  1  0.79007301  0.16331351  0.72905379  1
  O2-  O285  1  0.79946130  0.66537077  0.06360719  1
  O2-  O286  1  0.78752304  0.66601416  0.40001064  1
  O2-  O287  1  0.79240801  0.67011691  0.73210955  1
