# generated using pymatgen
data_Ca2Al2SiO7
_symmetry_space_group_name_H-M   'P 1'
_cell_length_a   15.45768377
_cell_length_b   15.45860497
_cell_length_c   15.28353855
_cell_angle_alpha   90.01476068
_cell_angle_beta   90.00771403
_cell_angle_gamma   89.99406194
_symmetry_Int_Tables_number   1
_chemical_formula_structural   Ca2Al2SiO7
_chemical_formula_sum   'Ca48 Al48 Si24 O168'
_cell_volume   3652.06596934
_cell_formula_units_Z   24
loop_
 _symmetry_equiv_pos_site_id
 _symmetry_equiv_pos_as_xyz
  1  'x, y, z'
loop_
 _atom_type_symbol
 _atom_type_oxidation_number
  Ca2+  2.0
  Al0+  0.0
  Si0+  0.0
  O2-  -2.0
loop_
 _atom_site_type_symbol
 _atom_site_label
 _atom_site_symmetry_multiplicity
 _atom_site_fract_x
 _atom_site_fract_y
 _atom_site_fract_z
 _atom_site_occupancy
  Ca2+  Ca0  1  0.17342991  0.07730684  0.18057208  1
  Ca2+  Ca1  1  0.16516704  0.07791370  0.50052070  1
  Ca2+  Ca2  1  0.16126558  0.07894937  0.83032253  1
  Ca2+  Ca3  1  0.15792151  0.57888596  0.16463113  1
  Ca2+  Ca4  1  0.16873696  0.57733985  0.50662507  1
  Ca2+  Ca5  1  0.15829111  0.57406872  0.84062537  1
  Ca2+  Ca6  1  0.67358017  0.07794588  0.17950242  1
  Ca2+  Ca7  1  0.66748439  0.07417040  0.49857547  1
  Ca2+  Ca8  1  0.66677878  0.07542133  0.83417867  1
  Ca2+  Ca9  1  0.66303365  0.58547323  0.16657343  1
  Ca2+  Ca10  1  0.66451096  0.58039265  0.50522609  1
  Ca2+  Ca11  1  0.67314982  0.57437107  0.84331450  1
  Ca2+  Ca12  1  0.07979146  0.32670128  0.15955840  1
  Ca2+  Ca13  1  0.08337995  0.32367492  0.49939170  1
  Ca2+  Ca14  1  0.07457894  0.33586425  0.82500371  1
  Ca2+  Ca15  1  0.07811140  0.83439937  0.16459481  1
  Ca2+  Ca16  1  0.07346730  0.84854911  0.49676268  1
  Ca2+  Ca17  1  0.07937204  0.82667626  0.82490747  1
  Ca2+  Ca18  1  0.58757201  0.32715195  0.16417817  1
  Ca2+  Ca19  1  0.58596835  0.32797879  0.49365576  1
  Ca2+  Ca20  1  0.58939702  0.33660125  0.82877749  1
  Ca2+  Ca21  1  0.57651044  0.83087495  0.16293136  1
  Ca2+  Ca22  1  0.57627853  0.83846015  0.49080748  1
  Ca2+  Ca23  1  0.57601739  0.83005491  0.82679004  1
  Ca2+  Ca24  1  0.32741316  0.41848000  0.16936727  1
  Ca2+  Ca25  1  0.32889351  0.41962039  0.50728849  1
  Ca2+  Ca26  1  0.31882454  0.41775890  0.83832674  1
  Ca2+  Ca27  1  0.33033821  0.91456436  0.17647859  1
  Ca2+  Ca28  1  0.32699066  0.91482181  0.50347390  1
  Ca2+  Ca29  1  0.33246205  0.91019308  0.83314192  1
  Ca2+  Ca30  1  0.83549649  0.42273575  0.16284093  1
  Ca2+  Ca31  1  0.82934887  0.41787175  0.50758375  1
  Ca2+  Ca32  1  0.82972777  0.41621441  0.84349691  1
  Ca2+  Ca33  1  0.82899728  0.92044977  0.18178509  1
  Ca2+  Ca34  1  0.82658353  0.91467994  0.50370722  1
  Ca2+  Ca35  1  0.83061598  0.91246936  0.83125474  1
  Ca2+  Ca36  1  0.42363266  0.15632694  0.16986478  1
  Ca2+  Ca37  1  0.42057690  0.16567680  0.49246281  1
  Ca2+  Ca38  1  0.41873995  0.16930805  0.83091338  1
  Ca2+  Ca39  1  0.42664979  0.67760503  0.16163055  1
  Ca2+  Ca40  1  0.42368819  0.67778814  0.49255179  1
  Ca2+  Ca41  1  0.42013594  0.67519832  0.83145613  1
  Ca2+  Ca42  1  0.92026600  0.16705421  0.16550912  1
  Ca2+  Ca43  1  0.92655032  0.16401072  0.49578111  1
  Ca2+  Ca44  1  0.92077693  0.18110064  0.82435737  1
  Ca2+  Ca45  1  0.91776364  0.67142346  0.16253764  1
  Ca2+  Ca46  1  0.91526967  0.68045491  0.49749172  1
  Ca2+  Ca47  1  0.91929428  0.66394128  0.83299676  1
  Al0+  Al48  1  0.00111533  0.00044350  -0.00049065  1
  Al0+  Al49  1  0.00057919  0.00248496  0.32940097  1
  Al0+  Al50  1  0.00131913  0.00087823  0.66667712  1
  Al0+  Al51  1  -0.00227534  0.49943444  0.00253543  1
  Al0+  Al52  1  -0.00263798  0.49995714  0.33673360  1
  Al0+  Al53  1  0.00008534  0.50034306  0.66398774  1
  Al0+  Al54  1  0.49943667  0.00089567  -0.00469437  1
  Al0+  Al55  1  0.49962711  0.00226734  0.33164277  1
  Al0+  Al56  1  0.50015735  0.00045406  0.66841688  1
  Al0+  Al57  1  0.49859084  0.49900439  0.00053400  1
  Al0+  Al58  1  0.49856835  0.50030649  0.33019604  1
  Al0+  Al59  1  0.50035757  0.50049982  0.67190806  1
  Al0+  Al60  1  0.25187160  0.24752563  0.00462358  1
  Al0+  Al61  1  0.24827283  0.24978733  0.33313474  1
  Al0+  Al62  1  0.25159158  0.25080578  0.66821257  1
  Al0+  Al63  1  0.24832564  0.74917092  -0.00735959  1
  Al0+  Al64  1  0.24919704  0.74634202  0.33472519  1
  Al0+  Al65  1  0.25238655  0.75133018  0.66660951  1
  Al0+  Al66  1  0.75057406  0.24848333  -0.00011114  1
  Al0+  Al67  1  0.75013350  0.25155782  0.33283589  1
  Al0+  Al68  1  0.75046675  0.25008488  0.66625959  1
  Al0+  Al69  1  0.74835710  0.74963056  -0.00012564  1
  Al0+  Al70  1  0.75127270  0.74817011  0.33008892  1
  Al0+  Al71  1  0.75035757  0.74894335  0.66890955  1
  Al0+  Al72  1  0.82021925  0.57210917  0.01699676  1
  Al0+  Al73  1  0.57259666  0.67704559  0.98198158  1
  Al0+  Al74  1  0.67990199  0.92712130  0.34643744  1
  Al0+  Al75  1  0.57196859  0.67706332  0.31835614  1
  Al0+  Al76  1  0.07246880  0.18019609  0.65135075  1
  Al0+  Al77  1  0.32177685  0.07193466  0.34882415  1
  Al0+  Al78  1  0.67836786  0.92902136  0.68106356  1
  Al0+  Al79  1  0.92924499  0.81966118  0.65408118  1
  Al0+  Al80  1  0.68000062  0.42821170  0.67914982  1
  Al0+  Al81  1  0.67712634  0.42691213  0.01769534  1
  Al0+  Al82  1  0.06795804  0.68012119  0.98747436  1
  Al0+  Al83  1  0.93140973  0.82138591  0.32059365  1
  Al0+  Al84  1  0.57109711  0.18030589  0.32062546  1
  Al0+  Al85  1  0.17945236  0.92609712  0.34722656  1
  Al0+  Al86  1  0.42767621  0.82203049  0.31914127  1
  Al0+  Al87  1  0.43008865  0.82185659  0.64985125  1
  Al0+  Al88  1  0.93085990  0.31784865  0.98768782  1
  Al0+  Al89  1  0.17812075  0.42831051  0.01486047  1
  Al0+  Al90  1  0.07060372  0.18025679  0.31776019  1
  Al0+  Al91  1  0.42937015  0.82217817  0.98250116  1
  Al0+  Al92  1  0.17853829  0.92974699  0.68202204  1
  Al0+  Al93  1  0.17970085  0.42978440  0.67979638  1
  Al0+  Al94  1  0.82221600  0.07364239  0.34869928  1
  Al0+  Al95  1  0.92705572  0.32351519  0.64976248  1
  Si0+  Si96  1  0.32221244  0.56884525  0.34838421  1
  Si0+  Si97  1  0.42672101  0.32070280  0.98551824  1
  Si0+  Si98  1  0.92698738  0.82557283  0.98354789  1
  Si0+  Si99  1  0.82128730  0.06988670  0.01336855  1
  Si0+  Si100  1  0.67768090  0.43040220  0.34742126  1
  Si0+  Si101  1  0.82279185  0.07143703  0.68419004  1
  Si0+  Si102  1  0.07556330  0.17690276  0.98293317  1
  Si0+  Si103  1  0.32236225  0.57267689  0.68484047  1
  Si0+  Si104  1  0.67821721  0.93043122  0.01366990  1
  Si0+  Si105  1  0.17748288  0.42918738  0.34866358  1
  Si0+  Si106  1  0.42692024  0.32279991  0.31657417  1
  Si0+  Si107  1  0.82197595  0.57228799  0.68288383  1
  Si0+  Si108  1  0.43018433  0.32211429  0.65407127  1
  Si0+  Si109  1  0.82168838  0.57098980  0.35051774  1
  Si0+  Si110  1  0.07365732  0.67781081  0.64964464  1
  Si0+  Si111  1  0.32307449  0.07227071  0.68547218  1
  Si0+  Si112  1  0.57123199  0.67759946  0.65088349  1
  Si0+  Si113  1  0.32029038  0.57289580  0.01713098  1
  Si0+  Si114  1  0.57121947  0.17917733  0.65262204  1
  Si0+  Si115  1  0.92760388  0.32432176  0.31516480  1
  Si0+  Si116  1  0.57086513  0.18045699  0.98378205  1
  Si0+  Si117  1  0.17918910  0.92781722  0.01349387  1
  Si0+  Si118  1  0.07139958  0.67371771  0.31847297  1
  Si0+  Si119  1  0.32221503  0.06984563  0.01553595  1
  O2-  O120  1  0.25052566  -0.00137846  0.05514131  1
  O2-  O121  1  0.25344995  -0.00369147  0.39794433  1
  O2-  O122  1  0.25395464  0.00395140  0.72971643  1
  O2-  O123  1  0.25227786  0.50350924  0.06265057  1
  O2-  O124  1  0.24926324  0.49943413  0.39062205  1
  O2-  O125  1  0.25004495  0.50752173  0.72866779  1
  O2-  O126  1  0.75498122  -0.00514143  0.05569736  1
  O2-  O127  1  0.75272268  -0.00157901  0.39748607  1
  O2-  O128  1  0.75458878  0.00215937  0.72921963  1
  O2-  O129  1  0.74505528  0.50277559  0.06772559  1
  O2-  O130  1  0.74726334  0.50212527  0.39039461  1
  O2-  O131  1  0.75720206  0.49937599  0.72589649  1
  O2-  O132  1  -0.00458141  0.25464545  0.27150893  1
  O2-  O133  1  -0.00063484  0.25136575  0.60109434  1
  O2-  O134  1  0.00791050  0.24637186  0.93956410  1
  O2-  O135  1  0.00849336  0.74808376  0.27547044  1
  O2-  O136  1  0.00700813  0.74839995  0.60591456  1
  O2-  O137  1  -0.00613836  0.75493775  0.94013246  1
  O2-  O138  1  0.49422130  0.25268117  0.27261580  1
  O2-  O139  1  0.50298815  0.25368312  0.61163564  1
  O2-  O140  1  0.50254568  0.25476112  0.94241401  1
  O2-  O141  1  0.50338197  0.75330401  0.27000231  1
  O2-  O142  1  0.50653476  0.74853755  0.60484187  1
  O2-  O143  1  0.50186934  0.75047015  0.93245498  1
  O2-  O144  1  0.07491968  0.17616085  0.08841507  1
  O2-  O145  1  0.07272939  0.18350929  0.43041828  1
  O2-  O146  1  0.07078947  0.18201476  0.76555956  1
  O2-  O147  1  0.06851083  0.68349010  0.10074984  1
  O2-  O148  1  0.06752535  0.66592544  0.42359394  1
  O2-  O149  1  0.07131122  0.67652934  0.75542337  1
  O2-  O150  1  0.56984767  0.17786525  0.08858135  1
  O2-  O151  1  0.57143214  0.18490013  0.43397851  1
  O2-  O152  1  0.56937707  0.17901953  0.75834416  1
  O2-  O153  1  0.56979516  0.68052627  0.09532277  1
  O2-  O154  1  0.56740588  0.67060761  0.43195778  1
  O2-  O155  1  0.56858400  0.67676518  0.75616525  1
  O2-  O156  1  0.17745973  0.43056600  0.24341390  1
  O2-  O157  1  0.18444558  0.43061864  0.56625647  1
  O2-  O158  1  0.17970896  0.42853896  0.90174077  1
  O2-  O159  1  0.17994144  0.92728030  0.23272167  1
  O2-  O160  1  0.17894229  0.93090175  0.56963040  1
  O2-  O161  1  0.17737657  0.93005416  0.90846682  1
  O2-  O162  1  0.67777221  0.42963376  0.24281077  1
  O2-  O163  1  0.67682168  0.43081847  0.56563153  1
  O2-  O164  1  0.68121428  0.42498323  0.90403006  1
  O2-  O165  1  0.68169622  0.92957159  0.23209022  1
  O2-  O166  1  0.67707315  0.93113595  0.56859546  1
  O2-  O167  1  0.67742517  0.93441905  0.90827243  1
  O2-  O168  1  0.42362124  0.31705026  0.09033667  1
  O2-  O169  1  0.42910083  0.32607393  0.42256700  1
  O2-  O170  1  0.42930324  0.32024532  0.75935971  1
  O2-  O171  1  0.42984713  0.82462824  0.09576460  1
  O2-  O172  1  0.42774372  0.81861099  0.43278154  1
  O2-  O173  1  0.43121016  0.82007388  0.76287844  1
  O2-  O174  1  0.93157739  0.31431065  0.10079072  1
  O2-  O175  1  0.92903169  0.32761677  0.42043431  1
  O2-  O176  1  0.92721573  0.32266909  0.76368470  1
  O2-  O177  1  0.92995956  0.82971674  0.08895384  1
  O2-  O178  1  0.92983710  0.81914538  0.43372033  1
  O2-  O179  1  0.92966563  0.81651181  0.76748424  1
  O2-  O180  1  0.31910095  0.07258297  0.23461242  1
  O2-  O181  1  0.32588201  0.07375921  0.58060534  1
  O2-  O182  1  0.32367036  0.07327602  0.91051949  1
  O2-  O183  1  0.32328534  0.56640758  0.24350331  1
  O2-  O184  1  0.32411539  0.56865311  0.57885334  1
  O2-  O185  1  0.31877078  0.57024482  0.91146441  1
  O2-  O186  1  0.81964298  0.07277888  0.23403442  1
  O2-  O187  1  0.82145728  0.07163641  0.57907879  1
  O2-  O188  1  0.81941273  0.07064746  0.90823033  1
  O2-  O189  1  0.82720899  0.56890124  0.24608572  1
  O2-  O190  1  0.81896561  0.57415121  0.57697391  1
  O2-  O191  1  0.82210007  0.56839102  0.90326079  1
  O2-  O192  1  0.04134248  0.08514283  0.26048202  1
  O2-  O193  1  0.04424492  0.08170014  0.59967877  1
  O2-  O194  1  0.04821224  0.08338174  0.93701591  1
  O2-  O195  1  0.03847568  0.58297330  0.26946992  1
  O2-  O196  1  0.04757939  0.58518159  0.60186157  1
  O2-  O197  1  0.03630630  0.58347828  0.93405617  1
  O2-  O198  1  0.54229047  0.08508425  0.26294062  1
  O2-  O199  1  0.53957436  0.08936473  0.60512179  1
  O2-  O200  1  0.53825008  0.09134914  0.93343845  1
  O2-  O201  1  0.53810757  0.58066737  0.26317523  1
  O2-  O202  1  0.54154823  0.58427209  0.60526361  1
  O2-  O203  1  0.54354829  0.57700578  0.93198404  1
  O2-  O204  1  0.16680979  0.21296838  0.26290274  1
  O2-  O205  1  0.17162327  0.20997368  0.60028166  1
  O2-  O206  1  0.17054759  0.19990864  0.93909812  1
  O2-  O207  1  0.16736256  0.69067792  0.27470052  1
  O2-  O208  1  0.16895674  0.69935375  0.60620548  1
  O2-  O209  1  0.16344723  0.70743910  0.92976078  1
  O2-  O210  1  0.66627670  0.21423440  0.26471113  1
  O2-  O211  1  0.66324726  0.20397281  0.60562818  1
  O2-  O212  1  0.66293814  0.20481162  0.93561749  1
  O2-  O213  1  0.67209571  0.69811199  0.26702976  1
  O2-  O214  1  0.66664620  0.69851597  0.60771206  1
  O2-  O215  1  0.67206671  0.70361965  0.93001661  1
  O2-  O216  1  0.08303589  0.45981587  0.07003939  1
  O2-  O217  1  0.08634684  0.45805976  0.39660627  1
  O2-  O218  1  0.08148869  0.45864204  0.73168465  1
  O2-  O219  1  0.08708286  0.95575603  0.06130731  1
  O2-  O220  1  0.08209252  0.96099985  0.39743666  1
  O2-  O221  1  0.08244484  0.96082820  0.73801592  1
  O2-  O222  1  0.57519051  0.44790897  0.06710455  1
  O2-  O223  1  0.58445313  0.45565791  0.39406775  1
  O2-  O224  1  0.58359150  0.45826085  0.73499060  1
  O2-  O225  1  0.58805862  0.96547098  0.05968651  1
  O2-  O226  1  0.58208295  0.95933488  0.39752760  1
  O2-  O227  1  0.58391467  0.96452035  0.73727349  1
  O2-  O228  1  0.21183226  0.33194337  0.06872083  1
  O2-  O229  1  0.20596271  0.33810904  0.39582487  1
  O2-  O230  1  0.21487910  0.33526859  0.73523290  1
  O2-  O231  1  0.20568472  0.83514734  0.05888405  1
  O2-  O232  1  0.20010689  0.82511008  0.39931657  1
  O2-  O233  1  0.20926159  0.83194661  0.73478504  1
  O2-  O234  1  0.70920783  0.32814495  0.06903739  1
  O2-  O235  1  0.70672360  0.33958110  0.39571035  1
  O2-  O236  1  0.70531598  0.32986118  0.73305259  1
  O2-  O237  1  0.69795374  0.83624983  0.05820192  1
  O2-  O238  1  0.70645816  0.82756190  0.39803509  1
  O2-  O239  1  0.70876563  0.83209936  0.73511854  1
  O2-  O240  1  0.45417876  0.41440050  0.26772453  1
  O2-  O241  1  0.45551935  0.41498242  0.60718538  1
  O2-  O242  1  0.44679084  0.41410229  0.93876664  1
  O2-  O243  1  0.45121813  0.92173657  0.26748120  1
  O2-  O244  1  0.45984217  0.92022645  0.59979765  1
  O2-  O245  1  0.45811716  0.92080876  0.92861630  1
  O2-  O246  1  0.95661585  0.41729586  0.26908669  1
  O2-  O247  1  0.95448626  0.42212738  0.59654529  1
  O2-  O248  1  0.95898111  0.41525979  0.93556566  1
  O2-  O249  1  0.95951631  0.91717900  0.26408611  1
  O2-  O250  1  0.95733465  0.91751457  0.60257286  1
  O2-  O251  1  0.95500942  0.91801292  0.93529743  1
  O2-  O252  1  0.33257258  0.29972279  0.27157088  1
  O2-  O253  1  0.34003063  0.29312502  0.60457653  1
  O2-  O254  1  0.33756990  0.28596022  0.93590985  1
  O2-  O255  1  0.32977424  0.78807554  0.26691821  1
  O2-  O256  1  0.33314174  0.79038617  0.59731207  1
  O2-  O257  1  0.33128504  0.79246691  0.92925116  1
  O2-  O258  1  0.83353235  0.30064667  0.27000811  1
  O2-  O259  1  0.82775936  0.29569953  0.59803345  1
  O2-  O260  1  0.83493467  0.28421125  0.93316646  1
  O2-  O261  1  0.83663378  0.78785956  0.26504863  1
  O2-  O262  1  0.83300343  0.78659003  0.60011741  1
  O2-  O263  1  0.83188215  0.80303584  0.94025891  1
  O2-  O264  1  0.41469306  0.04167347  0.06206653  1
  O2-  O265  1  0.42243726  0.05160677  0.39949564  1
  O2-  O266  1  0.41580128  0.04609816  0.73393829  1
  O2-  O267  1  0.41343828  0.54654841  0.06329710  1
  O2-  O268  1  0.41200728  0.53728793  0.39827066  1
  O2-  O269  1  0.41339984  0.54253964  0.73364452  1
  O2-  O270  1  0.91542570  0.04718314  0.05957995  1
  O2-  O271  1  0.92198677  0.04833586  0.39791404  1
  O2-  O272  1  0.91582348  0.04694665  0.73153933  1
  O2-  O273  1  0.91643728  0.53949626  0.07240528  1
  O2-  O274  1  0.91098248  0.53973233  0.40178896  1
  O2-  O275  1  0.91776180  0.55105079  0.72585420  1
  O2-  O276  1  0.29650449  0.16075216  0.06555363  1
  O2-  O277  1  0.29230033  0.17113902  0.40119925  1
  O2-  O278  1  0.29780483  0.16609625  0.73260462  1
  O2-  O279  1  0.29216489  0.66653367  0.06140981  1
  O2-  O280  1  0.29566128  0.65962936  0.39802128  1
  O2-  O281  1  0.30080041  0.66728480  0.72923754  1
  O2-  O282  1  0.78938276  0.15912174  0.06239932  1
  O2-  O283  1  0.79191198  0.17190235  0.40097686  1
  O2-  O284  1  0.79393080  0.16446955  0.73059918  1
  O2-  O285  1  0.79624080  0.67300703  0.06830262  1
  O2-  O286  1  0.79571890  0.66282855  0.39789406  1
  O2-  O287  1  0.79425899  0.66333703  0.73263374  1
