# generated using pymatgen
data_Ca2Al2SiO7
_symmetry_space_group_name_H-M   'P 1'
_cell_length_a   15.46324164
_cell_length_b   15.46257251
_cell_length_c   15.28794495
_cell_angle_alpha   89.99291814
_cell_angle_beta   90.00242521
_cell_angle_gamma   89.98594467
_symmetry_Int_Tables_number   1
_chemical_formula_structural   Ca2Al2SiO7
_chemical_formula_sum   'Ca48 Al48 Si24 O168'
_cell_volume   3655.37035277
_cell_formula_units_Z   24
loop_
 _symmetry_equiv_pos_site_id
 _symmetry_equiv_pos_as_xyz
  1  'x, y, z'
loop_
 _atom_type_symbol
 _atom_type_oxidation_number
  Ca2+  2.0
  Al0+  0.0
  Si0+  0.0
  O2-  -2.0
loop_
 _atom_site_type_symbol
 _atom_site_label
 _atom_site_symmetry_multiplicity
 _atom_site_fract_x
 _atom_site_fract_y
 _atom_site_fract_z
 _atom_site_occupancy
  Ca2+  Ca0  1  0.16469822  0.08364015  0.16978582  1
  Ca2+  Ca1  1  0.17072743  0.08509858  0.50823829  1
  Ca2+  Ca2  1  0.15755147  0.07371943  0.83421994  1
  Ca2+  Ca3  1  0.16210415  0.58000163  0.16316397  1
  Ca2+  Ca4  1  0.16867730  0.58153470  0.51187787  1
  Ca2+  Ca5  1  0.17438957  0.58594832  0.84033362  1
  Ca2+  Ca6  1  0.67718518  0.07830514  0.17239816  1
  Ca2+  Ca7  1  0.66694245  0.07206229  0.50978083  1
  Ca2+  Ca8  1  0.67124261  0.08155972  0.83340641  1
  Ca2+  Ca9  1  0.67585207  0.58005185  0.17641558  1
  Ca2+  Ca10  1  0.67295492  0.58600960  0.50587327  1
  Ca2+  Ca11  1  0.66553290  0.58472560  0.83248853  1
  Ca2+  Ca12  1  0.08374849  0.32346027  0.16316917  1
  Ca2+  Ca13  1  0.07918675  0.32353195  0.49800518  1
  Ca2+  Ca14  1  0.08536411  0.32305564  0.82728184  1
  Ca2+  Ca15  1  0.07889306  0.83207333  0.15906041  1
  Ca2+  Ca16  1  0.07762237  0.83366165  0.50166123  1
  Ca2+  Ca17  1  0.08656734  0.82846680  0.82428117  1
  Ca2+  Ca18  1  0.58020293  0.33264563  0.16293302  1
  Ca2+  Ca19  1  0.57672929  0.32651690  0.50572240  1
  Ca2+  Ca20  1  0.57561155  0.32607928  0.82117447  1
  Ca2+  Ca21  1  0.58291294  0.83704444  0.16753720  1
  Ca2+  Ca22  1  0.58261716  0.83733538  0.50105429  1
  Ca2+  Ca23  1  0.57449547  0.82891741  0.81899186  1
  Ca2+  Ca24  1  0.32427655  0.41965986  0.16510505  1
  Ca2+  Ca25  1  0.33512873  0.42289407  0.50980449  1
  Ca2+  Ca26  1  0.32999579  0.42527649  0.83624469  1
  Ca2+  Ca27  1  0.32130083  0.92152348  0.17044406  1
  Ca2+  Ca28  1  0.32723858  0.92675283  0.51258800  1
  Ca2+  Ca29  1  0.32264619  0.91627886  0.82930111  1
  Ca2+  Ca30  1  0.84113576  0.42384251  0.17511450  1
  Ca2+  Ca31  1  0.84382404  0.41888984  0.50327048  1
  Ca2+  Ca32  1  0.83500411  0.41299302  0.83372915  1
  Ca2+  Ca33  1  0.83310454  0.92088846  0.17300734  1
  Ca2+  Ca34  1  0.82633614  0.90556833  0.50603569  1
  Ca2+  Ca35  1  0.83196201  0.91842794  0.83258339  1
  Ca2+  Ca36  1  0.41467904  0.16286044  0.16642841  1
  Ca2+  Ca37  1  0.41561341  0.15874533  0.49983166  1
  Ca2+  Ca38  1  0.41925090  0.17154053  0.81919641  1
  Ca2+  Ca39  1  0.41669769  0.66666767  0.15969027  1
  Ca2+  Ca40  1  0.41655079  0.67342205  0.50609212  1
  Ca2+  Ca41  1  0.41584339  0.66922476  0.82101011  1
  Ca2+  Ca42  1  0.92634634  0.16495741  0.16065035  1
  Ca2+  Ca43  1  0.92880347  0.17290917  0.49593246  1
  Ca2+  Ca44  1  0.92523921  0.16746381  0.82636276  1
  Ca2+  Ca45  1  0.91853384  0.67203160  0.16566345  1
  Ca2+  Ca46  1  0.91777096  0.67553554  0.49941137  1
  Ca2+  Ca47  1  0.93269663  0.67211039  0.82444624  1
  Al0+  Al48  1  -0.00226242  0.00108292  0.00450637  1
  Al0+  Al49  1  -0.00039314  -0.00158455  0.32607607  1
  Al0+  Al50  1  -0.00172317  0.00021546  0.66218564  1
  Al0+  Al51  1  -0.00030487  0.50088359  0.00048257  1
  Al0+  Al52  1  0.00126706  0.49996155  0.33582617  1
  Al0+  Al53  1  0.00066854  0.50075714  0.66353993  1
  Al0+  Al54  1  0.50017473  -0.00087786  -0.00080199  1
  Al0+  Al55  1  0.49928713  -0.00060672  0.33688724  1
  Al0+  Al56  1  0.50028665  -0.00099928  0.66942839  1
  Al0+  Al57  1  0.50068888  0.50004363  0.00448284  1
  Al0+  Al58  1  0.50080056  0.49935607  0.33208308  1
  Al0+  Al59  1  0.50204424  0.49932888  0.66294936  1
  Al0+  Al60  1  0.25022148  0.25151638  -0.00131179  1
  Al0+  Al61  1  0.25140537  0.25170312  0.33244991  1
  Al0+  Al62  1  0.25048919  0.25285914  0.66325590  1
  Al0+  Al63  1  0.25078730  0.75204492  0.00648916  1
  Al0+  Al64  1  0.25173458  0.75012810  0.33184107  1
  Al0+  Al65  1  0.25198430  0.75024106  0.66467808  1
  Al0+  Al66  1  0.74919442  0.24915176  0.00585882  1
  Al0+  Al67  1  0.74797382  0.25080263  0.33071277  1
  Al0+  Al68  1  0.74814413  0.25125222  0.65944763  1
  Al0+  Al69  1  0.74769133  0.74941554  0.00026228  1
  Al0+  Al70  1  0.75057070  0.74734238  0.33515471  1
  Al0+  Al71  1  0.75061763  0.74815062  0.66907313  1
  Al0+  Al72  1  0.32180739  0.57191169  0.01598663  1
  Al0+  Al73  1  0.07425613  0.67965189  0.65247891  1
  Al0+  Al74  1  0.92792185  0.81824184  0.31812703  1
  Al0+  Al75  1  0.07082078  0.17875735  0.98456241  1
  Al0+  Al76  1  0.68145292  0.93016732  0.34723371  1
  Al0+  Al77  1  0.81939652  0.07056863  0.01352204  1
  Al0+  Al78  1  0.92769129  0.32179557  0.65317930  1
  Al0+  Al79  1  0.07052514  0.68026730  0.98746586  1
  Al0+  Al80  1  0.42878992  0.82177897  0.65143442  1
  Al0+  Al81  1  0.31798204  0.07047453  0.34608480  1
  Al0+  Al82  1  0.82137969  0.56797062  0.34878575  1
  Al0+  Al83  1  0.42795412  0.32118671  0.65251861  1
  Al0+  Al84  1  0.32063272  0.07411543  0.68243512  1
  Al0+  Al85  1  0.17870426  0.93018766  0.01409077  1
  Al0+  Al86  1  0.92866691  0.32200954  0.31687656  1
  Al0+  Al87  1  0.07187220  0.17763362  0.65231100  1
  Al0+  Al88  1  0.32149728  0.56999072  0.67842720  1
  Al0+  Al89  1  0.67985063  0.92701230  0.68202405  1
  Al0+  Al90  1  0.57212041  0.67796493  0.65158936  1
  Al0+  Al91  1  0.17645159  0.93051135  0.67971046  1
  Al0+  Al92  1  0.57018640  0.17678871  0.65192354  1
  Al0+  Al93  1  0.92869120  0.82122988  0.65396912  1
  Al0+  Al94  1  0.07253968  0.17960081  0.31610623  1
  Al0+  Al95  1  0.17752686  0.42774521  0.01501948  1
  Si0+  Si96  1  0.57177367  0.17899637  0.98685258  1
  Si0+  Si97  1  0.82276500  0.57052809  0.68427697  1
  Si0+  Si98  1  0.67640239  0.92687879  0.01691906  1
  Si0+  Si99  1  0.42947058  0.82185519  0.31642751  1
  Si0+  Si100  1  0.32415136  0.07262286  0.01504005  1
  Si0+  Si101  1  0.68021602  0.42893816  0.68157777  1
  Si0+  Si102  1  0.43053791  0.32305591  0.31515848  1
  Si0+  Si103  1  0.42967345  0.82104947  0.98610997  1
  Si0+  Si104  1  0.57092423  0.67764416  0.98655543  1
  Si0+  Si105  1  0.43067576  0.32162788  0.98599223  1
  Si0+  Si106  1  0.56978072  0.67864415  0.31707273  1
  Si0+  Si107  1  0.67502836  0.42654773  0.35228037  1
  Si0+  Si108  1  0.17589014  0.42917805  0.68307868  1
  Si0+  Si109  1  0.82035808  0.57162008  0.01425214  1
  Si0+  Si110  1  0.18132238  0.43104318  0.34931004  1
  Si0+  Si111  1  0.67919719  0.42893768  0.01531365  1
  Si0+  Si112  1  0.92557115  0.82232935  0.98366683  1
  Si0+  Si113  1  0.56905145  0.17652378  0.31664745  1
  Si0+  Si114  1  0.92602305  0.32237938  0.98479866  1
  Si0+  Si115  1  0.82373125  0.07327816  0.35066448  1
  Si0+  Si116  1  0.17589460  0.92589814  0.34950436  1
  Si0+  Si117  1  0.07499698  0.67815793  0.31588378  1
  Si0+  Si118  1  0.82013643  0.07466645  0.68083677  1
  Si0+  Si119  1  0.32373072  0.57206542  0.34897282  1
  O2-  O120  1  0.25212905  0.00765059  0.05930825  1
  O2-  O121  1  0.24056806  -0.00109186  0.39149121  1
  O2-  O122  1  0.24578120  0.00482107  0.73183744  1
  O2-  O123  1  0.24769364  0.50208590  0.06625096  1
  O2-  O124  1  0.24985815  0.50492052  0.39076368  1
  O2-  O125  1  0.24482056  0.49834325  0.72621257  1
  O2-  O126  1  0.74641915  -0.00625165  0.06062481  1
  O2-  O127  1  0.75701974  0.00308046  0.39497737  1
  O2-  O128  1  0.75356286  0.00388094  0.72641784  1
  O2-  O129  1  0.75133508  0.49858458  0.05719181  1
  O2-  O130  1  0.74952592  0.48945531  0.39469256  1
  O2-  O131  1  0.75269945  0.49762220  0.72599832  1
  O2-  O132  1  -0.00362384  0.24752929  0.26504079  1
  O2-  O133  1  -0.00041988  0.25028321  0.60397191  1
  O2-  O134  1  -0.00389347  0.25561120  0.94103946  1
  O2-  O135  1  0.00724589  0.74797609  0.27170986  1
  O2-  O136  1  0.00281591  0.75208450  0.60317759  1
  O2-  O137  1  -0.00343748  0.75570558  0.94097727  1
  O2-  O138  1  0.50060261  0.25027689  0.27328352  1
  O2-  O139  1  0.49218363  0.24244122  0.60150943  1
  O2-  O140  1  0.49849140  0.24721253  0.94498684  1
  O2-  O141  1  0.49865999  0.74876332  0.27313046  1
  O2-  O142  1  0.50361739  0.75242657  0.60071508  1
  O2-  O143  1  0.49958041  0.74784390  0.94550936  1
  O2-  O144  1  0.07012574  0.17973394  0.09752536  1
  O2-  O145  1  0.07449540  0.18262425  0.42895440  1
  O2-  O146  1  0.06903150  0.17794984  0.76628930  1
  O2-  O147  1  0.06561112  0.68068775  0.10092547  1
  O2-  O148  1  0.07744750  0.67841239  0.42088549  1
  O2-  O149  1  0.07266804  0.67830332  0.76641429  1
  O2-  O150  1  0.57126878  0.18037172  0.09241500  1
  O2-  O151  1  0.56732343  0.17557648  0.42087096  1
  O2-  O152  1  0.57391896  0.18266706  0.76629167  1
  O2-  O153  1  0.57277355  0.67780378  0.09203805  1
  O2-  O154  1  0.56866311  0.67670454  0.42115988  1
  O2-  O155  1  0.57039552  0.67762584  0.76609390  1
  O2-  O156  1  0.18292154  0.43121936  0.24408791  1
  O2-  O157  1  0.17573895  0.43139453  0.57706535  1
  O2-  O158  1  0.18103912  0.42657364  0.90208191  1
  O2-  O159  1  0.17979658  0.92272225  0.24345043  1
  O2-  O160  1  0.17766884  0.93019759  0.56603561  1
  O2-  O161  1  0.17991042  0.92777486  0.90177060  1
  O2-  O162  1  0.66960837  0.43127340  0.24603931  1
  O2-  O163  1  0.67944156  0.43001225  0.57685452  1
  O2-  O164  1  0.67709489  0.42848692  0.91050550  1
  O2-  O165  1  0.68026189  0.93294576  0.23332763  1
  O2-  O166  1  0.68234451  0.92685727  0.56883239  1
  O2-  O167  1  0.67461729  0.92620765  0.91203626  1
  O2-  O168  1  0.43390988  0.32242442  0.09168655  1
  O2-  O169  1  0.43200993  0.32757963  0.41924190  1
  O2-  O170  1  0.43396017  0.32417192  0.76663505  1
  O2-  O171  1  0.43316859  0.82259370  0.09183858  1
  O2-  O172  1  0.42910651  0.82123219  0.42051644  1
  O2-  O173  1  0.42879096  0.81855947  0.76572275  1
  O2-  O174  1  0.92408820  0.32141708  0.09020094  1
  O2-  O175  1  0.93275173  0.32175767  0.42973542  1
  O2-  O176  1  0.92666272  0.31996943  0.76740394  1
  O2-  O177  1  0.92272197  0.81873219  0.08956648  1
  O2-  O178  1  0.92584652  0.81505613  0.43033703  1
  O2-  O179  1  0.92769068  0.81799061  0.76794498  1
  O2-  O180  1  0.32016425  0.06722401  0.23222961  1
  O2-  O181  1  0.31903960  0.07090311  0.56857971  1
  O2-  O182  1  0.33021397  0.07063356  0.91065091  1
  O2-  O183  1  0.32609513  0.57002017  0.24389149  1
  O2-  O184  1  0.32117936  0.56741791  0.56474044  1
  O2-  O185  1  0.32647233  0.56951566  0.90310572  1
  O2-  O186  1  0.81979431  0.07220348  0.24449155  1
  O2-  O187  1  0.81747745  0.07647237  0.57550697  1
  O2-  O188  1  0.81565906  0.07294936  0.90073285  1
  O2-  O189  1  0.81736110  0.56843994  0.23457692  1
  O2-  O190  1  0.82144877  0.57037515  0.57933508  1
  O2-  O191  1  0.81777974  0.57246460  0.90953370  1
  O2-  O192  1  0.04848540  0.07935179  0.26419712  1
  O2-  O193  1  0.04333252  0.08116600  0.59696858  1
  O2-  O194  1  0.03590163  0.08204078  0.93380156  1
  O2-  O195  1  0.04662820  0.58475645  0.27133433  1
  O2-  O196  1  0.04333830  0.58256109  0.59904531  1
  O2-  O197  1  0.03951179  0.58350545  0.93386745  1
  O2-  O198  1  0.53753844  0.08633957  0.26738374  1
  O2-  O199  1  0.54830506  0.07699317  0.60118092  1
  O2-  O200  1  0.54829927  0.08551519  0.94109713  1
  O2-  O201  1  0.54204778  0.58658410  0.26811620  1
  O2-  O202  1  0.54434307  0.58110162  0.59660897  1
  O2-  O203  1  0.54590092  0.58437656  0.94078092  1
  O2-  O204  1  0.17036049  0.21350339  0.26304405  1
  O2-  O205  1  0.16903271  0.20776826  0.59926985  1
  O2-  O206  1  0.16894058  0.20774749  0.93294406  1
  O2-  O207  1  0.16949602  0.70141347  0.26880108  1
  O2-  O208  1  0.17163118  0.70475910  0.59792119  1
  O2-  O209  1  0.16981342  0.70941173  0.93896355  1
  O2-  O210  1  0.66140009  0.20273466  0.26861480  1
  O2-  O211  1  0.66385371  0.21246994  0.59466313  1
  O2-  O212  1  0.66247172  0.21028050  0.94014354  1
  O2-  O213  1  0.66107951  0.70701896  0.26879937  1
  O2-  O214  1  0.67145534  0.70366955  0.60106027  1
  O2-  O215  1  0.66265811  0.70421110  0.93819055  1
  O2-  O216  1  0.07854632  0.45570967  0.06854448  1
  O2-  O217  1  0.08962982  0.45670286  0.39693405  1
  O2-  O218  1  0.08229311  0.45356196  0.72967154  1
  O2-  O219  1  0.08163957  0.95783080  0.06857187  1
  O2-  O220  1  0.07953994  0.94607235  0.39062596  1
  O2-  O221  1  0.07642824  0.95545432  0.73255095  1
  O2-  O222  1  0.58937264  0.45861994  0.06637262  1
  O2-  O223  1  0.58384924  0.45903807  0.39912654  1
  O2-  O224  1  0.59015937  0.45960454  0.73103099  1
  O2-  O225  1  0.58375533  0.95510445  0.06475622  1
  O2-  O226  1  0.58494068  0.96166811  0.40000638  1
  O2-  O227  1  0.58343052  0.95599437  0.73677153  1
  O2-  O228  1  0.21172594  0.33131027  0.07046059  1
  O2-  O229  1  0.21343547  0.34081868  0.39609156  1
  O2-  O230  1  0.20250515  0.33601188  0.72841477  1
  O2-  O231  1  0.21297375  0.83697349  0.07306741  1
  O2-  O232  1  0.20626283  0.83318548  0.39469145  1
  O2-  O233  1  0.20991404  0.83274373  0.73173023  1
  O2-  O234  1  0.70342854  0.33739220  0.06533757  1
  O2-  O235  1  0.69235465  0.32973000  0.39378689  1
  O2-  O236  1  0.70645762  0.33660708  0.72965804  1
  O2-  O237  1  0.69931104  0.83198223  0.06315478  1
  O2-  O238  1  0.70845394  0.83178272  0.39808026  1
  O2-  O239  1  0.71138782  0.83095064  0.73783767  1
  O2-  O240  1  0.46170096  0.41337664  0.26489163  1
  O2-  O241  1  0.46663315  0.41454691  0.59605064  1
  O2-  O242  1  0.46353782  0.41254281  0.94011339  1
  O2-  O243  1  0.46132961  0.91216688  0.26793041  1
  O2-  O244  1  0.45615713  0.92009991  0.59973470  1
  O2-  O245  1  0.45925267  0.91183163  0.93788993  1
  O2-  O246  1  0.96069215  0.42076969  0.26531221  1
  O2-  O247  1  0.95550786  0.41990143  0.60044550  1
  O2-  O248  1  0.94716194  0.41754761  0.94051108  1
  O2-  O249  1  0.95327435  0.91575129  0.26279602  1
  O2-  O250  1  0.94900138  0.91988354  0.59927348  1
  O2-  O251  1  0.94764656  0.91745644  0.94156857  1
  O2-  O252  1  0.33918522  0.29533722  0.26727205  1
  O2-  O253  1  0.32815580  0.30515604  0.59921961  1
  O2-  O254  1  0.33824516  0.29895299  0.93941435  1
  O2-  O255  1  0.33759423  0.79444390  0.26764042  1
  O2-  O256  1  0.33378040  0.78990395  0.59506242  1
  O2-  O257  1  0.33732582  0.79476341  0.94122288  1
  O2-  O258  1  0.82538877  0.30317306  0.26765198  1
  O2-  O259  1  0.82967279  0.29804640  0.59817848  1
  O2-  O260  1  0.83120763  0.29566461  0.94076424  1
  O2-  O261  1  0.83258300  0.78236877  0.26290565  1
  O2-  O262  1  0.83271556  0.78573152  0.60127028  1
  O2-  O263  1  0.83149242  0.79493620  0.93877749  1
  O2-  O264  1  0.41670519  0.04318003  0.06407059  1
  O2-  O265  1  0.41375729  0.03735612  0.39936529  1
  O2-  O266  1  0.41917435  0.04512437  0.73500528  1
  O2-  O267  1  0.41973093  0.54029333  0.07136955  1
  O2-  O268  1  0.41470492  0.54028158  0.39512407  1
  O2-  O269  1  0.41877859  0.53756868  0.73095461  1
  O2-  O270  1  0.91390652  0.04067083  0.07122431  1
  O2-  O271  1  0.91931849  0.04966370  0.39179323  1
  O2-  O272  1  0.91388853  0.04958288  0.72622888  1
  O2-  O273  1  0.91167020  0.54605010  0.06305348  1
  O2-  O274  1  0.91911786  0.54184046  0.40248634  1
  O2-  O275  1  0.91461915  0.54252167  0.73174965  1
  O2-  O276  1  0.30296136  0.16794078  0.05956210  1
  O2-  O277  1  0.29513584  0.17016429  0.39714946  1
  O2-  O278  1  0.29926464  0.17606811  0.73126028  1
  O2-  O279  1  0.29692329  0.67013369  0.07087745  1
  O2-  O280  1  0.30070234  0.66632499  0.39312779  1
  O2-  O281  1  0.29427602  0.66709582  0.73212756  1
  O2-  O282  1  0.78587947  0.16517965  0.07181999  1
  O2-  O283  1  0.79621744  0.16764429  0.39335406  1
  O2-  O284  1  0.79059765  0.16739832  0.72745438  1
  O2-  O285  1  0.78895318  0.66226014  0.06330849  1
  O2-  O286  1  0.78463829  0.66191678  0.40260274  1
  O2-  O287  1  0.79226232  0.65966325  0.73457581  1
