# generated using pymatgen
data_Ca2Al2SiO7
_symmetry_space_group_name_H-M   'P 1'
_cell_length_a   15.45215135
_cell_length_b   15.45200227
_cell_length_c   15.27929340
_cell_angle_alpha   89.98960971
_cell_angle_beta   89.99315412
_cell_angle_gamma   89.99828928
_symmetry_Int_Tables_number   1
_chemical_formula_structural   Ca2Al2SiO7
_chemical_formula_sum   'Ca48 Al48 Si24 O168'
_cell_volume   3648.18603536
_cell_formula_units_Z   24
loop_
 _symmetry_equiv_pos_site_id
 _symmetry_equiv_pos_as_xyz
  1  'x, y, z'
loop_
 _atom_type_symbol
 _atom_type_oxidation_number
  Ca2+  2.0
  Al0+  0.0
  Si0+  0.0
  O2-  -2.0
loop_
 _atom_site_type_symbol
 _atom_site_label
 _atom_site_symmetry_multiplicity
 _atom_site_fract_x
 _atom_site_fract_y
 _atom_site_fract_z
 _atom_site_occupancy
  Ca2+  Ca0  1  0.16773855  0.08390778  0.17232159  1
  Ca2+  Ca1  1  0.17139207  0.08878785  0.49807803  1
  Ca2+  Ca2  1  0.16310424  0.07554024  0.84176193  1
  Ca2+  Ca3  1  0.17610277  0.57945033  0.17370665  1
  Ca2+  Ca4  1  0.17561444  0.57965335  0.50079030  1
  Ca2+  Ca5  1  0.18006191  0.58963846  0.84067964  1
  Ca2+  Ca6  1  0.66828877  0.08883525  0.17530169  1
  Ca2+  Ca7  1  0.67568787  0.08231531  0.50635844  1
  Ca2+  Ca8  1  0.67000967  0.08018220  0.83404459  1
  Ca2+  Ca9  1  0.67060819  0.58222270  0.17070630  1
  Ca2+  Ca10  1  0.67572506  0.58614357  0.50679314  1
  Ca2+  Ca11  1  0.67000867  0.59319725  0.83531862  1
  Ca2+  Ca12  1  0.08666846  0.32697629  0.16810355  1
  Ca2+  Ca13  1  0.07352438  0.33278934  0.49034799  1
  Ca2+  Ca14  1  0.07977126  0.32603265  0.82912421  1
  Ca2+  Ca15  1  0.08369533  0.82906289  0.15923958  1
  Ca2+  Ca16  1  0.07612775  0.83263600  0.50018939  1
  Ca2+  Ca17  1  0.08206868  0.83017844  0.83156285  1
  Ca2+  Ca18  1  0.57913191  0.32172215  0.16081860  1
  Ca2+  Ca19  1  0.58368225  0.32572005  0.49404566  1
  Ca2+  Ca20  1  0.57934368  0.33086276  0.83622698  1
  Ca2+  Ca21  1  0.57403311  0.82726135  0.16364432  1
  Ca2+  Ca22  1  0.57721906  0.83329084  0.49991770  1
  Ca2+  Ca23  1  0.58017395  0.82343281  0.82167617  1
  Ca2+  Ca24  1  0.33305070  0.42456887  0.17367707  1
  Ca2+  Ca25  1  0.32820236  0.42467345  0.50364609  1
  Ca2+  Ca26  1  0.34000605  0.42803570  0.84047848  1
  Ca2+  Ca27  1  0.32653510  0.91792773  0.17334551  1
  Ca2+  Ca28  1  0.33942277  0.91680174  0.50032608  1
  Ca2+  Ca29  1  0.32863374  0.91329870  0.83755893  1
  Ca2+  Ca30  1  0.83477602  0.42076137  0.17565862  1
  Ca2+  Ca31  1  0.84047445  0.42376846  0.50451382  1
  Ca2+  Ca32  1  0.83569869  0.41887672  0.82990482  1
  Ca2+  Ca33  1  0.82849392  0.92565167  0.17464638  1
  Ca2+  Ca34  1  0.83001995  0.92863992  0.51153549  1
  Ca2+  Ca35  1  0.82990638  0.91409820  0.83035796  1
  Ca2+  Ca36  1  0.42364221  0.16839500  0.16169311  1
  Ca2+  Ca37  1  0.42462737  0.16164958  0.48827832  1
  Ca2+  Ca38  1  0.41821256  0.17173698  0.83350268  1
  Ca2+  Ca39  1  0.41339322  0.66735079  0.16088593  1
  Ca2+  Ca40  1  0.41428232  0.67322359  0.49839626  1
  Ca2+  Ca41  1  0.42473015  0.66547733  0.82461214  1
  Ca2+  Ca42  1  0.92492371  0.16886871  0.16695881  1
  Ca2+  Ca43  1  0.91441882  0.17548869  0.49021489  1
  Ca2+  Ca44  1  0.92022423  0.16886584  0.82615830  1
  Ca2+  Ca45  1  0.92431805  0.66364858  0.16218842  1
  Ca2+  Ca46  1  0.90607739  0.67074107  0.49773589  1
  Ca2+  Ca47  1  0.92379677  0.66986709  0.82411987  1
  Al0+  Al48  1  -0.00150063  0.00084271  0.00155524  1
  Al0+  Al49  1  -0.00172245  -0.00003742  0.33437012  1
  Al0+  Al50  1  0.00245761  -0.00081457  0.66589327  1
  Al0+  Al51  1  0.00184845  0.50121921  -0.00525080  1
  Al0+  Al52  1  -0.00046990  0.50132164  0.33704967  1
  Al0+  Al53  1  0.00139674  0.49689133  0.66866091  1
  Al0+  Al54  1  0.50079364  -0.00014086  -0.00338933  1
  Al0+  Al55  1  0.49780777  -0.00330848  0.32609773  1
  Al0+  Al56  1  0.49998680  -0.00041747  0.66957792  1
  Al0+  Al57  1  0.50264212  0.50053952  -0.00116599  1
  Al0+  Al58  1  0.50178754  0.50080694  0.33858970  1
  Al0+  Al59  1  0.50069290  0.49871561  0.66483938  1
  Al0+  Al60  1  0.24874831  0.25073832  -0.00987437  1
  Al0+  Al61  1  0.24935434  0.24941949  0.33922242  1
  Al0+  Al62  1  0.25044027  0.24968322  0.66771814  1
  Al0+  Al63  1  0.24806326  0.75088466  0.00563858  1
  Al0+  Al64  1  0.24893604  0.75116475  0.33395087  1
  Al0+  Al65  1  0.25083985  0.74965918  0.66649040  1
  Al0+  Al66  1  0.74978087  0.25082964  -0.00346503  1
  Al0+  Al67  1  0.75019214  0.25068079  0.32815105  1
  Al0+  Al68  1  0.75130661  0.25102647  0.66822844  1
  Al0+  Al69  1  0.74893380  0.75228496  0.00051680  1
  Al0+  Al70  1  0.74786405  0.75011322  0.33438044  1
  Al0+  Al71  1  0.75110266  0.74996404  0.66713734  1
  Al0+  Al72  1  0.92983007  0.31938082  0.65231912  1
  Al0+  Al73  1  0.42762663  0.82167106  0.65178256  1
  Al0+  Al74  1  0.57200996  0.67716772  0.64958953  1
  Al0+  Al75  1  0.42878609  0.32136172  0.98633304  1
  Al0+  Al76  1  0.57127115  0.68039295  0.98731323  1
  Al0+  Al77  1  0.93026233  0.82013993  0.65321327  1
  Al0+  Al78  1  0.57285047  0.17673356  0.98240682  1
  Al0+  Al79  1  0.07224126  0.17796741  0.31871629  1
  Al0+  Al80  1  0.57016494  0.17882391  0.32155132  1
  Al0+  Al81  1  0.42804616  0.81843102  0.31703218  1
  Al0+  Al82  1  0.07147020  0.67948915  0.98734106  1
  Al0+  Al83  1  0.31994541  0.57002170  0.68176135  1
  Al0+  Al84  1  0.32087589  0.06922741  0.34433421  1
  Al0+  Al85  1  0.32233298  0.56935564  0.01393918  1
  Al0+  Al86  1  0.06986811  0.17819857  0.98570899  1
  Al0+  Al87  1  0.82287480  0.07282598  0.68277481  1
  Al0+  Al88  1  0.32315584  0.57340028  0.34974452  1
  Al0+  Al89  1  0.92941078  0.32369521  0.31684965  1
  Al0+  Al90  1  0.67848234  0.92972425  0.68221389  1
  Al0+  Al91  1  0.81996803  0.07124061  0.34591174  1
  Al0+  Al92  1  0.82005767  0.57117489  0.34548634  1
  Al0+  Al93  1  0.17816252  0.93060628  0.01411139  1
  Al0+  Al94  1  0.17921805  0.42795243  0.34819549  1
  Al0+  Al95  1  0.82106069  0.57050603  0.68184708  1
  Si0+  Si96  1  0.81915702  0.07239691  0.01602717  1
  Si0+  Si97  1  0.17880761  0.42626918  0.68667194  1
  Si0+  Si98  1  0.68082071  0.42858763  0.01530096  1
  Si0+  Si99  1  0.17611106  0.92755046  0.35174512  1
  Si0+  Si100  1  0.67819245  0.92845790  0.01653876  1
  Si0+  Si101  1  0.07277530  0.67714304  0.64959686  1
  Si0+  Si102  1  0.82229134  0.57171912  0.01344900  1
  Si0+  Si103  1  0.67718619  0.42687560  0.68471188  1
  Si0+  Si104  1  0.92648703  0.82131240  0.31858941  1
  Si0+  Si105  1  0.32205190  0.07369553  0.01490590  1
  Si0+  Si106  1  0.17662444  0.42663135  0.01517125  1
  Si0+  Si107  1  0.42787161  0.32089623  0.65009463  1
  Si0+  Si108  1  0.06968958  0.68060652  0.31983131  1
  Si0+  Si109  1  0.57312290  0.67691314  0.31594956  1
  Si0+  Si110  1  0.67671607  0.92800765  0.34883671  1
  Si0+  Si111  1  0.92737729  0.82220918  0.98479979  1
  Si0+  Si112  1  0.92755706  0.32329938  0.98204064  1
  Si0+  Si113  1  0.67837033  0.42689941  0.34926081  1
  Si0+  Si114  1  0.32213129  0.07236672  0.68266552  1
  Si0+  Si115  1  0.42656127  0.82104691  0.98424654  1
  Si0+  Si116  1  0.07349967  0.17634631  0.64869596  1
  Si0+  Si117  1  0.17980270  0.92935239  0.68101918  1
  Si0+  Si118  1  0.42766935  0.32372814  0.32014876  1
  Si0+  Si119  1  0.56936108  0.17975195  0.65244699  1
  O2-  O120  1  0.25328458  0.00544347  0.05960103  1
  O2-  O121  1  0.24438068  -0.00246485  0.39432166  1
  O2-  O122  1  0.25081307  0.00082069  0.72313997  1
  O2-  O123  1  0.24767153  0.49329504  0.05882595  1
  O2-  O124  1  0.25341845  0.49819724  0.39804200  1
  O2-  O125  1  0.24639212  0.49560942  0.73121430  1
  O2-  O126  1  0.74526844  0.00371235  0.05839990  1
  O2-  O127  1  0.74458173  -0.00249026  0.39247484  1
  O2-  O128  1  0.75190395  0.00016420  0.73377454  1
  O2-  O129  1  0.75304979  0.49946621  0.05639516  1
  O2-  O130  1  0.74660596  0.49602243  0.39297652  1
  O2-  O131  1  0.74364007  0.49842052  0.72885307  1
  O2-  O132  1  0.00155788  0.25118753  0.26801780  1
  O2-  O133  1  0.00276277  0.24315032  0.60603133  1
  O2-  O134  1  -0.00363020  0.25393336  0.93921484  1
  O2-  O135  1  -0.00213993  0.75091151  0.27649181  1
  O2-  O136  1  0.00028380  0.74157061  0.60456370  1
  O2-  O137  1  -0.00436611  0.75301649  0.94101524  1
  O2-  O138  1  0.49482449  0.25360743  0.27581239  1
  O2-  O139  1  0.49761007  0.24876416  0.60809157  1
  O2-  O140  1  0.49785182  0.24672303  0.93438126  1
  O2-  O141  1  0.49911216  0.73962895  0.27132218  1
  O2-  O142  1  0.49939043  0.74951039  0.60133040  1
  O2-  O143  1  0.49484149  0.75251797  0.94001569  1
  O2-  O144  1  0.06882593  0.17752468  0.09829518  1
  O2-  O145  1  0.06993708  0.17766538  0.43219186  1
  O2-  O146  1  0.07425398  0.17710122  0.75478030  1
  O2-  O147  1  0.06844479  0.67924901  0.10081431  1
  O2-  O148  1  0.06967663  0.68310050  0.42494969  1
  O2-  O149  1  0.07365510  0.68146986  0.75551504  1
  O2-  O150  1  0.57394632  0.17911290  0.09607275  1
  O2-  O151  1  0.57003096  0.17966679  0.43519744  1
  O2-  O152  1  0.56738379  0.18118612  0.75740918  1
  O2-  O153  1  0.57451069  0.68265631  0.10039444  1
  O2-  O154  1  0.57733911  0.68001773  0.42087683  1
  O2-  O155  1  0.56990397  0.67843732  0.76368649  1
  O2-  O156  1  0.18034462  0.43018650  0.23400665  1
  O2-  O157  1  0.18072168  0.42522167  0.58127696  1
  O2-  O158  1  0.17497425  0.42886617  0.90952935  1
  O2-  O159  1  0.17616445  0.92579225  0.24611204  1
  O2-  O160  1  0.17838591  0.93006396  0.57604126  1
  O2-  O161  1  0.17880935  0.93082920  0.90049077  1
  O2-  O162  1  0.67751477  0.42851079  0.24331257  1
  O2-  O163  1  0.67796070  0.42386716  0.57919484  1
  O2-  O164  1  0.68149006  0.42747460  0.91030027  1
  O2-  O165  1  0.68024226  0.92647557  0.24258569  1
  O2-  O166  1  0.67738123  0.93482374  0.56844023  1
  O2-  O167  1  0.68099201  0.92559777  0.91202719  1
  O2-  O168  1  0.43113821  0.32060324  0.10015579  1
  O2-  O169  1  0.43096053  0.32241739  0.42613958  1
  O2-  O170  1  0.42810049  0.31999271  0.75506976  1
  O2-  O171  1  0.42839287  0.82053327  0.09003169  1
  O2-  O172  1  0.43055972  0.82057919  0.42970799  1
  O2-  O173  1  0.42594403  0.82053722  0.76561379  1
  O2-  O174  1  0.92586634  0.32460973  0.08721416  1
  O2-  O175  1  0.92907105  0.32272693  0.43038935  1
  O2-  O176  1  0.93247002  0.31858617  0.76591301  1
  O2-  O177  1  0.92607592  0.82075151  0.09088495  1
  O2-  O178  1  0.92662434  0.82118982  0.42358590  1
  O2-  O179  1  0.93461742  0.82000538  0.76658504  1
  O2-  O180  1  0.32136711  0.06714189  0.23128044  1
  O2-  O181  1  0.32283342  0.07453051  0.57769023  1
  O2-  O182  1  0.32142131  0.07127359  0.90879066  1
  O2-  O183  1  0.32113727  0.57238015  0.23573785  1
  O2-  O184  1  0.31714498  0.56913871  0.56903361  1
  O2-  O185  1  0.32169937  0.57001573  0.90067649  1
  O2-  O186  1  0.81937386  0.06828925  0.23212145  1
  O2-  O187  1  0.81974977  0.07372508  0.56915913  1
  O2-  O188  1  0.82008854  0.07114421  0.91114696  1
  O2-  O189  1  0.81886679  0.57207586  0.23150817  1
  O2-  O190  1  0.82045346  0.56865464  0.56879630  1
  O2-  O191  1  0.82168058  0.57182404  0.90856780  1
  O2-  O192  1  0.04226828  0.07889288  0.26642779  1
  O2-  O193  1  0.05320068  0.08171697  0.60394043  1
  O2-  O194  1  0.03623380  0.08215272  0.93145157  1
  O2-  O195  1  0.04149187  0.58949045  0.27229323  1
  O2-  O196  1  0.05229036  0.58112090  0.60809331  1
  O2-  O197  1  0.04311368  0.58407686  0.92980485  1
  O2-  O198  1  0.54027250  0.08325180  0.26539819  1
  O2-  O199  1  0.54181052  0.08777817  0.60626001  1
  O2-  O200  1  0.54752422  0.07749298  0.92963454  1
  O2-  O201  1  0.55399308  0.58023781  0.27326822  1
  O2-  O202  1  0.54617856  0.57747712  0.59799236  1
  O2-  O203  1  0.54649542  0.58287735  0.93365860  1
  O2-  O204  1  0.17229515  0.20501619  0.26753232  1
  O2-  O205  1  0.16765203  0.20405909  0.60423606  1
  O2-  O206  1  0.16541533  0.20486003  0.92741037  1
  O2-  O207  1  0.16042892  0.70969801  0.27122396  1
  O2-  O208  1  0.16363388  0.70882362  0.60207711  1
  O2-  O209  1  0.16691137  0.71424008  0.93362893  1
  O2-  O210  1  0.66443359  0.21104398  0.26419041  1
  O2-  O211  1  0.66137797  0.20913997  0.60684357  1
  O2-  O212  1  0.66968779  0.20957779  0.92872915  1
  O2-  O213  1  0.66447743  0.70838286  0.26679375  1
  O2-  O214  1  0.67094717  0.70588820  0.59910949  1
  O2-  O215  1  0.66736009  0.71401477  0.93313172  1
  O2-  O216  1  0.08326887  0.45474587  0.06106040  1
  O2-  O217  1  0.08269361  0.46080995  0.40245963  1
  O2-  O218  1  0.08489279  0.44934995  0.73249826  1
  O2-  O219  1  0.08053192  0.95889666  0.06824923  1
  O2-  O220  1  0.08214845  0.95180190  0.39779587  1
  O2-  O221  1  0.08928333  0.95699686  0.73106510  1
  O2-  O222  1  0.59049866  0.45768578  0.06424129  1
  O2-  O223  1  0.58535914  0.44954443  0.39814455  1
  O2-  O224  1  0.58240495  0.44883964  0.72992791  1
  O2-  O225  1  0.58409664  0.95190548  0.06197049  1
  O2-  O226  1  0.58231733  0.95264605  0.39158083  1
  O2-  O227  1  0.58081166  0.95899963  0.73744504  1
  O2-  O228  1  0.19992289  0.33097977  0.05776687  1
  O2-  O229  1  0.20321927  0.33008045  0.40437949  1
  O2-  O230  1  0.20552996  0.33214822  0.73246171  1
  O2-  O231  1  0.20836568  0.83546706  0.07150152  1
  O2-  O232  1  0.20315820  0.83522676  0.39910094  1
  O2-  O233  1  0.20755507  0.83780525  0.72919593  1
  O2-  O234  1  0.70856391  0.33654885  0.06310075  1
  O2-  O235  1  0.70404353  0.33340375  0.39492734  1
  O2-  O236  1  0.70669803  0.33553191  0.73375946  1
  O2-  O237  1  0.71030110  0.83910427  0.06748794  1
  O2-  O238  1  0.70286035  0.83520074  0.39540120  1
  O2-  O239  1  0.70804065  0.83152132  0.73485656  1
  O2-  O240  1  0.45471077  0.41741567  0.27451893  1
  O2-  O241  1  0.45655826  0.41137236  0.60149130  1
  O2-  O242  1  0.46424054  0.41704690  0.93161307  1
  O2-  O243  1  0.46127072  0.91195957  0.25833567  1
  O2-  O244  1  0.45591373  0.92158797  0.60053424  1
  O2-  O245  1  0.45025826  0.91519983  0.93883039  1
  O2-  O246  1  0.95762002  0.42316548  0.26519727  1
  O2-  O247  1  0.96204317  0.41619183  0.59925451  1
  O2-  O248  1  0.95350371  0.41634198  0.93459493  1
  O2-  O249  1  0.95445747  0.91246242  0.27011317  1
  O2-  O250  1  0.96523711  0.91540503  0.59804430  1
  O2-  O251  1  0.95333865  0.91528435  0.93899545  1
  O2-  O252  1  0.33326113  0.29999476  0.27665688  1
  O2-  O253  1  0.33521783  0.29365169  0.60416412  1
  O2-  O254  1  0.33114672  0.29806509  0.92872250  1
  O2-  O255  1  0.32922640  0.79181986  0.26437792  1
  O2-  O256  1  0.32922203  0.79373049  0.59810099  1
  O2-  O257  1  0.33193379  0.79693451  0.94092652  1
  O2-  O258  1  0.83148688  0.29559309  0.26274208  1
  O2-  O259  1  0.83144435  0.29282516  0.59972594  1
  O2-  O260  1  0.83471801  0.29708526  0.93504690  1
  O2-  O261  1  0.83481503  0.79339538  0.27043035  1
  O2-  O262  1  0.83326242  0.79350490  0.59933096  1
  O2-  O263  1  0.83429051  0.79636202  0.93851006  1
  O2-  O264  1  0.41725812  0.04926715  0.05879031  1
  O2-  O265  1  0.41684462  0.03441575  0.39822204  1
  O2-  O266  1  0.41281845  0.04532031  0.73213509  1
  O2-  O267  1  0.41997512  0.54020827  0.06710679  1
  O2-  O268  1  0.42282166  0.54935468  0.40197924  1
  O2-  O269  1  0.41787641  0.53781043  0.73260171  1
  O2-  O270  1  0.90943802  0.04124409  0.06441837  1
  O2-  O271  1  0.91552190  0.03943069  0.40078014  1
  O2-  O272  1  0.92272278  0.04387462  0.73292275  1
  O2-  O273  1  0.91524518  0.54474680  0.05952765  1
  O2-  O274  1  0.91623496  0.54512578  0.40136751  1
  O2-  O275  1  0.91807014  0.53757266  0.73545540  1
  O2-  O276  1  0.29627427  0.16858175  0.05726948  1
  O2-  O277  1  0.29545484  0.16537277  0.40224226  1
  O2-  O278  1  0.29380837  0.16390982  0.73121247  1
  O2-  O279  1  0.28908278  0.66512699  0.06803066  1
  O2-  O280  1  0.28868216  0.67034294  0.40190133  1
  O2-  O281  1  0.28848075  0.66708190  0.73518889  1
  O2-  O282  1  0.79347112  0.16570094  0.06160451  1
  O2-  O283  1  0.78928495  0.16881382  0.39712657  1
  O2-  O284  1  0.79267105  0.17039475  0.73661908  1
  O2-  O285  1  0.79360956  0.66358665  0.06091664  1
  O2-  O286  1  0.78789353  0.66767415  0.39983271  1
  O2-  O287  1  0.79444660  0.66787969  0.73607665  1
