# generated using pymatgen
data_Ca2Al2SiO7
_symmetry_space_group_name_H-M   'P 1'
_cell_length_a   15.46416940
_cell_length_b   15.46256651
_cell_length_c   15.28766251
_cell_angle_alpha   89.98375776
_cell_angle_beta   89.99529412
_cell_angle_gamma   90.00089173
_symmetry_Int_Tables_number   1
_chemical_formula_structural   Ca2Al2SiO7
_chemical_formula_sum   'Ca48 Al48 Si24 O168'
_cell_volume   3655.52069506
_cell_formula_units_Z   24
loop_
 _symmetry_equiv_pos_site_id
 _symmetry_equiv_pos_as_xyz
  1  'x, y, z'
loop_
 _atom_type_symbol
 _atom_type_oxidation_number
  Ca2+  2.0
  Al0+  0.0
  Si0+  0.0
  O2-  -2.0
loop_
 _atom_site_type_symbol
 _atom_site_label
 _atom_site_symmetry_multiplicity
 _atom_site_fract_x
 _atom_site_fract_y
 _atom_site_fract_z
 _atom_site_occupancy
  Ca2+  Ca0  1  0.16516329  0.08018918  0.16804834  1
  Ca2+  Ca1  1  0.16347127  0.08449197  0.50186212  1
  Ca2+  Ca2  1  0.17516110  0.07553305  0.84310915  1
  Ca2+  Ca3  1  0.16978328  0.58945021  0.17534046  1
  Ca2+  Ca4  1  0.17406885  0.59235117  0.49797113  1
  Ca2+  Ca5  1  0.16778828  0.58448011  0.84114230  1
  Ca2+  Ca6  1  0.67841263  0.07787603  0.16926287  1
  Ca2+  Ca7  1  0.67744905  0.07690521  0.51117357  1
  Ca2+  Ca8  1  0.66798450  0.07403611  0.84107091  1
  Ca2+  Ca9  1  0.67364533  0.58569785  0.16978846  1
  Ca2+  Ca10  1  0.67435234  0.59159536  0.50377134  1
  Ca2+  Ca11  1  0.67560886  0.58481331  0.83975381  1
  Ca2+  Ca12  1  0.07440175  0.32744517  0.16223387  1
  Ca2+  Ca13  1  0.07977693  0.32450912  0.49305065  1
  Ca2+  Ca14  1  0.07224737  0.33314788  0.83402040  1
  Ca2+  Ca15  1  0.07810343  0.82524789  0.16300802  1
  Ca2+  Ca16  1  0.06778226  0.83003196  0.49170394  1
  Ca2+  Ca17  1  0.07795849  0.83196981  0.83231178  1
  Ca2+  Ca18  1  0.57997752  0.33929463  0.16161397  1
  Ca2+  Ca19  1  0.57649216  0.33099846  0.49852888  1
  Ca2+  Ca20  1  0.58269015  0.32727493  0.82629680  1
  Ca2+  Ca21  1  0.58979284  0.82264418  0.16158230  1
  Ca2+  Ca22  1  0.59354608  0.82388274  0.50039016  1
  Ca2+  Ca23  1  0.60088565  0.82520045  0.83130737  1
  Ca2+  Ca24  1  0.33214634  0.42231165  0.17665444  1
  Ca2+  Ca25  1  0.33833536  0.41569027  0.49867195  1
  Ca2+  Ca26  1  0.33357974  0.41409439  0.83470947  1
  Ca2+  Ca27  1  0.32746950  0.91771510  0.16484326  1
  Ca2+  Ca28  1  0.32827366  0.91554821  0.50307645  1
  Ca2+  Ca29  1  0.32718106  0.92092991  0.84590081  1
  Ca2+  Ca30  1  0.83170490  0.42491326  0.16585173  1
  Ca2+  Ca31  1  0.83709114  0.43345557  0.50374271  1
  Ca2+  Ca32  1  0.82745661  0.42540433  0.84495257  1
  Ca2+  Ca33  1  0.83427453  0.92020462  0.16988842  1
  Ca2+  Ca34  1  0.83581372  0.92116754  0.50735893  1
  Ca2+  Ca35  1  0.82657763  0.92416306  0.83399328  1
  Ca2+  Ca36  1  0.41437663  0.17190971  0.16239009  1
  Ca2+  Ca37  1  0.42405065  0.17540741  0.49645983  1
  Ca2+  Ca38  1  0.42361672  0.16858150  0.82408514  1
  Ca2+  Ca39  1  0.42911896  0.66043360  0.16355359  1
  Ca2+  Ca40  1  0.43028872  0.66272168  0.49279190  1
  Ca2+  Ca41  1  0.43259781  0.66891292  0.83020663  1
  Ca2+  Ca42  1  0.91408760  0.16594752  0.16174566  1
  Ca2+  Ca43  1  0.91882502  0.16021882  0.49163534  1
  Ca2+  Ca44  1  0.90338474  0.16957743  0.83372020  1
  Ca2+  Ca45  1  0.91965239  0.66531203  0.16158478  1
  Ca2+  Ca46  1  0.91007635  0.67828084  0.49271645  1
  Ca2+  Ca47  1  0.91459320  0.66935781  0.82877980  1
  Al0+  Al48  1  0.00259873  -0.00096983  0.00495046  1
  Al0+  Al49  1  0.00042041  -0.00063698  0.32831265  1
  Al0+  Al50  1  0.00029618  -0.00058761  0.66893099  1
  Al0+  Al51  1  0.00059690  0.49821327  -0.00549005  1
  Al0+  Al52  1  0.00000321  0.49806856  0.33678191  1
  Al0+  Al53  1  0.00415722  0.49926667  0.66932436  1
  Al0+  Al54  1  0.49880303  0.00063716  0.00998383  1
  Al0+  Al55  1  0.49899112  0.00006003  0.33478085  1
  Al0+  Al56  1  0.49988854  -0.00112415  0.66535639  1
  Al0+  Al57  1  0.49959584  0.50048084  -0.00442138  1
  Al0+  Al58  1  0.49824406  0.49949432  0.33021264  1
  Al0+  Al59  1  0.49908882  0.50127428  0.66005803  1
  Al0+  Al60  1  0.24883641  0.25108346  0.00192061  1
  Al0+  Al61  1  0.24987271  0.24978745  0.32626892  1
  Al0+  Al62  1  0.24801675  0.25114720  0.66423497  1
  Al0+  Al63  1  0.25068117  0.74992899  -0.00083627  1
  Al0+  Al64  1  0.25031159  0.75086329  0.33743424  1
  Al0+  Al65  1  0.25165346  0.74870978  0.66947364  1
  Al0+  Al66  1  0.74732204  0.25145815  0.00317506  1
  Al0+  Al67  1  0.74849641  0.24877974  0.33903685  1
  Al0+  Al68  1  0.75065671  0.25339789  0.66124431  1
  Al0+  Al69  1  0.75298327  0.75061093  0.00201152  1
  Al0+  Al70  1  0.74879783  0.75011560  0.32774067  1
  Al0+  Al71  1  0.75326557  0.75136992  0.66619364  1
  Al0+  Al72  1  0.06960059  0.17911966  0.31891457  1
  Al0+  Al73  1  0.56926183  0.68053290  0.31875720  1
  Al0+  Al74  1  0.43171066  0.31881891  0.31709609  1
  Al0+  Al75  1  0.07159552  0.67793637  0.32062357  1
  Al0+  Al76  1  0.57273926  0.67982793  0.98501438  1
  Al0+  Al77  1  0.67635389  0.42983481  0.01341473  1
  Al0+  Al78  1  0.93255419  0.81953892  0.65460421  1
  Al0+  Al79  1  0.67887978  0.92718659  0.01727296  1
  Al0+  Al80  1  0.82198652  0.57089562  0.68016903  1
  Al0+  Al81  1  0.82036562  0.07218288  0.01508368  1
  Al0+  Al82  1  0.92803652  0.82021515  0.31584988  1
  Al0+  Al83  1  0.82137604  0.06917620  0.34800717  1
  Al0+  Al84  1  0.57120113  0.68211725  0.65340450  1
  Al0+  Al85  1  0.57372631  0.17611462  0.65156049  1
  Al0+  Al86  1  0.32067297  0.57099311  0.34729691  1
  Al0+  Al87  1  0.32117107  0.07332667  0.01570219  1
  Al0+  Al88  1  0.92734480  0.31837195  0.98676100  1
  Al0+  Al89  1  0.82322995  0.57059192  0.01457438  1
  Al0+  Al90  1  0.82318765  0.07405867  0.68130499  1
  Al0+  Al91  1  0.67843115  0.92968881  0.68076662  1
  Al0+  Al92  1  0.07175576  0.67881255  0.98556026  1
  Al0+  Al93  1  0.82077217  0.57050908  0.34728053  1
  Al0+  Al94  1  0.42715481  0.32004496  0.65098297  1
  Al0+  Al95  1  0.17923863  0.92649376  0.01685814  1
  Si0+  Si96  1  0.67612742  0.42999667  0.68085944  1
  Si0+  Si97  1  0.18066026  0.42694698  0.68337344  1
  Si0+  Si98  1  0.07269432  0.17751635  0.98208244  1
  Si0+  Si99  1  0.42341312  0.82226680  0.65076141  1
  Si0+  Si100  1  0.31926624  0.07184837  0.67820840  1
  Si0+  Si101  1  0.92528492  0.32244119  0.31829910  1
  Si0+  Si102  1  0.42952609  0.82257086  0.98502656  1
  Si0+  Si103  1  0.17965046  0.92826087  0.68078004  1
  Si0+  Si104  1  0.57290095  0.17610162  0.31502037  1
  Si0+  Si105  1  0.32209641  0.57083058  0.68331080  1
  Si0+  Si106  1  0.67656668  0.92767053  0.35072861  1
  Si0+  Si107  1  0.32033560  0.56944652  0.01294100  1
  Si0+  Si108  1  0.17983384  0.92996652  0.35017177  1
  Si0+  Si109  1  0.17838722  0.42887549  0.01496804  1
  Si0+  Si110  1  0.56872491  0.17875875  0.98764230  1
  Si0+  Si111  1  0.06882025  0.18033583  0.65416588  1
  Si0+  Si112  1  0.42567355  0.82469627  0.31678198  1
  Si0+  Si113  1  0.42688550  0.32167243  0.98439987  1
  Si0+  Si114  1  0.07533809  0.67566881  0.64997426  1
  Si0+  Si115  1  0.32041543  0.07316997  0.35035813  1
  Si0+  Si116  1  0.92907785  0.32453092  0.65130270  1
  Si0+  Si117  1  0.92912208  0.82399103  0.98124702  1
  Si0+  Si118  1  0.17862668  0.42583526  0.35029249  1
  Si0+  Si119  1  0.67587444  0.42813443  0.35158502  1
  O2-  O120  1  0.24858689  0.00194760  0.06590738  1
  O2-  O121  1  0.25082775  0.00126617  0.39365475  1
  O2-  O122  1  0.25447301  -0.00400937  0.72169352  1
  O2-  O123  1  0.24795976  0.50088016  0.05657979  1
  O2-  O124  1  0.24368498  0.49814961  0.39494860  1
  O2-  O125  1  0.25045172  0.49986758  0.72501895  1
  O2-  O126  1  0.75301509  -0.00289828  0.06660549  1
  O2-  O127  1  0.74540402  -0.00384396  0.39460569  1
  O2-  O128  1  0.74435080  0.00848681  0.72920195  1
  O2-  O129  1  0.74710862  0.50245620  0.06382803  1
  O2-  O130  1  0.74617853  0.49553109  0.39533008  1
  O2-  O131  1  0.74693368  0.49583426  0.72555147  1
  O2-  O132  1  -0.00823072  0.25129405  0.27452646  1
  O2-  O133  1  -0.00624853  0.24650731  0.61092174  1
  O2-  O134  1  -0.00100760  0.24043949  0.93748799  1
  O2-  O135  1  -0.00333389  0.74382272  0.26761597  1
  O2-  O136  1  0.00488294  0.74229448  0.60733076  1
  O2-  O137  1  -0.00330587  0.75254207  0.93835283  1
  O2-  O138  1  0.50657139  0.24597754  0.26864766  1
  O2-  O139  1  0.50102462  0.24905868  0.60272970  1
  O2-  O140  1  0.49636958  0.24876694  0.94431301  1
  O2-  O141  1  0.49493159  0.75670855  0.27330887  1
  O2-  O142  1  0.49591671  0.75743071  0.60757089  1
  O2-  O143  1  0.50235023  0.75974606  0.93885715  1
  O2-  O144  1  0.07593630  0.18239736  0.08733712  1
  O2-  O145  1  0.07091989  0.18050639  0.43309035  1
  O2-  O146  1  0.07437725  0.18316823  0.75869252  1
  O2-  O147  1  0.07393534  0.67845982  0.09816540  1
  O2-  O148  1  0.07399005  0.68371429  0.43432288  1
  O2-  O149  1  0.07800277  0.67663608  0.75552659  1
  O2-  O150  1  0.56747674  0.18100138  0.09263483  1
  O2-  O151  1  0.56953503  0.17603307  0.42050645  1
  O2-  O152  1  0.56946471  0.17690710  0.76582191  1
  O2-  O153  1  0.56759809  0.67677299  0.09780955  1
  O2-  O154  1  0.56910810  0.68176597  0.43220348  1
  O2-  O155  1  0.56926443  0.68126704  0.76639369  1
  O2-  O156  1  0.18092237  0.42411441  0.24470752  1
  O2-  O157  1  0.17940261  0.42349134  0.57880666  1
  O2-  O158  1  0.18129936  0.42692052  0.90933777  1
  O2-  O159  1  0.18228042  0.92965271  0.24575591  1
  O2-  O160  1  0.17936342  0.92968222  0.57555092  1
  O2-  O161  1  0.18238924  0.92789444  0.90217238  1
  O2-  O162  1  0.67579696  0.42864523  0.24608233  1
  O2-  O163  1  0.67622132  0.43139856  0.57521494  1
  O2-  O164  1  0.67613121  0.42892868  0.89946950  1
  O2-  O165  1  0.67484238  0.93011532  0.24540545  1
  O2-  O166  1  0.68160744  0.92808180  0.56718184  1
  O2-  O167  1  0.67845458  0.93010761  0.90368932  1
  O2-  O168  1  0.42583035  0.32319771  0.08928024  1
  O2-  O169  1  0.43119875  0.31654542  0.43009380  1
  O2-  O170  1  0.42434654  0.31719396  0.76487263  1
  O2-  O171  1  0.42660338  0.81800005  0.09039747  1
  O2-  O172  1  0.42424775  0.82514166  0.42265993  1
  O2-  O173  1  0.41381192  0.81870772  0.75555903  1
  O2-  O174  1  0.93191248  0.31936948  0.09970248  1
  O2-  O175  1  0.92933291  0.32311320  0.42443816  1
  O2-  O176  1  0.93228300  0.32717188  0.75611161  1
  O2-  O177  1  0.93072674  0.82413617  0.08656847  1
  O2-  O178  1  0.93024073  0.82182534  0.42997676  1
  O2-  O179  1  0.93612736  0.82082576  0.76735011  1
  O2-  O180  1  0.31953868  0.07319093  0.24580923  1
  O2-  O181  1  0.31449597  0.07260449  0.57301376  1
  O2-  O182  1  0.32012478  0.07316197  0.90104255  1
  O2-  O183  1  0.32058097  0.56832945  0.23391906  1
  O2-  O184  1  0.32069326  0.57270667  0.57850064  1
  O2-  O185  1  0.32021912  0.56655716  0.90739473  1
  O2-  O186  1  0.82040977  0.06985306  0.23538115  1
  O2-  O187  1  0.82778510  0.06826729  0.56781438  1
  O2-  O188  1  0.81535576  0.07323823  0.90155838  1
  O2-  O189  1  0.82166148  0.56808120  0.23472301  1
  O2-  O190  1  0.82141829  0.57059842  0.56683225  1
  O2-  O191  1  0.82245856  0.56842351  0.90056824  1
  O2-  O192  1  0.04312838  0.08294820  0.26393434  1
  O2-  O193  1  0.04616921  0.08716042  0.60710501  1
  O2-  O194  1  0.05547797  0.08065513  0.94001953  1
  O2-  O195  1  0.05215609  0.57522820  0.27321520  1
  O2-  O196  1  0.05558147  0.57994250  0.60621285  1
  O2-  O197  1  0.04526370  0.58146274  0.93021142  1
  O2-  O198  1  0.54447436  0.08286977  0.27009822  1
  O2-  O199  1  0.54413346  0.07818934  0.59759933  1
  O2-  O200  1  0.54029010  0.08612771  0.94199134  1
  O2-  O201  1  0.53561476  0.58499285  0.26536016  1
  O2-  O202  1  0.53877523  0.58702207  0.59767820  1
  O2-  O203  1  0.53530292  0.58560767  0.92927168  1
  O2-  O204  1  0.16422713  0.21171866  0.26302382  1
  O2-  O205  1  0.15792226  0.21262631  0.60311497  1
  O2-  O206  1  0.16433246  0.21025441  0.93448191  1
  O2-  O207  1  0.17023434  0.70981616  0.26945462  1
  O2-  O208  1  0.16908909  0.70372477  0.60516910  1
  O2-  O209  1  0.16900056  0.70979239  0.93051598  1
  O2-  O210  1  0.66796731  0.20051625  0.27204680  1
  O2-  O211  1  0.67116438  0.20549048  0.59646594  1
  O2-  O212  1  0.65907627  0.20809193  0.93922715  1
  O2-  O213  1  0.66437486  0.70989978  0.26272346  1
  O2-  O214  1  0.66727950  0.71372867  0.59947564  1
  O2-  O215  1  0.67127013  0.70776503  0.93330681  1
  O2-  O216  1  0.08628649  0.45420660  0.06081694  1
  O2-  O217  1  0.08409683  0.44488035  0.39715099  1
  O2-  O218  1  0.08976012  0.45404880  0.73327776  1
  O2-  O219  1  0.08174026  0.95234656  0.07087900  1
  O2-  O220  1  0.08870997  0.96057461  0.39692639  1
  O2-  O221  1  0.09105822  0.96049559  0.73057257  1
  O2-  O222  1  0.57663781  0.45700015  0.06504057  1
  O2-  O223  1  0.58248011  0.45541700  0.39646662  1
  O2-  O224  1  0.58175887  0.45539460  0.72572176  1
  O2-  O225  1  0.58085880  0.95414881  0.07119501  1
  O2-  O226  1  0.58183815  0.95142979  0.39674498  1
  O2-  O227  1  0.57592076  0.94773903  0.73154789  1
  O2-  O228  1  0.20675403  0.33831466  0.06392737  1
  O2-  O229  1  0.21038995  0.33353578  0.39677006  1
  O2-  O230  1  0.21035315  0.33641825  0.73326800  1
  O2-  O231  1  0.21288031  0.82974867  0.06995789  1
  O2-  O232  1  0.20855515  0.83994968  0.40091720  1
  O2-  O233  1  0.20474987  0.83557412  0.72805835  1
  O2-  O234  1  0.70345155  0.33289419  0.06897670  1
  O2-  O235  1  0.69796378  0.33353679  0.39783967  1
  O2-  O236  1  0.69933985  0.33480107  0.72460697  1
  O2-  O237  1  0.70667626  0.82890432  0.06926489  1
  O2-  O238  1  0.70247618  0.83329364  0.39400198  1
  O2-  O239  1  0.71588396  0.83469003  0.73434804  1
  O2-  O240  1  0.45932385  0.41573982  0.26283240  1
  O2-  O241  1  0.45289742  0.41889656  0.59805102  1
  O2-  O242  1  0.45469411  0.41207788  0.93426019  1
  O2-  O243  1  0.44843428  0.91936205  0.27133085  1
  O2-  O244  1  0.44262002  0.91762614  0.60601388  1
  O2-  O245  1  0.44773579  0.91994036  0.94366579  1
  O2-  O246  1  0.95436201  0.41433463  0.27149592  1
  O2-  O247  1  0.96698486  0.41253618  0.60191470  1
  O2-  O248  1  0.96382774  0.41161369  0.92882913  1
  O2-  O249  1  0.96258723  0.91588950  0.26248004  1
  O2-  O250  1  0.96717787  0.91548215  0.60001748  1
  O2-  O251  1  0.95872206  0.91716856  0.93567384  1
  O2-  O252  1  0.33552240  0.28799680  0.26261915  1
  O2-  O253  1  0.32923080  0.28979884  0.59697810  1
  O2-  O254  1  0.33401566  0.29546442  0.93747378  1
  O2-  O255  1  0.33233021  0.79814315  0.27181816  1
  O2-  O256  1  0.33187376  0.79250742  0.60086436  1
  O2-  O257  1  0.33821644  0.79231577  0.93610726  1
  O2-  O258  1  0.82999712  0.29944284  0.27567382  1
  O2-  O259  1  0.83576492  0.30794593  0.60326072  1
  O2-  O260  1  0.82953365  0.29098842  0.93269317  1
  O2-  O261  1  0.82916433  0.79678356  0.26365813  1
  O2-  O262  1  0.83726187  0.78972179  0.59862238  1
  O2-  O263  1  0.83524298  0.79965684  0.93603434  1
  O2-  O264  1  0.41708789  0.04681050  0.07335391  1
  O2-  O265  1  0.41268305  0.04629616  0.39797485  1
  O2-  O266  1  0.41293758  0.05060368  0.72382479  1
  O2-  O267  1  0.41090165  0.53860477  0.05994212  1
  O2-  O268  1  0.41583464  0.53596096  0.40174818  1
  O2-  O269  1  0.41371045  0.54148838  0.73009920  1
  O2-  O270  1  0.92193293  0.05060841  0.06362987  1
  O2-  O271  1  0.91992124  0.03874182  0.39911866  1
  O2-  O272  1  0.92014782  0.04192057  0.73608218  1
  O2-  O273  1  0.92093254  0.53631779  0.06526162  1
  O2-  O274  1  0.91742112  0.53992868  0.40327199  1
  O2-  O275  1  0.92051114  0.54123981  0.73140243  1
  O2-  O276  1  0.29158415  0.17178969  0.06850734  1
  O2-  O277  1  0.28923871  0.16443490  0.39672422  1
  O2-  O278  1  0.28560256  0.16148542  0.72646277  1
  O2-  O279  1  0.29577561  0.66175088  0.05916105  1
  O2-  O280  1  0.29253942  0.66777310  0.40388911  1
  O2-  O281  1  0.29456808  0.66210109  0.73264912  1
  O2-  O282  1  0.78875555  0.16889086  0.06899086  1
  O2-  O283  1  0.79415488  0.16716703  0.40262196  1
  O2-  O284  1  0.80283748  0.17767615  0.72631971  1
  O2-  O285  1  0.80088096  0.67016845  0.06528593  1
  O2-  O286  1  0.78728180  0.66812779  0.39823108  1
  O2-  O287  1  0.79134845  0.66686829  0.73358481  1
