# generated using pymatgen
data_Ca2Al2SiO7
_symmetry_space_group_name_H-M   'P 1'
_cell_length_a   15.45530551
_cell_length_b   15.45474579
_cell_length_c   15.28192625
_cell_angle_alpha   89.99802050
_cell_angle_beta   90.00592092
_cell_angle_gamma   89.99470306
_symmetry_Int_Tables_number   1
_chemical_formula_structural   Ca2Al2SiO7
_chemical_formula_sum   'Ca48 Al48 Si24 O168'
_cell_volume   3650.20751647
_cell_formula_units_Z   24
loop_
 _symmetry_equiv_pos_site_id
 _symmetry_equiv_pos_as_xyz
  1  'x, y, z'
loop_
 _atom_type_symbol
 _atom_type_oxidation_number
  Ca2+  2.0
  Al0+  0.0
  Si0+  0.0
  O2-  -2.0
loop_
 _atom_site_type_symbol
 _atom_site_label
 _atom_site_symmetry_multiplicity
 _atom_site_fract_x
 _atom_site_fract_y
 _atom_site_fract_z
 _atom_site_occupancy
  Ca2+  Ca0  1  0.16329670  0.08964296  0.16953862  1
  Ca2+  Ca1  1  0.15853117  0.08088088  0.50900491  1
  Ca2+  Ca2  1  0.15879902  0.08176521  0.83287298  1
  Ca2+  Ca3  1  0.17157294  0.57988839  0.17702365  1
  Ca2+  Ca4  1  0.15824431  0.56901743  0.50239148  1
  Ca2+  Ca5  1  0.17382251  0.57430075  0.83829639  1
  Ca2+  Ca6  1  0.66773594  0.08031553  0.18017584  1
  Ca2+  Ca7  1  0.67870163  0.08740689  0.50096952  1
  Ca2+  Ca8  1  0.67457375  0.08859761  0.83729532  1
  Ca2+  Ca9  1  0.67137666  0.57620057  0.17352918  1
  Ca2+  Ca10  1  0.67497962  0.58487543  0.50721694  1
  Ca2+  Ca11  1  0.66461745  0.57546800  0.83125436  1
  Ca2+  Ca12  1  0.07793158  0.32947428  0.16929316  1
  Ca2+  Ca13  1  0.08117272  0.32750170  0.49039957  1
  Ca2+  Ca14  1  0.08972966  0.32213455  0.82640614  1
  Ca2+  Ca15  1  0.07523869  0.82645602  0.16157166  1
  Ca2+  Ca16  1  0.07876650  0.82818512  0.49890312  1
  Ca2+  Ca17  1  0.07272426  0.83432195  0.82538082  1
  Ca2+  Ca18  1  0.58596558  0.32275879  0.15785409  1
  Ca2+  Ca19  1  0.57941408  0.33571506  0.49741284  1
  Ca2+  Ca20  1  0.57599561  0.34478540  0.83061135  1
  Ca2+  Ca21  1  0.59203567  0.82755161  0.16865368  1
  Ca2+  Ca22  1  0.59220049  0.82375754  0.49509238  1
  Ca2+  Ca23  1  0.58082179  0.82385199  0.82488045  1
  Ca2+  Ca24  1  0.32988687  0.41529295  0.16620436  1
  Ca2+  Ca25  1  0.32162492  0.40933897  0.50518367  1
  Ca2+  Ca26  1  0.33466877  0.41421662  0.83615472  1
  Ca2+  Ca27  1  0.33092467  0.92129895  0.17296792  1
  Ca2+  Ca28  1  0.32492690  0.92062665  0.50578456  1
  Ca2+  Ca29  1  0.32362061  0.91549045  0.83539131  1
  Ca2+  Ca30  1  0.83070947  0.41642738  0.17515181  1
  Ca2+  Ca31  1  0.83447899  0.42752735  0.50635031  1
  Ca2+  Ca32  1  0.82097991  0.41947505  0.83516579  1
  Ca2+  Ca33  1  0.83004031  0.92318744  0.17445864  1
  Ca2+  Ca34  1  0.83505945  0.92681210  0.50351185  1
  Ca2+  Ca35  1  0.84066628  0.91920387  0.83234400  1
  Ca2+  Ca36  1  0.42962092  0.17214001  0.16013272  1
  Ca2+  Ca37  1  0.42222795  0.17302235  0.49637348  1
  Ca2+  Ca38  1  0.42496006  0.17899880  0.82933840  1
  Ca2+  Ca39  1  0.42057943  0.66273959  0.16483858  1
  Ca2+  Ca40  1  0.43100562  0.66472401  0.49642951  1
  Ca2+  Ca41  1  0.42199290  0.65773787  0.82830026  1
  Ca2+  Ca42  1  0.92181896  0.16792866  0.16747912  1
  Ca2+  Ca43  1  0.92131667  0.16916663  0.49411007  1
  Ca2+  Ca44  1  0.92536651  0.16480387  0.82643685  1
  Ca2+  Ca45  1  0.91858795  0.66675626  0.16765785  1
  Ca2+  Ca46  1  0.91284363  0.66886555  0.49307977  1
  Ca2+  Ca47  1  0.90712149  0.67900047  0.82714807  1
  Al0+  Al48  1  -0.00097244  -0.00163740  -0.00492353  1
  Al0+  Al49  1  0.00014803  -0.00039361  0.33289187  1
  Al0+  Al50  1  -0.00027085  -0.00163411  0.66629639  1
  Al0+  Al51  1  0.00054081  0.50022148  -0.00086459  1
  Al0+  Al52  1  0.00032884  0.50008350  0.33176005  1
  Al0+  Al53  1  0.00056467  0.50044992  0.68159053  1
  Al0+  Al54  1  0.49966339  -0.00109314  -0.00459296  1
  Al0+  Al55  1  0.49780219  -0.00088144  0.33616423  1
  Al0+  Al56  1  0.49979927  0.00062439  0.66691081  1
  Al0+  Al57  1  0.50022566  0.49942858  0.00757790  1
  Al0+  Al58  1  0.49849557  0.50235380  0.32786611  1
  Al0+  Al59  1  0.49951323  0.49994063  0.65765473  1
  Al0+  Al60  1  0.25099817  0.24862035  -0.00598432  1
  Al0+  Al61  1  0.25059590  0.24997274  0.33252130  1
  Al0+  Al62  1  0.25233017  0.24846865  0.66314207  1
  Al0+  Al63  1  0.24964691  0.74911330  0.00548775  1
  Al0+  Al64  1  0.25103067  0.75037341  0.33114899  1
  Al0+  Al65  1  0.24925664  0.75093036  0.67108836  1
  Al0+  Al66  1  0.75312830  0.24899693  0.00171926  1
  Al0+  Al67  1  0.74936674  0.25003908  0.33111790  1
  Al0+  Al68  1  0.75094730  0.25021340  0.67631309  1
  Al0+  Al69  1  0.74994784  0.75102694  -0.00375529  1
  Al0+  Al70  1  0.74863814  0.74968488  0.33356656  1
  Al0+  Al71  1  0.75019497  0.75264241  0.66184655  1
  Al0+  Al72  1  0.56995997  0.17965126  0.32249058  1
  Al0+  Al73  1  0.82189109  0.57496702  0.68307423  1
  Al0+  Al74  1  0.92819839  0.32247995  0.32087425  1
  Al0+  Al75  1  0.32001341  0.57036695  0.01526579  1
  Al0+  Al76  1  0.06882492  0.18099008  0.65272975  1
  Al0+  Al77  1  0.82037526  0.56895149  0.34499826  1
  Al0+  Al78  1  0.67732149  0.43011879  0.67972164  1
  Al0+  Al79  1  0.07181854  0.17707671  0.31879383  1
  Al0+  Al80  1  0.17966582  0.92946880  0.68070061  1
  Al0+  Al81  1  0.06887109  0.18085075  0.98478370  1
  Al0+  Al82  1  0.57458167  0.17624663  0.98405759  1
  Al0+  Al83  1  0.93007016  0.81780318  0.98613220  1
  Al0+  Al84  1  0.82226815  0.07275279  0.34814609  1
  Al0+  Al85  1  0.68105426  0.42944873  0.01591937  1
  Al0+  Al86  1  0.82073107  0.07006398  0.68201198  1
  Al0+  Al87  1  0.56893425  0.68071851  0.65282042  1
  Al0+  Al88  1  0.93031756  0.81953115  0.65001054  1
  Al0+  Al89  1  0.57212762  0.67973591  0.31698342  1
  Al0+  Al90  1  0.17902948  0.42606563  0.68104435  1
  Al0+  Al91  1  0.07149063  0.67852145  0.32130943  1
  Al0+  Al92  1  0.43225618  0.32146420  0.98503880  1
  Al0+  Al93  1  0.67739019  0.92898169  0.34883038  1
  Al0+  Al94  1  0.43087303  0.32034754  0.65038222  1
  Al0+  Al95  1  0.18133066  0.42976769  0.34557031  1
  Si0+  Si96  1  0.32283220  0.57437788  0.35222507  1
  Si0+  Si97  1  0.57512634  0.17638803  0.65000446  1
  Si0+  Si98  1  0.17754320  0.42486176  0.01755757  1
  Si0+  Si99  1  0.82223188  0.06856748  0.01513053  1
  Si0+  Si100  1  0.07399688  0.67603360  0.65315505  1
  Si0+  Si101  1  0.92667187  0.32436673  0.65400118  1
  Si0+  Si102  1  0.42689127  0.32244845  0.31512988  1
  Si0+  Si103  1  0.42514681  0.82434078  0.65059790  1
  Si0+  Si104  1  0.42718673  0.82183318  0.31603057  1
  Si0+  Si105  1  0.17893697  0.92785426  0.34706345  1
  Si0+  Si106  1  0.56887011  0.68058528  0.98600428  1
  Si0+  Si107  1  0.32037180  0.07098381  0.34794835  1
  Si0+  Si108  1  0.67727666  0.92828999  0.01317008  1
  Si0+  Si109  1  0.82130373  0.57502232  0.01680424  1
  Si0+  Si110  1  0.17783363  0.93027264  0.01657343  1
  Si0+  Si111  1  0.92820812  0.82163509  0.31665969  1
  Si0+  Si112  1  0.67681633  0.92846477  0.68424113  1
  Si0+  Si113  1  0.92731312  0.32529997  0.98132391  1
  Si0+  Si114  1  0.32135831  0.57064437  0.67990696  1
  Si0+  Si115  1  0.32413835  0.07216273  0.68520566  1
  Si0+  Si116  1  0.32137849  0.07010633  0.01421442  1
  Si0+  Si117  1  0.42573163  0.82199736  0.98506516  1
  Si0+  Si118  1  0.67547643  0.42720844  0.34853984  1
  Si0+  Si119  1  0.07486747  0.67673381  0.98285256  1
  O2-  O120  1  0.24963666  0.00038525  0.05902907  1
  O2-  O121  1  0.24504507  0.00366221  0.38908662  1
  O2-  O122  1  0.25547384  0.00275090  0.72875392  1
  O2-  O123  1  0.24273900  0.49760205  0.06098372  1
  O2-  O124  1  0.25536585  0.50431695  0.39511284  1
  O2-  O125  1  0.25236758  0.50345457  0.72582612  1
  O2-  O126  1  0.74397734  0.00372928  0.05504430  1
  O2-  O127  1  0.74882523  0.00168362  0.39799320  1
  O2-  O128  1  0.74243708  -0.00108270  0.73003178  1
  O2-  O129  1  0.75917981  0.50121913  0.06189390  1
  O2-  O130  1  0.74486875  0.49531363  0.39200407  1
  O2-  O131  1  0.75041480  0.50108737  0.73081317  1
  O2-  O132  1  -0.00208540  0.24757345  0.27027925  1
  O2-  O133  1  -0.00246528  0.25917072  0.60774807  1
  O2-  O134  1  -0.00155208  0.25895330  0.93751595  1
  O2-  O135  1  -0.00269598  0.75296214  0.27291213  1
  O2-  O136  1  0.00121215  0.73941008  0.60720504  1
  O2-  O137  1  0.00229706  0.74081779  0.93862734  1
  O2-  O138  1  0.50025864  0.25773150  0.27304427  1
  O2-  O139  1  0.50757495  0.24630883  0.60603366  1
  O2-  O140  1  0.50704581  0.25248233  0.93428334  1
  O2-  O141  1  0.49710478  0.75497237  0.27075239  1
  O2-  O142  1  0.49531595  0.75769580  0.60674684  1
  O2-  O143  1  0.49566862  0.74980862  0.94344156  1
  O2-  O144  1  0.06723818  0.17914219  0.09761739  1
  O2-  O145  1  0.07281608  0.17754490  0.43201798  1
  O2-  O146  1  0.06785203  0.18024437  0.76614551  1
  O2-  O147  1  0.07620549  0.67966704  0.08866122  1
  O2-  O148  1  0.07186085  0.68060950  0.43426313  1
  O2-  O149  1  0.07789411  0.68101686  0.75881671  1
  O2-  O150  1  0.57051161  0.17302659  0.09786932  1
  O2-  O151  1  0.56683096  0.18030018  0.43547366  1
  O2-  O152  1  0.57180849  0.17345720  0.75542704  1
  O2-  O153  1  0.57008129  0.68402178  0.09096175  1
  O2-  O154  1  0.57062872  0.67999803  0.42978300  1
  O2-  O155  1  0.56515051  0.68074443  0.76684880  1
  O2-  O156  1  0.18399218  0.43029644  0.23224272  1
  O2-  O157  1  0.17868589  0.42624717  0.56789278  1
  O2-  O158  1  0.18006591  0.42493617  0.91189809  1
  O2-  O159  1  0.18169831  0.92624201  0.24156342  1
  O2-  O160  1  0.18148396  0.92943197  0.56722016  1
  O2-  O161  1  0.17914154  0.92993935  0.91161688  1
  O2-  O162  1  0.67632718  0.42880490  0.24260499  1
  O2-  O163  1  0.67745792  0.43129734  0.56614431  1
  O2-  O164  1  0.67821198  0.43491203  0.90314445  1
  O2-  O165  1  0.67898287  0.93003649  0.23407374  1
  O2-  O166  1  0.67710211  0.92897932  0.57906291  1
  O2-  O167  1  0.67752935  0.92503499  0.90831700  1
  O2-  O168  1  0.43141472  0.31747825  0.09869337  1
  O2-  O169  1  0.42483092  0.32007931  0.42073753  1
  O2-  O170  1  0.43133555  0.32133158  0.76334856  1
  O2-  O171  1  0.42546663  0.82483619  0.08992906  1
  O2-  O172  1  0.42287045  0.82031538  0.42132126  1
  O2-  O173  1  0.42519680  0.82336581  0.75672470  1
  O2-  O174  1  0.92721632  0.32495216  0.08688491  1
  O2-  O175  1  0.93079764  0.32492869  0.43447886  1
  O2-  O176  1  0.92713626  0.32014001  0.75982211  1
  O2-  O177  1  0.93161420  0.81874364  0.09929222  1
  O2-  O178  1  0.93048152  0.82243423  0.42198319  1
  O2-  O179  1  0.93235662  0.82028166  0.76356350  1
  O2-  O180  1  0.32222008  0.06836152  0.24244736  1
  O2-  O181  1  0.32516777  0.07030913  0.57923787  1
  O2-  O182  1  0.32146622  0.06660838  0.90950955  1
  O2-  O183  1  0.32132401  0.57513624  0.24632483  1
  O2-  O184  1  0.32045323  0.57136543  0.57457808  1
  O2-  O185  1  0.31956025  0.57176750  0.90193852  1
  O2-  O186  1  0.82277137  0.06886187  0.23384226  1
  O2-  O187  1  0.82118466  0.07017089  0.56937744  1
  O2-  O188  1  0.82446178  0.06515021  0.91007551  1
  O2-  O189  1  0.81880420  0.56898141  0.23141082  1
  O2-  O190  1  0.82164970  0.57431650  0.56929918  1
  O2-  O191  1  0.81622008  0.57834781  0.91170583  1
  O2-  O192  1  0.04690424  0.07744142  0.26540365  1
  O2-  O193  1  0.03633652  0.08443461  0.60075527  1
  O2-  O194  1  0.03557580  0.08451102  0.93135288  1
  O2-  O195  1  0.04115775  0.58412138  0.26386382  1
  O2-  O196  1  0.05259306  0.57893456  0.61352038  1
  O2-  O197  1  0.05628600  0.58060985  0.93950136  1
  O2-  O198  1  0.53482855  0.08327348  0.26947217  1
  O2-  O199  1  0.54779375  0.08293743  0.60383507  1
  O2-  O200  1  0.54266410  0.07904006  0.92961269  1
  O2-  O201  1  0.53982960  0.58418647  0.26077914  1
  O2-  O202  1  0.53678218  0.58730356  0.59467175  1
  O2-  O203  1  0.53967237  0.58847680  0.94147738  1
  O2-  O204  1  0.17028688  0.20684399  0.26560391  1
  O2-  O205  1  0.16791006  0.20474861  0.60108439  1
  O2-  O206  1  0.16701215  0.20585226  0.93075856  1
  O2-  O207  1  0.16782975  0.71035224  0.26601064  1
  O2-  O208  1  0.16597723  0.70618144  0.60591865  1
  O2-  O209  1  0.16749644  0.70697673  0.93745236  1
  O2-  O210  1  0.66684508  0.20436058  0.26664253  1
  O2-  O211  1  0.67035836  0.20153031  0.60825498  1
  O2-  O212  1  0.67604674  0.19911003  0.93640060  1
  O2-  O213  1  0.66749967  0.71200468  0.26091001  1
  O2-  O214  1  0.66439060  0.71287916  0.59851438  1
  O2-  O215  1  0.65893064  0.71098777  0.93724950  1
  O2-  O216  1  0.08168931  0.44724724  0.06086597  1
  O2-  O217  1  0.08536605  0.46170392  0.39902297  1
  O2-  O218  1  0.08482906  0.45283720  0.74152689  1
  O2-  O219  1  0.08622570  0.95973657  0.06311466  1
  O2-  O220  1  0.08603291  0.95051989  0.39374038  1
  O2-  O221  1  0.08483663  0.96260214  0.73581934  1
  O2-  O222  1  0.58631072  0.46177903  0.07213930  1
  O2-  O223  1  0.58053918  0.45409220  0.39124091  1
  O2-  O224  1  0.57903571  0.46426935  0.73092673  1
  O2-  O225  1  0.58307997  0.95002066  0.05924527  1
  O2-  O226  1  0.57702624  0.95168302  0.40059004  1
  O2-  O227  1  0.58082269  0.94876149  0.72923105  1
  O2-  O228  1  0.20762254  0.33191487  0.06248088  1
  O2-  O229  1  0.21281457  0.33308880  0.39972317  1
  O2-  O230  1  0.21541598  0.33053131  0.73376410  1
  O2-  O231  1  0.20510772  0.83848632  0.06472383  1
  O2-  O232  1  0.21202277  0.83825774  0.39568540  1
  O2-  O233  1  0.21038069  0.83392142  0.73855921  1
  O2-  O234  1  0.71014739  0.33085538  0.06801580  1
  O2-  O235  1  0.69716303  0.33290250  0.39325526  1
  O2-  O236  1  0.70175879  0.33243006  0.73646556  1
  O2-  O237  1  0.70986638  0.83789762  0.06161674  1
  O2-  O238  1  0.70732980  0.83102550  0.40038721  1
  O2-  O239  1  0.70515234  0.83583537  0.73050628  1
  O2-  O240  1  0.44566435  0.41816238  0.27120878  1
  O2-  O241  1  0.45839402  0.41561891  0.59266522  1
  O2-  O242  1  0.45908668  0.42200485  0.93491750  1
  O2-  O243  1  0.45028692  0.91620477  0.27028940  1
  O2-  O244  1  0.44757851  0.91905322  0.60525123  1
  O2-  O245  1  0.45347628  0.91187838  0.93423549  1
  O2-  O246  1  0.96054205  0.41770857  0.26328885  1
  O2-  O247  1  0.94977139  0.42124071  0.61426417  1
  O2-  O248  1  0.94778415  0.42078170  0.93637264  1
  O2-  O249  1  0.95561179  0.91414082  0.26916668  1
  O2-  O250  1  0.96750981  0.91341195  0.59596460  1
  O2-  O251  1  0.96469211  0.91205811  0.93016731  1
  O2-  O252  1  0.33620968  0.29097404  0.26695763  1
  O2-  O253  1  0.33651307  0.28479467  0.59485223  1
  O2-  O254  1  0.33479778  0.29084430  0.93135217  1
  O2-  O255  1  0.33518933  0.79499107  0.26613623  1
  O2-  O256  1  0.33159924  0.79783358  0.60489296  1
  O2-  O257  1  0.33284168  0.79487527  0.93918568  1
  O2-  O258  1  0.82983901  0.29670159  0.26618592  1
  O2-  O259  1  0.83280736  0.29763306  0.60962562  1
  O2-  O260  1  0.83476349  0.29643975  0.93567824  1
  O2-  O261  1  0.83505879  0.79552962  0.27064651  1
  O2-  O262  1  0.83271284  0.79535121  0.59602417  1
  O2-  O263  1  0.83291722  0.79014779  0.93034672  1
  O2-  O264  1  0.41277714  0.03937692  0.06206216  1
  O2-  O265  1  0.40844884  0.03884691  0.39962958  1
  O2-  O266  1  0.41756511  0.04686457  0.73235507  1
  O2-  O267  1  0.41503594  0.53980548  0.07241553  1
  O2-  O268  1  0.41778275  0.54933860  0.39529043  1
  O2-  O269  1  0.41442015  0.54234082  0.72519476  1
  O2-  O270  1  0.91117733  0.03215461  0.06291077  1
  O2-  O271  1  0.92078701  0.04230985  0.40054334  1
  O2-  O272  1  0.91505802  0.03267820  0.73623811  1
  O2-  O273  1  0.91914653  0.55630242  0.05758659  1
  O2-  O274  1  0.91715640  0.54100822  0.39918182  1
  O2-  O275  1  0.91939499  0.55216983  0.74086661  1
  O2-  O276  1  0.29372912  0.16217763  0.06091334  1
  O2-  O277  1  0.29712484  0.16376082  0.39470270  1
  O2-  O278  1  0.29690021  0.16486529  0.73086651  1
  O2-  O279  1  0.29222923  0.66793438  0.07134656  1
  O2-  O280  1  0.29804543  0.66860597  0.39681306  1
  O2-  O281  1  0.29933376  0.66468756  0.72800981  1
  O2-  O282  1  0.80398191  0.16291622  0.06085852  1
  O2-  O283  1  0.79395689  0.17152399  0.40051047  1
  O2-  O284  1  0.79436571  0.16602630  0.73996636  1
  O2-  O285  1  0.79018688  0.66701962  0.06385941  1
  O2-  O286  1  0.79001847  0.66585592  0.39771593  1
  O2-  O287  1  0.78847652  0.67331676  0.73377659  1
