# generated using pymatgen
data_Ca2Al2SiO7
_symmetry_space_group_name_H-M   'P 1'
_cell_length_a   15.45702167
_cell_length_b   15.45716206
_cell_length_c   15.28282406
_cell_angle_alpha   89.98859583
_cell_angle_beta   89.99761241
_cell_angle_gamma   89.99488287
_symmetry_Int_Tables_number   1
_chemical_formula_structural   Ca2Al2SiO7
_chemical_formula_sum   'Ca48 Al48 Si24 O168'
_cell_volume   3651.39804739
_cell_formula_units_Z   24
loop_
 _symmetry_equiv_pos_site_id
 _symmetry_equiv_pos_as_xyz
  1  'x, y, z'
loop_
 _atom_type_symbol
 _atom_type_oxidation_number
  Ca2+  2.0
  Al0+  0.0
  Si0+  0.0
  O2-  -2.0
loop_
 _atom_site_type_symbol
 _atom_site_label
 _atom_site_symmetry_multiplicity
 _atom_site_fract_x
 _atom_site_fract_y
 _atom_site_fract_z
 _atom_site_occupancy
  Ca2+  Ca0  1  0.16455344  0.08345396  0.16944968  1
  Ca2+  Ca1  1  0.17025675  0.07918649  0.51026087  1
  Ca2+  Ca2  1  0.16563111  0.08080112  0.83386727  1
  Ca2+  Ca3  1  0.17828785  0.58919953  0.17219214  1
  Ca2+  Ca4  1  0.17632043  0.59371802  0.50211492  1
  Ca2+  Ca5  1  0.17992866  0.58845003  0.83791504  1
  Ca2+  Ca6  1  0.66937014  0.07978816  0.17028472  1
  Ca2+  Ca7  1  0.66526791  0.07232359  0.50208302  1
  Ca2+  Ca8  1  0.67326686  0.08130834  0.84484856  1
  Ca2+  Ca9  1  0.65922502  0.57854338  0.16864349  1
  Ca2+  Ca10  1  0.66639365  0.58238941  0.50106586  1
  Ca2+  Ca11  1  0.67449320  0.58420505  0.84378140  1
  Ca2+  Ca12  1  0.08477391  0.32117268  0.16059712  1
  Ca2+  Ca13  1  0.08838600  0.32175860  0.49600031  1
  Ca2+  Ca14  1  0.08824386  0.32098885  0.82997108  1
  Ca2+  Ca15  1  0.07887411  0.82577792  0.16328835  1
  Ca2+  Ca16  1  0.07914062  0.83276310  0.49889982  1
  Ca2+  Ca17  1  0.07187486  0.83694894  0.82857550  1
  Ca2+  Ca18  1  0.58372861  0.33519614  0.15667672  1
  Ca2+  Ca19  1  0.58396736  0.33383688  0.49568226  1
  Ca2+  Ca20  1  0.58490567  0.33452107  0.84012837  1
  Ca2+  Ca21  1  0.57651845  0.82538417  0.16205861  1
  Ca2+  Ca22  1  0.57210910  0.82742535  0.49035798  1
  Ca2+  Ca23  1  0.57311205  0.82786588  0.83175795  1
  Ca2+  Ca24  1  0.34469471  0.43005830  0.16644474  1
  Ca2+  Ca25  1  0.33312695  0.43246644  0.50389219  1
  Ca2+  Ca26  1  0.33765675  0.42636572  0.84000490  1
  Ca2+  Ca27  1  0.33902087  0.91436352  0.17021315  1
  Ca2+  Ca28  1  0.32805679  0.91631207  0.51172257  1
  Ca2+  Ca29  1  0.33107447  0.91388774  0.83347485  1
  Ca2+  Ca30  1  0.82014307  0.41910217  0.16909053  1
  Ca2+  Ca31  1  0.82763791  0.42362427  0.50508536  1
  Ca2+  Ca32  1  0.83033949  0.43010166  0.84364953  1
  Ca2+  Ca33  1  0.82907034  0.91729724  0.16571882  1
  Ca2+  Ca34  1  0.82557550  0.90772610  0.50232268  1
  Ca2+  Ca35  1  0.83790379  0.91812586  0.84205826  1
  Ca2+  Ca36  1  0.42717129  0.17670943  0.15399163  1
  Ca2+  Ca37  1  0.41259534  0.16690293  0.49803467  1
  Ca2+  Ca38  1  0.41926392  0.17014591  0.83184579  1
  Ca2+  Ca39  1  0.42352428  0.67007921  0.15979684  1
  Ca2+  Ca40  1  0.41279838  0.67549538  0.49113756  1
  Ca2+  Ca41  1  0.41714937  0.66936166  0.83182055  1
  Ca2+  Ca42  1  0.92494027  0.16162190  0.15878322  1
  Ca2+  Ca43  1  0.93096297  0.16478425  0.49565525  1
  Ca2+  Ca44  1  0.92684622  0.16052633  0.83107753  1
  Ca2+  Ca45  1  0.91941908  0.66883436  0.15916661  1
  Ca2+  Ca46  1  0.92084625  0.66753742  0.49776147  1
  Ca2+  Ca47  1  0.90718915  0.67476884  0.82830817  1
  Al0+  Al48  1  0.00053082  -0.00179337  -0.00108684  1
  Al0+  Al49  1  0.00094677  0.00109363  0.32987489  1
  Al0+  Al50  1  -0.00089465  -0.00112462  0.65874078  1
  Al0+  Al51  1  0.00269928  0.49858736  0.00462090  1
  Al0+  Al52  1  0.00045445  0.49793258  0.32931972  1
  Al0+  Al53  1  -0.00135805  0.49919052  0.67076035  1
  Al0+  Al54  1  0.49892124  0.00018133  -0.00662279  1
  Al0+  Al55  1  0.50090047  0.00172402  0.33499825  1
  Al0+  Al56  1  0.49962942  -0.00049415  0.66693548  1
  Al0+  Al57  1  0.50054610  0.50071239  -0.00156561  1
  Al0+  Al58  1  0.50014168  0.50105149  0.34188464  1
  Al0+  Al59  1  0.50053496  0.49737522  0.66994227  1
  Al0+  Al60  1  0.25104090  0.24863849  -0.00769491  1
  Al0+  Al61  1  0.25019046  0.25100386  0.32831204  1
  Al0+  Al62  1  0.25234698  0.24974805  0.66436751  1
  Al0+  Al63  1  0.24790165  0.75099304  0.00194816  1
  Al0+  Al64  1  0.24696301  0.75325954  0.33036942  1
  Al0+  Al65  1  0.24823164  0.75137728  0.67329663  1
  Al0+  Al66  1  0.75332682  0.25025772  0.00422002  1
  Al0+  Al67  1  0.75184284  0.25086414  0.34116634  1
  Al0+  Al68  1  0.74949342  0.24875218  0.66484833  1
  Al0+  Al69  1  0.74993693  0.75192969  -0.00241390  1
  Al0+  Al70  1  0.74856431  0.75049416  0.33453266  1
  Al0+  Al71  1  0.74792889  0.74889415  0.66492564  1
  Al0+  Al72  1  0.32252794  0.07224578  0.68314687  1
  Al0+  Al73  1  0.82260048  0.06966547  0.01268237  1
  Al0+  Al74  1  0.42800620  0.81939173  0.65252921  1
  Al0+  Al75  1  0.81993456  0.57066591  0.67972178  1
  Al0+  Al76  1  0.82324511  0.57552721  0.01713172  1
  Al0+  Al77  1  0.67909184  0.42932322  0.34984158  1
  Al0+  Al78  1  0.31832941  0.57205127  0.34685437  1
  Al0+  Al79  1  0.07083951  0.18042572  0.65132858  1
  Al0+  Al80  1  0.57034082  0.67762245  0.31924313  1
  Al0+  Al81  1  0.31937882  0.57135234  0.01498037  1
  Al0+  Al82  1  0.17650611  0.92988405  0.68271225  1
  Al0+  Al83  1  0.43029272  0.32201695  0.98416528  1
  Al0+  Al84  1  0.57076431  0.67891528  0.98424584  1
  Al0+  Al85  1  0.07111877  0.17977142  0.31763021  1
  Al0+  Al86  1  0.92684607  0.82012600  0.65107115  1
  Al0+  Al87  1  0.93038653  0.81782317  0.98837679  1
  Al0+  Al88  1  0.42758623  0.82358716  0.31939216  1
  Al0+  Al89  1  0.07018373  0.17827634  0.98443918  1
  Al0+  Al90  1  0.07022606  0.67836972  0.32051778  1
  Al0+  Al91  1  0.68064714  0.43118935  0.01512273  1
  Al0+  Al92  1  0.57505509  0.17866029  0.98607250  1
  Al0+  Al93  1  0.67875241  0.92914497  0.34679435  1
  Al0+  Al94  1  0.32013310  0.57166510  0.68097279  1
  Al0+  Al95  1  0.42539640  0.82166640  0.98299169  1
  Si0+  Si96  1  0.17943122  0.42401908  0.01707764  1
  Si0+  Si97  1  0.92659889  0.32312707  0.65001659  1
  Si0+  Si98  1  0.92623371  0.32134419  0.31599993  1
  Si0+  Si99  1  0.82369574  0.07121159  0.35227619  1
  Si0+  Si100  1  0.81985568  0.07001319  0.67940252  1
  Si0+  Si101  1  0.07211291  0.67553499  0.98346881  1
  Si0+  Si102  1  0.67507783  0.92933534  0.01561374  1
  Si0+  Si103  1  0.32062819  0.07298023  0.34542495  1
  Si0+  Si104  1  0.43095107  0.32100562  0.32075216  1
  Si0+  Si105  1  0.32172870  0.07177986  0.01509615  1
  Si0+  Si106  1  0.57042565  0.67635603  0.64919234  1
  Si0+  Si107  1  0.57274166  0.17819246  0.64985952  1
  Si0+  Si108  1  0.07119659  0.67638378  0.65274705  1
  Si0+  Si109  1  0.92914037  0.32321952  0.98373248  1
  Si0+  Si110  1  0.67842111  0.42493031  0.68542152  1
  Si0+  Si111  1  0.17800313  0.93092870  0.34765557  1
  Si0+  Si112  1  0.17736755  0.42609359  0.34888277  1
  Si0+  Si113  1  0.17873195  0.93111064  0.01713994  1
  Si0+  Si114  1  0.17817161  0.42650609  0.68213722  1
  Si0+  Si115  1  0.57285952  0.17948558  0.32126637  1
  Si0+  Si116  1  0.67851852  0.92868452  0.68227555  1
  Si0+  Si117  1  0.82484506  0.57235275  0.34997346  1
  Si0+  Si118  1  0.43048573  0.32127855  0.64897962  1
  Si0+  Si119  1  0.92677408  0.82172240  0.31616170  1
  O2-  O120  1  0.25296036  -0.00050433  0.05922365  1
  O2-  O121  1  0.25130257  0.00067574  0.38803575  1
  O2-  O122  1  0.24977822  0.00088860  0.73289911  1
  O2-  O123  1  0.24562212  0.49482947  0.06159783  1
  O2-  O124  1  0.24073343  0.49927083  0.39386327  1
  O2-  O125  1  0.24369853  0.49766667  0.72658200  1
  O2-  O126  1  0.74279382  0.00021674  0.05894125  1
  O2-  O127  1  0.75528533  0.00198594  0.39608455  1
  O2-  O128  1  0.75040360  -0.00090805  0.72377421  1
  O2-  O129  1  0.74997868  0.50492079  0.06717979  1
  O2-  O130  1  0.75414222  0.50510479  0.39421755  1
  O2-  O131  1  0.74682307  0.49469849  0.72652832  1
  O2-  O132  1  -0.00469614  0.25310497  0.27149804  1
  O2-  O133  1  -0.00286609  0.25667935  0.60459813  1
  O2-  O134  1  -0.00244008  0.25494213  0.93794544  1
  O2-  O135  1  -0.00806988  0.74913714  0.27349682  1
  O2-  O136  1  0.00135485  0.74369852  0.60743420  1
  O2-  O137  1  -0.00251935  0.73731710  0.93947890  1
  O2-  O138  1  0.50413097  0.25204343  0.27903798  1
  O2-  O139  1  0.50116879  0.24899600  0.60733200  1
  O2-  O140  1  0.50285129  0.24969649  0.93464380  1
  O2-  O141  1  0.49797246  0.74987458  0.27036995  1
  O2-  O142  1  0.49827088  0.74122386  0.60487670  1
  O2-  O143  1  0.49686915  0.74893150  0.93398528  1
  O2-  O144  1  0.06960315  0.17816783  0.09776220  1
  O2-  O145  1  0.07234913  0.18010251  0.43075628  1
  O2-  O146  1  0.06836361  0.18040405  0.76414215  1
  O2-  O147  1  0.07415825  0.67999145  0.08934091  1
  O2-  O148  1  0.07047897  0.68187710  0.43395991  1
  O2-  O149  1  0.07027218  0.67591759  0.75808254  1
  O2-  O150  1  0.57178252  0.17786091  0.10043864  1
  O2-  O151  1  0.56990690  0.17871450  0.42681923  1
  O2-  O152  1  0.57669741  0.17921492  0.75418795  1
  O2-  O153  1  0.56936503  0.67970286  0.09788514  1
  O2-  O154  1  0.56880415  0.67864170  0.43334092  1
  O2-  O155  1  0.57239690  0.67854077  0.75438792  1
  O2-  O156  1  0.18048338  0.42220573  0.24382330  1
  O2-  O157  1  0.18066735  0.42499430  0.57622586  1
  O2-  O158  1  0.17965296  0.42376991  0.91129161  1
  O2-  O159  1  0.17524035  0.93275560  0.24248098  1
  O2-  O160  1  0.17689457  0.93120038  0.56828040  1
  O2-  O161  1  0.17590655  0.93298906  0.91247441  1
  O2-  O162  1  0.67901260  0.42510012  0.23774653  1
  O2-  O163  1  0.67887132  0.42385821  0.57942131  1
  O2-  O164  1  0.68443421  0.43031571  0.90141066  1
  O2-  O165  1  0.67915859  0.93368790  0.23408961  1
  O2-  O166  1  0.67872736  0.93061068  0.57680324  1
  O2-  O167  1  0.67645094  0.93036735  0.90961424  1
  O2-  O168  1  0.43001371  0.31981586  0.09860818  1
  O2-  O169  1  0.42967547  0.31803857  0.42624588  1
  O2-  O170  1  0.43087374  0.32278256  0.75335512  1
  O2-  O171  1  0.42721244  0.82238217  0.09666494  1
  O2-  O172  1  0.42680702  0.82356024  0.43333819  1
  O2-  O173  1  0.43113202  0.81934028  0.76497371  1
  O2-  O174  1  0.93114289  0.32125307  0.08945541  1
  O2-  O175  1  0.92714744  0.31987627  0.42195007  1
  O2-  O176  1  0.92546134  0.32106011  0.75517999  1
  O2-  O177  1  0.93490847  0.82060637  0.10157562  1
  O2-  O178  1  0.92875481  0.82271661  0.42198441  1
  O2-  O179  1  0.92717701  0.82142521  0.76386167  1
  O2-  O180  1  0.32003557  0.07469724  0.24034503  1
  O2-  O181  1  0.32087638  0.07270697  0.56842659  1
  O2-  O182  1  0.32010086  0.07299390  0.91046337  1
  O2-  O183  1  0.31949200  0.56943395  0.23420817  1
  O2-  O184  1  0.31892678  0.57108452  0.56747674  1
  O2-  O185  1  0.31695130  0.57044550  0.90169419  1
  O2-  O186  1  0.82391066  0.07198436  0.24685417  1
  O2-  O187  1  0.81670849  0.07067183  0.57416639  1
  O2-  O188  1  0.82426445  0.06582890  0.89902529  1
  O2-  O189  1  0.82672735  0.57059042  0.24503241  1
  O2-  O190  1  0.81956353  0.56879702  0.56620108  1
  O2-  O191  1  0.82188477  0.57331920  0.90321705  1
  O2-  O192  1  0.04070989  0.08322897  0.26318619  1
  O2-  O193  1  0.03740378  0.08589488  0.59493301  1
  O2-  O194  1  0.03583337  0.08307589  0.93112867  1
  O2-  O195  1  0.04792062  0.57939818  0.26710305  1
  O2-  O196  1  0.04769470  0.58177777  0.60659328  1
  O2-  O197  1  0.05718481  0.57830942  0.94162752  1
  O2-  O198  1  0.54397727  0.08932738  0.27250794  1
  O2-  O199  1  0.54454549  0.08648234  0.60211391  1
  O2-  O200  1  0.54647106  0.08167511  0.93106853  1
  O2-  O201  1  0.54124215  0.57790479  0.26989012  1
  O2-  O202  1  0.54968989  0.57964287  0.60698525  1
  O2-  O203  1  0.54495365  0.58077058  0.93077408  1
  O2-  O204  1  0.16712546  0.21152170  0.26241970  1
  O2-  O205  1  0.16819647  0.21098869  0.59761452  1
  O2-  O206  1  0.16628960  0.20697651  0.92922067  1
  O2-  O207  1  0.16285211  0.71527592  0.26322940  1
  O2-  O208  1  0.16400021  0.70532980  0.60710239  1
  O2-  O209  1  0.16222300  0.70952822  0.93624465  1
  O2-  O210  1  0.66720084  0.20407234  0.27843543  1
  O2-  O211  1  0.66379261  0.20630707  0.59943087  1
  O2-  O212  1  0.67450212  0.20594336  0.93442462  1
  O2-  O213  1  0.67001453  0.70429642  0.26858960  1
  O2-  O214  1  0.66202323  0.70607990  0.60125577  1
  O2-  O215  1  0.66834331  0.70975726  0.93105627  1
  O2-  O216  1  0.08523601  0.44497313  0.06408235  1
  O2-  O217  1  0.08115330  0.44431473  0.39288721  1
  O2-  O218  1  0.08298725  0.44573580  0.72739630  1
  O2-  O219  1  0.08944350  0.96322981  0.06681461  1
  O2-  O220  1  0.08664060  0.96078495  0.39554555  1
  O2-  O221  1  0.07714620  0.96141988  0.73244244  1
  O2-  O222  1  0.58073483  0.45604680  0.06656078  1
  O2-  O223  1  0.58384479  0.45869174  0.40792047  1
  O2-  O224  1  0.58420699  0.44792814  0.73016486  1
  O2-  O225  1  0.58107017  0.95446973  0.06098217  1
  O2-  O226  1  0.58401804  0.96445497  0.40390785  1
  O2-  O227  1  0.58802158  0.95856269  0.72967998  1
  O2-  O228  1  0.20698223  0.32999541  0.06193657  1
  O2-  O229  1  0.20993462  0.33446341  0.39698593  1
  O2-  O230  1  0.20789928  0.33443742  0.72850111  1
  O2-  O231  1  0.20332229  0.83858025  0.06490739  1
  O2-  O232  1  0.20264466  0.83919633  0.39600889  1
  O2-  O233  1  0.20099642  0.83199773  0.73762061  1
  O2-  O234  1  0.71018293  0.33292027  0.06920756  1
  O2-  O235  1  0.71061050  0.33327377  0.40725044  1
  O2-  O236  1  0.70434274  0.33065048  0.72984835  1
  O2-  O237  1  0.70440241  0.83748201  0.06201142  1
  O2-  O238  1  0.70807915  0.83283414  0.40329468  1
  O2-  O239  1  0.70515305  0.83640376  0.72776972  1
  O2-  O240  1  0.45869933  0.41346271  0.27651381  1
  O2-  O241  1  0.46058161  0.41239322  0.60013256  1
  O2-  O242  1  0.45886664  0.41893988  0.92977360  1
  O2-  O243  1  0.45796585  0.92255658  0.26779595  1
  O2-  O244  1  0.46030310  0.91678689  0.59981105  1
  O2-  O245  1  0.45248268  0.91996752  0.92962430  1
  O2-  O246  1  0.94910984  0.41471278  0.26925325  1
  O2-  O247  1  0.95016137  0.41758366  0.60410948  1
  O2-  O248  1  0.95519474  0.41728780  0.93813539  1
  O2-  O249  1  0.95658188  0.91420560  0.27038175  1
  O2-  O250  1  0.95707595  0.91501715  0.59334908  1
  O2-  O251  1  0.96780917  0.91161525  0.93283533  1
  O2-  O252  1  0.34078475  0.29245837  0.27134600  1
  O2-  O253  1  0.33922315  0.29415398  0.59985387  1
  O2-  O254  1  0.33348232  0.29229248  0.92902641  1
  O2-  O255  1  0.32787156  0.80062585  0.26790957  1
  O2-  O256  1  0.32815299  0.79249967  0.60256104  1
  O2-  O257  1  0.32562318  0.79418200  0.93292171  1
  O2-  O258  1  0.83241966  0.29353425  0.27170288  1
  O2-  O259  1  0.83367420  0.29504859  0.60235238  1
  O2-  O260  1  0.83598328  0.29820883  0.93805430  1
  O2-  O261  1  0.83182538  0.80102826  0.27207045  1
  O2-  O262  1  0.83035538  0.78822958  0.59650972  1
  O2-  O263  1  0.83232947  0.79763084  0.93307929  1
  O2-  O264  1  0.41490105  0.04615605  0.06153218  1
  O2-  O265  1  0.41324342  0.05011507  0.39374757  1
  O2-  O266  1  0.42190312  0.04556700  0.73447869  1
  O2-  O267  1  0.41616748  0.53954986  0.06692101  1
  O2-  O268  1  0.41212192  0.53848647  0.40449225  1
  O2-  O269  1  0.41642718  0.53752714  0.73330648  1
  O2-  O270  1  0.91656155  0.03260913  0.06879424  1
  O2-  O271  1  0.91801461  0.04453784  0.39704332  1
  O2-  O272  1  0.91251113  0.04259012  0.72371812  1
  O2-  O273  1  0.92311921  0.54678958  0.06804045  1
  O2-  O274  1  0.91808460  0.54364345  0.39678728  1
  O2-  O275  1  0.91697908  0.54327820  0.73510985  1
  O2-  O276  1  0.29212468  0.16363502  0.06193394  1
  O2-  O277  1  0.29068621  0.16441330  0.39350636  1
  O2-  O278  1  0.29563017  0.17197929  0.73361177  1
  O2-  O279  1  0.28576884  0.66727515  0.06906471  1
  O2-  O280  1  0.28511804  0.66956739  0.39868864  1
  O2-  O281  1  0.28935834  0.66640064  0.73711621  1
  O2-  O282  1  0.79926446  0.16705497  0.06807625  1
  O2-  O283  1  0.79906092  0.16408369  0.40046833  1
  O2-  O284  1  0.79263731  0.16224711  0.72644885  1
  O2-  O285  1  0.79847606  0.67594814  0.06711017  1
  O2-  O286  1  0.80147109  0.66694016  0.39515053  1
  O2-  O287  1  0.78694969  0.66706027  0.73263660  1
