# generated using pymatgen
data_Ca2Al2SiO7
_symmetry_space_group_name_H-M   'P 1'
_cell_length_a   15.46111284
_cell_length_b   15.46199083
_cell_length_c   15.28669161
_cell_angle_alpha   90.00268546
_cell_angle_beta   89.99109244
_cell_angle_gamma   90.01836647
_symmetry_Int_Tables_number   1
_chemical_formula_structural   Ca2Al2SiO7
_chemical_formula_sum   'Ca48 Al48 Si24 O168'
_cell_volume   3654.42991600
_cell_formula_units_Z   24
loop_
 _symmetry_equiv_pos_site_id
 _symmetry_equiv_pos_as_xyz
  1  'x, y, z'
loop_
 _atom_type_symbol
 _atom_type_oxidation_number
  Ca2+  2.0
  Al0+  0.0
  Si0+  0.0
  O2-  -2.0
loop_
 _atom_site_type_symbol
 _atom_site_label
 _atom_site_symmetry_multiplicity
 _atom_site_fract_x
 _atom_site_fract_y
 _atom_site_fract_z
 _atom_site_occupancy
  Ca2+  Ca0  1  0.17743734  0.08253463  0.17447794  1
  Ca2+  Ca1  1  0.17314126  0.08044708  0.50931954  1
  Ca2+  Ca2  1  0.17285881  0.09008867  0.83525903  1
  Ca2+  Ca3  1  0.15918231  0.57962289  0.17292418  1
  Ca2+  Ca4  1  0.16442546  0.57110287  0.50297906  1
  Ca2+  Ca5  1  0.16591940  0.57950521  0.83261164  1
  Ca2+  Ca6  1  0.66915193  0.08717706  0.15906631  1
  Ca2+  Ca7  1  0.67473299  0.08628912  0.50518984  1
  Ca2+  Ca8  1  0.67757842  0.08496746  0.84383326  1
  Ca2+  Ca9  1  0.67659712  0.57618249  0.16958616  1
  Ca2+  Ca10  1  0.67605597  0.57565134  0.50506618  1
  Ca2+  Ca11  1  0.66796847  0.56821235  0.83783474  1
  Ca2+  Ca12  1  0.07230074  0.33906977  0.16369963  1
  Ca2+  Ca13  1  0.08064889  0.33419435  0.49652092  1
  Ca2+  Ca14  1  0.07094090  0.32670396  0.82430437  1
  Ca2+  Ca15  1  0.08573674  0.82189113  0.16086532  1
  Ca2+  Ca16  1  0.09359180  0.82901638  0.49465890  1
  Ca2+  Ca17  1  0.08499709  0.83250549  0.83101521  1
  Ca2+  Ca18  1  0.57039050  0.32943102  0.15556350  1
  Ca2+  Ca19  1  0.57549468  0.33592773  0.49634834  1
  Ca2+  Ca20  1  0.58343203  0.33231240  0.83275898  1
  Ca2+  Ca21  1  0.58569263  0.83349796  0.15834562  1
  Ca2+  Ca22  1  0.57944824  0.83108123  0.49527949  1
  Ca2+  Ca23  1  0.58481284  0.83665681  0.83170390  1
  Ca2+  Ca24  1  0.32721183  0.41041236  0.17322100  1
  Ca2+  Ca25  1  0.31972217  0.41451611  0.50484668  1
  Ca2+  Ca26  1  0.32750093  0.41531223  0.83552426  1
  Ca2+  Ca27  1  0.32960465  0.93008046  0.17257726  1
  Ca2+  Ca28  1  0.32188964  0.92641797  0.50442628  1
  Ca2+  Ca29  1  0.32708813  0.92901058  0.83517823  1
  Ca2+  Ca30  1  0.83175625  0.41344450  0.17164160  1
  Ca2+  Ca31  1  0.83632124  0.41662385  0.50432290  1
  Ca2+  Ca32  1  0.82427720  0.40315488  0.83852454  1
  Ca2+  Ca33  1  0.83427217  0.91678368  0.16262874  1
  Ca2+  Ca34  1  0.83388069  0.92525270  0.50725349  1
  Ca2+  Ca35  1  0.83391295  0.92914668  0.84311365  1
  Ca2+  Ca36  1  0.41433215  0.17308185  0.15853575  1
  Ca2+  Ca37  1  0.41316703  0.16759188  0.49425672  1
  Ca2+  Ca38  1  0.41897967  0.16348077  0.83445549  1
  Ca2+  Ca39  1  0.41830436  0.67073540  0.16045253  1
  Ca2+  Ca40  1  0.41272513  0.66286599  0.49922883  1
  Ca2+  Ca41  1  0.41521935  0.66613011  0.82591444  1
  Ca2+  Ca42  1  0.91538703  0.17620877  0.15943830  1
  Ca2+  Ca43  1  0.92112358  0.17531941  0.50179286  1
  Ca2+  Ca44  1  0.91389422  0.17053537  0.82494235  1
  Ca2+  Ca45  1  0.92652938  0.66785740  0.16026415  1
  Ca2+  Ca46  1  0.92324161  0.66698983  0.48939900  1
  Ca2+  Ca47  1  0.91898186  0.67452563  0.83586951  1
  Al0+  Al48  1  0.00120701  -0.00131032  0.00362969  1
  Al0+  Al49  1  -0.00165830  -0.00067979  0.33644841  1
  Al0+  Al50  1  -0.00066041  0.00037555  0.66921817  1
  Al0+  Al51  1  0.00063067  0.50009637  -0.01085999  1
  Al0+  Al52  1  -0.00065821  0.50156688  0.33333020  1
  Al0+  Al53  1  -0.00095803  0.50389512  0.66838474  1
  Al0+  Al54  1  0.49956044  0.00043396  0.00388837  1
  Al0+  Al55  1  0.50185384  -0.00076254  0.33642815  1
  Al0+  Al56  1  0.49852300  -0.00140257  0.66524154  1
  Al0+  Al57  1  0.49919388  0.50063426  0.00116618  1
  Al0+  Al58  1  0.50131643  0.49963051  0.32724896  1
  Al0+  Al59  1  0.50263444  0.50049536  0.67087156  1
  Al0+  Al60  1  0.24879870  0.25299878  0.00128226  1
  Al0+  Al61  1  0.24999426  0.25069544  0.33730529  1
  Al0+  Al62  1  0.25012343  0.25058109  0.67132933  1
  Al0+  Al63  1  0.25216683  0.74864672  -0.00489632  1
  Al0+  Al64  1  0.25215218  0.75054578  0.32973838  1
  Al0+  Al65  1  0.25105203  0.75171067  0.67140485  1
  Al0+  Al66  1  0.74645325  0.24919056  0.00436597  1
  Al0+  Al67  1  0.74825495  0.24890107  0.33056141  1
  Al0+  Al68  1  0.74858476  0.25013122  0.66736122  1
  Al0+  Al69  1  0.75144984  0.74894258  -0.00170160  1
  Al0+  Al70  1  0.75057476  0.74915654  0.33782227  1
  Al0+  Al71  1  0.74936750  0.74799388  0.66380234  1
  Al0+  Al72  1  0.32149792  0.07202409  0.34910509  1
  Al0+  Al73  1  0.82050335  0.56974101  0.34588497  1
  Al0+  Al74  1  0.67794237  0.42832710  0.01615132  1
  Al0+  Al75  1  0.17568756  0.42832540  0.68403163  1
  Al0+  Al76  1  0.56791289  0.17872064  0.98413403  1
  Al0+  Al77  1  0.42638775  0.32304751  0.98222306  1
  Al0+  Al78  1  0.32272983  0.07285708  0.68341915  1
  Al0+  Al79  1  0.17813556  0.92744687  0.34644490  1
  Al0+  Al80  1  0.92992212  0.32026315  0.31989693  1
  Al0+  Al81  1  0.67974163  0.92765218  0.01407322  1
  Al0+  Al82  1  0.17778382  0.92937484  0.68334445  1
  Al0+  Al83  1  0.07260988  0.17847371  0.65189948  1
  Al0+  Al84  1  0.42814849  0.31995100  0.32145365  1
  Al0+  Al85  1  0.92782613  0.31865242  0.98727364  1
  Al0+  Al86  1  0.07093879  0.68106682  0.32143279  1
  Al0+  Al87  1  0.07347009  0.67871323  0.98099185  1
  Al0+  Al88  1  0.92924542  0.82206002  0.98479363  1
  Al0+  Al89  1  0.68157662  0.42987485  0.67934417  1
  Al0+  Al90  1  0.82379982  0.07218192  0.01727309  1
  Al0+  Al91  1  0.17852719  0.43081808  0.34470139  1
  Al0+  Al92  1  0.81871174  0.06991427  0.67851936  1
  Al0+  Al93  1  0.32073697  0.56945783  0.68021589  1
  Al0+  Al94  1  0.31848248  0.07207580  0.01502687  1
  Al0+  Al95  1  0.92717572  0.32217499  0.65101285  1
  Si0+  Si96  1  0.32151604  0.57259359  0.01599015  1
  Si0+  Si97  1  0.07260920  0.68196044  0.64966498  1
  Si0+  Si98  1  0.07171203  0.17629415  0.31794854  1
  Si0+  Si99  1  0.57174447  0.67874431  0.98437370  1
  Si0+  Si100  1  0.67773186  0.92565270  0.68039601  1
  Si0+  Si101  1  0.43178555  0.82073493  0.31751305  1
  Si0+  Si102  1  0.82033028  0.07320246  0.34963905  1
  Si0+  Si103  1  0.43052243  0.82097884  0.98405148  1
  Si0+  Si104  1  0.92490917  0.82382501  0.31774773  1
  Si0+  Si105  1  0.07254085  0.17759726  0.98731098  1
  Si0+  Si106  1  0.67728034  0.42738258  0.34926559  1
  Si0+  Si107  1  0.32529435  0.57260342  0.34621704  1
  Si0+  Si108  1  0.17917899  0.92495303  0.01745065  1
  Si0+  Si109  1  0.57223125  0.17549782  0.31609154  1
  Si0+  Si110  1  0.57341731  0.67930459  0.31732920  1
  Si0+  Si111  1  0.43038096  0.32304571  0.65236254  1
  Si0+  Si112  1  0.56992073  0.17782367  0.65135660  1
  Si0+  Si113  1  0.17828224  0.43215285  0.01517940  1
  Si0+  Si114  1  0.42926727  0.82050678  0.64972050  1
  Si0+  Si115  1  0.57089339  0.67755573  0.64976374  1
  Si0+  Si116  1  0.82282921  0.57020883  0.01509169  1
  Si0+  Si117  1  0.92765990  0.82075753  0.65086522  1
  Si0+  Si118  1  0.82271866  0.57520082  0.68505123  1
  Si0+  Si119  1  0.67999741  0.92745345  0.34992310  1
  O2-  O120  1  0.24262363  -0.00170177  0.06152503  1
  O2-  O121  1  0.24557177  0.00314627  0.39728755  1
  O2-  O122  1  0.24550383  0.00582124  0.73233538  1
  O2-  O123  1  0.24995411  0.50286212  0.05814200  1
  O2-  O124  1  0.25724331  0.50343475  0.38916270  1
  O2-  O125  1  0.25011893  0.49889906  0.73345182  1
  O2-  O126  1  0.75259529  -0.00251663  0.06602821  1
  O2-  O127  1  0.75054172  -0.00074979  0.39068632  1
  O2-  O128  1  0.74550261  -0.00645582  0.72440727  1
  O2-  O129  1  0.75735491  0.49920869  0.06099895  1
  O2-  O130  1  0.74838150  0.49297326  0.39390889  1
  O2-  O131  1  0.76048921  0.49994163  0.72697430  1
  O2-  O132  1  0.00337736  0.24468948  0.27247941  1
  O2-  O133  1  0.00396466  0.25446445  0.60160490  1
  O2-  O134  1  -0.00271588  0.23849846  0.94273934  1
  O2-  O135  1  -0.00179846  0.75877070  0.27618554  1
  O2-  O136  1  0.00002695  0.75176973  0.60735676  1
  O2-  O137  1  0.00392744  0.75409122  0.93264355  1
  O2-  O138  1  0.50086467  0.24295686  0.27536656  1
  O2-  O139  1  0.49661358  0.24699620  0.60974644  1
  O2-  O140  1  0.49808064  0.25135069  0.93163476  1
  O2-  O141  1  0.50212656  0.74934489  0.27401127  1
  O2-  O142  1  0.50029415  0.74887330  0.60695268  1
  O2-  O143  1  0.50264014  0.75108089  0.94126537  1
  O2-  O144  1  0.07479338  0.18242643  0.09321236  1
  O2-  O145  1  0.06965228  0.17604367  0.42323917  1
  O2-  O146  1  0.06907241  0.17808983  0.76564211  1
  O2-  O147  1  0.07333641  0.67804991  0.09502249  1
  O2-  O148  1  0.06990726  0.68097883  0.43471747  1
  O2-  O149  1  0.07254552  0.68328593  0.75439204  1
  O2-  O150  1  0.56493682  0.17968401  0.09807702  1
  O2-  O151  1  0.57508163  0.17570581  0.42221656  1
  O2-  O152  1  0.57105948  0.17633712  0.75564470  1
  O2-  O153  1  0.56960963  0.67958445  0.08996600  1
  O2-  O154  1  0.57295893  0.68019670  0.42255131  1
  O2-  O155  1  0.57184370  0.67914890  0.75469788  1
  O2-  O156  1  0.17785012  0.43318480  0.23137436  1
  O2-  O157  1  0.17670073  0.43077358  0.56994589  1
  O2-  O158  1  0.17933008  0.43285214  0.91061202  1
  O2-  O159  1  0.18291031  0.92602345  0.23295527  1
  O2-  O160  1  0.18287402  0.92559343  0.56981420  1
  O2-  O161  1  0.18294342  0.92339244  0.91217914  1
  O2-  O162  1  0.67643241  0.43053486  0.24397739  1
  O2-  O163  1  0.67814217  0.43372395  0.56596852  1
  O2-  O164  1  0.67732816  0.43156718  0.90296421  1
  O2-  O165  1  0.67876895  0.92332845  0.24566277  1
  O2-  O166  1  0.67871756  0.92492964  0.57415663  1
  O2-  O167  1  0.67985128  0.92755012  0.90040865  1
  O2-  O168  1  0.42579744  0.32234845  0.09619172  1
  O2-  O169  1  0.43143243  0.32294373  0.43493064  1
  O2-  O170  1  0.43407739  0.32624119  0.75681713  1
  O2-  O171  1  0.43007545  0.81728193  0.08959164  1
  O2-  O172  1  0.43419558  0.81930689  0.42262926  1
  O2-  O173  1  0.43228666  0.82096997  0.75479230  1
  O2-  O174  1  0.93171333  0.32221756  0.10082938  1
  O2-  O175  1  0.92886359  0.31922403  0.43257975  1
  O2-  O176  1  0.92403490  0.31658570  0.76432099  1
  O2-  O177  1  0.92849118  0.81689385  0.09866992  1
  O2-  O178  1  0.91993655  0.82157687  0.42351665  1
  O2-  O179  1  0.92385690  0.81700136  0.75525227  1
  O2-  O180  1  0.32256995  0.06980687  0.23537174  1
  O2-  O181  1  0.32705656  0.06804005  0.57001250  1
  O2-  O182  1  0.31852835  0.06942946  0.90236714  1
  O2-  O183  1  0.32667280  0.57398445  0.24056804  1
  O2-  O184  1  0.32070430  0.56819739  0.56610066  1
  O2-  O185  1  0.32279541  0.57390820  0.91131871  1
  O2-  O186  1  0.81979933  0.07439194  0.24520966  1
  O2-  O187  1  0.81577176  0.06879606  0.56457205  1
  O2-  O188  1  0.82118159  0.07206399  0.90371301  1
  O2-  O189  1  0.81784464  0.57138856  0.23303607  1
  O2-  O190  1  0.81904139  0.58009152  0.57923874  1
  O2-  O191  1  0.81862790  0.57205703  0.90959120  1
  O2-  O192  1  0.04658713  0.08193920  0.27240609  1
  O2-  O193  1  0.04114111  0.08005878  0.59904932  1
  O2-  O194  1  0.05793961  0.08025461  0.94600145  1
  O2-  O195  1  0.03615166  0.58683966  0.26568333  1
  O2-  O196  1  0.04517454  0.58948735  0.60338198  1
  O2-  O197  1  0.04169906  0.58338296  0.92462352  1
  O2-  O198  1  0.55024745  0.08017574  0.27199690  1
  O2-  O199  1  0.54513234  0.08485462  0.60270484  1
  O2-  O200  1  0.54041559  0.07915054  0.93273182  1
  O2-  O201  1  0.54779941  0.58801919  0.26795117  1
  O2-  O202  1  0.54213960  0.58669964  0.60088076  1
  O2-  O203  1  0.54045777  0.58854809  0.93661934  1
  O2-  O204  1  0.16598945  0.20196593  0.27397653  1
  O2-  O205  1  0.17373861  0.20317114  0.60134620  1
  O2-  O206  1  0.16220576  0.21114497  0.93865392  1
  O2-  O207  1  0.16867041  0.70760904  0.26590173  1
  O2-  O208  1  0.16489413  0.71126051  0.60384239  1
  O2-  O209  1  0.17306989  0.70476121  0.92874623  1
  O2-  O210  1  0.66435357  0.20252903  0.26829085  1
  O2-  O211  1  0.65971015  0.20900730  0.60156115  1
  O2-  O212  1  0.66722078  0.20671962  0.93395759  1
  O2-  O213  1  0.66456196  0.70992099  0.27051526  1
  O2-  O214  1  0.66214553  0.70584950  0.59994147  1
  O2-  O215  1  0.66342768  0.70359802  0.93625027  1
  O2-  O216  1  0.08587358  0.46264161  0.06026773  1
  O2-  O217  1  0.08474334  0.46569265  0.40049457  1
  O2-  O218  1  0.07809849  0.46051558  0.73642027  1
  O2-  O219  1  0.08362125  0.94208736  0.06178005  1
  O2-  O220  1  0.07652489  0.94615891  0.39728586  1
  O2-  O221  1  0.07722833  0.94951041  0.73373183  1
  O2-  O222  1  0.58262447  0.46515436  0.06991058  1
  O2-  O223  1  0.58477068  0.45840079  0.39511439  1
  O2-  O224  1  0.58853261  0.46636356  0.73599454  1
  O2-  O225  1  0.58166239  0.95507678  0.06898877  1
  O2-  O226  1  0.58868003  0.95463696  0.39933381  1
  O2-  O227  1  0.58332483  0.94911225  0.72407115  1
  O2-  O228  1  0.20489143  0.34094881  0.06407546  1
  O2-  O229  1  0.20702708  0.33496041  0.40055576  1
  O2-  O230  1  0.20272261  0.33041451  0.73674214  1
  O2-  O231  1  0.21214585  0.83251062  0.06240796  1
  O2-  O232  1  0.21393127  0.83056904  0.39943144  1
  O2-  O233  1  0.21296366  0.83402742  0.73811549  1
  O2-  O234  1  0.70315746  0.33193121  0.07145350  1
  O2-  O235  1  0.69825633  0.33184312  0.39303982  1
  O2-  O236  1  0.70661612  0.33258489  0.73341488  1
  O2-  O237  1  0.70646572  0.82762952  0.06685469  1
  O2-  O238  1  0.70670814  0.83643669  0.40028266  1
  O2-  O239  1  0.70116767  0.83097024  0.72490178  1
  O2-  O240  1  0.45893937  0.41610709  0.26489430  1
  O2-  O241  1  0.46480381  0.41289016  0.60425788  1
  O2-  O242  1  0.45501472  0.42293004  0.93246116  1
  O2-  O243  1  0.46224298  0.91214545  0.27083223  1
  O2-  O244  1  0.45899145  0.91059258  0.59921766  1
  O2-  O245  1  0.45829878  0.91234122  0.93738611  1
  O2-  O246  1  0.96098561  0.41672149  0.26627729  1
  O2-  O247  1  0.94975460  0.42515724  0.60365859  1
  O2-  O248  1  0.95956956  0.41294319  0.93045466  1
  O2-  O249  1  0.94440216  0.91934714  0.27350209  1
  O2-  O250  1  0.95169113  0.91359886  0.60444594  1
  O2-  O251  1  0.95366441  0.92254832  0.93422786  1
  O2-  O252  1  0.33049267  0.29223207  0.26763693  1
  O2-  O253  1  0.33639548  0.29979473  0.60782838  1
  O2-  O254  1  0.32719452  0.29528654  0.93141178  1
  O2-  O255  1  0.34149919  0.79333317  0.26751365  1
  O2-  O256  1  0.33803242  0.79079430  0.60255683  1
  O2-  O257  1  0.34086988  0.79090765  0.93450028  1
  O2-  O258  1  0.83176852  0.29052863  0.26740882  1
  O2-  O259  1  0.82928456  0.28978112  0.59730366  1
  O2-  O260  1  0.82889004  0.29168257  0.93795964  1
  O2-  O261  1  0.83258564  0.79327935  0.27143204  1
  O2-  O262  1  0.83589496  0.79158935  0.60157767  1
  O2-  O263  1  0.83193436  0.78996732  0.93020933  1
  O2-  O264  1  0.41372636  0.03796479  0.06905602  1
  O2-  O265  1  0.42005291  0.04031976  0.40109115  1
  O2-  O266  1  0.41969583  0.03631603  0.73548302  1
  O2-  O267  1  0.41350097  0.54735827  0.06443856  1
  O2-  O268  1  0.42013632  0.54927181  0.39147095  1
  O2-  O269  1  0.42013407  0.54511381  0.73306102  1
  O2-  O270  1  0.92285035  0.04618398  0.07128692  1
  O2-  O271  1  0.91202370  0.04712453  0.39778685  1
  O2-  O272  1  0.91423331  0.04079465  0.73293789  1
  O2-  O273  1  0.91869408  0.54678384  0.05674880  1
  O2-  O274  1  0.91606351  0.54128569  0.40172858  1
  O2-  O275  1  0.91843197  0.56013430  0.72854655  1
  O2-  O276  1  0.28792894  0.16946413  0.06819340  1
  O2-  O277  1  0.29675231  0.17059917  0.40214697  1
  O2-  O278  1  0.30231694  0.17267427  0.73514644  1
  O2-  O279  1  0.29588653  0.66555058  0.06323236  1
  O2-  O280  1  0.30103295  0.66648686  0.39174137  1
  O2-  O281  1  0.29506872  0.66829334  0.73322142  1
  O2-  O282  1  0.78939294  0.16769673  0.07256584  1
  O2-  O283  1  0.78757805  0.16317921  0.39827895  1
  O2-  O284  1  0.78489295  0.16457631  0.73227287  1
  O2-  O285  1  0.79351005  0.66216707  0.06226200  1
  O2-  O286  1  0.78718659  0.66474128  0.40327912  1
  O2-  O287  1  0.78774766  0.66557187  0.73252736  1
