# generated using pymatgen
data_Ca2Al2SiO7
_symmetry_space_group_name_H-M   'P 1'
_cell_length_a   15.45590055
_cell_length_b   15.45638694
_cell_length_c   15.28217828
_cell_angle_alpha   89.99028485
_cell_angle_beta   90.00755625
_cell_angle_gamma   89.99933383
_symmetry_Int_Tables_number   1
_chemical_formula_structural   Ca2Al2SiO7
_chemical_formula_sum   'Ca48 Al48 Si24 O168'
_cell_volume   3650.79584675
_cell_formula_units_Z   24
loop_
 _symmetry_equiv_pos_site_id
 _symmetry_equiv_pos_as_xyz
  1  'x, y, z'
loop_
 _atom_type_symbol
 _atom_type_oxidation_number
  Ca2+  2.0
  Al0+  0.0
  Si0+  0.0
  O2-  -2.0
loop_
 _atom_site_type_symbol
 _atom_site_label
 _atom_site_symmetry_multiplicity
 _atom_site_fract_x
 _atom_site_fract_y
 _atom_site_fract_z
 _atom_site_occupancy
  Ca2+  Ca0  1  0.16323594  0.07538521  0.17255979  1
  Ca2+  Ca1  1  0.17008847  0.08253767  0.50997347  1
  Ca2+  Ca2  1  0.16786290  0.07543363  0.83431887  1
  Ca2+  Ca3  1  0.16549257  0.57448913  0.17540092  1
  Ca2+  Ca4  1  0.17090438  0.58284115  0.49485038  1
  Ca2+  Ca5  1  0.16267463  0.57593300  0.84499839  1
  Ca2+  Ca6  1  0.67220076  0.08914769  0.17023264  1
  Ca2+  Ca7  1  0.67782940  0.09257134  0.50154122  1
  Ca2+  Ca8  1  0.67645505  0.08258666  0.84458609  1
  Ca2+  Ca9  1  0.66972332  0.58230868  0.17552777  1
  Ca2+  Ca10  1  0.65240571  0.57804494  0.50028974  1
  Ca2+  Ca11  1  0.67318419  0.58531374  0.83844431  1
  Ca2+  Ca12  1  0.09149966  0.32855072  0.16413393  1
  Ca2+  Ca13  1  0.08027938  0.32225514  0.49439828  1
  Ca2+  Ca14  1  0.07640541  0.32777732  0.82500467  1
  Ca2+  Ca15  1  0.08805107  0.81947187  0.16013486  1
  Ca2+  Ca16  1  0.08521282  0.83244143  0.49389516  1
  Ca2+  Ca17  1  0.08993944  0.83289201  0.83410849  1
  Ca2+  Ca18  1  0.58566636  0.32791740  0.16922247  1
  Ca2+  Ca19  1  0.57675808  0.32926122  0.48635067  1
  Ca2+  Ca20  1  0.58476587  0.32622201  0.83214205  1
  Ca2+  Ca21  1  0.57155117  0.83803283  0.16117842  1
  Ca2+  Ca22  1  0.57775665  0.82218144  0.49053189  1
  Ca2+  Ca23  1  0.58274642  0.83379972  0.83257810  1
  Ca2+  Ca24  1  0.32520006  0.42046276  0.17853796  1
  Ca2+  Ca25  1  0.33329659  0.41728720  0.49650600  1
  Ca2+  Ca26  1  0.32406427  0.41962190  0.83987954  1
  Ca2+  Ca27  1  0.33239317  0.90830952  0.16793515  1
  Ca2+  Ca28  1  0.32946877  0.92105779  0.50558456  1
  Ca2+  Ca29  1  0.32652642  0.91824781  0.83642708  1
  Ca2+  Ca30  1  0.82802384  0.42209274  0.17058784  1
  Ca2+  Ca31  1  0.82843448  0.41331646  0.50023686  1
  Ca2+  Ca32  1  0.83710123  0.42070386  0.83866108  1
  Ca2+  Ca33  1  0.82661649  0.92698164  0.16921862  1
  Ca2+  Ca34  1  0.83495645  0.92962377  0.50386109  1
  Ca2+  Ca35  1  0.82810154  0.92841936  0.84194824  1
  Ca2+  Ca36  1  0.42796379  0.17111238  0.16337560  1
  Ca2+  Ca37  1  0.41962060  0.16974151  0.48813787  1
  Ca2+  Ca38  1  0.42118342  0.16128587  0.83219389  1
  Ca2+  Ca39  1  0.41532609  0.67357680  0.16737386  1
  Ca2+  Ca40  1  0.42115117  0.67124208  0.48845270  1
  Ca2+  Ca41  1  0.42161858  0.67568876  0.83007351  1
  Ca2+  Ca42  1  0.91633445  0.16336166  0.16674154  1
  Ca2+  Ca43  1  0.92491523  0.16177250  0.49663294  1
  Ca2+  Ca44  1  0.91831916  0.16742806  0.82471274  1
  Ca2+  Ca45  1  0.92600669  0.65953993  0.16109994  1
  Ca2+  Ca46  1  0.92498593  0.67220085  0.49306906  1
  Ca2+  Ca47  1  0.92008559  0.66534237  0.83383099  1
  Al0+  Al48  1  0.00138993  -0.00145056  0.00771667  1
  Al0+  Al49  1  -0.00135653  0.00078886  0.33333551  1
  Al0+  Al50  1  -0.00029941  -0.00155064  0.67209329  1
  Al0+  Al51  1  -0.00000177  0.49846436  0.00391619  1
  Al0+  Al52  1  -0.00105607  0.49874742  0.33651087  1
  Al0+  Al53  1  -0.00161953  0.49995663  0.66070499  1
  Al0+  Al54  1  0.49988807  0.00049130  -0.00809657  1
  Al0+  Al55  1  0.50050350  -0.00099874  0.32715783  1
  Al0+  Al56  1  0.49963972  -0.00091743  0.66834004  1
  Al0+  Al57  1  0.49931159  0.49991126  -0.00244842  1
  Al0+  Al58  1  0.49887836  0.50121742  0.33249277  1
  Al0+  Al59  1  0.49979150  0.49915541  0.66767189  1
  Al0+  Al60  1  0.25037724  0.24946212  0.00121073  1
  Al0+  Al61  1  0.24817726  0.24841343  0.32892637  1
  Al0+  Al62  1  0.25031792  0.25068154  0.66927464  1
  Al0+  Al63  1  0.25134726  0.74946749  -0.00739141  1
  Al0+  Al64  1  0.24818175  0.74807306  0.33083462  1
  Al0+  Al65  1  0.25151813  0.74896815  0.66993350  1
  Al0+  Al66  1  0.75084454  0.25169498  -0.00147291  1
  Al0+  Al67  1  0.75228373  0.25180594  0.33892096  1
  Al0+  Al68  1  0.74893133  0.25289872  0.66832252  1
  Al0+  Al69  1  0.75188007  0.75172005  0.00871718  1
  Al0+  Al70  1  0.75062894  0.75238308  0.33171434  1
  Al0+  Al71  1  0.75112929  0.74798991  0.66115467  1
  Al0+  Al72  1  0.57402973  0.17968571  0.31969021  1
  Al0+  Al73  1  0.57139612  0.18183341  0.98466142  1
  Al0+  Al74  1  0.81902923  0.07192250  0.68132225  1
  Al0+  Al75  1  0.42966786  0.82055387  0.98207888  1
  Al0+  Al76  1  0.17958398  0.42855126  0.01284585  1
  Al0+  Al77  1  0.18160316  0.92834698  0.01588370  1
  Al0+  Al78  1  0.06886230  0.67802578  0.98579696  1
  Al0+  Al79  1  0.31923662  0.57125058  0.34811302  1
  Al0+  Al80  1  0.82060009  0.57084263  0.01290487  1
  Al0+  Al81  1  0.07042450  0.17812259  0.31858745  1
  Al0+  Al82  1  0.92705257  0.32271289  0.65003250  1
  Al0+  Al83  1  0.32311606  0.07388667  0.68143575  1
  Al0+  Al84  1  0.67992433  0.43227843  0.34701924  1
  Al0+  Al85  1  0.82160811  0.07380550  0.01641672  1
  Al0+  Al86  1  0.67650188  0.92989457  0.01528460  1
  Al0+  Al87  1  0.42714907  0.32146718  0.31819047  1
  Al0+  Al88  1  0.17685844  0.42512677  0.35139393  1
  Al0+  Al89  1  0.81968918  0.07018288  0.34969353  1
  Al0+  Al90  1  0.42812944  0.82114930  0.31857947  1
  Al0+  Al91  1  0.07025914  0.17756201  0.65372283  1
  Al0+  Al92  1  0.06810277  0.67944864  0.32030537  1
  Al0+  Al93  1  0.57218048  0.67795307  0.31663893  1
  Al0+  Al94  1  0.57125187  0.67937942  0.65368949  1
  Al0+  Al95  1  0.17897279  0.92709770  0.68181219  1
  Si0+  Si96  1  0.32246604  0.07202352  0.01808073  1
  Si0+  Si97  1  0.32292289  0.57196013  0.01480856  1
  Si0+  Si98  1  0.57530663  0.67718544  0.98404557  1
  Si0+  Si99  1  0.67964867  0.92514494  0.68090051  1
  Si0+  Si100  1  0.42742926  0.82146615  0.64919157  1
  Si0+  Si101  1  0.17762803  0.43102950  0.68105294  1
  Si0+  Si102  1  0.07243043  0.17600172  0.98518137  1
  Si0+  Si103  1  0.57048933  0.17868136  0.65285827  1
  Si0+  Si104  1  0.92799131  0.82449344  0.31562518  1
  Si0+  Si105  1  0.07284219  0.67785984  0.65183501  1
  Si0+  Si106  1  0.17953054  0.92887775  0.34657171  1
  Si0+  Si107  1  0.32194142  0.07006569  0.34441268  1
  Si0+  Si108  1  0.67746629  0.43076142  0.68329629  1
  Si0+  Si109  1  0.42597958  0.32273177  0.98148163  1
  Si0+  Si110  1  0.82263731  0.57510943  0.35236256  1
  Si0+  Si111  1  0.93086621  0.31969309  0.98654223  1
  Si0+  Si112  1  0.32223371  0.56976752  0.68316704  1
  Si0+  Si113  1  0.67529863  0.92780605  0.35145647  1
  Si0+  Si114  1  0.92821989  0.82280629  0.98389957  1
  Si0+  Si115  1  0.82227440  0.57161303  0.68043423  1
  Si0+  Si116  1  0.42911853  0.32124206  0.65301520  1
  Si0+  Si117  1  0.92940036  0.81993586  0.65328945  1
  Si0+  Si118  1  0.92847882  0.32144579  0.31560343  1
  Si0+  Si119  1  0.67654696  0.42887002  0.01518683  1
  O2-  O120  1  0.25470946  0.00355839  0.06407658  1
  O2-  O121  1  0.25095665  -0.00053626  0.38791892  1
  O2-  O122  1  0.25042352  0.00123701  0.72981046  1
  O2-  O123  1  0.25621235  0.50136932  0.05791789  1
  O2-  O124  1  0.25020720  0.49680093  0.40054222  1
  O2-  O125  1  0.24691033  0.50311025  0.72513912  1
  O2-  O126  1  0.74674273  0.00390578  0.06483246  1
  O2-  O127  1  0.74304494  -0.00290952  0.39676708  1
  O2-  O128  1  0.74247074  -0.00157369  0.72651772  1
  O2-  O129  1  0.73969922  0.50272985  0.05835401  1
  O2-  O130  1  0.74953555  0.51123845  0.39684158  1
  O2-  O131  1  0.75127942  0.50039224  0.72313720  1
  O2-  O132  1  -0.00030783  0.25610925  0.27061084  1
  O2-  O133  1  -0.00313620  0.24755107  0.60217052  1
  O2-  O134  1  -0.00039291  0.24617720  0.94436142  1
  O2-  O135  1  -0.00896638  0.75050086  0.27207663  1
  O2-  O136  1  0.00505818  0.75287759  0.61167591  1
  O2-  O137  1  -0.00434730  0.75360601  0.93721886  1
  O2-  O138  1  0.50099713  0.25068325  0.26952043  1
  O2-  O139  1  0.49500764  0.24513441  0.61163392  1
  O2-  O140  1  0.49599817  0.25584650  0.93634714  1
  O2-  O141  1  0.50243775  0.75191034  0.26750082  1
  O2-  O142  1  0.49804876  0.75468643  0.60632394  1
  O2-  O143  1  0.50779426  0.74644852  0.93852127  1
  O2-  O144  1  0.07344926  0.17749468  0.09016220  1
  O2-  O145  1  0.06976783  0.17448287  0.43157192  1
  O2-  O146  1  0.06917191  0.18069535  0.76790470  1
  O2-  O147  1  0.06768237  0.67675131  0.09840381  1
  O2-  O148  1  0.06860261  0.68427963  0.43429192  1
  O2-  O149  1  0.07004679  0.67348293  0.75687116  1
  O2-  O150  1  0.57226095  0.18546796  0.09717124  1
  O2-  O151  1  0.57167524  0.18081645  0.43414343  1
  O2-  O152  1  0.57187033  0.18231933  0.75809841  1
  O2-  O153  1  0.57328852  0.67423033  0.08874063  1
  O2-  O154  1  0.56897039  0.68008372  0.43088282  1
  O2-  O155  1  0.57153090  0.67994134  0.76706499  1
  O2-  O156  1  0.17756745  0.42758296  0.23769949  1
  O2-  O157  1  0.17917416  0.43127261  0.57667138  1
  O2-  O158  1  0.17865669  0.42996959  0.89863985  1
  O2-  O159  1  0.17959334  0.92875774  0.24156541  1
  O2-  O160  1  0.18112627  0.92443680  0.56772633  1
  O2-  O161  1  0.18170296  0.93054116  0.90290219  1
  O2-  O162  1  0.68474194  0.43123780  0.23384044  1
  O2-  O163  1  0.67395773  0.43108931  0.57866865  1
  O2-  O164  1  0.67830858  0.42821554  0.90895656  1
  O2-  O165  1  0.67650144  0.92814738  0.24630080  1
  O2-  O166  1  0.68284073  0.92363007  0.57552866  1
  O2-  O167  1  0.68049715  0.93014126  0.90066695  1
  O2-  O168  1  0.42512406  0.32269643  0.08623585  1
  O2-  O169  1  0.42829685  0.31745501  0.43291054  1
  O2-  O170  1  0.43235401  0.32515002  0.75825352  1
  O2-  O171  1  0.42793283  0.81748072  0.09459081  1
  O2-  O172  1  0.42769950  0.82187235  0.43264978  1
  O2-  O173  1  0.42707193  0.81918757  0.75474459  1
  O2-  O174  1  0.93044034  0.32087126  0.09126397  1
  O2-  O175  1  0.92800858  0.31907497  0.42122189  1
  O2-  O176  1  0.93043231  0.32674149  0.76422017  1
  O2-  O177  1  0.93045461  0.82178440  0.08914081  1
  O2-  O178  1  0.93160211  0.82548322  0.42212262  1
  O2-  O179  1  0.92495561  0.81634157  0.75802676  1
  O2-  O180  1  0.32096478  0.06936603  0.23959012  1
  O2-  O181  1  0.32443501  0.07321373  0.56735258  1
  O2-  O182  1  0.31907705  0.07271858  0.91223195  1
  O2-  O183  1  0.31517149  0.57279592  0.23461169  1
  O2-  O184  1  0.32338632  0.56934240  0.57867253  1
  O2-  O185  1  0.32237359  0.56906683  0.90816642  1
  O2-  O186  1  0.82006180  0.06894500  0.23708969  1
  O2-  O187  1  0.81922955  0.06996152  0.56825619  1
  O2-  O188  1  0.82132235  0.07355506  0.90229150  1
  O2-  O189  1  0.82461701  0.57129498  0.24676522  1
  O2-  O190  1  0.82389966  0.57298795  0.57593252  1
  O2-  O191  1  0.82131158  0.56771908  0.89883715  1
  O2-  O192  1  0.03572098  0.08279784  0.26411385  1
  O2-  O193  1  0.04429541  0.07716408  0.60325178  1
  O2-  O194  1  0.04513836  0.08319288  0.94003086  1
  O2-  O195  1  0.03896283  0.58105985  0.26926394  1
  O2-  O196  1  0.04112768  0.58914464  0.60138902  1
  O2-  O197  1  0.03429359  0.58160473  0.93192661  1
  O2-  O198  1  0.54789855  0.08152949  0.26660826  1
  O2-  O199  1  0.54973828  0.08419302  0.60790929  1
  O2-  O200  1  0.54167071  0.08635952  0.92807620  1
  O2-  O201  1  0.54482308  0.58009686  0.26414581  1
  O2-  O202  1  0.53731163  0.58245690  0.60218627  1
  O2-  O203  1  0.54976956  0.58323808  0.93607230  1
  O2-  O204  1  0.16664810  0.20409707  0.26235438  1
  O2-  O205  1  0.16959366  0.20772592  0.60282249  1
  O2-  O206  1  0.16413126  0.20498265  0.93787882  1
  O2-  O207  1  0.16253346  0.71174701  0.26485052  1
  O2-  O208  1  0.16637882  0.70291358  0.60680855  1
  O2-  O209  1  0.16519333  0.70644442  0.92998642  1
  O2-  O210  1  0.67183794  0.21257920  0.26882890  1
  O2-  O211  1  0.66041859  0.21203375  0.60580714  1
  O2-  O212  1  0.66742045  0.21563426  0.92921847  1
  O2-  O213  1  0.67371868  0.70165477  0.26814050  1
  O2-  O214  1  0.66823639  0.70530531  0.59774358  1
  O2-  O215  1  0.67051038  0.70269566  0.94035738  1
  O2-  O216  1  0.08475793  0.45973495  0.06819735  1
  O2-  O217  1  0.07851779  0.45485220  0.40403501  1
  O2-  O218  1  0.08479942  0.45979072  0.72670136  1
  O2-  O219  1  0.08533565  0.95616039  0.07134963  1
  O2-  O220  1  0.08786155  0.95729454  0.39386566  1
  O2-  O221  1  0.08037531  0.95128523  0.73632724  1
  O2-  O222  1  0.58034165  0.44735555  0.05834932  1
  O2-  O223  1  0.58201360  0.45860164  0.40122687  1
  O2-  O224  1  0.58717097  0.46028236  0.73365577  1
  O2-  O225  1  0.57620444  0.95687327  0.06333865  1
  O2-  O226  1  0.58064406  0.95121359  0.39658528  1
  O2-  O227  1  0.58355231  0.94453977  0.72407524  1
  O2-  O228  1  0.20857072  0.33132265  0.06591064  1
  O2-  O229  1  0.20538185  0.32535328  0.40190832  1
  O2-  O230  1  0.20597568  0.34010041  0.72998977  1
  O2-  O231  1  0.21346863  0.82979089  0.06509952  1
  O2-  O232  1  0.20618543  0.83728643  0.39438222  1
  O2-  O233  1  0.20881659  0.82872976  0.73625892  1
  O2-  O234  1  0.70921902  0.33847300  0.06196765  1
  O2-  O235  1  0.71428344  0.33811094  0.40437371  1
  O2-  O236  1  0.70447667  0.33952090  0.73235716  1
  O2-  O237  1  0.70440692  0.83283554  0.07046992  1
  O2-  O238  1  0.70274357  0.83402235  0.39761970  1
  O2-  O239  1  0.71053633  0.83283057  0.72742190  1
  O2-  O240  1  0.45338995  0.42009275  0.26680959  1
  O2-  O241  1  0.46205858  0.41083438  0.60444246  1
  O2-  O242  1  0.44982791  0.41710726  0.93419651  1
  O2-  O243  1  0.45372955  0.91890917  0.26288534  1
  O2-  O244  1  0.44984827  0.91669694  0.60497347  1
  O2-  O245  1  0.45758942  0.91692809  0.92591203  1
  O2-  O246  1  0.94912185  0.41706266  0.27207120  1
  O2-  O247  1  0.95583253  0.42004426  0.59474861  1
  O2-  O248  1  0.96190115  0.41002768  0.93761099  1
  O2-  O249  1  0.95840410  0.91516350  0.26814471  1
  O2-  O250  1  0.95500401  0.91224067  0.60616226  1
  O2-  O251  1  0.95638275  0.91644666  0.93844851  1
  O2-  O252  1  0.33022020  0.29212137  0.26428337  1
  O2-  O253  1  0.33525437  0.30002778  0.60770204  1
  O2-  O254  1  0.33307599  0.29453670  0.93364138  1
  O2-  O255  1  0.33078974  0.78963236  0.26550738  1
  O2-  O256  1  0.33434408  0.79269095  0.60363585  1
  O2-  O257  1  0.33583481  0.78592328  0.92438146  1
  O2-  O258  1  0.83637255  0.29235974  0.26930029  1
  O2-  O259  1  0.82600765  0.29907573  0.60054567  1
  O2-  O260  1  0.83868589  0.29644932  0.93691880  1
  O2-  O261  1  0.83230462  0.80580986  0.27214776  1
  O2-  O262  1  0.84131745  0.78798258  0.60067252  1
  O2-  O263  1  0.83374908  0.79755914  0.93882191  1
  O2-  O264  1  0.41746266  0.04730774  0.05933013  1
  O2-  O265  1  0.41425642  0.04337271  0.39224618  1
  O2-  O266  1  0.42158962  0.04455013  0.73570970  1
  O2-  O267  1  0.41782501  0.54933845  0.05934506  1
  O2-  O268  1  0.41845179  0.54608898  0.40101050  1
  O2-  O269  1  0.41166141  0.53671895  0.73287710  1
  O2-  O270  1  0.91885939  0.04380750  0.06985721  1
  O2-  O271  1  0.91570483  0.03475239  0.40374863  1
  O2-  O272  1  0.91455612  0.03967025  0.73573445  1
  O2-  O273  1  0.91306290  0.53241021  0.06916387  1
  O2-  O274  1  0.91391406  0.54498714  0.40083252  1
  O2-  O275  1  0.91426601  0.54331692  0.72832717  1
  O2-  O276  1  0.29802119  0.16608728  0.06317345  1
  O2-  O277  1  0.29385358  0.16136448  0.39214844  1
  O2-  O278  1  0.29714176  0.17254067  0.73662164  1
  O2-  O279  1  0.29590848  0.66528416  0.05764473  1
  O2-  O280  1  0.28504057  0.66797038  0.40359382  1
  O2-  O281  1  0.29855159  0.66257272  0.73038240  1
  O2-  O282  1  0.79416908  0.17342243  0.06718172  1
  O2-  O283  1  0.79156741  0.16683493  0.40475328  1
  O2-  O284  1  0.78953861  0.16985113  0.73386125  1
  O2-  O285  1  0.79951184  0.66809589  0.06861253  1
  O2-  O286  1  0.80460776  0.67206848  0.39510110  1
  O2-  O287  1  0.79338062  0.66298312  0.72865094  1
