# generated using pymatgen
data_Ca2Al2SiO7
_symmetry_space_group_name_H-M   'P 1'
_cell_length_a   15.46026338
_cell_length_b   15.46152500
_cell_length_c   15.28532009
_cell_angle_alpha   89.99781538
_cell_angle_beta   90.01257239
_cell_angle_gamma   89.98563391
_symmetry_Int_Tables_number   1
_chemical_formula_structural   Ca2Al2SiO7
_chemical_formula_sum   'Ca48 Al48 Si24 O168'
_cell_volume   3653.79122572
_cell_formula_units_Z   24
loop_
 _symmetry_equiv_pos_site_id
 _symmetry_equiv_pos_as_xyz
  1  'x, y, z'
loop_
 _atom_type_symbol
 _atom_type_oxidation_number
  Ca2+  2.0
  Al0+  0.0
  Si0+  0.0
  O2-  -2.0
loop_
 _atom_site_type_symbol
 _atom_site_label
 _atom_site_symmetry_multiplicity
 _atom_site_fract_x
 _atom_site_fract_y
 _atom_site_fract_z
 _atom_site_occupancy
  Ca2+  Ca0  1  0.17043968  0.08544834  0.17054050  1
  Ca2+  Ca1  1  0.17250630  0.08148835  0.50832922  1
  Ca2+  Ca2  1  0.17688146  0.09501006  0.83832211  1
  Ca2+  Ca3  1  0.17080964  0.58074519  0.16834508  1
  Ca2+  Ca4  1  0.16353070  0.58601424  0.50514517  1
  Ca2+  Ca5  1  0.17085727  0.57907645  0.84104584  1
  Ca2+  Ca6  1  0.66334271  0.08936172  0.16916041  1
  Ca2+  Ca7  1  0.66076442  0.08331084  0.50828406  1
  Ca2+  Ca8  1  0.65660037  0.07924227  0.83530489  1
  Ca2+  Ca9  1  0.65960280  0.57128226  0.17207516  1
  Ca2+  Ca10  1  0.66986647  0.57096901  0.50789728  1
  Ca2+  Ca11  1  0.66847383  0.56933188  0.84045328  1
  Ca2+  Ca12  1  0.07129337  0.33528015  0.15632059  1
  Ca2+  Ca13  1  0.07033195  0.33073148  0.49832052  1
  Ca2+  Ca14  1  0.07691128  0.33364837  0.82757688  1
  Ca2+  Ca15  1  0.08964754  0.83187801  0.16933574  1
  Ca2+  Ca16  1  0.08835002  0.82295608  0.49473101  1
  Ca2+  Ca17  1  0.08263194  0.82527411  0.82710667  1
  Ca2+  Ca18  1  0.58326011  0.32846267  0.16288166  1
  Ca2+  Ca19  1  0.58460829  0.32797674  0.49174654  1
  Ca2+  Ca20  1  0.59028116  0.32440987  0.83034337  1
  Ca2+  Ca21  1  0.58694376  0.81648160  0.16120749  1
  Ca2+  Ca22  1  0.57988827  0.83200236  0.49891127  1
  Ca2+  Ca23  1  0.57839893  0.82797701  0.82575951  1
  Ca2+  Ca24  1  0.33158820  0.41662385  0.16739826  1
  Ca2+  Ca25  1  0.33507197  0.41532661  0.50150202  1
  Ca2+  Ca26  1  0.32357436  0.42096885  0.84544996  1
  Ca2+  Ca27  1  0.32920620  0.92554066  0.16990415  1
  Ca2+  Ca28  1  0.33237117  0.92104176  0.50798878  1
  Ca2+  Ca29  1  0.33739933  0.92622393  0.83432906  1
  Ca2+  Ca30  1  0.82373889  0.40551085  0.16912164  1
  Ca2+  Ca31  1  0.82597313  0.41445301  0.50634082  1
  Ca2+  Ca32  1  0.82865369  0.41043730  0.83196605  1
  Ca2+  Ca33  1  0.83315001  0.92301200  0.17123630  1
  Ca2+  Ca34  1  0.82408525  0.92119842  0.50789921  1
  Ca2+  Ca35  1  0.82621108  0.91718414  0.83416362  1
  Ca2+  Ca36  1  0.42401026  0.16950423  0.16297909  1
  Ca2+  Ca37  1  0.42590957  0.17029148  0.49820032  1
  Ca2+  Ca38  1  0.42154967  0.16068337  0.82801900  1
  Ca2+  Ca39  1  0.42675725  0.66106196  0.16183461  1
  Ca2+  Ca40  1  0.42297273  0.67423503  0.49459618  1
  Ca2+  Ca41  1  0.41838304  0.66912154  0.83121545  1
  Ca2+  Ca42  1  0.92079320  0.17899891  0.15820321  1
  Ca2+  Ca43  1  0.91278952  0.17953688  0.49817164  1
  Ca2+  Ca44  1  0.92925190  0.17864542  0.82871597  1
  Ca2+  Ca45  1  0.92216440  0.66670217  0.16632567  1
  Ca2+  Ca46  1  0.92534212  0.65770533  0.49970157  1
  Ca2+  Ca47  1  0.92214946  0.65988518  0.82459393  1
  Al0+  Al48  1  -0.00137251  -0.00019972  -0.00394013  1
  Al0+  Al49  1  0.00014259  -0.00109228  0.34097886  1
  Al0+  Al50  1  0.00088463  -0.00258984  0.66470795  1
  Al0+  Al51  1  -0.00225449  0.50248810  -0.00031916  1
  Al0+  Al52  1  0.00056767  0.50097856  0.32380121  1
  Al0+  Al53  1  0.00023814  0.49918112  0.66179572  1
  Al0+  Al54  1  0.49807551  -0.00211794  0.00457403  1
  Al0+  Al55  1  0.49945981  0.00015167  0.33027431  1
  Al0+  Al56  1  0.49843929  -0.00058712  0.66608410  1
  Al0+  Al57  1  0.50142831  0.49926552  0.00207498  1
  Al0+  Al58  1  0.49880794  0.49997090  0.33269979  1
  Al0+  Al59  1  0.50011279  0.49998409  0.67200588  1
  Al0+  Al60  1  0.25072616  0.24989508  0.00968623  1
  Al0+  Al61  1  0.25086540  0.25118790  0.33358954  1
  Al0+  Al62  1  0.25094236  0.25007102  0.66629825  1
  Al0+  Al63  1  0.25060359  0.75160771  0.00400128  1
  Al0+  Al64  1  0.24992703  0.75097695  0.33247990  1
  Al0+  Al65  1  0.25062335  0.75174335  0.65998410  1
  Al0+  Al66  1  0.75047119  0.24830897  -0.00521244  1
  Al0+  Al67  1  0.75067496  0.24969266  0.33073934  1
  Al0+  Al68  1  0.75119590  0.24794619  0.66397797  1
  Al0+  Al69  1  0.74911011  0.74867103  -0.00386280  1
  Al0+  Al70  1  0.75207548  0.75084548  0.33058268  1
  Al0+  Al71  1  0.75100146  0.74955582  0.67408957  1
  Al0+  Al72  1  0.56903987  0.18020984  0.65472325  1
  Al0+  Al73  1  0.92890898  0.32319666  0.98238708  1
  Al0+  Al74  1  0.31871240  0.07052560  0.67960574  1
  Al0+  Al75  1  0.57196853  0.68048750  0.32228045  1
  Al0+  Al76  1  0.57107150  0.67619297  0.98399274  1
  Al0+  Al77  1  0.56859413  0.17791871  0.98487357  1
  Al0+  Al78  1  0.32133073  0.57270981  0.01575877  1
  Al0+  Al79  1  0.57075436  0.17864662  0.31799415  1
  Al0+  Al80  1  0.43105196  0.82002769  0.65342717  1
  Al0+  Al81  1  0.82275432  0.56889215  0.68060197  1
  Al0+  Al82  1  0.17645279  0.42964407  0.01568913  1
  Al0+  Al83  1  0.67827423  0.93044679  0.68022444  1
  Al0+  Al84  1  0.32148178  0.07115211  0.01575094  1
  Al0+  Al85  1  0.06957846  0.68047645  0.65431524  1
  Al0+  Al86  1  0.68215467  0.42710322  0.01512297  1
  Al0+  Al87  1  0.07180286  0.68032011  0.31712681  1
  Al0+  Al88  1  0.07333050  0.17808934  0.98699019  1
  Al0+  Al89  1  0.42719940  0.32267420  0.31756036  1
  Al0+  Al90  1  0.92993543  0.31975499  0.64942533  1
  Al0+  Al91  1  0.67924790  0.42948372  0.34681667  1
  Al0+  Al92  1  0.67762929  0.42594837  0.68267185  1
  Al0+  Al93  1  0.18012573  0.92962724  0.34913871  1
  Al0+  Al94  1  0.07515058  0.17732688  0.65075998  1
  Al0+  Al95  1  0.93005978  0.32033935  0.31797241  1
  Si0+  Si96  1  0.82125930  0.57543646  0.01877733  1
  Si0+  Si97  1  0.92486539  0.82244349  0.64965497  1
  Si0+  Si98  1  0.67886098  0.92719720  0.34663941  1
  Si0+  Si99  1  0.07140929  0.17637816  0.31910243  1
  Si0+  Si100  1  0.42714125  0.32532664  0.65307090  1
  Si0+  Si101  1  0.32311442  0.07303804  0.35279149  1
  Si0+  Si102  1  0.67827457  0.92733738  0.01624862  1
  Si0+  Si103  1  0.42802285  0.82051496  0.98417101  1
  Si0+  Si104  1  0.17688890  0.43024347  0.34938289  1
  Si0+  Si105  1  0.81981335  0.07072699  0.34805337  1
  Si0+  Si106  1  0.57343878  0.67639592  0.65131189  1
  Si0+  Si107  1  0.07105535  0.68186566  0.98576480  1
  Si0+  Si108  1  0.82037268  0.06801500  0.01374440  1
  Si0+  Si109  1  0.17520871  0.92843456  0.01594093  1
  Si0+  Si110  1  0.32113336  0.57464708  0.67935161  1
  Si0+  Si111  1  0.18121018  0.43069935  0.67821957  1
  Si0+  Si112  1  0.32029750  0.57110917  0.35011403  1
  Si0+  Si113  1  0.17807583  0.92573327  0.68375309  1
  Si0+  Si114  1  0.82470570  0.07173139  0.68465223  1
  Si0+  Si115  1  0.42782810  0.32186064  0.98392806  1
  Si0+  Si116  1  0.92713510  0.82223054  0.98433537  1
  Si0+  Si117  1  0.42777713  0.82225913  0.31501463  1
  Si0+  Si118  1  0.82330305  0.57361567  0.34821954  1
  Si0+  Si119  1  0.92852811  0.82437960  0.31699342  1
  O2-  O120  1  0.24070232  0.00048693  0.05925034  1
  O2-  O121  1  0.25351141  0.00487558  0.39639960  1
  O2-  O122  1  0.23975331  0.00009587  0.72785391  1
  O2-  O123  1  0.24986590  0.50043008  0.06656470  1
  O2-  O124  1  0.24889431  0.50029624  0.39284977  1
  O2-  O125  1  0.25331762  0.50059708  0.72085592  1
  O2-  O126  1  0.74807501  -0.00087462  0.05896085  1
  O2-  O127  1  0.74576391  0.00172412  0.38899212  1
  O2-  O128  1  0.75387392  0.00410637  0.72822198  1
  O2-  O129  1  0.75563981  0.50390471  0.06210332  1
  O2-  O130  1  0.75369790  0.50595082  0.39164116  1
  O2-  O131  1  0.74896326  0.49975442  0.73156269  1
  O2-  O132  1  0.00656839  0.24668920  0.27277046  1
  O2-  O133  1  -0.00041641  0.24462346  0.60000696  1
  O2-  O134  1  0.00787362  0.25588753  0.93669852  1
  O2-  O135  1  -0.00283030  0.75619299  0.27187596  1
  O2-  O136  1  -0.00617912  0.75378729  0.60642477  1
  O2-  O137  1  -0.00150793  0.75104057  0.94345713  1
  O2-  O138  1  0.49940266  0.25081221  0.26807373  1
  O2-  O139  1  0.50029765  0.26093803  0.60976248  1
  O2-  O140  1  0.49350677  0.25170385  0.93775375  1
  O2-  O141  1  0.49858600  0.75548501  0.27221220  1
  O2-  O142  1  0.50532058  0.74506221  0.60613194  1
  O2-  O143  1  0.49448114  0.75006150  0.93953931  1
  O2-  O144  1  0.06636075  0.17319826  0.10078955  1
  O2-  O145  1  0.06893031  0.17723923  0.42454742  1
  O2-  O146  1  0.07674749  0.18319466  0.76403829  1
  O2-  O147  1  0.07100940  0.68435469  0.09077853  1
  O2-  O148  1  0.07069047  0.68014177  0.43014506  1
  O2-  O149  1  0.07134160  0.68196428  0.76777849  1
  O2-  O150  1  0.56862608  0.17828697  0.09770354  1
  O2-  O151  1  0.56966556  0.17683067  0.43164742  1
  O2-  O152  1  0.56535874  0.17770873  0.76774596  1
  O2-  O153  1  0.57248988  0.67958803  0.09746778  1
  O2-  O154  1  0.56981306  0.68351437  0.43543443  1
  O2-  O155  1  0.56993439  0.67711353  0.75679981  1
  O2-  O156  1  0.17658060  0.43251727  0.24467898  1
  O2-  O157  1  0.18224352  0.43230142  0.57282521  1
  O2-  O158  1  0.17748328  0.43344909  0.90122256  1
  O2-  O159  1  0.18129839  0.93164190  0.23562269  1
  O2-  O160  1  0.18220853  0.92252499  0.57834523  1
  O2-  O161  1  0.17559786  0.92296699  0.91075084  1
  O2-  O162  1  0.68057764  0.42898386  0.23369928  1
  O2-  O163  1  0.67604986  0.42809641  0.56876073  1
  O2-  O164  1  0.68319544  0.42696787  0.90237632  1
  O2-  O165  1  0.68257131  0.92477648  0.24140787  1
  O2-  O166  1  0.67935563  0.93143520  0.56641600  1
  O2-  O167  1  0.67887557  0.92727407  0.91129094  1
  O2-  O168  1  0.43044572  0.32149178  0.08943583  1
  O2-  O169  1  0.42729301  0.32170422  0.43164945  1
  O2-  O170  1  0.42231259  0.32535707  0.75824011  1
  O2-  O171  1  0.42993508  0.82111801  0.08982832  1
  O2-  O172  1  0.42849844  0.82203827  0.42079445  1
  O2-  O173  1  0.43049800  0.81786380  0.76654760  1
  O2-  O174  1  0.92740753  0.31828194  0.09627711  1
  O2-  O175  1  0.92982357  0.31993935  0.43076446  1
  O2-  O176  1  0.93335532  0.32119818  0.76254889  1
  O2-  O177  1  0.92611835  0.82377911  0.08954522  1
  O2-  O178  1  0.92597434  0.82524425  0.42196545  1
  O2-  O179  1  0.92672511  0.82353475  0.75556516  1
  O2-  O180  1  0.32289018  0.07121716  0.24715111  1
  O2-  O181  1  0.31938813  0.06784283  0.56657056  1
  O2-  O182  1  0.32450835  0.06663065  0.90270097  1
  O2-  O183  1  0.31929302  0.57225893  0.24531819  1
  O2-  O184  1  0.32077120  0.57511597  0.57408390  1
  O2-  O185  1  0.31672935  0.57460968  0.90143124  1
  O2-  O186  1  0.82239314  0.06773767  0.24270503  1
  O2-  O187  1  0.82387165  0.06954127  0.57852840  1
  O2-  O188  1  0.82129974  0.06307368  0.90921984  1
  O2-  O189  1  0.82243830  0.57621167  0.24272024  1
  O2-  O190  1  0.82197995  0.56826566  0.56655482  1
  O2-  O191  1  0.82036903  0.57979781  0.91360680  1
  O2-  O192  1  0.04393638  0.08224522  0.27543090  1
  O2-  O193  1  0.05296014  0.07507125  0.60279404  1
  O2-  O194  1  0.04091764  0.08130235  0.93183026  1
  O2-  O195  1  0.04101112  0.58609117  0.25966714  1
  O2-  O196  1  0.04066774  0.58492296  0.59752176  1
  O2-  O197  1  0.04457563  0.59020073  0.93832424  1
  O2-  O198  1  0.54445903  0.07905609  0.26468820  1
  O2-  O199  1  0.53363316  0.08568567  0.59971577  1
  O2-  O200  1  0.53837375  0.07851071  0.93560990  1
  O2-  O201  1  0.53820369  0.58551216  0.26815471  1
  O2-  O202  1  0.54632937  0.58276133  0.60604662  1
  O2-  O203  1  0.54103057  0.57969708  0.93062034  1
  O2-  O204  1  0.16696186  0.19835917  0.27637914  1
  O2-  O205  1  0.17182369  0.20943697  0.59611814  1
  O2-  O206  1  0.17581246  0.20003297  0.94106888  1
  O2-  O207  1  0.16775694  0.71320269  0.26321244  1
  O2-  O208  1  0.16454199  0.71231544  0.59742169  1
  O2-  O209  1  0.16286121  0.71137086  0.93906240  1
  O2-  O210  1  0.66957624  0.20491940  0.26568056  1
  O2-  O211  1  0.66802269  0.20148744  0.60183699  1
  O2-  O212  1  0.66580463  0.20555096  0.93135527  1
  O2-  O213  1  0.66806336  0.71120375  0.26650643  1
  O2-  O214  1  0.66791931  0.70258845  0.60851335  1
  O2-  O215  1  0.66653693  0.71014734  0.92993579  1
  O2-  O216  1  0.07835385  0.46168076  0.06779401  1
  O2-  O217  1  0.08519100  0.46158994  0.39508728  1
  O2-  O218  1  0.09035585  0.46070413  0.72495218  1
  O2-  O219  1  0.07982425  0.94983642  0.06108751  1
  O2-  O220  1  0.08236385  0.95449159  0.40453374  1
  O2-  O221  1  0.08076567  0.94103376  0.72613061  1
  O2-  O222  1  0.58500833  0.45793606  0.06769657  1
  O2-  O223  1  0.58186054  0.45977648  0.39985216  1
  O2-  O224  1  0.57867579  0.45265014  0.73680433  1
  O2-  O225  1  0.58698126  0.95237883  0.06504342  1
  O2-  O226  1  0.58471904  0.95086121  0.39137031  1
  O2-  O227  1  0.58281569  0.96194669  0.73514971  1
  O2-  O228  1  0.20141508  0.33180710  0.07097427  1
  O2-  O229  1  0.20313542  0.33747589  0.39621797  1
  O2-  O230  1  0.20803367  0.33956057  0.72663170  1
  O2-  O231  1  0.20521563  0.83736764  0.06558810  1
  O2-  O232  1  0.21181266  0.83231941  0.40195200  1
  O2-  O233  1  0.21081744  0.83435230  0.73112624  1
  O2-  O234  1  0.71405192  0.32935806  0.06717440  1
  O2-  O235  1  0.71186224  0.33227615  0.39895172  1
  O2-  O236  1  0.70851294  0.32714843  0.73330899  1
  O2-  O237  1  0.70995427  0.83590898  0.06287851  1
  O2-  O238  1  0.71066236  0.83746612  0.39611987  1
  O2-  O239  1  0.70761318  0.83438292  0.73665465  1
  O2-  O240  1  0.45250628  0.42162151  0.26545080  1
  O2-  O241  1  0.44778115  0.42080412  0.60746474  1
  O2-  O242  1  0.45261761  0.41558893  0.93833535  1
  O2-  O243  1  0.45073942  0.91636015  0.26924280  1
  O2-  O244  1  0.46359929  0.91440317  0.59703569  1
  O2-  O245  1  0.45767989  0.91257090  0.93804780  1
  O2-  O246  1  0.95867513  0.41616261  0.26225972  1
  O2-  O247  1  0.96224399  0.41602253  0.59472313  1
  O2-  O248  1  0.95110473  0.42465266  0.93288238  1
  O2-  O249  1  0.95584991  0.91779629  0.27048710  1
  O2-  O250  1  0.94858820  0.91582829  0.60242288  1
  O2-  O251  1  0.95450840  0.91234481  0.93392724  1
  O2-  O252  1  0.32788935  0.29531691  0.26482249  1
  O2-  O253  1  0.33624241  0.29591207  0.60351179  1
  O2-  O254  1  0.33171267  0.29932517  0.94229545  1
  O2-  O255  1  0.33532369  0.79468461  0.26888782  1
  O2-  O256  1  0.33611067  0.78968888  0.59599176  1
  O2-  O257  1  0.33319538  0.79759197  0.93881550  1
  O2-  O258  1  0.83562340  0.28489863  0.26365997  1
  O2-  O259  1  0.83180589  0.29074041  0.59621175  1
  O2-  O260  1  0.83444256  0.28592382  0.92857875  1
  O2-  O261  1  0.83613491  0.79903687  0.26747429  1
  O2-  O262  1  0.83053675  0.79789136  0.60442306  1
  O2-  O263  1  0.83588425  0.79507941  0.93590959  1
  O2-  O264  1  0.41465006  0.03302740  0.07338867  1
  O2-  O265  1  0.41707955  0.04460897  0.39719573  1
  O2-  O266  1  0.41277136  0.03356482  0.73412895  1
  O2-  O267  1  0.41988407  0.54459006  0.06752855  1
  O2-  O268  1  0.41137289  0.54359919  0.39897661  1
  O2-  O269  1  0.41343861  0.55196534  0.72785745  1
  O2-  O270  1  0.91078948  0.03689417  0.06324976  1
  O2-  O271  1  0.90928452  0.04089521  0.39887331  1
  O2-  O272  1  0.91791429  0.04313271  0.73068109  1
  O2-  O273  1  0.91665307  0.55441191  0.06307768  1
  O2-  O274  1  0.91812249  0.54632069  0.39101696  1
  O2-  O275  1  0.92162059  0.53922623  0.73323334  1
  O2-  O276  1  0.29735335  0.16726951  0.07339864  1
  O2-  O277  1  0.29879866  0.16750773  0.39765319  1
  O2-  O278  1  0.29259977  0.16861745  0.73395868  1
  O2-  O279  1  0.29250704  0.67084204  0.07013025  1
  O2-  O280  1  0.29204819  0.66342404  0.39658902  1
  O2-  O281  1  0.28912979  0.66498959  0.72677639  1
  O2-  O282  1  0.79289607  0.15981950  0.06030402  1
  O2-  O283  1  0.79248650  0.16189229  0.39587373  1
  O2-  O284  1  0.80138389  0.16557519  0.72897975  1
  O2-  O285  1  0.79444245  0.66909501  0.06559968  1
  O2-  O286  1  0.80110164  0.66874900  0.39387880  1
  O2-  O287  1  0.80221273  0.66919687  0.73368523  1
