# generated using pymatgen
data_Ca2Al2SiO7
_symmetry_space_group_name_H-M   'P 1'
_cell_length_a   15.45558942
_cell_length_b   15.45569621
_cell_length_c   15.28161487
_cell_angle_alpha   89.98822771
_cell_angle_beta   90.00982525
_cell_angle_gamma   89.99855217
_symmetry_Int_Tables_number   1
_chemical_formula_structural   Ca2Al2SiO7
_chemical_formula_sum   'Ca48 Al48 Si24 O168'
_cell_volume   3650.42457568
_cell_formula_units_Z   24
loop_
 _symmetry_equiv_pos_site_id
 _symmetry_equiv_pos_as_xyz
  1  'x, y, z'
loop_
 _atom_type_symbol
 _atom_type_oxidation_number
  Ca2+  2.0
  Al0+  0.0
  Si0+  0.0
  O2-  -2.0
loop_
 _atom_site_type_symbol
 _atom_site_label
 _atom_site_symmetry_multiplicity
 _atom_site_fract_x
 _atom_site_fract_y
 _atom_site_fract_z
 _atom_site_occupancy
  Ca2+  Ca0  1  0.16671768  0.08256504  0.17569201  1
  Ca2+  Ca1  1  0.16615062  0.07973513  0.50282171  1
  Ca2+  Ca2  1  0.16027128  0.08186913  0.83361930  1
  Ca2+  Ca3  1  0.17292689  0.58334611  0.17275663  1
  Ca2+  Ca4  1  0.18234417  0.57647588  0.51063549  1
  Ca2+  Ca5  1  0.17026679  0.57961113  0.83688270  1
  Ca2+  Ca6  1  0.66973694  0.08308643  0.17012049  1
  Ca2+  Ca7  1  0.66283701  0.07462193  0.50195324  1
  Ca2+  Ca8  1  0.67029748  0.08525558  0.84468559  1
  Ca2+  Ca9  1  0.66792908  0.58224193  0.17237568  1
  Ca2+  Ca10  1  0.66376724  0.57709211  0.50701248  1
  Ca2+  Ca11  1  0.67097096  0.58357804  0.83482968  1
  Ca2+  Ca12  1  0.07866828  0.32092094  0.15769483  1
  Ca2+  Ca13  1  0.09496054  0.32259917  0.49812582  1
  Ca2+  Ca14  1  0.08067945  0.32601497  0.82722689  1
  Ca2+  Ca15  1  0.08658042  0.82922146  0.16360928  1
  Ca2+  Ca16  1  0.08595118  0.83828571  0.49752465  1
  Ca2+  Ca17  1  0.08371442  0.82866549  0.82957042  1
  Ca2+  Ca18  1  0.57912482  0.33321743  0.16640816  1
  Ca2+  Ca19  1  0.57452380  0.34592850  0.49677962  1
  Ca2+  Ca20  1  0.58282420  0.33054056  0.82791868  1
  Ca2+  Ca21  1  0.58817664  0.82385685  0.16388206  1
  Ca2+  Ca22  1  0.57895916  0.82194625  0.49542224  1
  Ca2+  Ca23  1  0.57880304  0.82202775  0.82461520  1
  Ca2+  Ca24  1  0.33596164  0.42125412  0.17487886  1
  Ca2+  Ca25  1  0.33852782  0.42275115  0.50719710  1
  Ca2+  Ca26  1  0.33295743  0.41537033  0.82623056  1
  Ca2+  Ca27  1  0.32667835  0.92717847  0.17870455  1
  Ca2+  Ca28  1  0.32523757  0.92002787  0.50605185  1
  Ca2+  Ca29  1  0.33036354  0.91075643  0.83214742  1
  Ca2+  Ca30  1  0.82938304  0.41719633  0.16759000  1
  Ca2+  Ca31  1  0.81904422  0.42069617  0.50829389  1
  Ca2+  Ca32  1  0.83166345  0.42357302  0.83803846  1
  Ca2+  Ca33  1  0.82839890  0.92365249  0.17019509  1
  Ca2+  Ca34  1  0.82595373  0.91442228  0.50014059  1
  Ca2+  Ca35  1  0.83185234  0.92505235  0.83918238  1
  Ca2+  Ca36  1  0.41786463  0.17051300  0.16533759  1
  Ca2+  Ca37  1  0.40989481  0.18031978  0.49449495  1
  Ca2+  Ca38  1  0.42402555  0.17123753  0.82782082  1
  Ca2+  Ca39  1  0.42863211  0.66205870  0.16508373  1
  Ca2+  Ca40  1  0.42373593  0.65910873  0.49666525  1
  Ca2+  Ca41  1  0.42737767  0.66701629  0.82258234  1
  Ca2+  Ca42  1  0.92365563  0.17028546  0.15702494  1
  Ca2+  Ca43  1  0.92894009  0.16765936  0.49532344  1
  Ca2+  Ca44  1  0.92106950  0.17062932  0.83167911  1
  Ca2+  Ca45  1  0.92210423  0.66723464  0.15664470  1
  Ca2+  Ca46  1  0.91597287  0.66377483  0.49954196  1
  Ca2+  Ca47  1  0.91867032  0.65755047  0.83172430  1
  Al0+  Al48  1  -0.00086129  -0.00064281  0.00248337  1
  Al0+  Al49  1  -0.00063760  -0.00032258  0.33122269  1
  Al0+  Al50  1  0.00072109  -0.00062700  0.66605499  1
  Al0+  Al51  1  -0.00015630  0.49967717  -0.00144589  1
  Al0+  Al52  1  -0.00015934  0.49992413  0.33248297  1
  Al0+  Al53  1  -0.00068175  0.49825177  0.66977848  1
  Al0+  Al54  1  0.49729989  0.00061365  -0.00240229  1
  Al0+  Al55  1  0.49972149  0.00088493  0.34228073  1
  Al0+  Al56  1  0.49902350  -0.00189963  0.66405829  1
  Al0+  Al57  1  0.49931240  0.50112119  -0.00447348  1
  Al0+  Al58  1  0.50131481  0.50026919  0.32972016  1
  Al0+  Al59  1  0.50155707  0.49808941  0.67014075  1
  Al0+  Al60  1  0.24920239  0.24965687  -0.00306751  1
  Al0+  Al61  1  0.25019620  0.25028350  0.32483782  1
  Al0+  Al62  1  0.25202266  0.24831931  0.66418269  1
  Al0+  Al63  1  0.24936854  0.74957069  -0.00116808  1
  Al0+  Al64  1  0.25128503  0.75080501  0.34033401  1
  Al0+  Al65  1  0.24927555  0.75161996  0.67167876  1
  Al0+  Al66  1  0.74906307  0.25052112  -0.00122515  1
  Al0+  Al67  1  0.74993369  0.25131297  0.33889703  1
  Al0+  Al68  1  0.75191157  0.24906045  0.66809165  1
  Al0+  Al69  1  0.75002191  0.74938991  -0.00049364  1
  Al0+  Al70  1  0.75134107  0.75164668  0.33194254  1
  Al0+  Al71  1  0.75059244  0.75114977  0.66683444  1
  Al0+  Al72  1  0.92777944  0.32163996  0.98427958  1
  Al0+  Al73  1  0.43254025  0.31812332  0.65339017  1
  Al0+  Al74  1  0.57131016  0.67949850  0.65020934  1
  Al0+  Al75  1  0.68046460  0.43034403  0.34543066  1
  Al0+  Al76  1  0.06907379  0.17935710  0.65150987  1
  Al0+  Al77  1  0.82117341  0.57079446  0.01576312  1
  Al0+  Al78  1  0.82033867  0.07215406  0.01380921  1
  Al0+  Al79  1  0.32112276  0.07475972  0.34902594  1
  Al0+  Al80  1  0.32189007  0.57125553  0.68382801  1
  Al0+  Al81  1  0.06940469  0.17983384  0.31796732  1
  Al0+  Al82  1  0.07134986  0.17696022  0.98298101  1
  Al0+  Al83  1  0.57054571  0.68053039  0.31835836  1
  Al0+  Al84  1  0.56925595  0.17892707  0.98934469  1
  Al0+  Al85  1  0.32120048  0.56947300  0.34505602  1
  Al0+  Al86  1  0.43080381  0.32099768  0.31867319  1
  Al0+  Al87  1  0.17819598  0.93056136  0.68317002  1
  Al0+  Al88  1  0.42587780  0.82150520  0.64939078  1
  Al0+  Al89  1  0.67834397  0.42740592  0.68426895  1
  Al0+  Al90  1  0.17802629  0.92977206  0.34861794  1
  Al0+  Al91  1  0.07160438  0.67952467  0.98687512  1
  Al0+  Al92  1  0.67909413  0.92779728  0.34695207  1
  Al0+  Al93  1  0.82060122  0.57281891  0.68192077  1
  Al0+  Al94  1  0.17978463  0.42580716  0.68149174  1
  Al0+  Al95  1  0.57199591  0.67950911  0.98501276  1
  Si0+  Si96  1  0.67798395  0.92969149  0.68236935  1
  Si0+  Si97  1  0.07272399  0.67880374  0.32125548  1
  Si0+  Si98  1  0.92504187  0.32280096  0.31737442  1
  Si0+  Si99  1  0.32061359  0.57115787  0.01559271  1
  Si0+  Si100  1  0.07069243  0.67696248  0.65221373  1
  Si0+  Si101  1  0.67584620  0.92890175  0.01508960  1
  Si0+  Si102  1  0.17632325  0.42830423  0.34644914  1
  Si0+  Si103  1  0.42707191  0.32311609  0.98215881  1
  Si0+  Si104  1  0.32273357  0.07144056  0.68537688  1
  Si0+  Si105  1  0.57382320  0.17552043  0.31894337  1
  Si0+  Si106  1  0.92906127  0.82033204  0.31707307  1
  Si0+  Si107  1  0.82155422  0.07206930  0.35064223  1
  Si0+  Si108  1  0.32130669  0.07232094  0.01431535  1
  Si0+  Si109  1  0.93046474  0.82161738  0.65159924  1
  Si0+  Si110  1  0.82119032  0.06883408  0.68043408  1
  Si0+  Si111  1  0.57598268  0.17602883  0.64935542  1
  Si0+  Si112  1  0.42732999  0.82228938  0.98508474  1
  Si0+  Si113  1  0.17930977  0.42810489  0.01548103  1
  Si0+  Si114  1  0.92716440  0.32343893  0.64748600  1
  Si0+  Si115  1  0.67579844  0.42881844  0.01808992  1
  Si0+  Si116  1  0.82436708  0.57341445  0.34845670  1
  Si0+  Si117  1  0.42693805  0.82374099  0.31754411  1
  Si0+  Si118  1  0.92805961  0.82163994  0.98377505  1
  Si0+  Si119  1  0.17968992  0.92841849  0.01530886  1
  O2-  O120  1  0.24829318  0.00242773  0.05591211  1
  O2-  O121  1  0.24955085  0.00196209  0.39840840  1
  O2-  O122  1  0.25540839  0.00193873  0.73105666  1
  O2-  O123  1  0.25090233  0.49877787  0.05821873  1
  O2-  O124  1  0.24410888  0.49705472  0.39076570  1
  O2-  O125  1  0.24740560  0.50102604  0.73383436  1
  O2-  O126  1  0.74347045  -0.00132103  0.05972379  1
  O2-  O127  1  0.75068421  0.00553732  0.39491407  1
  O2-  O128  1  0.74437493  0.00489095  0.72426825  1
  O2-  O129  1  0.74454208  0.49803760  0.06236299  1
  O2-  O130  1  0.75657923  0.50413667  0.39125423  1
  O2-  O131  1  0.74992987  0.50041642  0.73290887  1
  O2-  O132  1  -0.00545485  0.25520911  0.27283020  1
  O2-  O133  1  -0.00125529  0.25766474  0.60320136  1
  O2-  O134  1  -0.00045283  0.24926171  0.93399344  1
  O2-  O135  1  0.00111646  0.74893487  0.27738382  1
  O2-  O136  1  -0.00135082  0.74742640  0.60975938  1
  O2-  O137  1  -0.00546393  0.75134582  0.93908457  1
  O2-  O138  1  0.50421558  0.24322594  0.27444816  1
  O2-  O139  1  0.50925855  0.24585623  0.60522255  1
  O2-  O140  1  0.49645877  0.25383988  0.94080696  1
  O2-  O141  1  0.49670959  0.75712569  0.27121316  1
  O2-  O142  1  0.49542943  0.74732402  0.59940654  1
  O2-  O143  1  0.49735825  0.75533281  0.94116580  1
  O2-  O144  1  0.07159762  0.17774529  0.09673442  1
  O2-  O145  1  0.06818066  0.17974676  0.43113732  1
  O2-  O146  1  0.06445565  0.17754329  0.76425356  1
  O2-  O147  1  0.07425751  0.68329929  0.10071092  1
  O2-  O148  1  0.07017001  0.67753471  0.42608669  1
  O2-  O149  1  0.06958965  0.67889225  0.75744541  1
  O2-  O150  1  0.56654143  0.17729623  0.10242460  1
  O2-  O151  1  0.57566605  0.17572535  0.42421054  1
  O2-  O152  1  0.57505808  0.17467592  0.75538884  1
  O2-  O153  1  0.57071350  0.67941132  0.09855952  1
  O2-  O154  1  0.57103838  0.67961055  0.43067573  1
  O2-  O155  1  0.57310207  0.68381073  0.76403066  1
  O2-  O156  1  0.17476855  0.43183949  0.24036086  1
  O2-  O157  1  0.18207417  0.42761701  0.56740199  1
  O2-  O158  1  0.18076971  0.42797525  0.91081452  1
  O2-  O159  1  0.17887879  0.92884130  0.23426127  1
  O2-  O160  1  0.17444993  0.93435393  0.57062773  1
  O2-  O161  1  0.18056970  0.92643215  0.91048734  1
  O2-  O162  1  0.68164965  0.43032058  0.23206345  1
  O2-  O163  1  0.67980585  0.42819903  0.57034092  1
  O2-  O164  1  0.67483182  0.42905681  0.91301828  1
  O2-  O165  1  0.68345880  0.92719752  0.23365425  1
  O2-  O166  1  0.68110507  0.92890707  0.57714887  1
  O2-  O167  1  0.67704512  0.93051606  0.90930807  1
  O2-  O168  1  0.42668662  0.32405092  0.08799124  1
  O2-  O169  1  0.43171073  0.32251556  0.43125556  1
  O2-  O170  1  0.43235098  0.31342939  0.76679387  1
  O2-  O171  1  0.42637133  0.82280315  0.09077588  1
  O2-  O172  1  0.42700541  0.82114352  0.42243851  1
  O2-  O173  1  0.43154084  0.82274438  0.76372899  1
  O2-  O174  1  0.93048517  0.32001168  0.09859539  1
  O2-  O175  1  0.92427889  0.32196915  0.42263050  1
  O2-  O176  1  0.92540549  0.32044038  0.75284244  1
  O2-  O177  1  0.92991763  0.82188121  0.08969342  1
  O2-  O178  1  0.92696865  0.82047511  0.42228878  1
  O2-  O179  1  0.93154003  0.82569589  0.75655429  1
  O2-  O180  1  0.32020736  0.07260271  0.23435301  1
  O2-  O181  1  0.32110737  0.07208237  0.58009900  1
  O2-  O182  1  0.32389840  0.07136862  0.90962067  1
  O2-  O183  1  0.31926928  0.56903850  0.23096737  1
  O2-  O184  1  0.32135393  0.56911821  0.56995640  1
  O2-  O185  1  0.31960861  0.57241897  0.91119333  1
  O2-  O186  1  0.82126543  0.07074509  0.24494289  1
  O2-  O187  1  0.82165609  0.06497045  0.57523545  1
  O2-  O188  1  0.81965396  0.06829049  0.90031218  1
  O2-  O189  1  0.82631135  0.57378775  0.24281625  1
  O2-  O190  1  0.82059211  0.57265045  0.56775297  1
  O2-  O191  1  0.81986519  0.57065010  0.90340635  1
  O2-  O192  1  0.03765374  0.08280964  0.26456630  1
  O2-  O193  1  0.03255869  0.08421024  0.59762992  1
  O2-  O194  1  0.04265863  0.07722873  0.93344382  1
  O2-  O195  1  0.04659177  0.58673958  0.27190960  1
  O2-  O196  1  0.04411980  0.58496669  0.60436244  1
  O2-  O197  1  0.04396442  0.58272879  0.93368459  1
  O2-  O198  1  0.55024424  0.08070431  0.27383586  1
  O2-  O199  1  0.54928816  0.08224055  0.60453588  1
  O2-  O200  1  0.53871306  0.08308694  0.93211159  1
  O2-  O201  1  0.53759279  0.58591275  0.26193472  1
  O2-  O202  1  0.54592055  0.57870077  0.60233832  1
  O2-  O203  1  0.53975823  0.58386647  0.93101668  1
  O2-  O204  1  0.16472232  0.20962875  0.26113234  1
  O2-  O205  1  0.16730418  0.20650670  0.59945177  1
  O2-  O206  1  0.17029448  0.20467358  0.93088555  1
  O2-  O207  1  0.16442091  0.70791873  0.27383259  1
  O2-  O208  1  0.16222620  0.70676426  0.60649608  1
  O2-  O209  1  0.16653930  0.71296930  0.93126940  1
  O2-  O210  1  0.66788452  0.20294558  0.27364497  1
  O2-  O211  1  0.67129550  0.19674038  0.60467252  1
  O2-  O212  1  0.66553599  0.20680285  0.93425400  1
  O2-  O213  1  0.66822049  0.71217982  0.26536666  1
  O2-  O214  1  0.66922688  0.71312686  0.59827540  1
  O2-  O215  1  0.66848871  0.71031922  0.93159044  1
  O2-  O216  1  0.08809036  0.45640243  0.06319403  1
  O2-  O217  1  0.08240149  0.45111882  0.39358483  1
  O2-  O218  1  0.07976030  0.44998147  0.73245354  1
  O2-  O219  1  0.08682852  0.95221710  0.06256589  1
  O2-  O220  1  0.07793381  0.95620559  0.39929005  1
  O2-  O221  1  0.08192538  0.96370583  0.73755792  1
  O2-  O222  1  0.58125097  0.45570655  0.06279063  1
  O2-  O223  1  0.58523207  0.46450325  0.39824145  1
  O2-  O224  1  0.58075480  0.45268657  0.73856672  1
  O2-  O225  1  0.58149179  0.95317695  0.06043988  1
  O2-  O226  1  0.58336656  0.95434385  0.40380638  1
  O2-  O227  1  0.58468592  0.95299397  0.72860753  1
  O2-  O228  1  0.20739864  0.33568400  0.06281930  1
  O2-  O229  1  0.20301502  0.33424821  0.38854680  1
  O2-  O230  1  0.21225045  0.32855456  0.73487126  1
  O2-  O231  1  0.20990565  0.83733693  0.06391343  1
  O2-  O232  1  0.20437045  0.83174802  0.40306539  1
  O2-  O233  1  0.20473112  0.83350378  0.73845688  1
  O2-  O234  1  0.70149190  0.33503972  0.06373780  1
  O2-  O235  1  0.70724343  0.33397714  0.40249691  1
  O2-  O236  1  0.70749415  0.32747994  0.73524405  1
  O2-  O237  1  0.70413973  0.83611543  0.06118596  1
  O2-  O238  1  0.71664997  0.83398514  0.40249280  1
  O2-  O239  1  0.71152744  0.84067211  0.73095385  1
  O2-  O240  1  0.46519733  0.41485205  0.26102920  1
  O2-  O241  1  0.46113409  0.41567918  0.60090937  1
  O2-  O242  1  0.45212233  0.41601023  0.93541210  1
  O2-  O243  1  0.45116187  0.91946631  0.27442176  1
  O2-  O244  1  0.45584743  0.91981147  0.59648325  1
  O2-  O245  1  0.44926408  0.91609176  0.93757979  1
  O2-  O246  1  0.94905508  0.41763411  0.27161156  1
  O2-  O247  1  0.94850279  0.41848002  0.60273926  1
  O2-  O248  1  0.95719289  0.41923335  0.93166487  1
  O2-  O249  1  0.95615835  0.91171870  0.26824251  1
  O2-  O250  1  0.96148291  0.91072069  0.60073972  1
  O2-  O251  1  0.95635557  0.91405393  0.93706020  1
  O2-  O252  1  0.33481450  0.29326330  0.26095760  1
  O2-  O253  1  0.33678328  0.28666118  0.59814728  1
  O2-  O254  1  0.33432186  0.29590881  0.93617103  1
  O2-  O255  1  0.33276715  0.79747315  0.27175855  1
  O2-  O256  1  0.32393567  0.79983411  0.60149018  1
  O2-  O257  1  0.33470393  0.79458516  0.93833800  1
  O2-  O258  1  0.83170354  0.29602913  0.27091214  1
  O2-  O259  1  0.83484947  0.29242673  0.60072227  1
  O2-  O260  1  0.82927038  0.29442473  0.93199925  1
  O2-  O261  1  0.83889457  0.79268844  0.26648946  1
  O2-  O262  1  0.83816526  0.79626777  0.60352080  1
  O2-  O263  1  0.83362298  0.80030576  0.93815844  1
  O2-  O264  1  0.41200151  0.04278174  0.06379582  1
  O2-  O265  1  0.41975359  0.05183913  0.40299143  1
  O2-  O266  1  0.41758908  0.04579255  0.73045777  1
  O2-  O267  1  0.41320753  0.54290449  0.06186482  1
  O2-  O268  1  0.41661424  0.53586260  0.39737010  1
  O2-  O269  1  0.41866287  0.53970853  0.73728560  1
  O2-  O270  1  0.91548113  0.03769315  0.06975242  1
  O2-  O271  1  0.91327949  0.04071102  0.39665797  1
  O2-  O272  1  0.90941162  0.03336284  0.72923462  1
  O2-  O273  1  0.91913521  0.54105617  0.06926184  1
  O2-  O274  1  0.91854122  0.54952544  0.39524325  1
  O2-  O275  1  0.91967806  0.54547966  0.73402322  1
  O2-  O276  1  0.29523693  0.16509054  0.06126526  1
  O2-  O277  1  0.29011766  0.17374479  0.39858492  1
  O2-  O278  1  0.29590882  0.16390906  0.73205629  1
  O2-  O279  1  0.29109944  0.66272148  0.06334768  1
  O2-  O280  1  0.29327940  0.66535590  0.40054829  1
  O2-  O281  1  0.29463560  0.67004010  0.73611973  1
  O2-  O282  1  0.79040351  0.16855228  0.06827814  1
  O2-  O283  1  0.80035381  0.16588629  0.39758364  1
  O2-  O284  1  0.80078113  0.16244202  0.72688045  1
  O2-  O285  1  0.79361426  0.66981134  0.06834958  1
  O2-  O286  1  0.79998488  0.66746769  0.39316797  1
  O2-  O287  1  0.79544597  0.67280160  0.73438333  1
