# generated using pymatgen
data_Ca2Al2SiO7
_symmetry_space_group_name_H-M   'P 1'
_cell_length_a   15.46875419
_cell_length_b   15.46815678
_cell_length_c   15.29081672
_cell_angle_alpha   90.00373102
_cell_angle_beta   89.99526934
_cell_angle_gamma   90.02621193
_symmetry_Int_Tables_number   1
_chemical_formula_structural   Ca2Al2SiO7
_chemical_formula_sum   'Ca48 Al48 Si24 O168'
_cell_volume   3658.68094523
_cell_formula_units_Z   24
loop_
 _symmetry_equiv_pos_site_id
 _symmetry_equiv_pos_as_xyz
  1  'x, y, z'
loop_
 _atom_type_symbol
 _atom_type_oxidation_number
  Ca2+  2.0
  Al0+  0.0
  Si0+  0.0
  O2-  -2.0
loop_
 _atom_site_type_symbol
 _atom_site_label
 _atom_site_symmetry_multiplicity
 _atom_site_fract_x
 _atom_site_fract_y
 _atom_site_fract_z
 _atom_site_occupancy
  Ca2+  Ca0  1  0.16871715  0.08468240  0.17070470  1
  Ca2+  Ca1  1  0.17265582  0.08530637  0.50078883  1
  Ca2+  Ca2  1  0.17634222  0.08166290  0.84577502  1
  Ca2+  Ca3  1  0.15185814  0.57891206  0.16600258  1
  Ca2+  Ca4  1  0.15929955  0.57605602  0.50440038  1
  Ca2+  Ca5  1  0.16157799  0.57247384  0.83964288  1
  Ca2+  Ca6  1  0.67488465  0.08226763  0.16049551  1
  Ca2+  Ca7  1  0.67576858  0.08090768  0.50974241  1
  Ca2+  Ca8  1  0.67852911  0.07536297  0.83719259  1
  Ca2+  Ca9  1  0.67599844  0.57563834  0.17019116  1
  Ca2+  Ca10  1  0.68099966  0.57596560  0.50797112  1
  Ca2+  Ca11  1  0.67082442  0.57553217  0.83625828  1
  Ca2+  Ca12  1  0.07465232  0.32419906  0.15833028  1
  Ca2+  Ca13  1  0.07876903  0.32787117  0.49168067  1
  Ca2+  Ca14  1  0.08477585  0.32983262  0.83572167  1
  Ca2+  Ca15  1  0.08781085  0.82599465  0.15674601  1
  Ca2+  Ca16  1  0.08302420  0.82625256  0.49092972  1
  Ca2+  Ca17  1  0.08249127  0.83368865  0.83607534  1
  Ca2+  Ca18  1  0.57634780  0.33323971  0.15473194  1
  Ca2+  Ca19  1  0.58333567  0.33499491  0.49941354  1
  Ca2+  Ca20  1  0.58048541  0.33901916  0.83154928  1
  Ca2+  Ca21  1  0.58430259  0.83429024  0.15889663  1
  Ca2+  Ca22  1  0.57731634  0.84411616  0.50128551  1
  Ca2+  Ca23  1  0.58012261  0.84488761  0.82589026  1
  Ca2+  Ca24  1  0.32645276  0.41126618  0.16227187  1
  Ca2+  Ca25  1  0.32288621  0.41906927  0.50704144  1
  Ca2+  Ca26  1  0.32181976  0.41273217  0.84139900  1
  Ca2+  Ca27  1  0.31842905  0.92697034  0.16975675  1
  Ca2+  Ca28  1  0.32794968  0.92514811  0.50396393  1
  Ca2+  Ca29  1  0.33257273  0.92607855  0.84017405  1
  Ca2+  Ca30  1  0.83955795  0.41527596  0.16874084  1
  Ca2+  Ca31  1  0.83843311  0.42601812  0.50628573  1
  Ca2+  Ca32  1  0.82650488  0.41779102  0.83978905  1
  Ca2+  Ca33  1  0.83912486  0.91755412  0.16135151  1
  Ca2+  Ca34  1  0.82806731  0.92475728  0.51040939  1
  Ca2+  Ca35  1  0.82968248  0.92285762  0.84332525  1
  Ca2+  Ca36  1  0.41346003  0.16662129  0.15927016  1
  Ca2+  Ca37  1  0.41498812  0.16124487  0.49776375  1
  Ca2+  Ca38  1  0.41155699  0.16686062  0.83206271  1
  Ca2+  Ca39  1  0.42083129  0.66831145  0.15862777  1
  Ca2+  Ca40  1  0.41774689  0.67580044  0.49855948  1
  Ca2+  Ca41  1  0.42039978  0.67643843  0.82570754  1
  Ca2+  Ca42  1  0.92600606  0.17078805  0.15546222  1
  Ca2+  Ca43  1  0.91965805  0.17423150  0.49027972  1
  Ca2+  Ca44  1  0.91625625  0.16450412  0.83385294  1
  Ca2+  Ca45  1  0.92456381  0.67137551  0.16081558  1
  Ca2+  Ca46  1  0.91722626  0.66343639  0.49304634  1
  Ca2+  Ca47  1  0.91691156  0.66926307  0.83553579  1
  Al0+  Al48  1  0.00095407  -0.00211322  -0.00136841  1
  Al0+  Al49  1  -0.00095214  -0.00098125  0.33587465  1
  Al0+  Al50  1  0.00264660  -0.00089924  0.66588022  1
  Al0+  Al51  1  -0.00002409  0.49931660  -0.00334801  1
  Al0+  Al52  1  -0.00153263  0.50124973  0.33133050  1
  Al0+  Al53  1  -0.00013132  0.49910982  0.67501119  1
  Al0+  Al54  1  0.50137646  0.00090096  0.00703077  1
  Al0+  Al55  1  0.49858562  0.00108706  0.33390167  1
  Al0+  Al56  1  0.49890881  0.00274201  0.66635391  1
  Al0+  Al57  1  0.50056860  0.49954016  -0.00151127  1
  Al0+  Al58  1  0.49949388  0.50120341  0.33443422  1
  Al0+  Al59  1  0.49896470  0.50181318  0.66470841  1
  Al0+  Al60  1  0.25052294  0.25331731  0.00081349  1
  Al0+  Al61  1  0.25094860  0.25118401  0.33479098  1
  Al0+  Al62  1  0.24956453  0.24997936  0.67121089  1
  Al0+  Al63  1  0.25414513  0.74960929  -0.00341371  1
  Al0+  Al64  1  0.25082717  0.75048983  0.33194951  1
  Al0+  Al65  1  0.25079035  0.74984491  0.65860186  1
  Al0+  Al66  1  0.74831777  0.24879054  0.00402181  1
  Al0+  Al67  1  0.74502735  0.24975790  0.32967530  1
  Al0+  Al68  1  0.74957936  0.25077264  0.67050558  1
  Al0+  Al69  1  0.75080792  0.74752606  0.00002569  1
  Al0+  Al70  1  0.74838679  0.74757516  0.33824885  1
  Al0+  Al71  1  0.74954304  0.74843607  0.67098553  1
  Al0+  Al72  1  0.17780576  0.43121678  0.01610799  1
  Al0+  Al73  1  0.92641298  0.31979266  0.98258598  1
  Al0+  Al74  1  0.07122721  0.68066599  0.32092540  1
  Al0+  Al75  1  0.07403426  0.67902326  0.98237948  1
  Al0+  Al76  1  0.67825052  0.42910126  0.01464814  1
  Al0+  Al77  1  0.07183689  0.17823600  0.98410039  1
  Al0+  Al78  1  0.43033466  0.32066143  0.98530204  1
  Al0+  Al79  1  0.07150811  0.17803248  0.31941252  1
  Al0+  Al80  1  0.31994608  0.07284599  0.01575841  1
  Al0+  Al81  1  0.17632995  0.92670296  0.34967925  1
  Al0+  Al82  1  0.67904279  0.93033043  0.67864334  1
  Al0+  Al83  1  0.82027108  0.56806921  0.34625844  1
  Al0+  Al84  1  0.92861898  0.82051154  0.98421449  1
  Al0+  Al85  1  0.43048188  0.82308591  0.65124759  1
  Al0+  Al86  1  0.82303291  0.57166984  0.68496189  1
  Al0+  Al87  1  0.67994427  0.92646949  0.01557116  1
  Al0+  Al88  1  0.92708115  0.32127545  0.31998171  1
  Al0+  Al89  1  0.82320398  0.07057134  0.01618521  1
  Al0+  Al90  1  0.18011878  0.42978988  0.68005025  1
  Al0+  Al91  1  0.31880392  0.06981665  0.68107336  1
  Al0+  Al92  1  0.31985869  0.07207048  0.35034592  1
  Al0+  Al93  1  0.67715301  0.42883210  0.68138885  1
  Al0+  Al94  1  0.17941727  0.92636732  0.01272196  1
  Al0+  Al95  1  0.82522074  0.07152055  0.67995919  1
  Si0+  Si96  1  0.32289333  0.57165101  0.01526123  1
  Si0+  Si97  1  0.42654003  0.32197055  0.65073729  1
  Si0+  Si98  1  0.82209441  0.57029360  0.01857716  1
  Si0+  Si99  1  0.42991902  0.32305530  0.31971701  1
  Si0+  Si100  1  0.43043403  0.82219312  0.31592431  1
  Si0+  Si101  1  0.92438500  0.82168515  0.32008111  1
  Si0+  Si102  1  0.57031102  0.18167029  0.65168954  1
  Si0+  Si103  1  0.67887235  0.92884822  0.34827354  1
  Si0+  Si104  1  0.56948315  0.17741616  0.31718496  1
  Si0+  Si105  1  0.17853810  0.92438555  0.68237968  1
  Si0+  Si106  1  0.18041858  0.43223182  0.34702244  1
  Si0+  Si107  1  0.57160744  0.67779747  0.98474930  1
  Si0+  Si108  1  0.32143119  0.57418179  0.68119190  1
  Si0+  Si109  1  0.32533733  0.57256810  0.34881216  1
  Si0+  Si110  1  0.07337868  0.17868895  0.65166817  1
  Si0+  Si111  1  0.43288988  0.82178594  0.98565382  1
  Si0+  Si112  1  0.06905330  0.67779218  0.65130217  1
  Si0+  Si113  1  0.57297545  0.67647138  0.64733228  1
  Si0+  Si114  1  0.92815804  0.82138855  0.65118705  1
  Si0+  Si115  1  0.57035652  0.67935646  0.31834542  1
  Si0+  Si116  1  0.81970663  0.07274003  0.34707017  1
  Si0+  Si117  1  0.67447740  0.42703590  0.34989874  1
  Si0+  Si118  1  0.57122866  0.17627856  0.98160532  1
  Si0+  Si119  1  0.92906406  0.32006604  0.65313350  1
  O2-  O120  1  0.24371125  0.00465385  0.06407167  1
  O2-  O121  1  0.24588026  0.00164150  0.39973968  1
  O2-  O122  1  0.24524210  -0.00554327  0.72611149  1
  O2-  O123  1  0.25044371  0.50891907  0.06222187  1
  O2-  O124  1  0.25056833  0.50468094  0.38974733  1
  O2-  O125  1  0.25496830  0.50490300  0.72580052  1
  O2-  O126  1  0.75379598  -0.00465995  0.06670578  1
  O2-  O127  1  0.75122121  -0.00117805  0.38936816  1
  O2-  O128  1  0.75736068  -0.00537917  0.72787917  1
  O2-  O129  1  0.75686312  0.49805918  0.06288851  1
  O2-  O130  1  0.74896157  0.48953971  0.39272712  1
  O2-  O131  1  0.74866705  0.50045929  0.73152128  1
  O2-  O132  1  -0.00461135  0.24599116  0.27064216  1
  O2-  O133  1  -0.00194624  0.24663353  0.61052935  1
  O2-  O134  1  -0.00260879  0.24698320  0.93195528  1
  O2-  O135  1  -0.00051059  0.75938983  0.27732788  1
  O2-  O136  1  -0.00188422  0.74888920  0.60852148  1
  O2-  O137  1  0.00292781  0.75159644  0.93230724  1
  O2-  O138  1  0.49969200  0.25097079  0.27792678  1
  O2-  O139  1  0.50030747  0.25406361  0.60787730  1
  O2-  O140  1  0.50304160  0.24519646  0.93693571  1
  O2-  O141  1  0.50077364  0.75023987  0.27357452  1
  O2-  O142  1  0.50723473  0.74924420  0.60372733  1
  O2-  O143  1  0.50628623  0.75375982  0.94241624  1
  O2-  O144  1  0.07224717  0.18137460  0.09781630  1
  O2-  O145  1  0.07138315  0.18275340  0.43408521  1
  O2-  O146  1  0.07666592  0.18010411  0.75581288  1
  O2-  O147  1  0.07131631  0.67990078  0.09630938  1
  O2-  O148  1  0.06829972  0.67753052  0.43473708  1
  O2-  O149  1  0.07159266  0.67887243  0.75550961  1
  O2-  O150  1  0.56921286  0.17718603  0.08790687  1
  O2-  O151  1  0.57172714  0.17677043  0.42258372  1
  O2-  O152  1  0.56893038  0.18087668  0.75597262  1
  O2-  O153  1  0.56805547  0.67654974  0.09049193  1
  O2-  O154  1  0.56819650  0.67920512  0.42303761  1
  O2-  O155  1  0.56840140  0.67217156  0.75257011  1
  O2-  O156  1  0.18247894  0.43251912  0.24257042  1
  O2-  O157  1  0.18019878  0.43107288  0.56584283  1
  O2-  O158  1  0.18159024  0.43117583  0.90301143  1
  O2-  O159  1  0.18082502  0.92256540  0.23704724  1
  O2-  O160  1  0.17895322  0.92380349  0.57664635  1
  O2-  O161  1  0.18703499  0.92439561  0.89893244  1
  O2-  O162  1  0.66778582  0.43094423  0.24505128  1
  O2-  O163  1  0.67827418  0.42946906  0.56711473  1
  O2-  O164  1  0.67518673  0.43488569  0.90204967  1
  O2-  O165  1  0.67749606  0.92740979  0.24383347  1
  O2-  O166  1  0.67978075  0.93503667  0.56408397  1
  O2-  O167  1  0.67752089  0.92954767  0.90243657  1
  O2-  O168  1  0.43267164  0.32242663  0.09911078  1
  O2-  O169  1  0.43115577  0.32555600  0.42517336  1
  O2-  O170  1  0.42555515  0.32147254  0.75504629  1
  O2-  O171  1  0.43365739  0.81793451  0.09105119  1
  O2-  O172  1  0.43289608  0.82206255  0.42115256  1
  O2-  O173  1  0.43084207  0.82084359  0.76430840  1
  O2-  O174  1  0.92920156  0.31938543  0.09643201  1
  O2-  O175  1  0.92981452  0.32151860  0.43469201  1
  O2-  O176  1  0.92873897  0.32022375  0.75726392  1
  O2-  O177  1  0.92504867  0.81497971  0.09813202  1
  O2-  O178  1  0.92095830  0.81823940  0.42614838  1
  O2-  O179  1  0.92987201  0.82290598  0.75535916  1
  O2-  O180  1  0.32293493  0.07104405  0.23772456  1
  O2-  O181  1  0.31760944  0.07079280  0.56791156  1
  O2-  O182  1  0.32279857  0.06879374  0.90202973  1
  O2-  O183  1  0.33362891  0.57044013  0.24456786  1
  O2-  O184  1  0.32005005  0.57306808  0.57489569  1
  O2-  O185  1  0.32500793  0.57001190  0.90973757  1
  O2-  O186  1  0.81782083  0.07364813  0.24283726  1
  O2-  O187  1  0.82223345  0.07240445  0.56510697  1
  O2-  O188  1  0.81904765  0.07047229  0.90280256  1
  O2-  O189  1  0.81681600  0.57079248  0.23393903  1
  O2-  O190  1  0.82508718  0.56874026  0.57058753  1
  O2-  O191  1  0.81826665  0.57182684  0.91322582  1
  O2-  O192  1  0.04802556  0.07686312  0.27095179  1
  O2-  O193  1  0.05152368  0.08480180  0.60449351  1
  O2-  O194  1  0.05032540  0.07777653  0.93317233  1
  O2-  O195  1  0.03669029  0.58607165  0.26632108  1
  O2-  O196  1  0.04022659  0.58482491  0.60559633  1
  O2-  O197  1  0.04330244  0.58118946  0.93055103  1
  O2-  O198  1  0.53973597  0.08674224  0.26906181  1
  O2-  O199  1  0.54012664  0.09174382  0.60127930  1
  O2-  O200  1  0.54434112  0.08240581  0.93709263  1
  O2-  O201  1  0.54120025  0.58763765  0.27079330  1
  O2-  O202  1  0.54254408  0.58527522  0.59720040  1
  O2-  O203  1  0.53733211  0.58962124  0.93500568  1
  O2-  O204  1  0.16976068  0.21057180  0.26894211  1
  O2-  O205  1  0.16313421  0.21281887  0.60276299  1
  O2-  O206  1  0.16912908  0.21255319  0.93212299  1
  O2-  O207  1  0.17051214  0.70310175  0.26796354  1
  O2-  O208  1  0.16117114  0.70308911  0.60161903  1
  O2-  O209  1  0.17443516  0.70371182  0.93054715  1
  O2-  O210  1  0.66020489  0.20322995  0.26694966  1
  O2-  O211  1  0.66227857  0.20909131  0.60244039  1
  O2-  O212  1  0.66483273  0.20150604  0.93747884  1
  O2-  O213  1  0.66227858  0.70700887  0.27143506  1
  O2-  O214  1  0.66863883  0.69785645  0.60352834  1
  O2-  O215  1  0.66482695  0.69871621  0.93889061  1
  O2-  O216  1  0.08071192  0.46095027  0.06923875  1
  O2-  O217  1  0.08887632  0.46046453  0.39455175  1
  O2-  O218  1  0.08592337  0.45988813  0.73614622  1
  O2-  O219  1  0.07775451  0.94200486  0.06133279  1
  O2-  O220  1  0.07574180  0.94857638  0.40266659  1
  O2-  O221  1  0.08418920  0.94730027  0.72640095  1
  O2-  O222  1  0.58327145  0.46585020  0.06927788  1
  O2-  O223  1  0.58376223  0.45931191  0.39932227  1
  O2-  O224  1  0.57695801  0.45680695  0.73092436  1
  O2-  O225  1  0.58365208  0.95768964  0.07188204  1
  O2-  O226  1  0.58761475  0.95985914  0.39511642  1
  O2-  O227  1  0.58314704  0.96477384  0.73113437  1
  O2-  O228  1  0.21395421  0.33746903  0.07089256  1
  O2-  O229  1  0.21069738  0.34202453  0.39639891  1
  O2-  O230  1  0.21307919  0.33543944  0.73479681  1
  O2-  O231  1  0.21660068  0.83017369  0.06598892  1
  O2-  O232  1  0.20997141  0.82863833  0.40298385  1
  O2-  O233  1  0.20585135  0.83044672  0.72556295  1
  O2-  O234  1  0.70007795  0.33070201  0.06791753  1
  O2-  O235  1  0.69180294  0.33024369  0.39260029  1
  O2-  O236  1  0.70238519  0.33069341  0.73394474  1
  O2-  O237  1  0.70372062  0.82599387  0.06736661  1
  O2-  O238  1  0.70307565  0.83666839  0.39691552  1
  O2-  O239  1  0.69419276  0.82827127  0.72684515  1
  O2-  O240  1  0.45839581  0.41455632  0.27188540  1
  O2-  O241  1  0.45069119  0.41526077  0.60274507  1
  O2-  O242  1  0.46251838  0.41689522  0.93066359  1
  O2-  O243  1  0.46066265  0.91325641  0.26921729  1
  O2-  O244  1  0.46222717  0.91924753  0.59559258  1
  O2-  O245  1  0.46017156  0.91453354  0.94041598  1
  O2-  O246  1  0.95838727  0.41801262  0.26697792  1
  O2-  O247  1  0.96092666  0.41209310  0.60717884  1
  O2-  O248  1  0.95450509  0.41861447  0.93145864  1
  O2-  O249  1  0.94182816  0.91793884  0.27758496  1
  O2-  O250  1  0.95663364  0.91283062  0.60144329  1
  O2-  O251  1  0.95203370  0.91946260  0.93099106  1
  O2-  O252  1  0.33786561  0.29686791  0.27303072  1
  O2-  O253  1  0.33591443  0.29070915  0.60209950  1
  O2-  O254  1  0.33377397  0.29259248  0.93136881  1
  O2-  O255  1  0.33925954  0.79325191  0.26937786  1
  O2-  O256  1  0.33567176  0.78926749  0.59338867  1
  O2-  O257  1  0.34380309  0.79180314  0.93517672  1
  O2-  O258  1  0.82523454  0.30014534  0.27100831  1
  O2-  O259  1  0.83621302  0.29541979  0.60510842  1
  O2-  O260  1  0.82558383  0.29358396  0.93356924  1
  O2-  O261  1  0.83269329  0.78979974  0.27349055  1
  O2-  O262  1  0.83471779  0.79527831  0.60510610  1
  O2-  O263  1  0.83044429  0.78806408  0.93092413  1
  O2-  O264  1  0.41718472  0.04204659  0.06938707  1
  O2-  O265  1  0.41856230  0.03993258  0.40290947  1
  O2-  O266  1  0.41590293  0.04113150  0.73307726  1
  O2-  O267  1  0.41441012  0.54143777  0.06355013  1
  O2-  O268  1  0.41431790  0.54133565  0.40098574  1
  O2-  O269  1  0.41593586  0.55190282  0.72530890  1
  O2-  O270  1  0.92182903  0.04358869  0.06832237  1
  O2-  O271  1  0.91184381  0.04940964  0.39561145  1
  O2-  O272  1  0.92517289  0.04760353  0.73009166  1
  O2-  O273  1  0.91683075  0.54751566  0.06205146  1
  O2-  O274  1  0.91696030  0.53922373  0.40210566  1
  O2-  O275  1  0.91914194  0.54252470  0.73946527  1
  O2-  O276  1  0.29628237  0.17263087  0.06665996  1
  O2-  O277  1  0.29573137  0.17248960  0.40312855  1
  O2-  O278  1  0.28972257  0.16619991  0.73455649  1
  O2-  O279  1  0.30458640  0.66705984  0.06008942  1
  O2-  O280  1  0.30089094  0.66551894  0.39469473  1
  O2-  O281  1  0.29602476  0.66814200  0.72554011  1
  O2-  O282  1  0.78888921  0.16622773  0.07136315  1
  O2-  O283  1  0.78686812  0.16349481  0.39499066  1
  O2-  O284  1  0.79245585  0.16756980  0.73235032  1
  O2-  O285  1  0.79160190  0.66163045  0.06596173  1
  O2-  O286  1  0.78524839  0.66264354  0.40346752  1
  O2-  O287  1  0.79582163  0.67003383  0.73698143  1
