# generated using pymatgen
data_Ca2Al2SiO7
_symmetry_space_group_name_H-M   'P 1'
_cell_length_a   15.46381774
_cell_length_b   15.46779150
_cell_length_c   15.28929609
_cell_angle_alpha   90.02158856
_cell_angle_beta   90.00721768
_cell_angle_gamma   89.99277792
_symmetry_Int_Tables_number   1
_chemical_formula_structural   Ca2Al2SiO7
_chemical_formula_sum   'Ca48 Al48 Si24 O168'
_cell_volume   3657.06336430
_cell_formula_units_Z   24
loop_
 _symmetry_equiv_pos_site_id
 _symmetry_equiv_pos_as_xyz
  1  'x, y, z'
loop_
 _atom_type_symbol
 _atom_type_oxidation_number
  Ca2+  2.0
  Al0+  0.0
  Si0+  0.0
  O2-  -2.0
loop_
 _atom_site_type_symbol
 _atom_site_label
 _atom_site_symmetry_multiplicity
 _atom_site_fract_x
 _atom_site_fract_y
 _atom_site_fract_z
 _atom_site_occupancy
  Ca2+  Ca0  1  0.16774784  0.07637644  0.16560482  1
  Ca2+  Ca1  1  0.16889344  0.07108669  0.50584285  1
  Ca2+  Ca2  1  0.17244402  0.07484072  0.84166530  1
  Ca2+  Ca3  1  0.16805404  0.58359661  0.17033857  1
  Ca2+  Ca4  1  0.17245382  0.57911826  0.51469570  1
  Ca2+  Ca5  1  0.16720670  0.58464393  0.82670301  1
  Ca2+  Ca6  1  0.66397867  0.07180608  0.17069921  1
  Ca2+  Ca7  1  0.66704274  0.07926020  0.50697648  1
  Ca2+  Ca8  1  0.66879202  0.07545640  0.83114335  1
  Ca2+  Ca9  1  0.66689724  0.58350143  0.17311090  1
  Ca2+  Ca10  1  0.66014501  0.57650472  0.50677605  1
  Ca2+  Ca11  1  0.66068165  0.57377904  0.83452352  1
  Ca2+  Ca12  1  0.07307647  0.32668149  0.15669162  1
  Ca2+  Ca13  1  0.07913920  0.33438229  0.49578935  1
  Ca2+  Ca14  1  0.08346976  0.32749922  0.83002369  1
  Ca2+  Ca15  1  0.07962374  0.84109769  0.15897648  1
  Ca2+  Ca16  1  0.08398400  0.83513516  0.50158514  1
  Ca2+  Ca17  1  0.07779557  0.83875046  0.82279476  1
  Ca2+  Ca18  1  0.58291248  0.32257735  0.16496916  1
  Ca2+  Ca19  1  0.58902527  0.32168836  0.50110849  1
  Ca2+  Ca20  1  0.57808397  0.32568644  0.81934466  1
  Ca2+  Ca21  1  0.57584327  0.84038666  0.16237669  1
  Ca2+  Ca22  1  0.57255829  0.83984452  0.49345632  1
  Ca2+  Ca23  1  0.57326537  0.84420047  0.82782546  1
  Ca2+  Ca24  1  0.33165123  0.41971081  0.17095093  1
  Ca2+  Ca25  1  0.33192718  0.42453097  0.51548620  1
  Ca2+  Ca26  1  0.33431695  0.42057812  0.83095625  1
  Ca2+  Ca27  1  0.32709777  0.91395555  0.16724573  1
  Ca2+  Ca28  1  0.32667210  0.90615801  0.50510712  1
  Ca2+  Ca29  1  0.32585276  0.91489689  0.84019342  1
  Ca2+  Ca30  1  0.83951305  0.41477233  0.17066399  1
  Ca2+  Ca31  1  0.82976136  0.41753731  0.50763738  1
  Ca2+  Ca32  1  0.83004555  0.41458725  0.83510685  1
  Ca2+  Ca33  1  0.82210051  0.91015134  0.17005587  1
  Ca2+  Ca34  1  0.82029683  0.92136898  0.51223068  1
  Ca2+  Ca35  1  0.82731731  0.91411990  0.83537551  1
  Ca2+  Ca36  1  0.42111204  0.15586039  0.16404616  1
  Ca2+  Ca37  1  0.42890699  0.16786456  0.50057934  1
  Ca2+  Ca38  1  0.42094916  0.16611027  0.82403595  1
  Ca2+  Ca39  1  0.42222739  0.68039864  0.16680193  1
  Ca2+  Ca40  1  0.41914084  0.67461332  0.49883647  1
  Ca2+  Ca41  1  0.41226220  0.67864382  0.82617068  1
  Ca2+  Ca42  1  0.92172769  0.17522274  0.15930100  1
  Ca2+  Ca43  1  0.91242368  0.16945159  0.49795929  1
  Ca2+  Ca44  1  0.92092522  0.16259084  0.83038651  1
  Ca2+  Ca45  1  0.92031455  0.67476712  0.15918719  1
  Ca2+  Ca46  1  0.92087458  0.67151956  0.50421099  1
  Ca2+  Ca47  1  0.92344431  0.68195815  0.82664816  1
  Al0+  Al48  1  -0.00122706  0.00209552  -0.00371666  1
  Al0+  Al49  1  0.00084889  0.00093902  0.33686869  1
  Al0+  Al50  1  -0.00113564  0.00173612  0.66705605  1
  Al0+  Al51  1  -0.00142668  0.50015303  -0.00322656  1
  Al0+  Al52  1  -0.00068151  0.50126386  0.32997460  1
  Al0+  Al53  1  0.00074902  0.50048119  0.66831422  1
  Al0+  Al54  1  0.50047711  -0.00077849  0.00186300  1
  Al0+  Al55  1  0.49805815  0.00173964  0.32884437  1
  Al0+  Al56  1  0.50035764  0.00097922  0.65941661  1
  Al0+  Al57  1  0.50062956  0.49887431  0.00477534  1
  Al0+  Al58  1  0.50078865  0.50055392  0.33042754  1
  Al0+  Al59  1  0.49830419  0.50122636  0.67398498  1
  Al0+  Al60  1  0.25054850  0.25121599  0.00257138  1
  Al0+  Al61  1  0.24908247  0.24906455  0.33420684  1
  Al0+  Al62  1  0.24893151  0.25052498  0.66434721  1
  Al0+  Al63  1  0.25184114  0.74758510  0.00236449  1
  Al0+  Al64  1  0.25047322  0.74813776  0.33311696  1
  Al0+  Al65  1  0.24965702  0.74792861  0.66719986  1
  Al0+  Al66  1  0.74808647  0.25006287  -0.00205720  1
  Al0+  Al67  1  0.74955152  0.25099213  0.32325204  1
  Al0+  Al68  1  0.75104344  0.24994074  0.67178525  1
  Al0+  Al69  1  0.75106331  0.74576599  0.00003853  1
  Al0+  Al70  1  0.75126785  0.74809792  0.33675914  1
  Al0+  Al71  1  0.75013447  0.74967085  0.66710698  1
  Al0+  Al72  1  0.57274675  0.17997428  0.65179885  1
  Al0+  Al73  1  0.07013012  0.68019282  0.65146658  1
  Al0+  Al74  1  0.56993425  0.17987234  0.31685331  1
  Al0+  Al75  1  0.68145393  0.92795374  0.01359218  1
  Al0+  Al76  1  0.17734635  0.92786755  0.01383358  1
  Al0+  Al77  1  0.42793135  0.82095621  0.31666680  1
  Al0+  Al78  1  0.67840075  0.92851439  0.34689525  1
  Al0+  Al79  1  0.32123674  0.57135441  0.68321371  1
  Al0+  Al80  1  0.92841770  0.82113382  0.98792552  1
  Al0+  Al81  1  0.43109278  0.81998769  0.98502403  1
  Al0+  Al82  1  0.57321098  0.67780097  0.31925956  1
  Al0+  Al83  1  0.67645954  0.92749628  0.68076412  1
  Al0+  Al84  1  0.92729216  0.82475615  0.64935751  1
  Al0+  Al85  1  0.42740272  0.32274781  0.65300270  1
  Al0+  Al86  1  0.32181602  0.07234924  0.01416757  1
  Al0+  Al87  1  0.82123152  0.07179988  0.68165249  1
  Al0+  Al88  1  0.17954980  0.92854826  0.34846021  1
  Al0+  Al89  1  0.92774559  0.32160873  0.98132081  1
  Al0+  Al90  1  0.07245089  0.17957284  0.98355439  1
  Al0+  Al91  1  0.42983564  0.82108826  0.65391720  1
  Al0+  Al92  1  0.93089552  0.32121172  0.32082345  1
  Al0+  Al93  1  0.18085514  0.92911872  0.67917337  1
  Al0+  Al94  1  0.17686479  0.42630119  0.68228383  1
  Al0+  Al95  1  0.68011576  0.43028601  0.67958258  1
  Si0+  Si96  1  0.07325770  0.67776220  0.98436481  1
  Si0+  Si97  1  0.82072531  0.56793369  0.01633063  1
  Si0+  Si98  1  0.07012603  0.67924990  0.31834888  1
  Si0+  Si99  1  0.07323310  0.17643022  0.31645725  1
  Si0+  Si100  1  0.67808676  0.42769545  0.01838775  1
  Si0+  Si101  1  0.92980724  0.32079414  0.65252690  1
  Si0+  Si102  1  0.32110742  0.56832619  0.34813136  1
  Si0+  Si103  1  0.57220361  0.67556719  0.98315669  1
  Si0+  Si104  1  0.17756073  0.42971866  0.34592934  1
  Si0+  Si105  1  0.68029952  0.42894004  0.34664148  1
  Si0+  Si106  1  0.42954958  0.32386708  0.98638039  1
  Si0+  Si107  1  0.32287141  0.57029857  0.01915482  1
  Si0+  Si108  1  0.07199378  0.17846992  0.64982338  1
  Si0+  Si109  1  0.92986838  0.82199120  0.32001537  1
  Si0+  Si110  1  0.32213152  0.07405467  0.35244492  1
  Si0+  Si111  1  0.82374732  0.57251344  0.68505013  1
  Si0+  Si112  1  0.32198759  0.07224615  0.67966116  1
  Si0+  Si113  1  0.82374205  0.57072892  0.34946001  1
  Si0+  Si114  1  0.82115221  0.07415403  0.01790170  1
  Si0+  Si115  1  0.17821349  0.43049388  0.01642963  1
  Si0+  Si116  1  0.56884047  0.17874759  0.98402686  1
  Si0+  Si117  1  0.42646598  0.32253100  0.31675861  1
  Si0+  Si118  1  0.82068752  0.07341952  0.34687215  1
  Si0+  Si119  1  0.57275887  0.67679320  0.65343985  1
  O2-  O120  1  0.24932321  0.00015815  0.06408982  1
  O2-  O121  1  0.25570168  0.00235117  0.39480682  1
  O2-  O122  1  0.25651450  0.00213751  0.72550506  1
  O2-  O123  1  0.24910795  0.50099860  0.06062353  1
  O2-  O124  1  0.25254640  0.49463837  0.38931900  1
  O2-  O125  1  0.25047835  0.49676204  0.73201459  1
  O2-  O126  1  0.75777210  0.00071148  0.06238367  1
  O2-  O127  1  0.75364712  0.00382016  0.39140248  1
  O2-  O128  1  0.75203373  -0.00373053  0.73012324  1
  O2-  O129  1  0.75095992  0.49651222  0.06087528  1
  O2-  O130  1  0.74950682  0.50161183  0.38954513  1
  O2-  O131  1  0.75193310  0.50661540  0.72876611  1
  O2-  O132  1  0.00545389  0.24704453  0.27393717  1
  O2-  O133  1  0.00117002  0.25116199  0.60877982  1
  O2-  O134  1  -0.00131688  0.24926409  0.93164142  1
  O2-  O135  1  0.00326200  0.75374950  0.27602575  1
  O2-  O136  1  0.00050686  0.75333451  0.59934486  1
  O2-  O137  1  0.01147461  0.75389681  0.94359387  1
  O2-  O138  1  0.49157564  0.25193288  0.27027636  1
  O2-  O139  1  0.50114695  0.25344562  0.60231255  1
  O2-  O140  1  0.49586084  0.24907722  0.94438899  1
  O2-  O141  1  0.50702018  0.75454974  0.26835667  1
  O2-  O142  1  0.50962433  0.75008666  0.60914988  1
  O2-  O143  1  0.50690256  0.74605426  0.93846946  1
  O2-  O144  1  0.07118189  0.18356747  0.09791165  1
  O2-  O145  1  0.07355926  0.17748373  0.42205265  1
  O2-  O146  1  0.07293769  0.17906939  0.75439555  1
  O2-  O147  1  0.06962304  0.67317656  0.09082562  1
  O2-  O148  1  0.06831566  0.67437839  0.42250957  1
  O2-  O149  1  0.06754354  0.68036629  0.76510864  1
  O2-  O150  1  0.56965225  0.18132111  0.08951427  1
  O2-  O151  1  0.57397321  0.18373800  0.42915218  1
  O2-  O152  1  0.57079151  0.18054159  0.76568626  1
  O2-  O153  1  0.57035084  0.67299484  0.08873799  1
  O2-  O154  1  0.56860661  0.67029324  0.43206944  1
  O2-  O155  1  0.57030069  0.67409431  0.75903073  1
  O2-  O156  1  0.17748149  0.43326598  0.24045823  1
  O2-  O157  1  0.17551279  0.42859312  0.56776777  1
  O2-  O158  1  0.17881721  0.43083702  0.91210379  1
  O2-  O159  1  0.17631562  0.93001312  0.23561343  1
  O2-  O160  1  0.18213084  0.93074888  0.56563706  1
  O2-  O161  1  0.17997734  0.92734297  0.90060759  1
  O2-  O162  1  0.68144565  0.42975425  0.24133336  1
  O2-  O163  1  0.68335790  0.43007690  0.56580991  1
  O2-  O164  1  0.67478762  0.42962629  0.91372054  1
  O2-  O165  1  0.68158164  0.92868493  0.23330043  1
  O2-  O166  1  0.67573373  0.93060663  0.56685936  1
  O2-  O167  1  0.67999586  0.93043721  0.90124280  1
  O2-  O168  1  0.43344554  0.32834599  0.09177065  1
  O2-  O169  1  0.42777632  0.32456341  0.42157017  1
  O2-  O170  1  0.42923798  0.31981836  0.76721002  1
  O2-  O171  1  0.43078619  0.81793163  0.09806923  1
  O2-  O172  1  0.42560895  0.81582242  0.43000262  1
  O2-  O173  1  0.42904995  0.82107688  0.76712380  1
  O2-  O174  1  0.93071153  0.32235966  0.09546870  1
  O2-  O175  1  0.93129522  0.32268176  0.43397263  1
  O2-  O176  1  0.92996773  0.32041179  0.75703224  1
  O2-  O177  1  0.92655690  0.81563451  0.10202190  1
  O2-  O178  1  0.92998843  0.81976155  0.42436400  1
  O2-  O179  1  0.92844619  0.82233623  0.76310038  1
  O2-  O180  1  0.31908409  0.07766084  0.24704855  1
  O2-  O181  1  0.31890032  0.07325630  0.57395023  1
  O2-  O182  1  0.32300204  0.07261127  0.90065237  1
  O2-  O183  1  0.31883851  0.56701621  0.24246078  1
  O2-  O184  1  0.32034093  0.57012077  0.56893598  1
  O2-  O185  1  0.32588283  0.56895394  0.91495644  1
  O2-  O186  1  0.82143695  0.07257333  0.24128014  1
  O2-  O187  1  0.81897494  0.07475640  0.56733309  1
  O2-  O188  1  0.81708875  0.07729041  0.91297021  1
  O2-  O189  1  0.82704513  0.56911261  0.24425660  1
  O2-  O190  1  0.82514369  0.56878028  0.57896440  1
  O2-  O191  1  0.81890836  0.56690404  0.91186463  1
  O2-  O192  1  0.04485503  0.08388386  0.26985379  1
  O2-  O193  1  0.04169941  0.08868721  0.60041731  1
  O2-  O194  1  0.04649371  0.08125113  0.93038470  1
  O2-  O195  1  0.03821624  0.58995076  0.26700760  1
  O2-  O196  1  0.03920300  0.58130931  0.59854075  1
  O2-  O197  1  0.04015141  0.58762022  0.93673370  1
  O2-  O198  1  0.53986618  0.08424029  0.26099824  1
  O2-  O199  1  0.54264197  0.08452952  0.59475061  1
  O2-  O200  1  0.54221699  0.08724548  0.93748431  1
  O2-  O201  1  0.54133228  0.58077993  0.26249303  1
  O2-  O202  1  0.54198668  0.58477574  0.60674548  1
  O2-  O203  1  0.54297501  0.58154656  0.93901657  1
  O2-  O204  1  0.16697903  0.20152616  0.27040912  1
  O2-  O205  1  0.16257693  0.20581989  0.59987217  1
  O2-  O206  1  0.17100677  0.21150131  0.93281211  1
  O2-  O207  1  0.16318444  0.70168008  0.27117075  1
  O2-  O208  1  0.16877396  0.70505970  0.59826114  1
  O2-  O209  1  0.17002114  0.69303377  0.94284619  1
  O2-  O210  1  0.66341247  0.21468654  0.25866143  1
  O2-  O211  1  0.67080341  0.21275323  0.59998216  1
  O2-  O212  1  0.65962824  0.20921022  0.93749582  1
  O2-  O213  1  0.67554013  0.69768981  0.26952580  1
  O2-  O214  1  0.66893463  0.69224139  0.60906803  1
  O2-  O215  1  0.66773913  0.69401945  0.93957422  1
  O2-  O216  1  0.08591682  0.46024786  0.06318994  1
  O2-  O217  1  0.08718591  0.46214554  0.39306701  1
  O2-  O218  1  0.07969363  0.45671793  0.73645671  1
  O2-  O219  1  0.07765738  0.95696319  0.06549197  1
  O2-  O220  1  0.08295970  0.96038536  0.40319022  1
  O2-  O221  1  0.08404843  0.96111830  0.73010422  1
  O2-  O222  1  0.58769574  0.45737521  0.06862758  1
  O2-  O223  1  0.58741644  0.45488231  0.39261129  1
  O2-  O224  1  0.58455930  0.45921848  0.73651188  1
  O2-  O225  1  0.58636922  0.96270905  0.06812632  1
  O2-  O226  1  0.57994402  0.95971752  0.39571396  1
  O2-  O227  1  0.57883198  0.96187776  0.73210594  1
  O2-  O228  1  0.20626177  0.33996559  0.06624894  1
  O2-  O229  1  0.19739916  0.33503660  0.39071932  1
  O2-  O230  1  0.20408561  0.32752919  0.73443208  1
  O2-  O231  1  0.20477739  0.82802757  0.06664773  1
  O2-  O232  1  0.20852826  0.82975132  0.39955955  1
  O2-  O233  1  0.20784153  0.83207726  0.73184455  1
  O2-  O234  1  0.70451308  0.33506648  0.06506804  1
  O2-  O235  1  0.71123030  0.33737584  0.39198479  1
  O2-  O236  1  0.71283781  0.33636253  0.73633213  1
  O2-  O237  1  0.71024042  0.82917708  0.06587200  1
  O2-  O238  1  0.70777327  0.83111366  0.39975602  1
  O2-  O239  1  0.69992348  0.82716532  0.73211973  1
  O2-  O240  1  0.45484672  0.41463665  0.26839794  1
  O2-  O241  1  0.45424388  0.42318685  0.60424109  1
  O2-  O242  1  0.46218220  0.41394189  0.93853142  1
  O2-  O243  1  0.44877177  0.92145019  0.26578843  1
  O2-  O244  1  0.45565340  0.91712436  0.59660930  1
  O2-  O245  1  0.46158449  0.91714914  0.93307159  1
  O2-  O246  1  0.96235832  0.41727826  0.26449921  1
  O2-  O247  1  0.95581012  0.41310028  0.60512775  1
  O2-  O248  1  0.95590609  0.42056172  0.93028849  1
  O2-  O249  1  0.95496927  0.91509298  0.27375372  1
  O2-  O250  1  0.95444542  0.92346791  0.59693533  1
  O2-  O251  1  0.94799939  0.92029879  0.93623128  1
  O2-  O252  1  0.33063774  0.30081029  0.27195649  1
  O2-  O253  1  0.32927640  0.29572248  0.59850069  1
  O2-  O254  1  0.33513765  0.30341585  0.94302472  1
  O2-  O255  1  0.33181717  0.78371708  0.26292235  1
  O2-  O256  1  0.33542673  0.78419782  0.60013707  1
  O2-  O257  1  0.33394022  0.78573670  0.93420055  1
  O2-  O258  1  0.83577515  0.29309702  0.26285187  1
  O2-  O259  1  0.83835610  0.29212470  0.60510000  1
  O2-  O260  1  0.82665672  0.29697926  0.93290459  1
  O2-  O261  1  0.83930162  0.78994473  0.27259272  1
  O2-  O262  1  0.82889938  0.79262491  0.59719169  1
  O2-  O263  1  0.83555105  0.78055517  0.93300320  1
  O2-  O264  1  0.41907956  0.04186249  0.06854676  1
  O2-  O265  1  0.41746438  0.05227313  0.39516537  1
  O2-  O266  1  0.41712869  0.05027848  0.72257241  1
  O2-  O267  1  0.41274336  0.53774771  0.06881886  1
  O2-  O268  1  0.41369534  0.54171348  0.39389479  1
  O2-  O269  1  0.41792770  0.54546271  0.74082244  1
  O2-  O270  1  0.91724311  0.05527871  0.06087584  1
  O2-  O271  1  0.91512154  0.05192903  0.39327019  1
  O2-  O272  1  0.92016495  0.04701387  0.73441952  1
  O2-  O273  1  0.91314258  0.54091197  0.06471716  1
  O2-  O274  1  0.91391713  0.53848928  0.39799069  1
  O2-  O275  1  0.91473854  0.54253764  0.73279643  1
  O2-  O276  1  0.29671614  0.17199969  0.06904413  1
  O2-  O277  1  0.29478163  0.16740625  0.39971787  1
  O2-  O278  1  0.29515454  0.16525297  0.72583534  1
  O2-  O279  1  0.29540810  0.66091349  0.06879638  1
  O2-  O280  1  0.29083935  0.65880951  0.39494600  1
  O2-  O281  1  0.28722057  0.66651269  0.73856020  1
  O2-  O282  1  0.78985495  0.16651726  0.06527503  1
  O2-  O283  1  0.79291907  0.16799234  0.39027919  1
  O2-  O284  1  0.79229443  0.16830161  0.73783896  1
  O2-  O285  1  0.79254999  0.65836449  0.06676188  1
  O2-  O286  1  0.80066899  0.66244106  0.39824943  1
  O2-  O287  1  0.80181888  0.66700918  0.72974404  1
