# generated using pymatgen
data_Ca2Al2SiO7
_symmetry_space_group_name_H-M   'P 1'
_cell_length_a   15.45878181
_cell_length_b   15.45940821
_cell_length_c   15.28398825
_cell_angle_alpha   89.99926848
_cell_angle_beta   90.00607047
_cell_angle_gamma   90.01629796
_symmetry_Int_Tables_number   1
_chemical_formula_structural   Ca2Al2SiO7
_chemical_formula_sum   'Ca48 Al48 Si24 O168'
_cell_volume   3652.62264794
_cell_formula_units_Z   24
loop_
 _symmetry_equiv_pos_site_id
 _symmetry_equiv_pos_as_xyz
  1  'x, y, z'
loop_
 _atom_type_symbol
 _atom_type_oxidation_number
  Ca2+  2.0
  Al0+  0.0
  Si0+  0.0
  O2-  -2.0
loop_
 _atom_site_type_symbol
 _atom_site_label
 _atom_site_symmetry_multiplicity
 _atom_site_fract_x
 _atom_site_fract_y
 _atom_site_fract_z
 _atom_site_occupancy
  Ca2+  Ca0  1  0.17378719  0.07961898  0.17143638  1
  Ca2+  Ca1  1  0.16481048  0.06733449  0.50316248  1
  Ca2+  Ca2  1  0.17184971  0.07569917  0.83598624  1
  Ca2+  Ca3  1  0.17092832  0.57524623  0.16902640  1
  Ca2+  Ca4  1  0.15800643  0.57435542  0.50695774  1
  Ca2+  Ca5  1  0.16863098  0.57629415  0.83701630  1
  Ca2+  Ca6  1  0.67215002  0.08082134  0.16770306  1
  Ca2+  Ca7  1  0.67815827  0.07593850  0.50817234  1
  Ca2+  Ca8  1  0.67161762  0.07350900  0.84040819  1
  Ca2+  Ca9  1  0.66733257  0.58793247  0.17318521  1
  Ca2+  Ca10  1  0.67592387  0.59472381  0.50226145  1
  Ca2+  Ca11  1  0.66986399  0.59234313  0.83456455  1
  Ca2+  Ca12  1  0.07920743  0.34195407  0.16586489  1
  Ca2+  Ca13  1  0.07460130  0.33759519  0.49609826  1
  Ca2+  Ca14  1  0.08169768  0.33455728  0.82482540  1
  Ca2+  Ca15  1  0.07571823  0.84366773  0.16853247  1
  Ca2+  Ca16  1  0.08365695  0.82944731  0.49304910  1
  Ca2+  Ca17  1  0.08541518  0.82552623  0.82244154  1
  Ca2+  Ca18  1  0.58244752  0.32544521  0.15899457  1
  Ca2+  Ca19  1  0.58383884  0.33073222  0.49633377  1
  Ca2+  Ca20  1  0.58347566  0.32498256  0.83191270  1
  Ca2+  Ca21  1  0.58567317  0.82380637  0.16134193  1
  Ca2+  Ca22  1  0.57938324  0.82988816  0.49664776  1
  Ca2+  Ca23  1  0.58262345  0.82939077  0.82543582  1
  Ca2+  Ca24  1  0.32495704  0.42098458  0.16994766  1
  Ca2+  Ca25  1  0.32048568  0.41911263  0.50562061  1
  Ca2+  Ca26  1  0.32183561  0.42347044  0.84276582  1
  Ca2+  Ca27  1  0.33327810  0.91907291  0.17143151  1
  Ca2+  Ca28  1  0.32810092  0.90423365  0.50225537  1
  Ca2+  Ca29  1  0.33063276  0.91283940  0.83392367  1
  Ca2+  Ca30  1  0.83245305  0.42379265  0.17611525  1
  Ca2+  Ca31  1  0.84196685  0.42646843  0.50398745  1
  Ca2+  Ca32  1  0.83747381  0.42182448  0.82970776  1
  Ca2+  Ca33  1  0.82944114  0.92466483  0.17335942  1
  Ca2+  Ca34  1  0.83466946  0.92521256  0.50733142  1
  Ca2+  Ca35  1  0.82162017  0.92308628  0.83804257  1
  Ca2+  Ca36  1  0.42053413  0.16495436  0.15655905  1
  Ca2+  Ca37  1  0.41865660  0.16724196  0.49762077  1
  Ca2+  Ca38  1  0.42111738  0.15758818  0.83438024  1
  Ca2+  Ca39  1  0.42387853  0.66897889  0.16090493  1
  Ca2+  Ca40  1  0.42734583  0.67701561  0.49486892  1
  Ca2+  Ca41  1  0.42601865  0.66797737  0.82479195  1
  Ca2+  Ca42  1  0.91210506  0.16845615  0.16436458  1
  Ca2+  Ca43  1  0.90926741  0.17536897  0.49458839  1
  Ca2+  Ca44  1  0.91067996  0.17107926  0.82764667  1
  Ca2+  Ca45  1  0.91169848  0.67426533  0.16891008  1
  Ca2+  Ca46  1  0.91725910  0.66901304  0.49599952  1
  Ca2+  Ca47  1  0.92253395  0.66643337  0.82347147  1
  Al0+  Al48  1  -0.00213532  0.00321811  -0.00051291  1
  Al0+  Al49  1  0.00208887  0.00149443  0.33653034  1
  Al0+  Al50  1  0.00279775  0.00156242  0.67659072  1
  Al0+  Al51  1  -0.00178246  0.50121940  0.00314518  1
  Al0+  Al52  1  -0.00130375  0.49956886  0.33447317  1
  Al0+  Al53  1  -0.00118620  0.49911814  0.66811114  1
  Al0+  Al54  1  0.49946339  -0.00187028  0.00321707  1
  Al0+  Al55  1  0.50060321  0.00036807  0.33050091  1
  Al0+  Al56  1  0.50021225  -0.00007026  0.66343597  1
  Al0+  Al57  1  0.49987875  0.50030138  -0.00195324  1
  Al0+  Al58  1  0.49923427  0.49801749  0.33029196  1
  Al0+  Al59  1  0.50133333  0.49849344  0.66117520  1
  Al0+  Al60  1  0.24630310  0.24886365  0.00670423  1
  Al0+  Al61  1  0.24987391  0.24997386  0.33818689  1
  Al0+  Al62  1  0.24906550  0.24854059  0.66914034  1
  Al0+  Al63  1  0.24806359  0.74787993  0.00455270  1
  Al0+  Al64  1  0.25232170  0.74857756  0.33074904  1
  Al0+  Al65  1  0.25080567  0.74700976  0.66286546  1
  Al0+  Al66  1  0.74949249  0.25139680  -0.00262587  1
  Al0+  Al67  1  0.75044040  0.25124226  0.33178872  1
  Al0+  Al68  1  0.75013949  0.25263767  0.66505760  1
  Al0+  Al69  1  0.74973707  0.75164988  -0.00132784  1
  Al0+  Al70  1  0.75139461  0.75067092  0.32968156  1
  Al0+  Al71  1  0.75231858  0.75064270  0.67183335  1
  Al0+  Al72  1  0.17951116  0.43037286  0.34969809  1
  Al0+  Al73  1  0.93021985  0.31863876  0.65290379  1
  Al0+  Al74  1  0.81869073  0.57182975  0.34629066  1
  Al0+  Al75  1  0.17657979  0.42914198  0.01628262  1
  Al0+  Al76  1  0.57141650  0.67935948  0.31680169  1
  Al0+  Al77  1  0.82074999  0.07214054  0.34765010  1
  Al0+  Al78  1  0.31991472  0.06860132  0.01239555  1
  Al0+  Al79  1  0.67843487  0.92925187  0.68082200  1
  Al0+  Al80  1  0.93141161  0.82344795  0.32140513  1
  Al0+  Al81  1  0.42939359  0.82187510  0.65170985  1
  Al0+  Al82  1  0.32315628  0.57155322  0.01502508  1
  Al0+  Al83  1  0.82190097  0.07450304  0.68251790  1
  Al0+  Al84  1  0.18125274  0.92862030  0.34590886  1
  Al0+  Al85  1  0.42770652  0.82195849  0.31447189  1
  Al0+  Al86  1  0.93010637  0.32099837  0.31786344  1
  Al0+  Al87  1  0.17873278  0.42921011  0.68069523  1
  Al0+  Al88  1  0.57099127  0.67857046  0.98362346  1
  Al0+  Al89  1  0.57508099  0.67800485  0.65052063  1
  Al0+  Al90  1  0.07016030  0.67862526  0.65400933  1
  Al0+  Al91  1  0.18080585  0.92546285  0.67970634  1
  Al0+  Al92  1  0.81946558  0.57014152  0.68015052  1
  Al0+  Al93  1  0.57008929  0.17811812  0.98576882  1
  Al0+  Al94  1  0.82032490  0.07354327  0.01673538  1
  Al0+  Al95  1  0.67891279  0.92769850  0.01746777  1
  Si0+  Si96  1  0.42679052  0.31935396  0.31796530  1
  Si0+  Si97  1  0.32467878  0.07227178  0.35095512  1
  Si0+  Si98  1  0.07478566  0.17614678  0.64980920  1
  Si0+  Si99  1  0.42657247  0.32065434  0.65230586  1
  Si0+  Si100  1  0.17601346  0.92641796  0.01612374  1
  Si0+  Si101  1  0.82008909  0.57124627  0.01502432  1
  Si0+  Si102  1  0.67632246  0.42731659  0.34871700  1
  Si0+  Si103  1  0.67837790  0.92851853  0.34988956  1
  Si0+  Si104  1  0.07181192  0.67657782  0.31572409  1
  Si0+  Si105  1  0.42528213  0.82089699  0.98325265  1
  Si0+  Si106  1  0.06902289  0.67898139  0.98621813  1
  Si0+  Si107  1  0.42564342  0.32066722  0.98391902  1
  Si0+  Si108  1  0.67509133  0.42719059  0.68377224  1
  Si0+  Si109  1  0.57125307  0.18034762  0.31835698  1
  Si0+  Si110  1  0.92956719  0.82305518  0.98418045  1
  Si0+  Si111  1  0.57046673  0.17989615  0.65109464  1
  Si0+  Si112  1  0.07152152  0.17874913  0.98426738  1
  Si0+  Si113  1  0.67899349  0.42880559  0.01291571  1
  Si0+  Si114  1  0.32432652  0.57099710  0.35182280  1
  Si0+  Si115  1  0.93033337  0.82417632  0.65326068  1
  Si0+  Si116  1  0.07288532  0.17851178  0.31649354  1
  Si0+  Si117  1  0.92965776  0.32272010  0.98428765  1
  Si0+  Si118  1  0.32236555  0.07238603  0.68228106  1
  Si0+  Si119  1  0.32405145  0.56970999  0.68122048  1
  O2-  O120  1  0.24680514  -0.00696895  0.05972612  1
  O2-  O121  1  0.25916708  0.00012049  0.39351634  1
  O2-  O122  1  0.25607711  0.00054686  0.72493855  1
  O2-  O123  1  0.25178010  0.49839728  0.06491436  1
  O2-  O124  1  0.25189051  0.50671030  0.39718207  1
  O2-  O125  1  0.25558712  0.50132737  0.72657323  1
  O2-  O126  1  0.75019683  0.00071403  0.06737565  1
  O2-  O127  1  0.74828048  -0.00413976  0.39436068  1
  O2-  O128  1  0.75060968  0.00141521  0.73092178  1
  O2-  O129  1  0.74565697  0.50327115  0.05571082  1
  O2-  O130  1  0.74180560  0.49883810  0.39220392  1
  O2-  O131  1  0.74031787  0.49964846  0.72718122  1
  O2-  O132  1  0.00509289  0.24719649  0.27008475  1
  O2-  O133  1  0.00261875  0.24147941  0.60616267  1
  O2-  O134  1  0.00074206  0.25111991  0.94335964  1
  O2-  O135  1  0.00696511  0.74962642  0.27194941  1
  O2-  O136  1  -0.00008944  0.75744820  0.60760948  1
  O2-  O137  1  0.00284146  0.75390487  0.94290541  1
  O2-  O138  1  0.49783120  0.24881890  0.27554291  1
  O2-  O139  1  0.49850015  0.25054379  0.60907234  1
  O2-  O140  1  0.49240251  0.25056216  0.93826268  1
  O2-  O141  1  0.49984816  0.75038751  0.26462349  1
  O2-  O142  1  0.50400769  0.75178698  0.60272875  1
  O2-  O143  1  0.49348860  0.75157695  0.93923579  1
  O2-  O144  1  0.07206014  0.17626217  0.08913289  1
  O2-  O145  1  0.07321749  0.17907693  0.42195716  1
  O2-  O146  1  0.07863944  0.17907120  0.75564728  1
  O2-  O147  1  0.06621787  0.67704882  0.09107046  1
  O2-  O148  1  0.06897763  0.67563599  0.42141471  1
  O2-  O149  1  0.06895082  0.67885938  0.76791692  1
  O2-  O150  1  0.56997764  0.18311292  0.09916847  1
  O2-  O151  1  0.57009394  0.18254250  0.42382352  1
  O2-  O152  1  0.56932015  0.18060066  0.75613430  1
  O2-  O153  1  0.57247847  0.67850461  0.09635551  1
  O2-  O154  1  0.57173009  0.68036185  0.42996657  1
  O2-  O155  1  0.57089604  0.67710883  0.76427708  1
  O2-  O156  1  0.18175601  0.43079866  0.23672602  1
  O2-  O157  1  0.17992199  0.42999086  0.56759999  1
  O2-  O158  1  0.17518118  0.43125321  0.90258293  1
  O2-  O159  1  0.17976506  0.93483191  0.23264395  1
  O2-  O160  1  0.17984576  0.92716218  0.56675043  1
  O2-  O161  1  0.17626831  0.92591591  0.91046229  1
  O2-  O162  1  0.67750825  0.42459336  0.24266944  1
  O2-  O163  1  0.67502684  0.42247058  0.57842637  1
  O2-  O164  1  0.68140684  0.42604365  0.90801051  1
  O2-  O165  1  0.67867146  0.93102081  0.24436649  1
  O2-  O166  1  0.67902269  0.93244566  0.56688535  1
  O2-  O167  1  0.68076482  0.92792995  0.90402465  1
  O2-  O168  1  0.42857945  0.31954801  0.08985363  1
  O2-  O169  1  0.42751519  0.31813081  0.42343365  1
  O2-  O170  1  0.42658153  0.32004510  0.75717293  1
  O2-  O171  1  0.42527351  0.81990941  0.08858891  1
  O2-  O172  1  0.42930343  0.82119627  0.42775348  1
  O2-  O173  1  0.42807536  0.82052672  0.76558616  1
  O2-  O174  1  0.92979606  0.32454640  0.08936201  1
  O2-  O175  1  0.93043311  0.32074506  0.43062139  1
  O2-  O176  1  0.93208800  0.31950697  0.76663300  1
  O2-  O177  1  0.93035845  0.82255639  0.08948997  1
  O2-  O178  1  0.93259756  0.82330633  0.43435496  1
  O2-  O179  1  0.93229275  0.82111279  0.75935206  1
  O2-  O180  1  0.32340687  0.07576165  0.24536557  1
  O2-  O181  1  0.32081419  0.07752704  0.57688096  1
  O2-  O182  1  0.31731222  0.06836206  0.89926101  1
  O2-  O183  1  0.32500187  0.56650852  0.24622660  1
  O2-  O184  1  0.32425282  0.56637456  0.57572133  1
  O2-  O185  1  0.32122301  0.57023942  0.90113021  1
  O2-  O186  1  0.81739706  0.07291249  0.23475578  1
  O2-  O187  1  0.81946095  0.07456625  0.56859358  1
  O2-  O188  1  0.81950238  0.07317273  0.90355523  1
  O2-  O189  1  0.81838565  0.56949994  0.23243551  1
  O2-  O190  1  0.82130849  0.56863358  0.56734296  1
  O2-  O191  1  0.82368357  0.56905205  0.91003505  1
  O2-  O192  1  0.04730398  0.08567467  0.26947384  1
  O2-  O193  1  0.05211856  0.08034552  0.60734271  1
  O2-  O194  1  0.04368664  0.08761945  0.93446350  1
  O2-  O195  1  0.04042462  0.58545673  0.26821711  1
  O2-  O196  1  0.03417043  0.58416396  0.60007389  1
  O2-  O197  1  0.03602798  0.58867848  0.93797711  1
  O2-  O198  1  0.54634637  0.08824080  0.27092103  1
  O2-  O199  1  0.54272988  0.08973199  0.60099894  1
  O2-  O200  1  0.53882467  0.08110465  0.93301601  1
  O2-  O201  1  0.54468095  0.57829091  0.26616630  1
  O2-  O202  1  0.54883076  0.57826873  0.59791884  1
  O2-  O203  1  0.54481313  0.57975040  0.93057590  1
  O2-  O204  1  0.16789464  0.20400396  0.27205263  1
  O2-  O205  1  0.16727278  0.20349559  0.60204932  1
  O2-  O206  1  0.16341410  0.20619827  0.93640381  1
  O2-  O207  1  0.16741377  0.69634181  0.27192389  1
  O2-  O208  1  0.16727431  0.70272826  0.59885643  1
  O2-  O209  1  0.16274489  0.70210780  0.94005230  1
  O2-  O210  1  0.66075702  0.21195473  0.26926367  1
  O2-  O211  1  0.66057514  0.21112821  0.60254271  1
  O2-  O212  1  0.66463283  0.21449648  0.93058331  1
  O2-  O213  1  0.66994451  0.70735775  0.26337896  1
  O2-  O214  1  0.67509563  0.70639302  0.60138765  1
  O2-  O215  1  0.66854371  0.71043359  0.93119623  1
  O2-  O216  1  0.07979807  0.46311350  0.07006557  1
  O2-  O217  1  0.08217889  0.46043939  0.40145129  1
  O2-  O218  1  0.08391152  0.46213592  0.73543194  1
  O2-  O219  1  0.08341732  0.95734188  0.06085920  1
  O2-  O220  1  0.08700662  0.96257082  0.40229868  1
  O2-  O221  1  0.08679604  0.95650586  0.73881097  1
  O2-  O222  1  0.58544241  0.45042352  0.05936909  1
  O2-  O223  1  0.58073055  0.44679834  0.39343020  1
  O2-  O224  1  0.57966328  0.44686299  0.72885903  1
  O2-  O225  1  0.58019308  0.95397198  0.06926856  1
  O2-  O226  1  0.58493512  0.95708573  0.39492255  1
  O2-  O227  1  0.57958325  0.95915904  0.73235571  1
  O2-  O228  1  0.20000006  0.33017578  0.06959091  1
  O2-  O229  1  0.21153782  0.33380236  0.40348184  1
  O2-  O230  1  0.20849955  0.33172071  0.73376634  1
  O2-  O231  1  0.19558959  0.83218528  0.06266268  1
  O2-  O232  1  0.20698381  0.82921863  0.39701214  1
  O2-  O233  1  0.21101095  0.82854712  0.73386957  1
  O2-  O234  1  0.71032834  0.33936600  0.06287144  1
  O2-  O235  1  0.70435965  0.33516254  0.39615647  1
  O2-  O236  1  0.70551534  0.33587560  0.73204365  1
  O2-  O237  1  0.71187722  0.83019843  0.07016097  1
  O2-  O238  1  0.70326531  0.83440979  0.39313316  1
  O2-  O239  1  0.70696193  0.83221752  0.73570337  1
  O2-  O240  1  0.45370205  0.41041855  0.26907301  1
  O2-  O241  1  0.45316887  0.41093102  0.60143929  1
  O2-  O242  1  0.45342622  0.41295680  0.93677598  1
  O2-  O243  1  0.45328962  0.92296296  0.26446286  1
  O2-  O244  1  0.45238537  0.92182338  0.59776159  1
  O2-  O245  1  0.44998373  0.91512924  0.93870099  1
  O2-  O246  1  0.96121446  0.41763135  0.26329835  1
  O2-  O247  1  0.96453248  0.41408542  0.59944900  1
  O2-  O248  1  0.95814423  0.41496969  0.93727384  1
  O2-  O249  1  0.96386039  0.91940940  0.26561094  1
  O2-  O250  1  0.95442771  0.91977878  0.61106389  1
  O2-  O251  1  0.95437873  0.91587135  0.93740342  1
  O2-  O252  1  0.33523360  0.29063204  0.27068992  1
  O2-  O253  1  0.33589979  0.28987396  0.60354272  1
  O2-  O254  1  0.33007807  0.29627054  0.94151572  1
  O2-  O255  1  0.32876427  0.79465258  0.26116242  1
  O2-  O256  1  0.33284452  0.78918447  0.59739279  1
  O2-  O257  1  0.32952216  0.79659673  0.93957292  1
  O2-  O258  1  0.83247978  0.29183643  0.26396746  1
  O2-  O259  1  0.83204818  0.29366838  0.59824297  1
  O2-  O260  1  0.83797973  0.29588611  0.93632968  1
  O2-  O261  1  0.83655066  0.79152971  0.26451094  1
  O2-  O262  1  0.83714625  0.79779288  0.60820784  1
  O2-  O263  1  0.83932735  0.79179639  0.93648001  1
  O2-  O264  1  0.41608539  0.04185116  0.06847980  1
  O2-  O265  1  0.41994062  0.05116896  0.39575742  1
  O2-  O266  1  0.41704768  0.04960898  0.72645166  1
  O2-  O267  1  0.42151158  0.54216870  0.06783657  1
  O2-  O268  1  0.41613346  0.53927877  0.39812043  1
  O2-  O269  1  0.41778550  0.54257383  0.72658025  1
  O2-  O270  1  0.92035364  0.04728629  0.06774769  1
  O2-  O271  1  0.91856813  0.04548686  0.40006930  1
  O2-  O272  1  0.92127728  0.05170663  0.73565308  1
  O2-  O273  1  0.90929103  0.54017048  0.06496389  1
  O2-  O274  1  0.91423411  0.53846967  0.39991776  1
  O2-  O275  1  0.91306524  0.53327254  0.73700699  1
  O2-  O276  1  0.28906684  0.16418874  0.06905751  1
  O2-  O277  1  0.29712265  0.16453310  0.39904593  1
  O2-  O278  1  0.29477407  0.16392941  0.73190739  1
  O2-  O279  1  0.29233898  0.66819678  0.07044416  1
  O2-  O280  1  0.30371244  0.66669408  0.39385345  1
  O2-  O281  1  0.29794729  0.66266376  0.72686610  1
  O2-  O282  1  0.79097022  0.17306036  0.06726581  1
  O2-  O283  1  0.78646155  0.16857685  0.40019431  1
  O2-  O284  1  0.79026933  0.17287612  0.73361466  1
  O2-  O285  1  0.79517724  0.66424811  0.06047163  1
  O2-  O286  1  0.79178739  0.66963434  0.39970176  1
  O2-  O287  1  0.79593567  0.66698243  0.73714425  1
