# generated using pymatgen
data_Ca2Al2SiO7
_symmetry_space_group_name_H-M   'P 1'
_cell_length_a   15.45953209
_cell_length_b   15.45947906
_cell_length_c   15.28433112
_cell_angle_alpha   89.99578683
_cell_angle_beta   89.99527464
_cell_angle_gamma   90.01483292
_symmetry_Int_Tables_number   1
_chemical_formula_structural   Ca2Al2SiO7
_chemical_formula_sum   'Ca48 Al48 Si24 O168'
_cell_volume   3652.89863216
_cell_formula_units_Z   24
loop_
 _symmetry_equiv_pos_site_id
 _symmetry_equiv_pos_as_xyz
  1  'x, y, z'
loop_
 _atom_type_symbol
 _atom_type_oxidation_number
  Ca2+  2.0
  Al0+  0.0
  Si0+  0.0
  O2-  -2.0
loop_
 _atom_site_type_symbol
 _atom_site_label
 _atom_site_symmetry_multiplicity
 _atom_site_fract_x
 _atom_site_fract_y
 _atom_site_fract_z
 _atom_site_occupancy
  Ca2+  Ca0  1  0.17098247  0.08836019  0.17178908  1
  Ca2+  Ca1  1  0.17234515  0.09259393  0.49680844  1
  Ca2+  Ca2  1  0.16796697  0.07724584  0.84742597  1
  Ca2+  Ca3  1  0.16490971  0.57062207  0.17142412  1
  Ca2+  Ca4  1  0.16534266  0.58331820  0.50202673  1
  Ca2+  Ca5  1  0.17257486  0.58362938  0.83945470  1
  Ca2+  Ca6  1  0.66618680  0.08515458  0.16272962  1
  Ca2+  Ca7  1  0.66720789  0.07613282  0.50601564  1
  Ca2+  Ca8  1  0.67301500  0.07464699  0.84296823  1
  Ca2+  Ca9  1  0.68069503  0.58569243  0.17058487  1
  Ca2+  Ca10  1  0.67984159  0.57660449  0.50821418  1
  Ca2+  Ca11  1  0.67915986  0.57726831  0.83559939  1
  Ca2+  Ca12  1  0.08614498  0.32853291  0.16596559  1
  Ca2+  Ca13  1  0.07363200  0.33553158  0.49066741  1
  Ca2+  Ca14  1  0.08229387  0.33014933  0.83431717  1
  Ca2+  Ca15  1  0.08855994  0.82662482  0.16214943  1
  Ca2+  Ca16  1  0.07920461  0.81908578  0.49874081  1
  Ca2+  Ca17  1  0.07691610  0.82976073  0.82517463  1
  Ca2+  Ca18  1  0.57246389  0.33032602  0.15912540  1
  Ca2+  Ca19  1  0.57631012  0.34015405  0.49537749  1
  Ca2+  Ca20  1  0.58911335  0.32792844  0.82946484  1
  Ca2+  Ca21  1  0.57804941  0.83778935  0.16289782  1
  Ca2+  Ca22  1  0.57948752  0.83277657  0.49467246  1
  Ca2+  Ca23  1  0.58539655  0.83729460  0.83086046  1
  Ca2+  Ca24  1  0.32147732  0.41119125  0.17080740  1
  Ca2+  Ca25  1  0.32502592  0.41637670  0.50296630  1
  Ca2+  Ca26  1  0.32598302  0.42964982  0.84076752  1
  Ca2+  Ca27  1  0.32985723  0.92677451  0.16848914  1
  Ca2+  Ca28  1  0.33555094  0.92007006  0.49859698  1
  Ca2+  Ca29  1  0.32226492  0.92172347  0.84349056  1
  Ca2+  Ca30  1  0.84053511  0.42548628  0.17259180  1
  Ca2+  Ca31  1  0.83868487  0.42225174  0.50531695  1
  Ca2+  Ca32  1  0.84105426  0.42506281  0.83304564  1
  Ca2+  Ca33  1  0.83092711  0.92405930  0.16505619  1
  Ca2+  Ca34  1  0.83011662  0.91631025  0.50821402  1
  Ca2+  Ca35  1  0.82588314  0.91567114  0.84091952  1
  Ca2+  Ca36  1  0.41452619  0.16646139  0.16144198  1
  Ca2+  Ca37  1  0.41910120  0.17260070  0.48854049  1
  Ca2+  Ca38  1  0.42085922  0.16190826  0.83659165  1
  Ca2+  Ca39  1  0.41190462  0.67328349  0.16115230  1
  Ca2+  Ca40  1  0.41671806  0.67022027  0.49330020  1
  Ca2+  Ca41  1  0.41396382  0.66340587  0.82741211  1
  Ca2+  Ca42  1  0.92610151  0.16961377  0.15806217  1
  Ca2+  Ca43  1  0.92096447  0.18115685  0.49197106  1
  Ca2+  Ca44  1  0.92055331  0.16719553  0.82936718  1
  Ca2+  Ca45  1  0.92050707  0.65935069  0.16551359  1
  Ca2+  Ca46  1  0.92223528  0.66140403  0.49681351  1
  Ca2+  Ca47  1  0.91929974  0.66842839  0.82399451  1
  Al0+  Al48  1  -0.00234922  -0.00164174  0.00263026  1
  Al0+  Al49  1  -0.00022432  -0.00173392  0.33414770  1
  Al0+  Al50  1  0.00255869  -0.00065640  0.65967385  1
  Al0+  Al51  1  0.00120597  0.50031856  0.00509625  1
  Al0+  Al52  1  0.00100264  0.50091342  0.33434378  1
  Al0+  Al53  1  0.00220783  0.49714910  0.66435261  1
  Al0+  Al54  1  0.49851815  -0.00001143  0.00037477  1
  Al0+  Al55  1  0.49851291  -0.00098108  0.33374411  1
  Al0+  Al56  1  0.50101987  0.00036232  0.66961811  1
  Al0+  Al57  1  0.50075482  0.50293244  0.00100300  1
  Al0+  Al58  1  0.50113287  0.50100557  0.32554394  1
  Al0+  Al59  1  0.49985604  0.49938638  0.67302671  1
  Al0+  Al60  1  0.24914840  0.25144656  -0.00165901  1
  Al0+  Al61  1  0.25112212  0.25048120  0.33720752  1
  Al0+  Al62  1  0.25364177  0.25076110  0.66912442  1
  Al0+  Al63  1  0.25038769  0.75104700  0.00385213  1
  Al0+  Al64  1  0.24962634  0.75132898  0.32445527  1
  Al0+  Al65  1  0.25048950  0.75234192  0.66543377  1
  Al0+  Al66  1  0.74854285  0.25101369  -0.00212620  1
  Al0+  Al67  1  0.74926192  0.25015446  0.33068398  1
  Al0+  Al68  1  0.75000813  0.24712567  0.66357560  1
  Al0+  Al69  1  0.74813039  0.74925943  0.00780671  1
  Al0+  Al70  1  0.75054491  0.75022019  0.33816609  1
  Al0+  Al71  1  0.74784824  0.74977690  0.66978552  1
  Al0+  Al72  1  0.31900887  0.07119776  0.01395830  1
  Al0+  Al73  1  0.92558107  0.82119745  0.65265241  1
  Al0+  Al74  1  0.82031434  0.56947493  0.01408990  1
  Al0+  Al75  1  0.82116553  0.07368531  0.01420965  1
  Al0+  Al76  1  0.82373189  0.56915332  0.68165149  1
  Al0+  Al77  1  0.07047061  0.17791922  0.98627970  1
  Al0+  Al78  1  0.17959628  0.43000499  0.01528083  1
  Al0+  Al79  1  0.82051782  0.56944596  0.34943669  1
  Al0+  Al80  1  0.31960300  0.06930816  0.34860514  1
  Al0+  Al81  1  0.67795291  0.42633573  0.68127923  1
  Al0+  Al82  1  0.06934289  0.68021952  0.31735163  1
  Al0+  Al83  1  0.67921694  0.92905131  0.67986660  1
  Al0+  Al84  1  0.42951299  0.32218833  0.32015370  1
  Al0+  Al85  1  0.92975921  0.31820473  0.65392020  1
  Al0+  Al86  1  0.42994253  0.82108981  0.31822737  1
  Al0+  Al87  1  0.92776686  0.32217475  0.31655481  1
  Al0+  Al88  1  0.56998048  0.17973649  0.98454857  1
  Al0+  Al89  1  0.17526298  0.92843033  0.01461192  1
  Al0+  Al90  1  0.31922223  0.57248349  0.67710549  1
  Al0+  Al91  1  0.32329588  0.57264521  0.01645145  1
  Al0+  Al92  1  0.18155842  0.42974344  0.34955205  1
  Al0+  Al93  1  0.07051543  0.17865679  0.31919417  1
  Al0+  Al94  1  0.67824810  0.92914259  0.01700304  1
  Al0+  Al95  1  0.07230849  0.67871125  0.65327967  1
  Si0+  Si96  1  0.67951256  0.93120333  0.34925574  1
  Si0+  Si97  1  0.43007465  0.82227069  0.65247576  1
  Si0+  Si98  1  0.57276144  0.67954159  0.98328472  1
  Si0+  Si99  1  0.82256387  0.07258973  0.34931034  1
  Si0+  Si100  1  0.42746320  0.32460164  0.98026958  1
  Si0+  Si101  1  0.17664789  0.92497078  0.35257464  1
  Si0+  Si102  1  0.92647264  0.81925644  0.98723158  1
  Si0+  Si103  1  0.43033920  0.32183358  0.65264386  1
  Si0+  Si104  1  0.32333879  0.57423416  0.34778561  1
  Si0+  Si105  1  0.82397534  0.07060102  0.68009404  1
  Si0+  Si106  1  0.07037276  0.67915330  0.98550242  1
  Si0+  Si107  1  0.18029567  0.93034663  0.67933234  1
  Si0+  Si108  1  0.17854361  0.42581422  0.68396388  1
  Si0+  Si109  1  0.57389556  0.67946337  0.31626506  1
  Si0+  Si110  1  0.32198781  0.07218635  0.68213345  1
  Si0+  Si111  1  0.56955425  0.67707334  0.65301241  1
  Si0+  Si112  1  0.67709022  0.42699866  0.01713208  1
  Si0+  Si113  1  0.57134771  0.17645596  0.31730156  1
  Si0+  Si114  1  0.67555817  0.42666865  0.34760468  1
  Si0+  Si115  1  0.56936017  0.17735550  0.65118161  1
  Si0+  Si116  1  0.07648943  0.17677611  0.65015898  1
  Si0+  Si117  1  0.92486405  0.82247298  0.31542285  1
  Si0+  Si118  1  0.92807963  0.32357231  0.98303646  1
  Si0+  Si119  1  0.42926218  0.81985371  0.98253987  1
  O2-  O120  1  0.24234358  0.00490522  0.06443926  1
  O2-  O121  1  0.24323341  -0.00353803  0.39702857  1
  O2-  O122  1  0.24622484  0.00581507  0.72205753  1
  O2-  O123  1  0.25418011  0.49898048  0.06624961  1
  O2-  O124  1  0.25741014  0.50492209  0.39473768  1
  O2-  O125  1  0.24291630  0.50023617  0.72488042  1
  O2-  O126  1  0.74786601  0.00356420  0.06613732  1
  O2-  O127  1  0.75128061  0.00124512  0.39175787  1
  O2-  O128  1  0.76014319  -0.00239391  0.72457602  1
  O2-  O129  1  0.74768922  0.49309074  0.06158290  1
  O2-  O130  1  0.74625484  0.49251423  0.39287033  1
  O2-  O131  1  0.75303608  0.49514242  0.73125559  1
  O2-  O132  1  -0.00343860  0.24710287  0.26735664  1
  O2-  O133  1  0.00632735  0.24463620  0.60797902  1
  O2-  O134  1  -0.00639889  0.25096023  0.93938976  1
  O2-  O135  1  -0.00511334  0.75571096  0.27074938  1
  O2-  O136  1  -0.00570432  0.74530589  0.60352166  1
  O2-  O137  1  -0.00050434  0.75054821  0.94413446  1
  O2-  O138  1  0.50586855  0.24867201  0.27467479  1
  O2-  O139  1  0.50149606  0.25119390  0.60903997  1
  O2-  O140  1  0.49693519  0.25604068  0.93595702  1
  O2-  O141  1  0.50235356  0.74450414  0.27109572  1
  O2-  O142  1  0.49955777  0.74960864  0.61041991  1
  O2-  O143  1  0.49895055  0.74763990  0.93972777  1
  O2-  O144  1  0.07096023  0.17919358  0.09864993  1
  O2-  O145  1  0.06854720  0.18128870  0.43349086  1
  O2-  O146  1  0.07738441  0.17492494  0.75572446  1
  O2-  O147  1  0.06872489  0.67886336  0.09045094  1
  O2-  O148  1  0.06980947  0.68127492  0.43059017  1
  O2-  O149  1  0.07523901  0.68380672  0.76720951  1
  O2-  O150  1  0.56769451  0.18163146  0.09771429  1
  O2-  O151  1  0.56963373  0.17416120  0.42357905  1
  O2-  O152  1  0.56663258  0.17492344  0.75586532  1
  O2-  O153  1  0.57387587  0.68171305  0.08826294  1
  O2-  O154  1  0.57364726  0.68110303  0.42232823  1
  O2-  O155  1  0.56781444  0.67749985  0.75807851  1
  O2-  O156  1  0.18241726  0.42895429  0.23705195  1
  O2-  O157  1  0.18205021  0.42111220  0.57859412  1
  O2-  O158  1  0.17848416  0.43339354  0.90105485  1
  O2-  O159  1  0.17832586  0.92450874  0.24742845  1
  O2-  O160  1  0.18378227  0.92801871  0.57450752  1
  O2-  O161  1  0.17827112  0.92662306  0.89989505  1
  O2-  O162  1  0.67377992  0.42862644  0.24225021  1
  O2-  O163  1  0.67310777  0.43111506  0.56780695  1
  O2-  O164  1  0.67681577  0.42908172  0.91148436  1
  O2-  O165  1  0.67884159  0.93169563  0.24472249  1
  O2-  O166  1  0.67349534  0.93378106  0.56651169  1
  O2-  O167  1  0.68076840  0.92825827  0.90325500  1
  O2-  O168  1  0.42913631  0.32418381  0.08589914  1
  O2-  O169  1  0.43164599  0.32158937  0.43421339  1
  O2-  O170  1  0.42855035  0.31974268  0.75724505  1
  O2-  O171  1  0.43100990  0.81979651  0.08745382  1
  O2-  O172  1  0.43350583  0.82118852  0.43234927  1
  O2-  O173  1  0.42986767  0.82365673  0.75742216  1
  O2-  O174  1  0.92916482  0.32449985  0.08825770  1
  O2-  O175  1  0.92809340  0.32036491  0.43057258  1
  O2-  O176  1  0.93082974  0.31602087  0.76716832  1
  O2-  O177  1  0.92535187  0.81708741  0.09222779  1
  O2-  O178  1  0.92325929  0.82157712  0.42113115  1
  O2-  O179  1  0.92908438  0.82355237  0.76660239  1
  O2-  O180  1  0.32189869  0.06799931  0.23641642  1
  O2-  O181  1  0.32448427  0.07208262  0.57702242  1
  O2-  O182  1  0.31947339  0.06634276  0.89940525  1
  O2-  O183  1  0.32139762  0.57332319  0.24273986  1
  O2-  O184  1  0.32147401  0.57133062  0.56405153  1
  O2-  O185  1  0.32019509  0.57343227  0.90214462  1
  O2-  O186  1  0.82169910  0.07202150  0.24475805  1
  O2-  O187  1  0.81937615  0.07116438  0.57414899  1
  O2-  O188  1  0.82141103  0.07023589  0.90008629  1
  O2-  O189  1  0.81771615  0.57086667  0.23622045  1
  O2-  O190  1  0.82113523  0.56846195  0.56814694  1
  O2-  O191  1  0.82087992  0.57056664  0.90119933  1
  O2-  O192  1  0.04725533  0.07715340  0.27036044  1
  O2-  O193  1  0.05554178  0.08323434  0.60211309  1
  O2-  O194  1  0.04035652  0.07961554  0.93305241  1
  O2-  O195  1  0.03662964  0.58464651  0.26396799  1
  O2-  O196  1  0.05204449  0.57793841  0.60247849  1
  O2-  O197  1  0.04207648  0.58733116  0.93855913  1
  O2-  O198  1  0.54178089  0.08469255  0.27085558  1
  O2-  O199  1  0.53654702  0.08732029  0.60193393  1
  O2-  O200  1  0.53708361  0.08286522  0.93049748  1
  O2-  O201  1  0.55464883  0.58542364  0.26905759  1
  O2-  O202  1  0.53982630  0.58598853  0.60519847  1
  O2-  O203  1  0.54857361  0.58658511  0.93577489  1
  O2-  O204  1  0.16953131  0.20862070  0.27018805  1
  O2-  O205  1  0.17095459  0.20445868  0.60596270  1
  O2-  O206  1  0.16672448  0.20918706  0.93003194  1
  O2-  O207  1  0.16510824  0.70979364  0.26160522  1
  O2-  O208  1  0.16813029  0.71482191  0.59789940  1
  O2-  O209  1  0.16310697  0.70753744  0.93990608  1
  O2-  O210  1  0.66601455  0.19716824  0.27228278  1
  O2-  O211  1  0.66224175  0.19872946  0.60318254  1
  O2-  O212  1  0.66715874  0.20840831  0.92897800  1
  O2-  O213  1  0.66598057  0.71102050  0.27050677  1
  O2-  O214  1  0.66092832  0.70462264  0.60499332  1
  O2-  O215  1  0.66365672  0.71121246  0.93588503  1
  O2-  O216  1  0.08355637  0.46065966  0.07050165  1
  O2-  O217  1  0.08567710  0.46313746  0.40276238  1
  O2-  O218  1  0.08382899  0.44543511  0.72842409  1
  O2-  O219  1  0.07532535  0.94646223  0.06638472  1
  O2-  O220  1  0.08132719  0.94594548  0.39772204  1
  O2-  O221  1  0.08647232  0.95361347  0.72503476  1
  O2-  O222  1  0.58419477  0.45500265  0.06287151  1
  O2-  O223  1  0.58223906  0.45563367  0.39384440  1
  O2-  O224  1  0.58170215  0.45647096  0.73782097  1
  O2-  O225  1  0.57948459  0.95731002  0.06767459  1
  O2-  O226  1  0.58827600  0.96028565  0.39752035  1
  O2-  O227  1  0.58470999  0.96497008  0.73589773  1
  O2-  O228  1  0.20679049  0.33120359  0.06646049  1
  O2-  O229  1  0.21358926  0.33487555  0.40606096  1
  O2-  O230  1  0.21071994  0.33483951  0.73282670  1
  O2-  O231  1  0.21017841  0.83329270  0.06887350  1
  O2-  O232  1  0.20873346  0.83254470  0.39780260  1
  O2-  O233  1  0.21269257  0.84141473  0.72940779  1
  O2-  O234  1  0.69729128  0.33234306  0.06174820  1
  O2-  O235  1  0.69530865  0.33099170  0.39274177  1
  O2-  O236  1  0.70202687  0.32488294  0.72972531  1
  O2-  O237  1  0.70709204  0.83253267  0.07235432  1
  O2-  O238  1  0.70570587  0.83922331  0.39756866  1
  O2-  O239  1  0.70076519  0.83098109  0.73423207  1
  O2-  O240  1  0.45729169  0.41791808  0.26256585  1
  O2-  O241  1  0.45819543  0.41368257  0.60538970  1
  O2-  O242  1  0.45366184  0.41951492  0.93622018  1
  O2-  O243  1  0.46485393  0.91608754  0.26412746  1
  O2-  O244  1  0.46097943  0.91348304  0.60459065  1
  O2-  O245  1  0.45789999  0.91100318  0.93428741  1
  O2-  O246  1  0.95960084  0.41961338  0.26589189  1
  O2-  O247  1  0.95949838  0.41435762  0.59882865  1
  O2-  O248  1  0.96049046  0.41584810  0.93675173  1
  O2-  O249  1  0.94798063  0.91720770  0.27116319  1
  O2-  O250  1  0.95669075  0.91821258  0.59639454  1
  O2-  O251  1  0.95004125  0.91174469  0.93939229  1
  O2-  O252  1  0.33455815  0.28759043  0.26770535  1
  O2-  O253  1  0.33885244  0.29277474  0.60433246  1
  O2-  O254  1  0.33447969  0.29886271  0.93329105  1
  O2-  O255  1  0.33404341  0.79474507  0.26221679  1
  O2-  O256  1  0.33873649  0.79670904  0.60347420  1
  O2-  O257  1  0.33648309  0.79276408  0.93545734  1
  O2-  O258  1  0.82688367  0.29891348  0.26594225  1
  O2-  O259  1  0.83349341  0.28713594  0.59788629  1
  O2-  O260  1  0.83262698  0.30403204  0.93850764  1
  O2-  O261  1  0.83112975  0.79591897  0.27038652  1
  O2-  O262  1  0.82437048  0.79914356  0.60196337  1
  O2-  O263  1  0.83474985  0.78831673  0.94085009  1
  O2-  O264  1  0.41528618  0.03813310  0.06673738  1
  O2-  O265  1  0.41591534  0.03547792  0.40382735  1
  O2-  O266  1  0.41152690  0.03920217  0.73041455  1
  O2-  O267  1  0.42437390  0.55175437  0.06675830  1
  O2-  O268  1  0.42000920  0.55223160  0.38970873  1
  O2-  O269  1  0.41379625  0.54040304  0.73423044  1
  O2-  O270  1  0.91677025  0.04178593  0.06953897  1
  O2-  O271  1  0.91369098  0.04458853  0.39813650  1
  O2-  O272  1  0.92092883  0.05127966  0.72165770  1
  O2-  O273  1  0.91637863  0.54037428  0.06869303  1
  O2-  O274  1  0.91695689  0.53941297  0.40247832  1
  O2-  O275  1  0.92317178  0.54158737  0.73351583  1
  O2-  O276  1  0.29830137  0.17215077  0.06253953  1
  O2-  O277  1  0.29097454  0.16534950  0.40542007  1
  O2-  O278  1  0.30037309  0.16531569  0.72963895  1
  O2-  O279  1  0.29492369  0.67069216  0.06791678  1
  O2-  O280  1  0.29666543  0.66881416  0.39178957  1
  O2-  O281  1  0.29276039  0.67057554  0.73149618  1
  O2-  O282  1  0.79356224  0.17265750  0.06589738  1
  O2-  O283  1  0.79345900  0.16447725  0.39672964  1
  O2-  O284  1  0.79362648  0.16160041  0.72747898  1
  O2-  O285  1  0.78616101  0.66323436  0.07084929  1
  O2-  O286  1  0.78835378  0.66617385  0.40349309  1
  O2-  O287  1  0.79263125  0.66729639  0.73337901  1
