# generated using pymatgen
data_Ca2Al2SiO7
_symmetry_space_group_name_H-M   'P 1'
_cell_length_a   15.45411924
_cell_length_b   15.45409327
_cell_length_c   15.28098108
_cell_angle_alpha   90.00024834
_cell_angle_beta   90.00737485
_cell_angle_gamma   90.01102246
_symmetry_Int_Tables_number   1
_chemical_formula_structural   Ca2Al2SiO7
_chemical_formula_sum   'Ca48 Al48 Si24 O168'
_cell_volume   3649.54744612
_cell_formula_units_Z   24
loop_
 _symmetry_equiv_pos_site_id
 _symmetry_equiv_pos_as_xyz
  1  'x, y, z'
loop_
 _atom_type_symbol
 _atom_type_oxidation_number
  Ca2+  2.0
  Al0+  0.0
  Si0+  0.0
  O2-  -2.0
loop_
 _atom_site_type_symbol
 _atom_site_label
 _atom_site_symmetry_multiplicity
 _atom_site_fract_x
 _atom_site_fract_y
 _atom_site_fract_z
 _atom_site_occupancy
  Ca2+  Ca0  1  0.15821400  0.07085901  0.17162612  1
  Ca2+  Ca1  1  0.16533977  0.07710929  0.50833643  1
  Ca2+  Ca2  1  0.16573409  0.07595263  0.83393821  1
  Ca2+  Ca3  1  0.17392159  0.58436849  0.16649155  1
  Ca2+  Ca4  1  0.17288684  0.58612902  0.50365573  1
  Ca2+  Ca5  1  0.16689361  0.58367887  0.84400057  1
  Ca2+  Ca6  1  0.66891002  0.08517344  0.16222457  1
  Ca2+  Ca7  1  0.67386567  0.07810615  0.51136295  1
  Ca2+  Ca8  1  0.67439269  0.07551963  0.84097786  1
  Ca2+  Ca9  1  0.67000534  0.57681151  0.17474452  1
  Ca2+  Ca10  1  0.66935977  0.57268871  0.51015236  1
  Ca2+  Ca11  1  0.66981059  0.58466258  0.83019770  1
  Ca2+  Ca12  1  0.08221134  0.33038900  0.16419990  1
  Ca2+  Ca13  1  0.07611489  0.31792510  0.49170762  1
  Ca2+  Ca14  1  0.08369781  0.32916352  0.82520254  1
  Ca2+  Ca15  1  0.08244421  0.83229881  0.15654138  1
  Ca2+  Ca16  1  0.09010176  0.83289661  0.49951582  1
  Ca2+  Ca17  1  0.08585446  0.82922492  0.83072594  1
  Ca2+  Ca18  1  0.58035645  0.33214525  0.16446532  1
  Ca2+  Ca19  1  0.58231196  0.33678043  0.49327979  1
  Ca2+  Ca20  1  0.58428687  0.32925642  0.83033280  1
  Ca2+  Ca21  1  0.57438661  0.83842843  0.16027798  1
  Ca2+  Ca22  1  0.58018275  0.83084685  0.49740401  1
  Ca2+  Ca23  1  0.58706312  0.83260547  0.82612950  1
  Ca2+  Ca24  1  0.33284249  0.42622741  0.17031967  1
  Ca2+  Ca25  1  0.33905165  0.42110414  0.50032205  1
  Ca2+  Ca26  1  0.32327598  0.42506734  0.84256566  1
  Ca2+  Ca27  1  0.32099449  0.91130608  0.17323257  1
  Ca2+  Ca28  1  0.32561435  0.92082949  0.50406853  1
  Ca2+  Ca29  1  0.32283951  0.91872962  0.83367264  1
  Ca2+  Ca30  1  0.82924491  0.41369371  0.17413796  1
  Ca2+  Ca31  1  0.82506651  0.41536568  0.50533693  1
  Ca2+  Ca32  1  0.83215787  0.42238718  0.83162311  1
  Ca2+  Ca33  1  0.83458332  0.91943713  0.16382437  1
  Ca2+  Ca34  1  0.82716147  0.92307530  0.51083920  1
  Ca2+  Ca35  1  0.82872820  0.92358217  0.83992520  1
  Ca2+  Ca36  1  0.42258339  0.17305427  0.16115299  1
  Ca2+  Ca37  1  0.41547813  0.17184469  0.49450231  1
  Ca2+  Ca38  1  0.42004606  0.16232913  0.82894799  1
  Ca2+  Ca39  1  0.41072837  0.66683580  0.16663459  1
  Ca2+  Ca40  1  0.42174500  0.67118037  0.49354736  1
  Ca2+  Ca41  1  0.42089558  0.66711119  0.82773829  1
  Ca2+  Ca42  1  0.91735935  0.16956683  0.16597651  1
  Ca2+  Ca43  1  0.92476822  0.16302057  0.49580643  1
  Ca2+  Ca44  1  0.91785276  0.16118372  0.82833727  1
  Ca2+  Ca45  1  0.92504781  0.67567380  0.15375518  1
  Ca2+  Ca46  1  0.92135770  0.66240690  0.50174734  1
  Ca2+  Ca47  1  0.92562510  0.67115595  0.82601437  1
  Al0+  Al48  1  -0.00177750  0.00181552  0.00394877  1
  Al0+  Al49  1  -0.00058870  -0.00257698  0.33475956  1
  Al0+  Al50  1  0.00008089  -0.00161095  0.66914107  1
  Al0+  Al51  1  -0.00015351  0.49893938  0.00096537  1
  Al0+  Al52  1  0.00146084  0.49940776  0.32897228  1
  Al0+  Al53  1  -0.00058872  0.50021073  0.66273006  1
  Al0+  Al54  1  0.50081265  0.00082548  -0.00223420  1
  Al0+  Al55  1  0.49863381  -0.00162157  0.32846505  1
  Al0+  Al56  1  0.49820136  0.00145638  0.67033549  1
  Al0+  Al57  1  0.49924704  0.50051708  0.00238015  1
  Al0+  Al58  1  0.50133409  0.49954717  0.33672993  1
  Al0+  Al59  1  0.49997845  0.50090064  0.66744927  1
  Al0+  Al60  1  0.24939310  0.25201526  0.00309186  1
  Al0+  Al61  1  0.25117158  0.24936467  0.32193656  1
  Al0+  Al62  1  0.24997052  0.25035024  0.66480689  1
  Al0+  Al63  1  0.25181951  0.75062041  0.00261850  1
  Al0+  Al64  1  0.25153298  0.74973418  0.33895256  1
  Al0+  Al65  1  0.25029319  0.75060546  0.66520749  1
  Al0+  Al66  1  0.74972374  0.24919933  -0.00187888  1
  Al0+  Al67  1  0.75137337  0.24908253  0.33515730  1
  Al0+  Al68  1  0.74809442  0.25104838  0.67345453  1
  Al0+  Al69  1  0.74880364  0.75125130  0.00123444  1
  Al0+  Al70  1  0.75133759  0.74928991  0.33359078  1
  Al0+  Al71  1  0.75035056  0.74748194  0.66661260  1
  Al0+  Al72  1  0.07169182  0.68017625  0.98565355  1
  Al0+  Al73  1  0.67744434  0.92760086  0.67966323  1
  Al0+  Al74  1  0.56987397  0.18046289  0.98437754  1
  Al0+  Al75  1  0.67593330  0.42920047  0.68454188  1
  Al0+  Al76  1  0.18081222  0.93165781  0.01380941  1
  Al0+  Al77  1  0.57169197  0.67902898  0.65244146  1
  Al0+  Al78  1  0.67774496  0.92730695  0.01729725  1
  Al0+  Al79  1  0.32012260  0.07508701  0.68060631  1
  Al0+  Al80  1  0.17944230  0.92768056  0.68260068  1
  Al0+  Al81  1  0.82166102  0.07117998  0.68119768  1
  Al0+  Al82  1  0.42963021  0.81976585  0.31963411  1
  Al0+  Al83  1  0.43034033  0.32285055  0.31874319  1
  Al0+  Al84  1  0.07239762  0.67819223  0.65109579  1
  Al0+  Al85  1  0.82076055  0.07237691  0.01826647  1
  Al0+  Al86  1  0.07086377  0.17582483  0.31642316  1
  Al0+  Al87  1  0.68156334  0.42913354  0.34623320  1
  Al0+  Al88  1  0.92785872  0.82326481  0.98363502  1
  Al0+  Al89  1  0.82332612  0.57001835  0.68160916  1
  Al0+  Al90  1  0.31919103  0.56884792  0.35005748  1
  Al0+  Al91  1  0.92854100  0.32054388  0.31864542  1
  Al0+  Al92  1  0.32196552  0.57140772  0.01515205  1
  Al0+  Al93  1  0.07032493  0.17805403  0.65459126  1
  Al0+  Al94  1  0.17879226  0.93015543  0.34834356  1
  Al0+  Al95  1  0.17587247  0.42743241  0.01606961  1
  Si0+  Si96  1  0.32349948  0.07330105  0.01773685  1
  Si0+  Si97  1  0.32036611  0.57107729  0.68035343  1
  Si0+  Si98  1  0.17685934  0.42529029  0.35079899  1
  Si0+  Si99  1  0.42815626  0.82306891  0.64972224  1
  Si0+  Si100  1  0.17946363  0.42941137  0.67695767  1
  Si0+  Si101  1  0.57089082  0.17944269  0.65235326  1
  Si0+  Si102  1  0.68006428  0.42954480  0.01489340  1
  Si0+  Si103  1  0.57267347  0.67864980  0.31664816  1
  Si0+  Si104  1  0.92854971  0.82094410  0.64909352  1
  Si0+  Si105  1  0.07116948  0.17969894  0.98491508  1
  Si0+  Si106  1  0.42894068  0.32152420  0.65262907  1
  Si0+  Si107  1  0.81926435  0.06867188  0.34898721  1
  Si0+  Si108  1  0.32363412  0.07344879  0.34651821  1
  Si0+  Si109  1  0.57295853  0.17653525  0.31778863  1
  Si0+  Si110  1  0.92783176  0.32126618  0.98329807  1
  Si0+  Si111  1  0.67623432  0.92747869  0.34766437  1
  Si0+  Si112  1  0.82091583  0.57142768  0.01492584  1
  Si0+  Si113  1  0.42785955  0.32367287  0.98194934  1
  Si0+  Si114  1  0.42919757  0.82095864  0.98414953  1
  Si0+  Si115  1  0.82493838  0.57380378  0.34867687  1
  Si0+  Si116  1  0.57129007  0.67716015  0.98617800  1
  Si0+  Si117  1  0.92650347  0.32201240  0.65067233  1
  Si0+  Si118  1  0.07225153  0.67968821  0.31880104  1
  Si0+  Si119  1  0.92731994  0.81993338  0.31890992  1
  O2-  O120  1  0.25370349  0.00702859  0.06318084  1
  O2-  O121  1  0.25141199  0.00903002  0.39113598  1
  O2-  O122  1  0.24918459  0.00270985  0.73097529  1
  O2-  O123  1  0.24850419  0.50002504  0.06397395  1
  O2-  O124  1  0.24585880  0.49255921  0.39738769  1
  O2-  O125  1  0.24567917  0.50390494  0.72135561  1
  O2-  O126  1  0.75013261  -0.00154559  0.06829809  1
  O2-  O127  1  0.74638058  -0.00116005  0.39002649  1
  O2-  O128  1  0.74910271  -0.00072159  0.72989469  1
  O2-  O129  1  0.74976896  0.50097187  0.05820606  1
  O2-  O130  1  0.75785534  0.50297321  0.39130945  1
  O2-  O131  1  0.74960777  0.50027984  0.73317840  1
  O2-  O132  1  0.00199289  0.25136524  0.26647752  1
  O2-  O133  1  -0.00837047  0.24920051  0.60806820  1
  O2-  O134  1  0.00191776  0.25276369  0.94252757  1
  O2-  O135  1  -0.00236924  0.74756735  0.27804861  1
  O2-  O136  1  -0.00175403  0.75329734  0.60352783  1
  O2-  O137  1  0.00035385  0.75159343  0.93377299  1
  O2-  O138  1  0.50399810  0.24566515  0.27429701  1
  O2-  O139  1  0.50059245  0.25094142  0.60984513  1
  O2-  O140  1  0.49294984  0.25272895  0.93634702  1
  O2-  O141  1  0.50653111  0.74823597  0.27043868  1
  O2-  O142  1  0.49988869  0.75673326  0.60618705  1
  O2-  O143  1  0.50200870  0.75022526  0.94414610  1
  O2-  O144  1  0.06943107  0.17998401  0.08986311  1
  O2-  O145  1  0.06781732  0.17495814  0.43031470  1
  O2-  O146  1  0.07226580  0.18305155  0.76785547  1
  O2-  O147  1  0.07005048  0.68170158  0.09991717  1
  O2-  O148  1  0.07136401  0.67975224  0.42408525  1
  O2-  O149  1  0.07364370  0.67649719  0.76361730  1
  O2-  O150  1  0.56931495  0.18483935  0.09803440  1
  O2-  O151  1  0.57284158  0.17479091  0.42360369  1
  O2-  O152  1  0.56968242  0.18037736  0.75717150  1
  O2-  O153  1  0.57105267  0.67448561  0.09137781  1
  O2-  O154  1  0.57241572  0.68036445  0.42212161  1
  O2-  O155  1  0.56645589  0.67711479  0.76594928  1
  O2-  O156  1  0.17649152  0.42936133  0.24552256  1
  O2-  O157  1  0.18334025  0.42863289  0.57198834  1
  O2-  O158  1  0.17757146  0.42632472  0.90151346  1
  O2-  O159  1  0.17887379  0.92835180  0.23509788  1
  O2-  O160  1  0.18271891  0.92813866  0.56878162  1
  O2-  O161  1  0.18274230  0.93147271  0.90121752  1
  O2-  O162  1  0.68208206  0.43127454  0.23245934  1
  O2-  O163  1  0.67540137  0.42889385  0.57079478  1
  O2-  O164  1  0.67994410  0.43105892  0.91021211  1
  O2-  O165  1  0.67672419  0.92688181  0.24303395  1
  O2-  O166  1  0.67781308  0.93115214  0.56493218  1
  O2-  O167  1  0.67729829  0.92800439  0.90415501  1
  O2-  O168  1  0.43178358  0.32482176  0.08750023  1
  O2-  O169  1  0.43270169  0.32191772  0.43244398  1
  O2-  O170  1  0.42824454  0.32219135  0.75755651  1
  O2-  O171  1  0.42877802  0.82016618  0.08951789  1
  O2-  O172  1  0.43253571  0.81989213  0.43260464  1
  O2-  O173  1  0.42589113  0.81990886  0.75548578  1
  O2-  O174  1  0.92513702  0.32074614  0.08828256  1
  O2-  O175  1  0.92696967  0.31712744  0.43214642  1
  O2-  O176  1  0.93032079  0.32539464  0.75649487  1
  O2-  O177  1  0.92922065  0.81947536  0.09831500  1
  O2-  O178  1  0.92389989  0.82038387  0.42372816  1
  O2-  O179  1  0.92888551  0.81963473  0.75422078  1
  O2-  O180  1  0.32702648  0.06980999  0.24114029  1
  O2-  O181  1  0.32063362  0.07688440  0.56667199  1
  O2-  O182  1  0.32229417  0.07213019  0.91213044  1
  O2-  O183  1  0.31731406  0.56970709  0.23737682  1
  O2-  O184  1  0.32167763  0.56924673  0.57519975  1
  O2-  O185  1  0.32427631  0.56918740  0.90098661  1
  O2-  O186  1  0.81914904  0.06890849  0.24424751  1
  O2-  O187  1  0.81943801  0.07009297  0.56658574  1
  O2-  O188  1  0.81889516  0.07377153  0.90517266  1
  O2-  O189  1  0.82191928  0.57672660  0.24278341  1
  O2-  O190  1  0.82349335  0.56583860  0.56763596  1
  O2-  O191  1  0.82050752  0.56985489  0.91024323  1
  O2-  O192  1  0.03608156  0.07840464  0.26470664  1
  O2-  O193  1  0.04243354  0.08025553  0.60119345  1
  O2-  O194  1  0.04122252  0.08874776  0.93812515  1
  O2-  O195  1  0.04950431  0.58676795  0.27105853  1
  O2-  O196  1  0.04132887  0.58203077  0.59476607  1
  O2-  O197  1  0.04347900  0.57999482  0.93556303  1
  O2-  O198  1  0.54733860  0.08393232  0.26937446  1
  O2-  O199  1  0.54318673  0.08762567  0.60426821  1
  O2-  O200  1  0.54073308  0.08331497  0.93041503  1
  O2-  O201  1  0.54522979  0.58547556  0.27140375  1
  O2-  O202  1  0.53624105  0.58340462  0.59800164  1
  O2-  O203  1  0.54160086  0.58612153  0.93763047  1
  O2-  O204  1  0.16991460  0.19824309  0.26242481  1
  O2-  O205  1  0.16536202  0.21282536  0.59879491  1
  O2-  O206  1  0.16473412  0.20539632  0.93937144  1
  O2-  O207  1  0.16308124  0.71141565  0.27328748  1
  O2-  O208  1  0.16927305  0.70920260  0.59649610  1
  O2-  O209  1  0.17161728  0.70729021  0.93499501  1
  O2-  O210  1  0.66601638  0.20356805  0.27210752  1
  O2-  O211  1  0.66331507  0.20720838  0.60537977  1
  O2-  O212  1  0.66540059  0.21427788  0.93036604  1
  O2-  O213  1  0.66798463  0.70123121  0.27155549  1
  O2-  O214  1  0.66966453  0.70328481  0.59770458  1
  O2-  O215  1  0.66336376  0.70298169  0.93895035  1
  O2-  O216  1  0.07724434  0.45379245  0.06979008  1
  O2-  O217  1  0.08252909  0.45118559  0.39576559  1
  O2-  O218  1  0.08614039  0.45226384  0.72254002  1
  O2-  O219  1  0.08396856  0.96123688  0.06768869  1
  O2-  O220  1  0.08092171  0.95680977  0.40234266  1
  O2-  O221  1  0.08055729  0.95228056  0.73402386  1
  O2-  O222  1  0.58788551  0.45656447  0.06206687  1
  O2-  O223  1  0.58665272  0.46136747  0.40183470  1
  O2-  O224  1  0.57831383  0.45988067  0.73805867  1
  O2-  O225  1  0.57909497  0.95942185  0.06880795  1
  O2-  O226  1  0.58372758  0.95423934  0.39393466  1
  O2-  O227  1  0.57906113  0.95425919  0.73227682  1
  O2-  O228  1  0.20486817  0.32983356  0.07076253  1
  O2-  O229  1  0.20221663  0.32927265  0.39159984  1
  O2-  O230  1  0.21082478  0.34020795  0.72688499  1
  O2-  O231  1  0.21334040  0.83574714  0.06803056  1
  O2-  O232  1  0.21381034  0.83568543  0.40333141  1
  O2-  O233  1  0.21217454  0.83019734  0.73542046  1
  O2-  O234  1  0.70951494  0.33851559  0.06173032  1
  O2-  O235  1  0.70959429  0.33171143  0.40099364  1
  O2-  O236  1  0.70291889  0.33153395  0.73861457  1
  O2-  O237  1  0.70246421  0.82786358  0.07107392  1
  O2-  O238  1  0.70508878  0.83530715  0.39438766  1
  O2-  O239  1  0.70256599  0.82805834  0.72990171  1
  O2-  O240  1  0.46546757  0.41819199  0.26472045  1
  O2-  O241  1  0.45724626  0.41311122  0.60472697  1
  O2-  O242  1  0.45697821  0.41644616  0.93555479  1
  O2-  O243  1  0.45740771  0.91603484  0.26263289  1
  O2-  O244  1  0.45112573  0.91810247  0.60478043  1
  O2-  O245  1  0.45548702  0.91288337  0.93672105  1
  O2-  O246  1  0.95266092  0.42043501  0.26487393  1
  O2-  O247  1  0.95490919  0.41304899  0.60125040  1
  O2-  O248  1  0.95380346  0.41376120  0.93623993  1
  O2-  O249  1  0.95627293  0.91075664  0.27115902  1
  O2-  O250  1  0.95350516  0.91468257  0.60248193  1
  O2-  O251  1  0.95434529  0.92340015  0.93462525  1
  O2-  O252  1  0.33463750  0.29684164  0.26104828  1
  O2-  O253  1  0.33831347  0.29406015  0.60251897  1
  O2-  O254  1  0.33203245  0.30156477  0.93869026  1
  O2-  O255  1  0.33356804  0.78468887  0.26701836  1
  O2-  O256  1  0.33672519  0.79332740  0.60176199  1
  O2-  O257  1  0.33906632  0.79080933  0.93547607  1
  O2-  O258  1  0.83068524  0.28931759  0.26483791  1
  O2-  O259  1  0.83013182  0.29992041  0.60861313  1
  O2-  O260  1  0.83726782  0.29202493  0.93450763  1
  O2-  O261  1  0.83554245  0.79341770  0.26931855  1
  O2-  O262  1  0.83534597  0.79438657  0.60177599  1
  O2-  O263  1  0.82831040  0.79422875  0.93378167  1
  O2-  O264  1  0.41713386  0.04716172  0.06250894  1
  O2-  O265  1  0.41634100  0.04453445  0.39423998  1
  O2-  O266  1  0.41778600  0.04691263  0.73474093  1
  O2-  O267  1  0.41946143  0.54083410  0.07053061  1
  O2-  O268  1  0.41671325  0.53894110  0.40294562  1
  O2-  O269  1  0.40998711  0.53991092  0.72908089  1
  O2-  O270  1  0.91861982  0.04589066  0.07283882  1
  O2-  O271  1  0.90957195  0.03712047  0.39670384  1
  O2-  O272  1  0.91933936  0.04343816  0.73425936  1
  O2-  O273  1  0.91184146  0.54293122  0.06323008  1
  O2-  O274  1  0.92009637  0.55042069  0.39228489  1
  O2-  O275  1  0.92117382  0.53909585  0.73513544  1
  O2-  O276  1  0.30194956  0.16881516  0.06146498  1
  O2-  O277  1  0.30335759  0.17006399  0.38849692  1
  O2-  O278  1  0.29283742  0.17316441  0.73541893  1
  O2-  O279  1  0.29536005  0.66940317  0.06903764  1
  O2-  O280  1  0.28736746  0.66405365  0.40596131  1
  O2-  O281  1  0.29660908  0.66386274  0.72642497  1
  O2-  O282  1  0.78744331  0.17039511  0.07073019  1
  O2-  O283  1  0.79322704  0.16033457  0.39707731  1
  O2-  O284  1  0.79560787  0.16956843  0.73404897  1
  O2-  O285  1  0.79291858  0.66260206  0.06327520  1
  O2-  O286  1  0.79867659  0.66665654  0.39668053  1
  O2-  O287  1  0.79631965  0.66824659  0.73401176  1
