# generated using pymatgen
data_Ca2Al2SiO7
_symmetry_space_group_name_H-M   'P 1'
_cell_length_a   15.46728968
_cell_length_b   15.46614278
_cell_length_c   15.29059769
_cell_angle_alpha   90.00802808
_cell_angle_beta   90.01114249
_cell_angle_gamma   90.00681318
_symmetry_Int_Tables_number   1
_chemical_formula_structural   Ca2Al2SiO7
_chemical_formula_sum   'Ca48 Al48 Si24 O168'
_cell_volume   3657.80610612
_cell_formula_units_Z   24
loop_
 _symmetry_equiv_pos_site_id
 _symmetry_equiv_pos_as_xyz
  1  'x, y, z'
loop_
 _atom_type_symbol
 _atom_type_oxidation_number
  Ca2+  2.0
  Al0+  0.0
  Si0+  0.0
  O2-  -2.0
loop_
 _atom_site_type_symbol
 _atom_site_label
 _atom_site_symmetry_multiplicity
 _atom_site_fract_x
 _atom_site_fract_y
 _atom_site_fract_z
 _atom_site_occupancy
  Ca2+  Ca0  1  0.16812195  0.07438167  0.17561013  1
  Ca2+  Ca1  1  0.15681891  0.07780125  0.49747704  1
  Ca2+  Ca2  1  0.17115652  0.07571581  0.84333870  1
  Ca2+  Ca3  1  0.16574160  0.58294607  0.17629490  1
  Ca2+  Ca4  1  0.16850349  0.58238291  0.50716024  1
  Ca2+  Ca5  1  0.16377358  0.58601613  0.83232536  1
  Ca2+  Ca6  1  0.67674025  0.07969458  0.17399140  1
  Ca2+  Ca7  1  0.68105498  0.08067351  0.50428745  1
  Ca2+  Ca8  1  0.67404967  0.08272373  0.83345409  1
  Ca2+  Ca9  1  0.66672364  0.57563613  0.17026124  1
  Ca2+  Ca10  1  0.67115357  0.57340790  0.50424054  1
  Ca2+  Ca11  1  0.66815798  0.57342978  0.83968053  1
  Ca2+  Ca12  1  0.08435341  0.32828805  0.16396479  1
  Ca2+  Ca13  1  0.08324513  0.33245927  0.49318601  1
  Ca2+  Ca14  1  0.07165316  0.33526210  0.82487830  1
  Ca2+  Ca15  1  0.08258948  0.83025637  0.16413156  1
  Ca2+  Ca16  1  0.07997435  0.82504609  0.49325337  1
  Ca2+  Ca17  1  0.08167393  0.82760998  0.83101189  1
  Ca2+  Ca18  1  0.58312408  0.33673330  0.16256547  1
  Ca2+  Ca19  1  0.57771085  0.34347975  0.49925334  1
  Ca2+  Ca20  1  0.57931302  0.33846638  0.82568892  1
  Ca2+  Ca21  1  0.58016447  0.82466016  0.15882257  1
  Ca2+  Ca22  1  0.57742112  0.83288321  0.49470716  1
  Ca2+  Ca23  1  0.58216190  0.82496378  0.83175436  1
  Ca2+  Ca24  1  0.32355513  0.42486934  0.17644124  1
  Ca2+  Ca25  1  0.31813776  0.42289093  0.50372867  1
  Ca2+  Ca26  1  0.32659095  0.41637565  0.82795603  1
  Ca2+  Ca27  1  0.32022087  0.92389923  0.17192987  1
  Ca2+  Ca28  1  0.32491767  0.91959561  0.49861300  1
  Ca2+  Ca29  1  0.32588549  0.92369435  0.84442533  1
  Ca2+  Ca30  1  0.82259638  0.40909177  0.16877795  1
  Ca2+  Ca31  1  0.82310551  0.40872181  0.50777557  1
  Ca2+  Ca32  1  0.82662337  0.40955851  0.83931421  1
  Ca2+  Ca33  1  0.84148716  0.91708442  0.17428896  1
  Ca2+  Ca34  1  0.85215997  0.92644539  0.50134197  1
  Ca2+  Ca35  1  0.84585254  0.91946128  0.83418661  1
  Ca2+  Ca36  1  0.41336421  0.16272759  0.16331932  1
  Ca2+  Ca37  1  0.41391135  0.17365880  0.49354882  1
  Ca2+  Ca38  1  0.41723111  0.17195648  0.82531901  1
  Ca2+  Ca39  1  0.42007320  0.66192227  0.16307078  1
  Ca2+  Ca40  1  0.41388851  0.65496681  0.49754335  1
  Ca2+  Ca41  1  0.42218314  0.65683816  0.82960656  1
  Ca2+  Ca42  1  0.92245460  0.16812532  0.16813957  1
  Ca2+  Ca43  1  0.91706286  0.16861215  0.49659037  1
  Ca2+  Ca44  1  0.91285888  0.17574785  0.82827581  1
  Ca2+  Ca45  1  0.92921941  0.67622067  0.15902865  1
  Ca2+  Ca46  1  0.92892336  0.67337764  0.49309825  1
  Ca2+  Ca47  1  0.92907076  0.67686866  0.82613373  1
  Al0+  Al48  1  0.00162928  0.00148204  0.00174469  1
  Al0+  Al49  1  0.00078830  0.00315168  0.33359425  1
  Al0+  Al50  1  0.00125078  0.00130919  0.67221669  1
  Al0+  Al51  1  -0.00191396  0.50068009  -0.00663850  1
  Al0+  Al52  1  -0.00485004  0.50035804  0.33053263  1
  Al0+  Al53  1  -0.00217483  0.49990322  0.66157570  1
  Al0+  Al54  1  0.50352260  0.00053372  0.00206071  1
  Al0+  Al55  1  0.50123214  0.00080391  0.33477904  1
  Al0+  Al56  1  0.50236271  -0.00159576  0.66626805  1
  Al0+  Al57  1  0.50036497  0.49766825  -0.00003666  1
  Al0+  Al58  1  0.49910734  0.49844329  0.33824049  1
  Al0+  Al59  1  0.49998776  0.49844364  0.66847773  1
  Al0+  Al60  1  0.25176451  0.25262134  0.00185175  1
  Al0+  Al61  1  0.25081050  0.25301204  0.33302868  1
  Al0+  Al62  1  0.25141317  0.25131195  0.66571102  1
  Al0+  Al63  1  0.25147891  0.75144524  0.00098269  1
  Al0+  Al64  1  0.25277920  0.75261436  0.33617499  1
  Al0+  Al65  1  0.25264886  0.75059987  0.66895365  1
  Al0+  Al66  1  0.74729277  0.24834388  0.00134325  1
  Al0+  Al67  1  0.74658061  0.24704997  0.34076142  1
  Al0+  Al68  1  0.74986453  0.24607790  0.67147641  1
  Al0+  Al69  1  0.74998804  0.74889529  -0.00865749  1
  Al0+  Al70  1  0.74723058  0.74850501  0.32988077  1
  Al0+  Al71  1  0.74837478  0.75118810  0.66162416  1
  Al0+  Al72  1  0.17503408  0.42783993  0.68245288  1
  Al0+  Al73  1  0.92955150  0.82376821  0.98432863  1
  Al0+  Al74  1  0.56940301  0.67670325  0.98595843  1
  Al0+  Al75  1  0.92749016  0.31823112  0.98829173  1
  Al0+  Al76  1  0.68164511  0.43003561  0.68187961  1
  Al0+  Al77  1  0.17852955  0.92911984  0.01659930  1
  Al0+  Al78  1  0.67960164  0.42930005  0.01474657  1
  Al0+  Al79  1  0.07145670  0.18309473  0.32015879  1
  Al0+  Al80  1  0.07379762  0.67765343  0.31815912  1
  Al0+  Al81  1  0.82142843  0.06733895  0.68290604  1
  Al0+  Al82  1  0.82089115  0.06829654  0.34650072  1
  Al0+  Al83  1  0.07304210  0.67966833  0.65031837  1
  Al0+  Al84  1  0.17868478  0.93070000  0.35083196  1
  Al0+  Al85  1  0.42986578  0.32061203  0.65081109  1
  Al0+  Al86  1  0.68050901  0.42909680  0.34805330  1
  Al0+  Al87  1  0.92950766  0.82120539  0.31841896  1
  Al0+  Al88  1  0.92693669  0.31990687  0.65325670  1
  Al0+  Al89  1  0.31950273  0.57200431  0.34608179  1
  Al0+  Al90  1  0.32339826  0.07389980  0.01387406  1
  Al0+  Al91  1  0.07459335  0.67838575  0.98392259  1
  Al0+  Al92  1  0.92943495  0.82354007  0.65046149  1
  Al0+  Al93  1  0.32313349  0.07270140  0.34964808  1
  Al0+  Al94  1  0.31933643  0.57096762  0.68400887  1
  Al0+  Al95  1  0.17372675  0.43002758  0.34538816  1
  Si0+  Si96  1  0.18134736  0.93062399  0.68286883  1
  Si0+  Si97  1  0.07303795  0.17941127  0.65248663  1
  Si0+  Si98  1  0.81979905  0.57460242  0.34915570  1
  Si0+  Si99  1  0.32448702  0.07123189  0.68034171  1
  Si0+  Si100  1  0.82161930  0.57524908  0.68276618  1
  Si0+  Si101  1  0.17569613  0.43025138  0.01356343  1
  Si0+  Si102  1  0.57092162  0.17830743  0.31749379  1
  Si0+  Si103  1  0.57093882  0.17753768  0.98487599  1
  Si0+  Si104  1  0.92207111  0.32134411  0.31821908  1
  Si0+  Si105  1  0.57147500  0.17576489  0.64856913  1
  Si0+  Si106  1  0.07401109  0.18027955  0.98413667  1
  Si0+  Si107  1  0.56955840  0.67794227  0.64994019  1
  Si0+  Si108  1  0.43017153  0.82261163  0.65156853  1
  Si0+  Si109  1  0.67491655  0.92616933  0.68484322  1
  Si0+  Si110  1  0.82194041  0.57289695  0.01566883  1
  Si0+  Si111  1  0.67980712  0.92620040  0.01427698  1
  Si0+  Si112  1  0.32152002  0.56901645  0.01334195  1
  Si0+  Si113  1  0.43101930  0.32123190  0.31643529  1
  Si0+  Si114  1  0.42932017  0.32056794  0.98516775  1
  Si0+  Si115  1  0.43039613  0.82470932  0.31726812  1
  Si0+  Si116  1  0.67790071  0.92517020  0.34857258  1
  Si0+  Si117  1  0.43069243  0.82281300  0.98400524  1
  Si0+  Si118  1  0.56799447  0.67726489  0.31875062  1
  Si0+  Si119  1  0.81952628  0.07018590  0.01569785  1
  O2-  O120  1  0.24980983  0.00416997  0.06340374  1
  O2-  O121  1  0.24922871  0.00466560  0.40174263  1
  O2-  O122  1  0.25271217  0.00249572  0.72378634  1
  O2-  O123  1  0.24402449  0.50495862  0.05451297  1
  O2-  O124  1  0.23895519  0.50898612  0.39416230  1
  O2-  O125  1  0.24417296  0.50241887  0.73414781  1
  O2-  O126  1  0.75513261  -0.00771958  0.05667089  1
  O2-  O127  1  0.75181740  -0.01246438  0.39250161  1
  O2-  O128  1  0.74845408  -0.01029068  0.72860657  1
  O2-  O129  1  0.75501920  0.50263054  0.06181009  1
  O2-  O130  1  0.75815603  0.49984841  0.39457046  1
  O2-  O131  1  0.75763438  0.50263500  0.72918814  1
  O2-  O132  1  -0.00201949  0.26041031  0.27432453  1
  O2-  O133  1  0.00726158  0.25084277  0.60828238  1
  O2-  O134  1  0.00506076  0.24779626  0.93931413  1
  O2-  O135  1  0.00179904  0.75005006  0.26829072  1
  O2-  O136  1  -0.00120993  0.74961477  0.60116030  1
  O2-  O137  1  0.00292091  0.75235623  0.93640479  1
  O2-  O138  1  0.49917601  0.24747799  0.27326232  1
  O2-  O139  1  0.50358848  0.24450827  0.60380477  1
  O2-  O140  1  0.49565907  0.24432796  0.94419513  1
  O2-  O141  1  0.49834811  0.74955125  0.27641684  1
  O2-  O142  1  0.49899802  0.74973844  0.60837849  1
  O2-  O143  1  0.49502775  0.75115466  0.93760000  1
  O2-  O144  1  0.07375626  0.18177962  0.08964432  1
  O2-  O145  1  0.06858137  0.18237304  0.43327486  1
  O2-  O146  1  0.07215902  0.17840747  0.75843768  1
  O2-  O147  1  0.07401195  0.67659272  0.09719718  1
  O2-  O148  1  0.07290014  0.67897580  0.43133624  1
  O2-  O149  1  0.07384574  0.68427889  0.76388092  1
  O2-  O150  1  0.57396760  0.17784269  0.08992436  1
  O2-  O151  1  0.57126370  0.17786209  0.42216721  1
  O2-  O152  1  0.56875522  0.17367051  0.75467623  1
  O2-  O153  1  0.56648347  0.67716179  0.09943016  1
  O2-  O154  1  0.56772261  0.67810792  0.42392221  1
  O2-  O155  1  0.56869021  0.67846902  0.75513685  1
  O2-  O156  1  0.17998450  0.42765774  0.23098028  1
  O2-  O157  1  0.17819181  0.42527769  0.56943447  1
  O2-  O158  1  0.17801648  0.42600300  0.90897568  1
  O2-  O159  1  0.18039388  0.93116147  0.23755182  1
  O2-  O160  1  0.18122777  0.93142148  0.57810835  1
  O2-  O161  1  0.18186110  0.93141894  0.90217799  1
  O2-  O162  1  0.67884178  0.42982845  0.23463363  1
  O2-  O163  1  0.68047582  0.43265429  0.56875248  1
  O2-  O164  1  0.67864978  0.42895405  0.90199772  1
  O2-  O165  1  0.67476479  0.92743156  0.24271350  1
  O2-  O166  1  0.66594053  0.92965948  0.57989552  1
  O2-  O167  1  0.67433666  0.92996336  0.90957529  1
  O2-  O168  1  0.43112665  0.32314961  0.09024779  1
  O2-  O169  1  0.43429773  0.32184551  0.42118238  1
  O2-  O170  1  0.43119939  0.31755595  0.76473498  1
  O2-  O171  1  0.43476309  0.82303864  0.08951882  1
  O2-  O172  1  0.43459765  0.82906773  0.42242094  1
  O2-  O173  1  0.43360927  0.82658989  0.75651518  1
  O2-  O174  1  0.92590870  0.31432386  0.10136142  1
  O2-  O175  1  0.91818917  0.31637628  0.42351049  1
  O2-  O176  1  0.92480157  0.31523849  0.76669355  1
  O2-  O177  1  0.92739287  0.82186594  0.09757066  1
  O2-  O178  1  0.93000142  0.81879501  0.43161821  1
  O2-  O179  1  0.93309564  0.82318846  0.76394386  1
  O2-  O180  1  0.32495881  0.06784356  0.23630815  1
  O2-  O181  1  0.32723798  0.06857872  0.57591767  1
  O2-  O182  1  0.32348687  0.07253298  0.89951815  1
  O2-  O183  1  0.32562902  0.56692143  0.23197898  1
  O2-  O184  1  0.32032493  0.56894984  0.57092324  1
  O2-  O185  1  0.32565413  0.56466445  0.90881590  1
  O2-  O186  1  0.81655380  0.07100511  0.23296638  1
  O2-  O187  1  0.81969660  0.06756885  0.57005120  1
  O2-  O188  1  0.81563529  0.07246077  0.91073521  1
  O2-  O189  1  0.81431532  0.57729366  0.24367744  1
  O2-  O190  1  0.81576035  0.57642840  0.57717706  1
  O2-  O191  1  0.81834620  0.57157520  0.91020454  1
  O2-  O192  1  0.03738753  0.08820851  0.26472292  1
  O2-  O193  1  0.04265702  0.08694428  0.60741257  1
  O2-  O194  1  0.04905855  0.08637516  0.93917904  1
  O2-  O195  1  0.04452305  0.57855190  0.26503011  1
  O2-  O196  1  0.04722559  0.58021174  0.59904825  1
  O2-  O197  1  0.04482978  0.58088758  0.92946791  1
  O2-  O198  1  0.54581615  0.08574366  0.26902365  1
  O2-  O199  1  0.54653269  0.08200498  0.60234124  1
  O2-  O200  1  0.54854108  0.08462504  0.93630623  1
  O2-  O201  1  0.53748475  0.58604943  0.27138423  1
  O2-  O202  1  0.53985654  0.58699912  0.60262501  1
  O2-  O203  1  0.53643776  0.58087810  0.93140949  1
  O2-  O204  1  0.16854301  0.21163365  0.26479770  1
  O2-  O205  1  0.16782753  0.19881748  0.60687002  1
  O2-  O206  1  0.16823271  0.20549139  0.93860565  1
  O2-  O207  1  0.17442979  0.70551286  0.26870539  1
  O2-  O208  1  0.17255552  0.71058179  0.60080555  1
  O2-  O209  1  0.17449004  0.70556934  0.93262239  1
  O2-  O210  1  0.66198514  0.20846756  0.26949947  1
  O2-  O211  1  0.66569672  0.20101302  0.60539375  1
  O2-  O212  1  0.65994564  0.20978698  0.93503256  1
  O2-  O213  1  0.65899541  0.70312490  0.26896397  1
  O2-  O214  1  0.66051440  0.70474532  0.60067832  1
  O2-  O215  1  0.66410334  0.70694059  0.92895334  1
  O2-  O216  1  0.08229068  0.45340587  0.05930244  1
  O2-  O217  1  0.07064032  0.44479042  0.39300343  1
  O2-  O218  1  0.07398507  0.45190407  0.73225640  1
  O2-  O219  1  0.08038263  0.95803535  0.06950067  1
  O2-  O220  1  0.08137057  0.96173129  0.40347041  1
  O2-  O221  1  0.09153010  0.96040516  0.73241287  1
  O2-  O222  1  0.58318382  0.46139722  0.06894313  1
  O2-  O223  1  0.58596280  0.46437272  0.40233777  1
  O2-  O224  1  0.58570872  0.46329626  0.73523253  1
  O2-  O225  1  0.59070625  0.95810758  0.06519727  1
  O2-  O226  1  0.58766538  0.95771834  0.39725201  1
  O2-  O227  1  0.58429908  0.95729468  0.73555210  1
  O2-  O228  1  0.20796803  0.34015631  0.06232799  1
  O2-  O229  1  0.21067986  0.33530102  0.39948657  1
  O2-  O230  1  0.20952411  0.33013404  0.73604263  1
  O2-  O231  1  0.21043649  0.83156675  0.06946977  1
  O2-  O232  1  0.21227787  0.83446583  0.40440523  1
  O2-  O233  1  0.21229187  0.84047345  0.73075774  1
  O2-  O234  1  0.70883780  0.33165049  0.06853707  1
  O2-  O235  1  0.70522570  0.33191750  0.40295785  1
  O2-  O236  1  0.70708100  0.33126812  0.73396787  1
  O2-  O237  1  0.70144952  0.83175723  0.05890821  1
  O2-  O238  1  0.69374717  0.82896478  0.39262793  1
  O2-  O239  1  0.69452406  0.82987861  0.72737675  1
  O2-  O240  1  0.46437602  0.41149738  0.26863376  1
  O2-  O241  1  0.46537535  0.41586178  0.59786762  1
  O2-  O242  1  0.46328886  0.40896569  0.93588693  1
  O2-  O243  1  0.46379451  0.91386100  0.26768088  1
  O2-  O244  1  0.46128609  0.91258298  0.60159710  1
  O2-  O245  1  0.46134552  0.91519703  0.93712622  1
  O2-  O246  1  0.93509664  0.41804026  0.27452971  1
  O2-  O247  1  0.94631984  0.41871181  0.59976608  1
  O2-  O248  1  0.95166871  0.41581859  0.93402641  1
  O2-  O249  1  0.95587474  0.92125792  0.26851049  1
  O2-  O250  1  0.96313316  0.92221774  0.60163546  1
  O2-  O251  1  0.95699086  0.92386572  0.93342751  1
  O2-  O252  1  0.33886328  0.29757240  0.26823237  1
  O2-  O253  1  0.33339854  0.29033955  0.59671814  1
  O2-  O254  1  0.33639954  0.29770019  0.93715318  1
  O2-  O255  1  0.33830696  0.80037541  0.27032317  1
  O2-  O256  1  0.33821211  0.79743020  0.60482325  1
  O2-  O257  1  0.33611182  0.80179360  0.93952741  1
  O2-  O258  1  0.83101889  0.28562068  0.27168050  1
  O2-  O259  1  0.83168793  0.28182082  0.60057208  1
  O2-  O260  1  0.83170117  0.28258447  0.93450486  1
  O2-  O261  1  0.82823376  0.79513826  0.26772464  1
  O2-  O262  1  0.82689609  0.80423503  0.60145832  1
  O2-  O263  1  0.83070787  0.79783505  0.93020389  1
  O2-  O264  1  0.42298461  0.04568241  0.06526310  1
  O2-  O265  1  0.42166052  0.04237155  0.40221630  1
  O2-  O266  1  0.41594024  0.04165957  0.72848955  1
  O2-  O267  1  0.41032686  0.53436836  0.06285999  1
  O2-  O268  1  0.41412276  0.53465644  0.40161380  1
  O2-  O269  1  0.41715398  0.53717511  0.73589167  1
  O2-  O270  1  0.91391814  0.05065597  0.06070607  1
  O2-  O271  1  0.91764690  0.04423550  0.40162205  1
  O2-  O272  1  0.91793599  0.04056498  0.73982944  1
  O2-  O273  1  0.91631702  0.54854974  0.06017804  1
  O2-  O274  1  0.91543462  0.55611957  0.39224655  1
  O2-  O275  1  0.91698990  0.55449170  0.72534476  1
  O2-  O276  1  0.29985199  0.17410129  0.06568721  1
  O2-  O277  1  0.30026025  0.17380096  0.39727962  1
  O2-  O278  1  0.29949793  0.16394025  0.72660903  1
  O2-  O279  1  0.30418855  0.66436832  0.05759176  1
  O2-  O280  1  0.30780737  0.67411264  0.39627745  1
  O2-  O281  1  0.29939882  0.67208920  0.73649744  1
  O2-  O282  1  0.78235377  0.15774719  0.06478065  1
  O2-  O283  1  0.78260650  0.16044945  0.40373464  1
  O2-  O284  1  0.78496868  0.16091856  0.73971631  1
  O2-  O285  1  0.79231629  0.66609020  0.06029332  1
  O2-  O286  1  0.78599127  0.66464522  0.39795757  1
  O2-  O287  1  0.79071053  0.66779380  0.72873250  1
