# generated using pymatgen
data_Ca2Al2SiO7
_symmetry_space_group_name_H-M   'P 1'
_cell_length_a   15.46140434
_cell_length_b   15.46032372
_cell_length_c   15.28608562
_cell_angle_alpha   90.00699996
_cell_angle_beta   89.99524611
_cell_angle_gamma   89.98882447
_symmetry_Int_Tables_number   1
_chemical_formula_structural   Ca2Al2SiO7
_chemical_formula_sum   'Ca48 Al48 Si24 O168'
_cell_volume   3653.96005912
_cell_formula_units_Z   24
loop_
 _symmetry_equiv_pos_site_id
 _symmetry_equiv_pos_as_xyz
  1  'x, y, z'
loop_
 _atom_type_symbol
 _atom_type_oxidation_number
  Ca2+  2.0
  Al0+  0.0
  Si0+  0.0
  O2-  -2.0
loop_
 _atom_site_type_symbol
 _atom_site_label
 _atom_site_symmetry_multiplicity
 _atom_site_fract_x
 _atom_site_fract_y
 _atom_site_fract_z
 _atom_site_occupancy
  Ca2+  Ca0  1  0.16661390  0.08436252  0.16203710  1
  Ca2+  Ca1  1  0.17653244  0.08320081  0.50854189  1
  Ca2+  Ca2  1  0.17895894  0.08333570  0.84296775  1
  Ca2+  Ca3  1  0.17256973  0.58610628  0.16853619  1
  Ca2+  Ca4  1  0.16623540  0.58405380  0.50294666  1
  Ca2+  Ca5  1  0.17656678  0.58029041  0.84176061  1
  Ca2+  Ca6  1  0.66752457  0.07493040  0.17012847  1
  Ca2+  Ca7  1  0.66753866  0.08206125  0.50211840  1
  Ca2+  Ca8  1  0.65970350  0.07856478  0.84113562  1
  Ca2+  Ca9  1  0.66332151  0.57246359  0.16584315  1
  Ca2+  Ca10  1  0.65961996  0.57184895  0.50593255  1
  Ca2+  Ca11  1  0.65523325  0.57248407  0.83840763  1
  Ca2+  Ca12  1  0.07144564  0.32485674  0.15452399  1
  Ca2+  Ca13  1  0.07462579  0.33488350  0.49804289  1
  Ca2+  Ca14  1  0.07432287  0.33156674  0.83282459  1
  Ca2+  Ca15  1  0.07905747  0.83322395  0.15817285  1
  Ca2+  Ca16  1  0.07768115  0.82936262  0.49624319  1
  Ca2+  Ca17  1  0.07304583  0.84466555  0.83355544  1
  Ca2+  Ca18  1  0.58020604  0.33155447  0.15708658  1
  Ca2+  Ca19  1  0.57838110  0.33425304  0.49914823  1
  Ca2+  Ca20  1  0.57845028  0.32523766  0.82962499  1
  Ca2+  Ca21  1  0.59202302  0.82888028  0.15770516  1
  Ca2+  Ca22  1  0.58108113  0.83308816  0.50035236  1
  Ca2+  Ca23  1  0.58523254  0.82088116  0.82712924  1
  Ca2+  Ca24  1  0.34411543  0.42051830  0.16659762  1
  Ca2+  Ca25  1  0.33590147  0.41134642  0.50536881  1
  Ca2+  Ca26  1  0.34549223  0.42079244  0.84067025  1
  Ca2+  Ca27  1  0.33213145  0.92670162  0.16374391  1
  Ca2+  Ca28  1  0.33423291  0.92142910  0.51181850  1
  Ca2+  Ca29  1  0.33503810  0.92721749  0.84064181  1
  Ca2+  Ca30  1  0.81892094  0.40643509  0.16795695  1
  Ca2+  Ca31  1  0.82040301  0.41436967  0.50925034  1
  Ca2+  Ca32  1  0.82378897  0.41074185  0.83763944  1
  Ca2+  Ca33  1  0.82495920  0.91967368  0.16966162  1
  Ca2+  Ca34  1  0.83090924  0.92020752  0.50163619  1
  Ca2+  Ca35  1  0.83063073  0.91443885  0.84230690  1
  Ca2+  Ca36  1  0.42171875  0.17807303  0.15527435  1
  Ca2+  Ca37  1  0.42096224  0.17285323  0.50020580  1
  Ca2+  Ca38  1  0.42415066  0.16628770  0.82795571  1
  Ca2+  Ca39  1  0.42361145  0.66806513  0.15685440  1
  Ca2+  Ca40  1  0.42237985  0.67000934  0.50286230  1
  Ca2+  Ca41  1  0.42493818  0.66948813  0.83146323  1
  Ca2+  Ca42  1  0.91786808  0.16634098  0.15687811  1
  Ca2+  Ca43  1  0.91128049  0.16972575  0.49916503  1
  Ca2+  Ca44  1  0.91937295  0.17606919  0.83369176  1
  Ca2+  Ca45  1  0.92107225  0.67224412  0.16079661  1
  Ca2+  Ca46  1  0.92027437  0.67143258  0.49697926  1
  Ca2+  Ca47  1  0.91322452  0.68064139  0.83005281  1
  Al0+  Al48  1  0.00098047  0.00036775  -0.00393306  1
  Al0+  Al49  1  0.00085446  0.00019513  0.33829569  1
  Al0+  Al50  1  -0.00059760  -0.00009772  0.66130180  1
  Al0+  Al51  1  0.00018128  0.50257769  -0.00340005  1
  Al0+  Al52  1  0.00130286  0.50029522  0.32780604  1
  Al0+  Al53  1  -0.00089116  0.49991469  0.66442094  1
  Al0+  Al54  1  0.49860851  -0.00045755  0.00871676  1
  Al0+  Al55  1  0.49897797  0.00060402  0.33708575  1
  Al0+  Al56  1  0.50105666  -0.00037370  0.66355852  1
  Al0+  Al57  1  0.50139758  0.50127999  0.00286894  1
  Al0+  Al58  1  0.49877081  0.50275475  0.33515726  1
  Al0+  Al59  1  0.49911080  0.49942837  0.66393141  1
  Al0+  Al60  1  0.24873185  0.25294859  -0.00188035  1
  Al0+  Al61  1  0.24929859  0.25238992  0.32954347  1
  Al0+  Al62  1  0.24942745  0.24904064  0.66926519  1
  Al0+  Al63  1  0.25048789  0.74927423  0.00869978  1
  Al0+  Al64  1  0.25075039  0.74994856  0.33073811  1
  Al0+  Al65  1  0.24879747  0.74916319  0.66610082  1
  Al0+  Al66  1  0.74858163  0.24898113  -0.00278314  1
  Al0+  Al67  1  0.74817635  0.24917566  0.34162896  1
  Al0+  Al68  1  0.75067985  0.24894680  0.66417485  1
  Al0+  Al69  1  0.75136627  0.74774650  -0.00358123  1
  Al0+  Al70  1  0.75019797  0.74992709  0.33705858  1
  Al0+  Al71  1  0.75229168  0.74853643  0.65572482  1
  Al0+  Al72  1  0.67812058  0.43116166  0.34830346  1
  Al0+  Al73  1  0.57010210  0.17547621  0.98736563  1
  Al0+  Al74  1  0.07172700  0.17823882  0.98409347  1
  Al0+  Al75  1  0.07187524  0.67910382  0.31795597  1
  Al0+  Al76  1  0.82224889  0.07041231  0.34910675  1
  Al0+  Al77  1  0.42839173  0.82098078  0.65440407  1
  Al0+  Al78  1  0.92955694  0.32110771  0.65156762  1
  Al0+  Al79  1  0.32226593  0.07014359  0.68030495  1
  Al0+  Al80  1  0.32217965  0.07505332  0.01690216  1
  Al0+  Al81  1  0.42979145  0.32127730  0.31813997  1
  Al0+  Al82  1  0.42816478  0.32015693  0.65222237  1
  Al0+  Al83  1  0.67856962  0.42938228  0.68268784  1
  Al0+  Al84  1  0.57113159  0.67752249  0.64991953  1
  Al0+  Al85  1  0.43027811  0.32273970  0.98615393  1
  Al0+  Al86  1  0.57135034  0.68050172  0.98832665  1
  Al0+  Al87  1  0.67729212  0.92686735  0.35110091  1
  Al0+  Al88  1  0.68132571  0.42866576  0.01234396  1
  Al0+  Al89  1  0.57273285  0.17697652  0.64992883  1
  Al0+  Al90  1  0.32113933  0.56884700  0.01440190  1
  Al0+  Al91  1  0.92920289  0.82269576  0.64992143  1
  Al0+  Al92  1  0.92627039  0.32310206  0.98573053  1
  Al0+  Al93  1  0.17765865  0.93035818  0.01490667  1
  Al0+  Al94  1  0.67907757  0.92611092  0.00997674  1
  Al0+  Al95  1  0.93046219  0.81972625  0.98854701  1
  Si0+  Si96  1  0.07137433  0.17894322  0.31969776  1
  Si0+  Si97  1  0.42631317  0.82185929  0.98721051  1
  Si0+  Si98  1  0.57239703  0.17741387  0.31613672  1
  Si0+  Si99  1  0.17817701  0.42933377  0.34793702  1
  Si0+  Si100  1  0.31951789  0.57070637  0.68112959  1
  Si0+  Si101  1  0.92729380  0.31945476  0.31971008  1
  Si0+  Si102  1  0.17642762  0.42883968  0.68120826  1
  Si0+  Si103  1  0.82115854  0.07102784  0.01282014  1
  Si0+  Si104  1  0.31849470  0.07354415  0.34887357  1
  Si0+  Si105  1  0.07538820  0.67892762  0.98256478  1
  Si0+  Si106  1  0.17410594  0.42912417  0.01755785  1
  Si0+  Si107  1  0.82268083  0.07002004  0.68376235  1
  Si0+  Si108  1  0.17707813  0.92707302  0.68189652  1
  Si0+  Si109  1  0.42849460  0.82297131  0.31737370  1
  Si0+  Si110  1  0.07196515  0.67736291  0.65101065  1
  Si0+  Si111  1  0.07149418  0.17902900  0.64875797  1
  Si0+  Si112  1  0.57033570  0.68077829  0.31776640  1
  Si0+  Si113  1  0.82486350  0.57116631  0.34946831  1
  Si0+  Si114  1  0.82391845  0.57318752  0.01555321  1
  Si0+  Si115  1  0.82344800  0.57240289  0.68298637  1
  Si0+  Si116  1  0.18066515  0.92810242  0.34975768  1
  Si0+  Si117  1  0.92913828  0.82261880  0.31578914  1
  Si0+  Si118  1  0.68123641  0.92759290  0.68118154  1
  Si0+  Si119  1  0.31968861  0.57188805  0.35083208  1
  O2-  O120  1  0.24819736  0.00341852  0.06623166  1
  O2-  O121  1  0.25084143  -0.00060516  0.39241481  1
  O2-  O122  1  0.24832116  -0.00700209  0.72460226  1
  O2-  O123  1  0.24622519  0.49423685  0.06223627  1
  O2-  O124  1  0.24907794  0.49975484  0.39225375  1
  O2-  O125  1  0.25048139  0.49710846  0.72216555  1
  O2-  O126  1  0.75116773  0.00355451  0.05671808  1
  O2-  O127  1  0.74965393  -0.00081647  0.40012256  1
  O2-  O128  1  0.75141978  -0.00120110  0.72499981  1
  O2-  O129  1  0.76056319  0.49935988  0.05937399  1
  O2-  O130  1  0.75566141  0.50390881  0.39463220  1
  O2-  O131  1  0.75309094  0.50619693  0.72755208  1
  O2-  O132  1  -0.00470027  0.24510624  0.27834302  1
  O2-  O133  1  0.00364059  0.24708554  0.60219530  1
  O2-  O134  1  0.00078086  0.25284869  0.93676208  1
  O2-  O135  1  -0.00325893  0.75301141  0.27158364  1
  O2-  O136  1  0.00480856  0.74719236  0.60641968  1
  O2-  O137  1  0.00728799  0.74793644  0.93910148  1
  O2-  O138  1  0.50523038  0.24750005  0.27239602  1
  O2-  O139  1  0.50100656  0.25020977  0.60068177  1
  O2-  O140  1  0.49588647  0.24499699  0.93719304  1
  O2-  O141  1  0.50455176  0.75694981  0.27594057  1
  O2-  O142  1  0.50065553  0.75158246  0.60037906  1
  O2-  O143  1  0.49915419  0.75813967  0.94301359  1
  O2-  O144  1  0.06671039  0.17824197  0.09884522  1
  O2-  O145  1  0.07495330  0.18250356  0.42474227  1
  O2-  O146  1  0.07015507  0.17934388  0.75363148  1
  O2-  O147  1  0.07355442  0.67892248  0.08841421  1
  O2-  O148  1  0.07164553  0.68096868  0.43139196  1
  O2-  O149  1  0.07297495  0.67560071  0.75602944  1
  O2-  O150  1  0.57244547  0.17720307  0.10134307  1
  O2-  O151  1  0.57022406  0.17704948  0.42162093  1
  O2-  O152  1  0.57157758  0.17454996  0.76310732  1
  O2-  O153  1  0.57037909  0.68061506  0.10213236  1
  O2-  O154  1  0.56611392  0.67844967  0.42254227  1
  O2-  O155  1  0.56933939  0.67780752  0.76339982  1
  O2-  O156  1  0.17661140  0.42969222  0.24354808  1
  O2-  O157  1  0.17452641  0.43127684  0.57549622  1
  O2-  O158  1  0.17027383  0.43377892  0.91194460  1
  O2-  O159  1  0.17973285  0.92846474  0.24521311  1
  O2-  O160  1  0.17749121  0.92804340  0.57548560  1
  O2-  O161  1  0.17918601  0.93008537  0.90129761  1
  O2-  O162  1  0.67901154  0.43150629  0.23515015  1
  O2-  O163  1  0.67973038  0.43177250  0.56896641  1
  O2-  O164  1  0.68033952  0.43007411  0.89968087  1
  O2-  O165  1  0.67995425  0.92539080  0.23737359  1
  O2-  O166  1  0.68313830  0.92903402  0.57605999  1
  O2-  O167  1  0.68185583  0.92355171  0.89679842  1
  O2-  O168  1  0.43556320  0.32392334  0.10019643  1
  O2-  O169  1  0.42657314  0.31855864  0.43091357  1
  O2-  O170  1  0.42864915  0.32106253  0.76492573  1
  O2-  O171  1  0.42610073  0.81857656  0.09345953  1
  O2-  O172  1  0.42476502  0.82025835  0.42234155  1
  O2-  O173  1  0.42784539  0.81861423  0.76772102  1
  O2-  O174  1  0.92622237  0.31976527  0.10026221  1
  O2-  O175  1  0.93128124  0.32125592  0.42479490  1
  O2-  O176  1  0.93206158  0.32102127  0.76396056  1
  O2-  O177  1  0.93013576  0.81736186  0.10175593  1
  O2-  O178  1  0.93218673  0.82168945  0.42149045  1
  O2-  O179  1  0.92941365  0.82327397  0.76287902  1
  O2-  O180  1  0.31588660  0.07347118  0.24434496  1
  O2-  O181  1  0.31767769  0.07014933  0.56616621  1
  O2-  O182  1  0.32341017  0.07091505  0.90345303  1
  O2-  O183  1  0.32022067  0.57221538  0.24604993  1
  O2-  O184  1  0.31641907  0.57282818  0.57561202  1
  O2-  O185  1  0.31992952  0.56975030  0.90099569  1
  O2-  O186  1  0.82448253  0.06915623  0.23539633  1
  O2-  O187  1  0.82417114  0.06780817  0.57859600  1
  O2-  O188  1  0.82205899  0.06958765  0.90716280  1
  O2-  O189  1  0.82531405  0.57113872  0.24399005  1
  O2-  O190  1  0.82644111  0.56926902  0.57702306  1
  O2-  O191  1  0.82302893  0.57648040  0.91029373  1
  O2-  O192  1  0.04841833  0.08450813  0.27551508  1
  O2-  O193  1  0.04622430  0.08586854  0.60095556  1
  O2-  O194  1  0.04339329  0.08153830  0.92927594  1
  O2-  O195  1  0.04375708  0.58233078  0.26253056  1
  O2-  O196  1  0.04500169  0.58518049  0.60201825  1
  O2-  O197  1  0.05111675  0.58574065  0.93571108  1
  O2-  O198  1  0.54579298  0.08281434  0.27226580  1
  O2-  O199  1  0.54348293  0.07969683  0.59519600  1
  O2-  O200  1  0.54319812  0.07518306  0.93711503  1
  O2-  O201  1  0.53635730  0.59127675  0.26975715  1
  O2-  O202  1  0.53597215  0.58236303  0.59495771  1
  O2-  O203  1  0.53495560  0.58667270  0.93457168  1
  O2-  O204  1  0.15984978  0.21149059  0.26924196  1
  O2-  O205  1  0.16463906  0.20575902  0.60232588  1
  O2-  O206  1  0.16963292  0.20631486  0.93130292  1
  O2-  O207  1  0.16855360  0.71025496  0.26445427  1
  O2-  O208  1  0.16505041  0.70188116  0.60272814  1
  O2-  O209  1  0.16996043  0.70349913  0.93881440  1
  O2-  O210  1  0.66791577  0.20146916  0.27389888  1
  O2-  O211  1  0.67124451  0.20408762  0.59706781  1
  O2-  O212  1  0.66775613  0.20258534  0.93359752  1
  O2-  O213  1  0.66527856  0.70248556  0.27375199  1
  O2-  O214  1  0.66946248  0.70160572  0.59533418  1
  O2-  O215  1  0.66713326  0.70704689  0.93201389  1
  O2-  O216  1  0.08183805  0.45873693  0.06582121  1
  O2-  O217  1  0.08632434  0.45853220  0.39607861  1
  O2-  O218  1  0.08629589  0.46056987  0.72970441  1
  O2-  O219  1  0.07893442  0.95889388  0.06876102  1
  O2-  O220  1  0.08897714  0.95455113  0.39846424  1
  O2-  O221  1  0.08354027  0.95628728  0.72582535  1
  O2-  O222  1  0.58825130  0.46591171  0.06901074  1
  O2-  O223  1  0.58271336  0.46677025  0.40219635  1
  O2-  O224  1  0.58097551  0.46161200  0.73356054  1
  O2-  O225  1  0.58306642  0.95103003  0.06791535  1
  O2-  O226  1  0.57765492  0.95433852  0.40317053  1
  O2-  O227  1  0.58837148  0.95302409  0.72643936  1
  O2-  O228  1  0.19345164  0.33384241  0.06173906  1
  O2-  O229  1  0.20554355  0.33746850  0.39625569  1
  O2-  O230  1  0.19904498  0.33594869  0.72742899  1
  O2-  O231  1  0.20515277  0.83253943  0.07037309  1
  O2-  O232  1  0.20987997  0.83612620  0.39669207  1
  O2-  O233  1  0.19664982  0.83164601  0.72631388  1
  O2-  O234  1  0.71024141  0.33140130  0.06747350  1
  O2-  O235  1  0.70607010  0.33457485  0.40299692  1
  O2-  O236  1  0.71197056  0.33181894  0.73247683  1
  O2-  O237  1  0.71480508  0.83119674  0.06531658  1
  O2-  O238  1  0.70533805  0.82810648  0.40449381  1
  O2-  O239  1  0.71068992  0.83381694  0.72361760  1
  O2-  O240  1  0.45860347  0.42068549  0.26876961  1
  O2-  O241  1  0.45353298  0.41897475  0.59839796  1
  O2-  O242  1  0.46430494  0.41925679  0.93399209  1
  O2-  O243  1  0.45029081  0.91747601  0.27267823  1
  O2-  O244  1  0.45630970  0.91761983  0.59826266  1
  O2-  O245  1  0.44637025  0.91760822  0.94595457  1
  O2-  O246  1  0.95758508  0.40979708  0.27147018  1
  O2-  O247  1  0.96157961  0.41723606  0.59635146  1
  O2-  O248  1  0.95287906  0.42249333  0.93373151  1
  O2-  O249  1  0.95737907  0.91643304  0.27222992  1
  O2-  O250  1  0.96172250  0.91755898  0.59310202  1
  O2-  O251  1  0.95874133  0.91554516  0.93241854  1
  O2-  O252  1  0.33200107  0.29251803  0.26466763  1
  O2-  O253  1  0.32801864  0.29246569  0.60032382  1
  O2-  O254  1  0.32710901  0.30858920  0.93927520  1
  O2-  O255  1  0.33899065  0.79007652  0.26894430  1
  O2-  O256  1  0.32955935  0.79192189  0.60008226  1
  O2-  O257  1  0.33425072  0.79127560  0.94178857  1
  O2-  O258  1  0.83377847  0.29343147  0.27569110  1
  O2-  O259  1  0.83465775  0.28875095  0.59657447  1
  O2-  O260  1  0.83066365  0.29128620  0.93088643  1
  O2-  O261  1  0.83418432  0.79719358  0.27292732  1
  O2-  O262  1  0.83596732  0.79069688  0.59110735  1
  O2-  O263  1  0.83700055  0.78538177  0.93106150  1
  O2-  O264  1  0.41714775  0.04328569  0.07582254  1
  O2-  O265  1  0.41126909  0.04844349  0.39511571  1
  O2-  O266  1  0.41921559  0.03905747  0.73260181  1
  O2-  O267  1  0.41631352  0.53826930  0.07164824  1
  O2-  O268  1  0.41092878  0.54512424  0.39918669  1
  O2-  O269  1  0.41155672  0.54431045  0.72739824  1
  O2-  O270  1  0.91401423  0.04386591  0.05927833  1
  O2-  O271  1  0.92098818  0.04318933  0.40484731  1
  O2-  O272  1  0.91534718  0.04109248  0.72897992  1
  O2-  O273  1  0.92003504  0.55471001  0.06030315  1
  O2-  O274  1  0.91916625  0.54501948  0.39481851  1
  O2-  O275  1  0.91703759  0.54667821  0.72938269  1
  O2-  O276  1  0.29310004  0.17442334  0.06837111  1
  O2-  O277  1  0.28565542  0.16428085  0.39586029  1
  O2-  O278  1  0.28899776  0.16560257  0.73452351  1
  O2-  O279  1  0.29074147  0.66386343  0.07267930  1
  O2-  O280  1  0.28934012  0.66340630  0.39821391  1
  O2-  O281  1  0.28946902  0.66141335  0.72981650  1
  O2-  O282  1  0.79760603  0.16442975  0.05990255  1
  O2-  O283  1  0.79475134  0.16804963  0.40474550  1
  O2-  O284  1  0.79737210  0.16288422  0.72884076  1
  O2-  O285  1  0.79251276  0.66335795  0.06539867  1
  O2-  O286  1  0.80167348  0.66550258  0.39535814  1
  O2-  O287  1  0.80038358  0.66873511  0.72434689  1
