# generated using pymatgen
data_Ca2Al2SiO7
_symmetry_space_group_name_H-M   'P 1'
_cell_length_a   15.45650607
_cell_length_b   15.45622482
_cell_length_c   15.28201385
_cell_angle_alpha   89.99669084
_cell_angle_beta   89.99036717
_cell_angle_gamma   89.99967913
_symmetry_Int_Tables_number   1
_chemical_formula_structural   Ca2Al2SiO7
_chemical_formula_sum   'Ca48 Al48 Si24 O168'
_cell_volume   3650.86132743
_cell_formula_units_Z   24
loop_
 _symmetry_equiv_pos_site_id
 _symmetry_equiv_pos_as_xyz
  1  'x, y, z'
loop_
 _atom_type_symbol
 _atom_type_oxidation_number
  Ca2+  2.0
  Al0+  0.0
  Si0+  0.0
  O2-  -2.0
loop_
 _atom_site_type_symbol
 _atom_site_label
 _atom_site_symmetry_multiplicity
 _atom_site_fract_x
 _atom_site_fract_y
 _atom_site_fract_z
 _atom_site_occupancy
  Ca2+  Ca0  1  0.16717978  0.08016257  0.17361023  1
  Ca2+  Ca1  1  0.16824769  0.08511262  0.50846697  1
  Ca2+  Ca2  1  0.16553615  0.07741761  0.83120314  1
  Ca2+  Ca3  1  0.16895781  0.57670155  0.16945804  1
  Ca2+  Ca4  1  0.16623920  0.57698722  0.50724016  1
  Ca2+  Ca5  1  0.17730027  0.59145864  0.83511015  1
  Ca2+  Ca6  1  0.67212201  0.08332117  0.17209742  1
  Ca2+  Ca7  1  0.68198913  0.07923918  0.50905204  1
  Ca2+  Ca8  1  0.67014203  0.08458737  0.83230363  1
  Ca2+  Ca9  1  0.67566171  0.58012321  0.17366746  1
  Ca2+  Ca10  1  0.67396191  0.58024227  0.50830989  1
  Ca2+  Ca11  1  0.66185464  0.57778719  0.83039936  1
  Ca2+  Ca12  1  0.07736511  0.33177164  0.16845276  1
  Ca2+  Ca13  1  0.07755384  0.32305050  0.49287025  1
  Ca2+  Ca14  1  0.07147062  0.32897424  0.82235209  1
  Ca2+  Ca15  1  0.07159017  0.83989842  0.16187090  1
  Ca2+  Ca16  1  0.08431898  0.82992576  0.49996919  1
  Ca2+  Ca17  1  0.08566119  0.83483232  0.82865302  1
  Ca2+  Ca18  1  0.58340586  0.32310889  0.16036190  1
  Ca2+  Ca19  1  0.57790526  0.33900649  0.50411211  1
  Ca2+  Ca20  1  0.58026597  0.32911751  0.82537835  1
  Ca2+  Ca21  1  0.57426044  0.83248662  0.15868960  1
  Ca2+  Ca22  1  0.59028863  0.83111551  0.50170812  1
  Ca2+  Ca23  1  0.57683996  0.82900568  0.82487791  1
  Ca2+  Ca24  1  0.32601570  0.42098410  0.17227978  1
  Ca2+  Ca25  1  0.32476602  0.41609631  0.50862470  1
  Ca2+  Ca26  1  0.34011320  0.42775822  0.83341674  1
  Ca2+  Ca27  1  0.32771652  0.91921227  0.16853709  1
  Ca2+  Ca28  1  0.32670967  0.93202974  0.51002346  1
  Ca2+  Ca29  1  0.32070082  0.91314552  0.83693143  1
  Ca2+  Ca30  1  0.84023217  0.41924344  0.17355902  1
  Ca2+  Ca31  1  0.83423633  0.41611535  0.50534034  1
  Ca2+  Ca32  1  0.83100807  0.40777281  0.83415442  1
  Ca2+  Ca33  1  0.83717520  0.92052274  0.17554235  1
  Ca2+  Ca34  1  0.83724937  0.92673703  0.50579474  1
  Ca2+  Ca35  1  0.83361553  0.92154126  0.83362742  1
  Ca2+  Ca36  1  0.42242885  0.16181169  0.16287811  1
  Ca2+  Ca37  1  0.40796443  0.16886369  0.49829729  1
  Ca2+  Ca38  1  0.42038061  0.16937152  0.82484436  1
  Ca2+  Ca39  1  0.41482924  0.67189001  0.15793917  1
  Ca2+  Ca40  1  0.42205646  0.66159466  0.50348624  1
  Ca2+  Ca41  1  0.41426013  0.66879445  0.82444652  1
  Ca2+  Ca42  1  0.91838513  0.17389838  0.16510903  1
  Ca2+  Ca43  1  0.92250477  0.16834683  0.49518307  1
  Ca2+  Ca44  1  0.92041139  0.17345620  0.82346774  1
  Ca2+  Ca45  1  0.91310391  0.67718855  0.16433703  1
  Ca2+  Ca46  1  0.91974563  0.67088554  0.49453706  1
  Ca2+  Ca47  1  0.92549486  0.67519306  0.82602129  1
  Al0+  Al48  1  -0.00064084  0.00094956  0.00038166  1
  Al0+  Al49  1  0.00032010  -0.00113623  0.33016640  1
  Al0+  Al50  1  -0.00004391  0.00103153  0.67178067  1
  Al0+  Al51  1  -0.00022665  0.50046187  -0.00364550  1
  Al0+  Al52  1  0.00094540  0.50032266  0.33844823  1
  Al0+  Al53  1  -0.00047171  0.50233030  0.66069288  1
  Al0+  Al54  1  0.50080647  -0.00192900  -0.00938775  1
  Al0+  Al55  1  0.49832719  -0.00111334  0.33660385  1
  Al0+  Al56  1  0.50089288  0.00046752  0.67137964  1
  Al0+  Al57  1  0.50187795  0.49896631  0.00900442  1
  Al0+  Al58  1  0.50060268  0.50007019  0.32931845  1
  Al0+  Al59  1  0.50139192  0.50032124  0.66544267  1
  Al0+  Al60  1  0.25082458  0.25074686  0.00039668  1
  Al0+  Al61  1  0.24966758  0.25110981  0.33381652  1
  Al0+  Al62  1  0.24910291  0.25106410  0.66633248  1
  Al0+  Al63  1  0.24963688  0.75124821  0.00857002  1
  Al0+  Al64  1  0.25198203  0.74941297  0.33238237  1
  Al0+  Al65  1  0.25043198  0.75084291  0.66587522  1
  Al0+  Al66  1  0.74947700  0.24899896  -0.00555986  1
  Al0+  Al67  1  0.74810964  0.24934792  0.33420053  1
  Al0+  Al68  1  0.74793015  0.25121053  0.67035524  1
  Al0+  Al69  1  0.74965675  0.75004436  -0.00414153  1
  Al0+  Al70  1  0.74942145  0.74704335  0.33193606  1
  Al0+  Al71  1  0.74918356  0.74946296  0.66725405  1
  Al0+  Al72  1  0.07271542  0.17835907  0.31657105  1
  Al0+  Al73  1  0.82122781  0.07165155  0.68344522  1
  Al0+  Al74  1  0.57006707  0.17858856  0.98569149  1
  Al0+  Al75  1  0.67934803  0.92620933  0.68290042  1
  Al0+  Al76  1  0.42748908  0.81833159  0.98582042  1
  Al0+  Al77  1  0.92561045  0.32141307  0.64992508  1
  Al0+  Al78  1  0.32131301  0.57031027  0.01493894  1
  Al0+  Al79  1  0.92980877  0.81896445  0.32126558  1
  Al0+  Al80  1  0.68030710  0.43108116  0.68030278  1
  Al0+  Al81  1  0.93085451  0.32164900  0.98590197  1
  Al0+  Al82  1  0.32121167  0.07550135  0.68352833  1
  Al0+  Al83  1  0.57054024  0.67956556  0.65276345  1
  Al0+  Al84  1  0.07361644  0.68066445  0.65319484  1
  Al0+  Al85  1  0.82059070  0.57089545  0.34665320  1
  Al0+  Al86  1  0.43018599  0.32071129  0.65398995  1
  Al0+  Al87  1  0.92708598  0.32148197  0.31853155  1
  Al0+  Al88  1  0.17966494  0.92904706  0.68095285  1
  Al0+  Al89  1  0.17820003  0.93114447  0.01685184  1
  Al0+  Al90  1  0.18000826  0.43038519  0.34765475  1
  Al0+  Al91  1  0.07016215  0.17814621  0.65223450  1
  Al0+  Al92  1  0.31996008  0.56872640  0.67785531  1
  Al0+  Al93  1  0.82138672  0.07084379  0.34503498  1
  Al0+  Al94  1  0.92767803  0.82280114  0.98519342  1
  Al0+  Al95  1  0.32094709  0.06989314  0.34545961  1
  Si0+  Si96  1  0.68113442  0.42745548  0.01667370  1
  Si0+  Si97  1  0.57041375  0.67813845  0.31623417  1
  Si0+  Si98  1  0.42818774  0.32363518  0.98563817  1
  Si0+  Si99  1  0.32419662  0.57305932  0.35089777  1
  Si0+  Si100  1  0.57201132  0.67610565  0.98404769  1
  Si0+  Si101  1  0.67681350  0.92709748  0.34720537  1
  Si0+  Si102  1  0.92781528  0.82159600  0.65086189  1
  Si0+  Si103  1  0.17557036  0.42879656  0.68388063  1
  Si0+  Si104  1  0.17585680  0.42710499  0.01570264  1
  Si0+  Si105  1  0.32432054  0.07246193  0.01555413  1
  Si0+  Si106  1  0.82430113  0.57292488  0.68493695  1
  Si0+  Si107  1  0.17734199  0.92673207  0.34940346  1
  Si0+  Si108  1  0.67627274  0.42736105  0.34922822  1
  Si0+  Si109  1  0.42996031  0.82190485  0.31855701  1
  Si0+  Si110  1  0.42806892  0.82327360  0.64813454  1
  Si0+  Si111  1  0.57150568  0.17635678  0.64786351  1
  Si0+  Si112  1  0.07469640  0.67719363  0.31582100  1
  Si0+  Si113  1  0.81875539  0.07102668  0.01619932  1
  Si0+  Si114  1  0.67833455  0.92751259  0.01492026  1
  Si0+  Si115  1  0.07104322  0.67900458  0.98550040  1
  Si0+  Si116  1  0.56947979  0.17741251  0.32055261  1
  Si0+  Si117  1  0.42880433  0.32181320  0.31734828  1
  Si0+  Si118  1  0.82167533  0.57176891  0.01356773  1
  Si0+  Si119  1  0.07390754  0.17778727  0.98341896  1
  O2-  O120  1  0.25258565  0.00785036  0.06163086  1
  O2-  O121  1  0.24392407  -0.00194412  0.39180372  1
  O2-  O122  1  0.25149827  0.00088602  0.73226832  1
  O2-  O123  1  0.24755209  0.49374293  0.05986754  1
  O2-  O124  1  0.25442656  0.50596842  0.39399718  1
  O2-  O125  1  0.24406909  0.49765786  0.72863687  1
  O2-  O126  1  0.75010927  -0.00303346  0.05884764  1
  O2-  O127  1  0.74823460  -0.00666393  0.38958772  1
  O2-  O128  1  0.74949013  -0.00097708  0.73425022  1
  O2-  O129  1  0.75257990  0.49879063  0.05741000  1
  O2-  O130  1  0.74861221  0.49288594  0.39156836  1
  O2-  O131  1  0.75845745  0.50126543  0.72927077  1
  O2-  O132  1  -0.00192777  0.24882669  0.26735126  1
  O2-  O133  1  -0.00233184  0.24922895  0.60151706  1
  O2-  O134  1  0.00824631  0.24998426  0.94069683  1
  O2-  O135  1  0.00597614  0.74624567  0.27186507  1
  O2-  O136  1  -0.00261092  0.75381771  0.60678559  1
  O2-  O137  1  0.00364200  0.74876780  0.94088876  1
  O2-  O138  1  0.49918543  0.24915805  0.27676901  1
  O2-  O139  1  0.49919982  0.24172371  0.60394923  1
  O2-  O140  1  0.49259842  0.25153717  0.94159174  1
  O2-  O141  1  0.49891225  0.74885583  0.27500645  1
  O2-  O142  1  0.49966919  0.75712204  0.60366259  1
  O2-  O143  1  0.49978129  0.74082952  0.94042286  1
  O2-  O144  1  0.07295303  0.17728151  0.08915300  1
  O2-  O145  1  0.07353150  0.17901219  0.42936736  1
  O2-  O146  1  0.06944206  0.18071948  0.76643312  1
  O2-  O147  1  0.06756673  0.67652088  0.09133166  1
  O2-  O148  1  0.07638120  0.67974540  0.42115102  1
  O2-  O149  1  0.07300398  0.68166476  0.76676410  1
  O2-  O150  1  0.57085177  0.17986122  0.09997395  1
  O2-  O151  1  0.56899088  0.17661479  0.42477070  1
  O2-  O152  1  0.57191973  0.17991583  0.75372758  1
  O2-  O153  1  0.57373029  0.67880306  0.09038091  1
  O2-  O154  1  0.57048263  0.67633920  0.42083374  1
  O2-  O155  1  0.56646770  0.67821826  0.76596739  1
  O2-  O156  1  0.18292952  0.43221419  0.23366700  1
  O2-  O157  1  0.17804151  0.43015001  0.57823844  1
  O2-  O158  1  0.17480278  0.42784859  0.91073476  1
  O2-  O159  1  0.17988288  0.92583755  0.24342249  1
  O2-  O160  1  0.18175636  0.92734364  0.56712038  1
  O2-  O161  1  0.17931463  0.92964387  0.90449480  1
  O2-  O162  1  0.67285905  0.42954977  0.24299485  1
  O2-  O163  1  0.67848027  0.43482702  0.56710543  1
  O2-  O164  1  0.67812148  0.42877366  0.91211508  1
  O2-  O165  1  0.67345799  0.92914098  0.24089961  1
  O2-  O166  1  0.68269041  0.92703316  0.56847523  1
  O2-  O167  1  0.67919942  0.92682828  0.91072878  1
  O2-  O168  1  0.43064505  0.32397911  0.09180253  1
  O2-  O169  1  0.43054788  0.32532762  0.42195351  1
  O2-  O170  1  0.43475866  0.32283040  0.76733642  1
  O2-  O171  1  0.43141391  0.81879956  0.09995499  1
  O2-  O172  1  0.43125476  0.82274837  0.42288902  1
  O2-  O173  1  0.42658013  0.81886230  0.75374831  1
  O2-  O174  1  0.92981292  0.32161992  0.09901847  1
  O2-  O175  1  0.92650636  0.31985119  0.43100954  1
  O2-  O176  1  0.92821141  0.32022360  0.76417920  1
  O2-  O177  1  0.92583623  0.82042642  0.09872278  1
  O2-  O178  1  0.92938145  0.81749177  0.43385115  1
  O2-  O179  1  0.92755546  0.81885312  0.75677592  1
  O2-  O180  1  0.32624856  0.06513299  0.23209120  1
  O2-  O181  1  0.31967843  0.07319004  0.56945013  1
  O2-  O182  1  0.32396462  0.07257504  0.91079170  1
  O2-  O183  1  0.32516095  0.57205566  0.24485306  1
  O2-  O184  1  0.31970257  0.56604728  0.56473031  1
  O2-  O185  1  0.32260837  0.56974823  0.90207312  1
  O2-  O186  1  0.81712250  0.07089538  0.23115510  1
  O2-  O187  1  0.82106948  0.06974357  0.56944896  1
  O2-  O188  1  0.81715865  0.07161292  0.91170027  1
  O2-  O189  1  0.81639669  0.57329362  0.23262517  1
  O2-  O190  1  0.82148872  0.57516841  0.57925302  1
  O2-  O191  1  0.82047937  0.57255851  0.90905793  1
  O2-  O192  1  0.04632888  0.07909608  0.26412843  1
  O2-  O193  1  0.04358342  0.07834273  0.60111368  1
  O2-  O194  1  0.04371935  0.08598177  0.93757749  1
  O2-  O195  1  0.04837881  0.58360269  0.27106143  1
  O2-  O196  1  0.04364967  0.58524372  0.59704995  1
  O2-  O197  1  0.04608512  0.58675141  0.93700473  1
  O2-  O198  1  0.54044730  0.08576771  0.27175132  1
  O2-  O199  1  0.55190415  0.08057544  0.60422741  1
  O2-  O200  1  0.54419090  0.08262175  0.92962208  1
  O2-  O201  1  0.54335459  0.58670859  0.26610075  1
  O2-  O202  1  0.53640780  0.58561918  0.59604543  1
  O2-  O203  1  0.54986583  0.57961479  0.94335576  1
  O2-  O204  1  0.17077095  0.20984959  0.26261356  1
  O2-  O205  1  0.16874855  0.20659563  0.60026155  1
  O2-  O206  1  0.16961228  0.19884527  0.93970072  1
  O2-  O207  1  0.16943414  0.70073960  0.26943764  1
  O2-  O208  1  0.16883953  0.71130366  0.59614506  1
  O2-  O209  1  0.16555126  0.70575247  0.94343614  1
  O2-  O210  1  0.66002481  0.20560408  0.27019802  1
  O2-  O211  1  0.66340934  0.20767927  0.60243899  1
  O2-  O212  1  0.66384228  0.21335329  0.92990470  1
  O2-  O213  1  0.66125026  0.70597266  0.26671637  1
  O2-  O214  1  0.66812511  0.70774684  0.59820441  1
  O2-  O215  1  0.66370623  0.70340569  0.93633006  1
  O2-  O216  1  0.08361269  0.45739046  0.06325821  1
  O2-  O217  1  0.08474685  0.45954333  0.40346523  1
  O2-  O218  1  0.08144439  0.45568712  0.72785133  1
  O2-  O219  1  0.08068736  0.96197996  0.07047091  1
  O2-  O220  1  0.08277428  0.94791730  0.39351374  1
  O2-  O221  1  0.08152065  0.95427151  0.73548042  1
  O2-  O222  1  0.59068429  0.45396436  0.06859955  1
  O2-  O223  1  0.58373896  0.45837968  0.39488202  1
  O2-  O224  1  0.58619809  0.46712818  0.73614172  1
  O2-  O225  1  0.58600254  0.95709369  0.06141749  1
  O2-  O226  1  0.58510304  0.95380485  0.39557607  1
  O2-  O227  1  0.58001804  0.95132464  0.73506265  1
  O2-  O228  1  0.20030012  0.33311694  0.06292593  1
  O2-  O229  1  0.21328644  0.33512851  0.40144030  1
  O2-  O230  1  0.20104817  0.33586130  0.72981746  1
  O2-  O231  1  0.20946540  0.83602671  0.07397368  1
  O2-  O232  1  0.20585478  0.83309199  0.39402384  1
  O2-  O233  1  0.21067291  0.83149921  0.73517764  1
  O2-  O234  1  0.70967586  0.33523386  0.06336664  1
  O2-  O235  1  0.69507310  0.33253331  0.39398461  1
  O2-  O236  1  0.70469019  0.33421071  0.73651352  1
  O2-  O237  1  0.70367421  0.83420453  0.06220998  1
  O2-  O238  1  0.69951024  0.83203652  0.39023313  1
  O2-  O239  1  0.70582034  0.82744025  0.73654596  1
  O2-  O240  1  0.45814469  0.41277033  0.26725566  1
  O2-  O241  1  0.46644866  0.41426691  0.59745817  1
  O2-  O242  1  0.45978608  0.41644887  0.94146361  1
  O2-  O243  1  0.46036224  0.91228019  0.26879117  1
  O2-  O244  1  0.45258878  0.91831524  0.60460339  1
  O2-  O245  1  0.45917814  0.91248432  0.92961433  1
  O2-  O246  1  0.95781828  0.42132436  0.26798848  1
  O2-  O247  1  0.95120272  0.42146245  0.59977878  1
  O2-  O248  1  0.95659262  0.41932134  0.93121667  1
  O2-  O249  1  0.95877937  0.91471100  0.26417929  1
  O2-  O250  1  0.95307478  0.91587581  0.60755712  1
  O2-  O251  1  0.95709801  0.91997190  0.93300246  1
  O2-  O252  1  0.33792417  0.29485509  0.26851044  1
  O2-  O253  1  0.33220270  0.29530374  0.60056380  1
  O2-  O254  1  0.33252835  0.30546395  0.94138165  1
  O2-  O255  1  0.33782520  0.79500930  0.27013086  1
  O2-  O256  1  0.33664602  0.79414699  0.60032588  1
  O2-  O257  1  0.32959296  0.78787773  0.93558208  1
  O2-  O258  1  0.82642247  0.29554480  0.26630956  1
  O2-  O259  1  0.82507860  0.29614862  0.60079902  1
  O2-  O260  1  0.83485772  0.28886313  0.93288603  1
  O2-  O261  1  0.83284016  0.78709525  0.26591918  1
  O2-  O262  1  0.83491001  0.79476771  0.60486782  1
  O2-  O263  1  0.83195820  0.79081624  0.93066338  1
  O2-  O264  1  0.41795532  0.04187777  0.05995372  1
  O2-  O265  1  0.41570465  0.03715925  0.40244466  1
  O2-  O266  1  0.42168825  0.05119718  0.73299952  1
  O2-  O267  1  0.41804482  0.54149952  0.07221719  1
  O2-  O268  1  0.41867928  0.54580633  0.39389331  1
  O2-  O269  1  0.41545254  0.53633730  0.73262431  1
  O2-  O270  1  0.91148044  0.04580443  0.06261414  1
  O2-  O271  1  0.91807198  0.03961283  0.39749871  1
  O2-  O272  1  0.91816159  0.04361145  0.73874909  1
  O2-  O273  1  0.91414603  0.54584281  0.06091720  1
  O2-  O274  1  0.91797631  0.54739298  0.40061299  1
  O2-  O275  1  0.91945302  0.55127250  0.72927269  1
  O2-  O276  1  0.30474520  0.16868981  0.06076908  1
  O2-  O277  1  0.29610185  0.16861687  0.39626848  1
  O2-  O278  1  0.29352336  0.17374323  0.73723744  1
  O2-  O279  1  0.28922270  0.66467828  0.07266993  1
  O2-  O280  1  0.30251236  0.66815529  0.39497808  1
  O2-  O281  1  0.29126877  0.66608270  0.73102697  1
  O2-  O282  1  0.78594907  0.16200578  0.06303383  1
  O2-  O283  1  0.78700472  0.16559895  0.39962560  1
  O2-  O284  1  0.78936053  0.16877614  0.73676524  1
  O2-  O285  1  0.79021878  0.66298044  0.06173529  1
  O2-  O286  1  0.78455645  0.66521192  0.40203184  1
  O2-  O287  1  0.79483147  0.66477717  0.73187886  1
