# generated using pymatgen
data_Ca2Al2SiO7
_symmetry_space_group_name_H-M   'P 1'
_cell_length_a   15.46179341
_cell_length_b   15.46375317
_cell_length_c   15.28684268
_cell_angle_alpha   89.98106881
_cell_angle_beta   89.98715973
_cell_angle_gamma   89.99183770
_symmetry_Int_Tables_number   1
_chemical_formula_structural   Ca2Al2SiO7
_chemical_formula_sum   'Ca48 Al48 Si24 O168'
_cell_volume   3655.04335037
_cell_formula_units_Z   24
loop_
 _symmetry_equiv_pos_site_id
 _symmetry_equiv_pos_as_xyz
  1  'x, y, z'
loop_
 _atom_type_symbol
 _atom_type_oxidation_number
  Ca2+  2.0
  Al0+  0.0
  Si0+  0.0
  O2-  -2.0
loop_
 _atom_site_type_symbol
 _atom_site_label
 _atom_site_symmetry_multiplicity
 _atom_site_fract_x
 _atom_site_fract_y
 _atom_site_fract_z
 _atom_site_occupancy
  Ca2+  Ca0  1  0.17454301  0.07488295  0.17830548  1
  Ca2+  Ca1  1  0.16913589  0.08356843  0.50256383  1
  Ca2+  Ca2  1  0.17283452  0.08532069  0.83614474  1
  Ca2+  Ca3  1  0.16887882  0.59004649  0.17661716  1
  Ca2+  Ca4  1  0.17957717  0.59494261  0.49875772  1
  Ca2+  Ca5  1  0.17125950  0.58992307  0.83738331  1
  Ca2+  Ca6  1  0.67284051  0.08028686  0.17436784  1
  Ca2+  Ca7  1  0.67431822  0.07454631  0.50279785  1
  Ca2+  Ca8  1  0.66345460  0.07166937  0.83633200  1
  Ca2+  Ca9  1  0.67356133  0.58709644  0.16989855  1
  Ca2+  Ca10  1  0.67530816  0.59369473  0.50443727  1
  Ca2+  Ca11  1  0.67598953  0.58742019  0.83974116  1
  Ca2+  Ca12  1  0.06933837  0.33234226  0.16615220  1
  Ca2+  Ca13  1  0.08129859  0.32139051  0.49160281  1
  Ca2+  Ca14  1  0.07781373  0.32929366  0.82965423  1
  Ca2+  Ca15  1  0.08935694  0.82403659  0.16781898  1
  Ca2+  Ca16  1  0.07952074  0.83223926  0.49388402  1
  Ca2+  Ca17  1  0.07459058  0.82862117  0.83194570  1
  Ca2+  Ca18  1  0.58534374  0.33327027  0.16193920  1
  Ca2+  Ca19  1  0.58052009  0.33133244  0.49568655  1
  Ca2+  Ca20  1  0.58581223  0.33453038  0.83347190  1
  Ca2+  Ca21  1  0.57361115  0.82332774  0.16412122  1
  Ca2+  Ca22  1  0.57952643  0.82518225  0.49548810  1
  Ca2+  Ca23  1  0.58283523  0.82452693  0.82847109  1
  Ca2+  Ca24  1  0.32878778  0.42607085  0.17350761  1
  Ca2+  Ca25  1  0.33361920  0.43093568  0.50264996  1
  Ca2+  Ca26  1  0.33189243  0.42399302  0.83292877  1
  Ca2+  Ca27  1  0.33427367  0.91916760  0.17596490  1
  Ca2+  Ca28  1  0.32859453  0.91989548  0.49882114  1
  Ca2+  Ca29  1  0.33898390  0.92678764  0.83999329  1
  Ca2+  Ca30  1  0.83307917  0.42108555  0.16913013  1
  Ca2+  Ca31  1  0.83987834  0.42792057  0.49923359  1
  Ca2+  Ca32  1  0.82970856  0.42646306  0.84387146  1
  Ca2+  Ca33  1  0.83229673  0.92309771  0.17475202  1
  Ca2+  Ca34  1  0.83096639  0.91550028  0.50728131  1
  Ca2+  Ca35  1  0.82840313  0.90840270  0.83055460  1
  Ca2+  Ca36  1  0.41187922  0.16313160  0.16350342  1
  Ca2+  Ca37  1  0.41176324  0.16263388  0.49665335  1
  Ca2+  Ca38  1  0.41086258  0.16539268  0.82918687  1
  Ca2+  Ca39  1  0.42001188  0.67672243  0.16120106  1
  Ca2+  Ca40  1  0.42609536  0.66637926  0.48832181  1
  Ca2+  Ca41  1  0.42931788  0.66670755  0.82726603  1
  Ca2+  Ca42  1  0.91492551  0.17529973  0.16511218  1
  Ca2+  Ca43  1  0.92719244  0.16901931  0.48737629  1
  Ca2+  Ca44  1  0.91999299  0.17660545  0.82505345  1
  Ca2+  Ca45  1  0.92711798  0.65308506  0.16461512  1
  Ca2+  Ca46  1  0.91551096  0.67023735  0.49438047  1
  Ca2+  Ca47  1  0.91768166  0.66363048  0.82832655  1
  Al0+  Al48  1  0.00221548  -0.00087562  0.00023706  1
  Al0+  Al49  1  0.00128579  0.00021752  0.33567794  1
  Al0+  Al50  1  0.00054982  0.00027864  0.66124759  1
  Al0+  Al51  1  0.00067144  0.49809283  -0.00731354  1
  Al0+  Al52  1  -0.00175288  0.49835738  0.33205495  1
  Al0+  Al53  1  0.00189119  0.49938927  0.66886505  1
  Al0+  Al54  1  0.50088037  0.00107194  0.00194717  1
  Al0+  Al55  1  0.50026966  -0.00003030  0.33398987  1
  Al0+  Al56  1  0.50061370  -0.00034267  0.67357650  1
  Al0+  Al57  1  0.49948382  0.49833043  -0.00081962  1
  Al0+  Al58  1  0.50147145  0.49752518  0.33215269  1
  Al0+  Al59  1  0.50011732  0.49900692  0.66652292  1
  Al0+  Al60  1  0.25062011  0.25046919  0.00416573  1
  Al0+  Al61  1  0.24981809  0.25014818  0.33130077  1
  Al0+  Al62  1  0.24998884  0.25075809  0.66649611  1
  Al0+  Al63  1  0.24916315  0.75311007  -0.00991438  1
  Al0+  Al64  1  0.25011740  0.75250693  0.33575014  1
  Al0+  Al65  1  0.25052098  0.75282017  0.67430345  1
  Al0+  Al66  1  0.74929882  0.25102438  -0.00340452  1
  Al0+  Al67  1  0.74855923  0.24970822  0.33538865  1
  Al0+  Al68  1  0.74945276  0.25077525  0.66362443  1
  Al0+  Al69  1  0.75074500  0.75070635  0.00455271  1
  Al0+  Al70  1  0.74914291  0.74924585  0.33214163  1
  Al0+  Al71  1  0.74980527  0.75002892  0.66745973  1
  Al0+  Al72  1  0.57141985  0.67770736  0.98384936  1
  Al0+  Al73  1  0.82092801  0.07190938  0.34594914  1
  Al0+  Al74  1  0.07108137  0.18087881  0.65313659  1
  Al0+  Al75  1  0.06933705  0.68054405  0.32339454  1
  Al0+  Al76  1  0.32191769  0.07232059  0.34946406  1
  Al0+  Al77  1  0.82065652  0.57009991  0.34783147  1
  Al0+  Al78  1  0.82239195  0.57171491  0.01648175  1
  Al0+  Al79  1  0.32157115  0.57121467  0.34359151  1
  Al0+  Al80  1  0.06985995  0.67866852  0.98608693  1
  Al0+  Al81  1  0.32210158  0.57292621  0.68112934  1
  Al0+  Al82  1  0.67780026  0.42808207  0.01536127  1
  Al0+  Al83  1  0.92968410  0.81770816  0.65372207  1
  Al0+  Al84  1  0.92815467  0.31905816  0.98365233  1
  Al0+  Al85  1  0.17862164  0.92782188  0.34951785  1
  Al0+  Al86  1  0.42989494  0.82324187  0.98258211  1
  Al0+  Al87  1  0.42928586  0.82106259  0.32043174  1
  Al0+  Al88  1  0.31846722  0.07009694  0.68146602  1
  Al0+  Al89  1  0.32059036  0.07049014  0.01522149  1
  Al0+  Al90  1  0.07304694  0.17644159  0.31535036  1
  Al0+  Al91  1  0.56910754  0.67876930  0.65245032  1
  Al0+  Al92  1  0.92720671  0.32003426  0.31802691  1
  Al0+  Al93  1  0.68085076  0.92999445  0.68040597  1
  Al0+  Al94  1  0.82089285  0.56964436  0.67985899  1
  Al0+  Al95  1  0.57302969  0.67590332  0.31699940  1
  Si0+  Si96  1  0.92665122  0.32346413  0.64833239  1
  Si0+  Si97  1  0.18067412  0.42804203  0.68328599  1
  Si0+  Si98  1  0.92748930  0.82577733  0.98526653  1
  Si0+  Si99  1  0.17732539  0.42874256  0.34886901  1
  Si0+  Si100  1  0.67716799  0.42532645  0.68281741  1
  Si0+  Si101  1  0.56974743  0.17930479  0.31939753  1
  Si0+  Si102  1  0.42988413  0.31964642  0.65153288  1
  Si0+  Si103  1  0.42849039  0.32148535  0.31783445  1
  Si0+  Si104  1  0.42631106  0.32036293  0.98443087  1
  Si0+  Si105  1  0.31925165  0.57219565  0.01316550  1
  Si0+  Si106  1  0.82126752  0.07127479  0.01157464  1
  Si0+  Si107  1  0.67712333  0.42676298  0.35168594  1
  Si0+  Si108  1  0.07263611  0.17800769  0.98389006  1
  Si0+  Si109  1  0.92623637  0.82269692  0.31725643  1
  Si0+  Si110  1  0.57162322  0.17660474  0.65183176  1
  Si0+  Si111  1  0.07468303  0.67658234  0.64989833  1
  Si0+  Si112  1  0.67894066  0.92818014  0.34963866  1
  Si0+  Si113  1  0.57074963  0.17985677  0.98493343  1
  Si0+  Si114  1  0.17712199  0.92738493  0.01711779  1
  Si0+  Si115  1  0.17939006  0.42889834  0.01468136  1
  Si0+  Si116  1  0.17426800  0.92819929  0.68719847  1
  Si0+  Si117  1  0.42771611  0.82438954  0.65049420  1
  Si0+  Si118  1  0.82336990  0.07330967  0.68272014  1
  Si0+  Si119  1  0.67922622  0.92922484  0.01712292  1
  O2-  O120  1  0.24786955  -0.00567674  0.06023536  1
  O2-  O121  1  0.24785312  0.00312302  0.39924655  1
  O2-  O122  1  0.24548386  -0.00472164  0.73039007  1
  O2-  O123  1  0.24556125  0.50460483  0.05674092  1
  O2-  O124  1  0.24517562  0.49868780  0.39248746  1
  O2-  O125  1  0.24322468  0.50231765  0.72835944  1
  O2-  O126  1  0.75380130  -0.00183054  0.05627405  1
  O2-  O127  1  0.75158664  -0.00711693  0.39357008  1
  O2-  O128  1  0.75483115  0.00572066  0.72895829  1
  O2-  O129  1  0.74713642  0.50198794  0.06552339  1
  O2-  O130  1  0.74341561  0.49779272  0.39500795  1
  O2-  O131  1  0.74765227  0.49255949  0.72522663  1
  O2-  O132  1  -0.00208462  0.24651142  0.26749874  1
  O2-  O133  1  -0.00692618  0.25203894  0.60617016  1
  O2-  O134  1  0.00185856  0.24303039  0.93733745  1
  O2-  O135  1  -0.00622748  0.75289302  0.27360665  1
  O2-  O136  1  0.00461026  0.74375044  0.60641824  1
  O2-  O137  1  -0.00859843  0.75147538  0.94293989  1
  O2-  O138  1  0.49697327  0.24774763  0.27615527  1
  O2-  O139  1  0.50153325  0.24869596  0.60995457  1
  O2-  O140  1  0.49831932  0.24971963  0.94271016  1
  O2-  O141  1  0.49784682  0.74596851  0.26996089  1
  O2-  O142  1  0.48991351  0.74971669  0.60685354  1
  O2-  O143  1  0.49967817  0.74932199  0.93218619  1
  O2-  O144  1  0.07147134  0.17957891  0.08872145  1
  O2-  O145  1  0.07355037  0.18094196  0.42929556  1
  O2-  O146  1  0.07027047  0.18452977  0.76692101  1
  O2-  O147  1  0.07259011  0.67901707  0.09914850  1
  O2-  O148  1  0.06926103  0.68178942  0.43639328  1
  O2-  O149  1  0.07311723  0.67754328  0.75576441  1
  O2-  O150  1  0.57186714  0.17979570  0.09005406  1
  O2-  O151  1  0.57031263  0.18094933  0.42469293  1
  O2-  O152  1  0.57232480  0.17738390  0.75711712  1
  O2-  O153  1  0.56886400  0.67910388  0.09700141  1
  O2-  O154  1  0.57246777  0.67833409  0.43096422  1
  O2-  O155  1  0.56994202  0.67969786  0.76547097  1
  O2-  O156  1  0.17946188  0.42942298  0.24279492  1
  O2-  O157  1  0.18433547  0.42476630  0.57809628  1
  O2-  O158  1  0.18343435  0.42576098  0.90943076  1
  O2-  O159  1  0.18115422  0.92637027  0.23568812  1
  O2-  O160  1  0.17377069  0.92717351  0.58213249  1
  O2-  O161  1  0.17296429  0.93078784  0.91158982  1
  O2-  O162  1  0.67669760  0.42331782  0.24646998  1
  O2-  O163  1  0.67535721  0.42169678  0.57748238  1
  O2-  O164  1  0.68043216  0.42493867  0.90164045  1
  O2-  O165  1  0.67879089  0.93195967  0.24361197  1
  O2-  O166  1  0.68120076  0.93297461  0.56754526  1
  O2-  O167  1  0.67833792  0.93069840  0.91180959  1
  O2-  O168  1  0.42434304  0.31987546  0.08934134  1
  O2-  O169  1  0.43055425  0.32364260  0.42311571  1
  O2-  O170  1  0.42980509  0.31940692  0.75698412  1
  O2-  O171  1  0.43045736  0.82273899  0.09599181  1
  O2-  O172  1  0.43192677  0.82184050  0.43427698  1
  O2-  O173  1  0.43198522  0.82605612  0.75609575  1
  O2-  O174  1  0.92788992  0.31728769  0.09625105  1
  O2-  O175  1  0.92977916  0.31959900  0.43180272  1
  O2-  O176  1  0.92641018  0.32192205  0.75422550  1
  O2-  O177  1  0.93011089  0.83461395  0.09005577  1
  O2-  O178  1  0.92476591  0.82065397  0.42300950  1
  O2-  O179  1  0.93029041  0.81654825  0.76724732  1
  O2-  O180  1  0.32288725  0.07052154  0.23590987  1
  O2-  O181  1  0.31885195  0.07084158  0.56918431  1
  O2-  O182  1  0.31820751  0.07270538  0.90181627  1
  O2-  O183  1  0.31981199  0.56886610  0.23007180  1
  O2-  O184  1  0.32325035  0.57007361  0.56806518  1
  O2-  O185  1  0.31893596  0.56760817  0.90784282  1
  O2-  O186  1  0.81567699  0.07174793  0.23197964  1
  O2-  O187  1  0.82056624  0.07314465  0.57736604  1
  O2-  O188  1  0.81863784  0.07102555  0.90638145  1
  O2-  O189  1  0.82252878  0.56744821  0.23529165  1
  O2-  O190  1  0.82056706  0.56902871  0.56673120  1
  O2-  O191  1  0.82192776  0.56994090  0.90243851  1
  O2-  O192  1  0.04690571  0.07676146  0.26487580  1
  O2-  O193  1  0.04471899  0.08376638  0.59931510  1
  O2-  O194  1  0.05087563  0.08296313  0.93882015  1
  O2-  O195  1  0.04155982  0.58316153  0.26903186  1
  O2-  O196  1  0.05396327  0.58083926  0.60678614  1
  O2-  O197  1  0.04474005  0.58197801  0.92924164  1
  O2-  O198  1  0.54540212  0.08738881  0.27079447  1
  O2-  O199  1  0.54206859  0.08535237  0.60520094  1
  O2-  O200  1  0.54341235  0.08827174  0.93702496  1
  O2-  O201  1  0.54897915  0.57552759  0.26707149  1
  O2-  O202  1  0.54243917  0.58015612  0.60017094  1
  O2-  O203  1  0.54303071  0.57816340  0.93212598  1
  O2-  O204  1  0.17096045  0.20748288  0.26278581  1
  O2-  O205  1  0.16643721  0.21556742  0.59919738  1
  O2-  O206  1  0.16545475  0.20944953  0.93860164  1
  O2-  O207  1  0.16556766  0.71182926  0.26902364  1
  O2-  O208  1  0.16945767  0.70480600  0.60759896  1
  O2-  O209  1  0.16372302  0.71181462  0.92745339  1
  O2-  O210  1  0.66010429  0.20912700  0.27037610  1
  O2-  O211  1  0.66335818  0.20326396  0.60280143  1
  O2-  O212  1  0.66065964  0.20773331  0.93396654  1
  O2-  O213  1  0.66990248  0.70815349  0.26340208  1
  O2-  O214  1  0.66420709  0.71486445  0.59993538  1
  O2-  O215  1  0.67166889  0.70840473  0.93524991  1
  O2-  O216  1  0.08569801  0.45227937  0.05864533  1
  O2-  O217  1  0.08384269  0.45124276  0.39501706  1
  O2-  O218  1  0.08524831  0.44723518  0.72867242  1
  O2-  O219  1  0.08451303  0.95376005  0.06540082  1
  O2-  O220  1  0.07922547  0.95215280  0.40225379  1
  O2-  O221  1  0.08140828  0.95766658  0.73324152  1
  O2-  O222  1  0.57608840  0.44886044  0.06587344  1
  O2-  O223  1  0.58243075  0.44822482  0.39765894  1
  O2-  O224  1  0.58355371  0.45012492  0.72896161  1
  O2-  O225  1  0.59031179  0.96349233  0.06549614  1
  O2-  O226  1  0.58814528  0.95967617  0.39703268  1
  O2-  O227  1  0.58668300  0.96293008  0.73841562  1
  O2-  O228  1  0.21215905  0.34030919  0.06504019  1
  O2-  O229  1  0.20660847  0.33631110  0.39482198  1
  O2-  O230  1  0.21369599  0.33835386  0.73335700  1
  O2-  O231  1  0.20197545  0.83211933  0.05971372  1
  O2-  O232  1  0.20939925  0.83212210  0.40679968  1
  O2-  O233  1  0.19675359  0.83440955  0.73464881  1
  O2-  O234  1  0.70716067  0.32864489  0.06725136  1
  O2-  O235  1  0.70312425  0.33392319  0.39973152  1
  O2-  O236  1  0.70027176  0.33035757  0.72901071  1
  O2-  O237  1  0.70419675  0.83821180  0.06629285  1
  O2-  O238  1  0.70115179  0.83374700  0.39455313  1
  O2-  O239  1  0.71438784  0.83557317  0.73646185  1
  O2-  O240  1  0.45888997  0.41071116  0.26693231  1
  O2-  O241  1  0.45826713  0.41040275  0.60250313  1
  O2-  O242  1  0.45301535  0.41153638  0.93508196  1
  O2-  O243  1  0.46110412  0.91874575  0.26669870  1
  O2-  O244  1  0.45985484  0.91641393  0.60528217  1
  O2-  O245  1  0.46254294  0.92194129  0.93158862  1
  O2-  O246  1  0.95872326  0.41658314  0.26341759  1
  O2-  O247  1  0.95621948  0.41645678  0.60355188  1
  O2-  O248  1  0.96198535  0.41301738  0.92692464  1
  O2-  O249  1  0.95133580  0.91654210  0.27231783  1
  O2-  O250  1  0.95672567  0.91553913  0.60007768  1
  O2-  O251  1  0.95783451  0.91645780  0.93375290  1
  O2-  O252  1  0.33650485  0.29752599  0.26935014  1
  O2-  O253  1  0.33921737  0.29108673  0.60358414  1
  O2-  O254  1  0.33561272  0.29057359  0.93512981  1
  O2-  O255  1  0.33079695  0.79495254  0.26765854  1
  O2-  O256  1  0.33005739  0.80584649  0.61096851  1
  O2-  O257  1  0.33053021  0.80133512  0.92911667  1
  O2-  O258  1  0.82802780  0.29091239  0.26662012  1
  O2-  O259  1  0.83165709  0.30189724  0.60342966  1
  O2-  O260  1  0.83228601  0.28758348  0.92797308  1
  O2-  O261  1  0.83221998  0.80032710  0.27100640  1
  O2-  O262  1  0.83371973  0.78784846  0.59881522  1
  O2-  O263  1  0.83181685  0.80462235  0.94223002  1
  O2-  O264  1  0.41945953  0.04449979  0.06707559  1
  O2-  O265  1  0.42125918  0.04447961  0.40160002  1
  O2-  O266  1  0.41607330  0.04264749  0.73616340  1
  O2-  O267  1  0.40966227  0.54061437  0.05988186  1
  O2-  O268  1  0.41667860  0.53533985  0.39785731  1
  O2-  O269  1  0.41614722  0.53389864  0.73567818  1
  O2-  O270  1  0.91443339  0.04682712  0.05779086  1
  O2-  O271  1  0.91851090  0.04683863  0.39871489  1
  O2-  O272  1  0.91732840  0.04833585  0.72758467  1
  O2-  O273  1  0.92175138  0.53741967  0.06428387  1
  O2-  O274  1  0.91664746  0.53712355  0.40253038  1
  O2-  O275  1  0.91944076  0.54228168  0.73296820  1
  O2-  O276  1  0.29118971  0.16779581  0.06863795  1
  O2-  O277  1  0.29732987  0.17337179  0.39934955  1
  O2-  O278  1  0.28807238  0.16790555  0.73472565  1
  O2-  O279  1  0.29285477  0.66647981  0.05516255  1
  O2-  O280  1  0.29207644  0.66633734  0.39945867  1
  O2-  O281  1  0.29633757  0.66996404  0.73693845  1
  O2-  O282  1  0.78909810  0.16137267  0.05885840  1
  O2-  O283  1  0.78467896  0.16536629  0.40243970  1
  O2-  O284  1  0.79709031  0.16799665  0.72701319  1
  O2-  O285  1  0.80074953  0.67219483  0.06860895  1
  O2-  O286  1  0.79154763  0.66847452  0.40010600  1
  O2-  O287  1  0.78809657  0.66499788  0.73402128  1
