# generated using pymatgen
data_Ca2Al2SiO7
_symmetry_space_group_name_H-M   'P 1'
_cell_length_a   15.45753553
_cell_length_b   15.45681778
_cell_length_c   15.28311361
_cell_angle_alpha   90.00179911
_cell_angle_beta   89.99660371
_cell_angle_gamma   89.98485099
_symmetry_Int_Tables_number   1
_chemical_formula_structural   Ca2Al2SiO7
_chemical_formula_sum   'Ca48 Al48 Si24 O168'
_cell_volume   3651.50723892
_cell_formula_units_Z   24
loop_
 _symmetry_equiv_pos_site_id
 _symmetry_equiv_pos_as_xyz
  1  'x, y, z'
loop_
 _atom_type_symbol
 _atom_type_oxidation_number
  Ca2+  2.0
  Al0+  0.0
  Si0+  0.0
  O2-  -2.0
loop_
 _atom_site_type_symbol
 _atom_site_label
 _atom_site_symmetry_multiplicity
 _atom_site_fract_x
 _atom_site_fract_y
 _atom_site_fract_z
 _atom_site_occupancy
  Ca2+  Ca0  1  0.17027411  0.08480442  0.17183264  1
  Ca2+  Ca1  1  0.16433012  0.07646858  0.50516210  1
  Ca2+  Ca2  1  0.17151360  0.07120397  0.83819594  1
  Ca2+  Ca3  1  0.16735998  0.58387617  0.17086896  1
  Ca2+  Ca4  1  0.15596834  0.57642374  0.50286170  1
  Ca2+  Ca5  1  0.16616065  0.58555974  0.83717869  1
  Ca2+  Ca6  1  0.67359471  0.08097356  0.16765868  1
  Ca2+  Ca7  1  0.67462999  0.07931268  0.50698906  1
  Ca2+  Ca8  1  0.67790443  0.08077322  0.83868015  1
  Ca2+  Ca9  1  0.66558033  0.57994196  0.17575589  1
  Ca2+  Ca10  1  0.66915594  0.58652962  0.49512534  1
  Ca2+  Ca11  1  0.66708042  0.57774560  0.84273615  1
  Ca2+  Ca12  1  0.08005488  0.33254461  0.16500627  1
  Ca2+  Ca13  1  0.08412443  0.33170222  0.49440944  1
  Ca2+  Ca14  1  0.07015721  0.33571007  0.82687131  1
  Ca2+  Ca15  1  0.07902883  0.82065870  0.16576064  1
  Ca2+  Ca16  1  0.07849561  0.82575149  0.49645419  1
  Ca2+  Ca17  1  0.08619054  0.82267162  0.82555649  1
  Ca2+  Ca18  1  0.58113438  0.34375856  0.16481179  1
  Ca2+  Ca19  1  0.57698704  0.33503160  0.49253946  1
  Ca2+  Ca20  1  0.58442885  0.33434384  0.83283274  1
  Ca2+  Ca21  1  0.57705900  0.81929581  0.16273471  1
  Ca2+  Ca22  1  0.57209959  0.83122609  0.49080397  1
  Ca2+  Ca23  1  0.57193368  0.83299358  0.83165852  1
  Ca2+  Ca24  1  0.33094992  0.42552084  0.17548185  1
  Ca2+  Ca25  1  0.32153570  0.41558127  0.50147106  1
  Ca2+  Ca26  1  0.32254375  0.42493875  0.84005714  1
  Ca2+  Ca27  1  0.34101115  0.91797574  0.16711535  1
  Ca2+  Ca28  1  0.32890925  0.91017141  0.50678558  1
  Ca2+  Ca29  1  0.33119728  0.91100892  0.83846999  1
  Ca2+  Ca30  1  0.82334978  0.42114139  0.17265345  1
  Ca2+  Ca31  1  0.83513462  0.42431589  0.50075409  1
  Ca2+  Ca32  1  0.83110163  0.41334960  0.84161986  1
  Ca2+  Ca33  1  0.83982329  0.91970015  0.17242571  1
  Ca2+  Ca34  1  0.84339669  0.91964241  0.50754996  1
  Ca2+  Ca35  1  0.84520097  0.92825531  0.83507197  1
  Ca2+  Ca36  1  0.41447609  0.17422495  0.16361065  1
  Ca2+  Ca37  1  0.41751792  0.17360492  0.49168112  1
  Ca2+  Ca38  1  0.41665558  0.16269156  0.83314245  1
  Ca2+  Ca39  1  0.42276951  0.67005116  0.15785842  1
  Ca2+  Ca40  1  0.42025080  0.67700948  0.49278223  1
  Ca2+  Ca41  1  0.41685607  0.67079383  0.83481801  1
  Ca2+  Ca42  1  0.92191290  0.17089996  0.16104489  1
  Ca2+  Ca43  1  0.92134521  0.17085701  0.49799562  1
  Ca2+  Ca44  1  0.90601504  0.17559232  0.83026866  1
  Ca2+  Ca45  1  0.92484051  0.65840052  0.16586462  1
  Ca2+  Ca46  1  0.92461457  0.67243812  0.49202951  1
  Ca2+  Ca47  1  0.93015841  0.66968177  0.82479798  1
  Al0+  Al48  1  0.00244942  0.00057728  0.00622269  1
  Al0+  Al49  1  0.00330454  0.00133201  0.32649176  1
  Al0+  Al50  1  0.00298819  0.00165617  0.67589035  1
  Al0+  Al51  1  -0.00171209  0.49812563  -0.00847253  1
  Al0+  Al52  1  -0.00142965  0.49913389  0.33709328  1
  Al0+  Al53  1  -0.00211422  0.49790393  0.66422068  1
  Al0+  Al54  1  0.50012250  0.00100899  0.00115456  1
  Al0+  Al55  1  0.50192965  0.00310823  0.33105797  1
  Al0+  Al56  1  0.50233739  0.00044852  0.66231055  1
  Al0+  Al57  1  0.49747904  0.49990784  0.00156146  1
  Al0+  Al58  1  0.49839252  0.49986345  0.33374579  1
  Al0+  Al59  1  0.49986786  0.49942042  0.66669923  1
  Al0+  Al60  1  0.24851984  0.24753965  0.00124684  1
  Al0+  Al61  1  0.25143742  0.25042687  0.32954115  1
  Al0+  Al62  1  0.24967857  0.25162135  0.67359537  1
  Al0+  Al63  1  0.24878706  0.74882443  -0.00174821  1
  Al0+  Al64  1  0.24821856  0.75255721  0.32687389  1
  Al0+  Al65  1  0.25228374  0.74817828  0.66230093  1
  Al0+  Al66  1  0.74911219  0.24925272  0.00661829  1
  Al0+  Al67  1  0.74974620  0.24923943  0.33896095  1
  Al0+  Al68  1  0.74949008  0.24958811  0.66433766  1
  Al0+  Al69  1  0.75046304  0.75049799  -0.00517967  1
  Al0+  Al70  1  0.74832462  0.75273888  0.33143914  1
  Al0+  Al71  1  0.74912775  0.74962916  0.66709420  1
  Al0+  Al72  1  0.17998637  0.42901881  0.34549783  1
  Al0+  Al73  1  0.42704501  0.82398006  0.31692324  1
  Al0+  Al74  1  0.57251174  0.67551095  0.98334691  1
  Al0+  Al75  1  0.92899001  0.31667787  0.98807297  1
  Al0+  Al76  1  0.07120981  0.18030471  0.32066362  1
  Al0+  Al77  1  0.18164382  0.92753866  0.67922933  1
  Al0+  Al78  1  0.92973799  0.82389938  0.65477868  1
  Al0+  Al79  1  0.67659358  0.42851926  0.35119275  1
  Al0+  Al80  1  0.82094968  0.07012379  0.68008854  1
  Al0+  Al81  1  0.82051223  0.57316877  0.34870492  1
  Al0+  Al82  1  0.82116486  0.06981042  0.01633692  1
  Al0+  Al83  1  0.92850221  0.82252079  0.31866031  1
  Al0+  Al84  1  0.67913170  0.43034843  0.01297831  1
  Al0+  Al85  1  0.92689446  0.31954445  0.65096971  1
  Al0+  Al86  1  0.43034621  0.82149695  0.98395631  1
  Al0+  Al87  1  0.56980872  0.67920453  0.31890357  1
  Al0+  Al88  1  0.17683264  0.42869645  0.68218239  1
  Al0+  Al89  1  0.06889174  0.67894108  0.98489471  1
  Al0+  Al90  1  0.43117675  0.82071696  0.65211173  1
  Al0+  Al91  1  0.32174921  0.07066371  0.01509510  1
  Al0+  Al92  1  0.07170337  0.67800734  0.65008911  1
  Al0+  Al93  1  0.06917818  0.67566634  0.31730167  1
  Al0+  Al94  1  0.31787202  0.57034435  0.01368106  1
  Al0+  Al95  1  0.43000635  0.32014203  0.32031610  1
  Si0+  Si96  1  0.17961307  0.93010597  0.34761935  1
  Si0+  Si97  1  0.57075462  0.18007206  0.65189843  1
  Si0+  Si98  1  0.07421765  0.17974113  0.65316592  1
  Si0+  Si99  1  0.17501268  0.42779513  0.01586364  1
  Si0+  Si100  1  0.82416759  0.06973920  0.34949655  1
  Si0+  Si101  1  0.82312589  0.57277983  0.01286077  1
  Si0+  Si102  1  0.57286631  0.67488595  0.64934066  1
  Si0+  Si103  1  0.82038656  0.57161046  0.68267759  1
  Si0+  Si104  1  0.67608600  0.92721822  0.68341758  1
  Si0+  Si105  1  0.32196481  0.07137241  0.34829573  1
  Si0+  Si106  1  0.32350738  0.57007856  0.68281808  1
  Si0+  Si107  1  0.67765811  0.92745177  0.01681629  1
  Si0+  Si108  1  0.67873034  0.93136317  0.34827246  1
  Si0+  Si109  1  0.32051663  0.57502992  0.35006666  1
  Si0+  Si110  1  0.32464642  0.07253939  0.68152026  1
  Si0+  Si111  1  0.67840679  0.42948179  0.68187006  1
  Si0+  Si112  1  0.92813034  0.82522784  0.98323903  1
  Si0+  Si113  1  0.57438884  0.17883154  0.31586841  1
  Si0+  Si114  1  0.42806621  0.32098317  0.65417352  1
  Si0+  Si115  1  0.07394693  0.17604656  0.98102114  1
  Si0+  Si116  1  0.17946307  0.92673973  0.02022993  1
  Si0+  Si117  1  0.42640212  0.32124167  0.98417884  1
  Si0+  Si118  1  0.92618681  0.32133694  0.31741065  1
  Si0+  Si119  1  0.57028452  0.18038809  0.98557538  1
  O2-  O120  1  0.24829026  -0.00368038  0.06356147  1
  O2-  O121  1  0.25525653  -0.00302828  0.39050982  1
  O2-  O122  1  0.25936696  0.00086342  0.72492254  1
  O2-  O123  1  0.24405371  0.49488600  0.06064238  1
  O2-  O124  1  0.24975020  0.50802991  0.39430715  1
  O2-  O125  1  0.25065540  0.50517367  0.72674412  1
  O2-  O126  1  0.75205791  -0.01029312  0.06240979  1
  O2-  O127  1  0.75410587  -0.00218858  0.39173935  1
  O2-  O128  1  0.75042876  -0.00945687  0.72679856  1
  O2-  O129  1  0.74925340  0.51003483  0.05730414  1
  O2-  O130  1  0.74864795  0.50066076  0.40060346  1
  O2-  O131  1  0.74794939  0.50106568  0.72442939  1
  O2-  O132  1  -0.00370546  0.25424390  0.27350511  1
  O2-  O133  1  0.00579729  0.24766686  0.60731095  1
  O2-  O134  1  0.00317538  0.24257814  0.93787336  1
  O2-  O135  1  -0.00602297  0.74513304  0.26809947  1
  O2-  O136  1  -0.00092093  0.75113472  0.60280011  1
  O2-  O137  1  -0.00658057  0.75381250  0.93935713  1
  O2-  O138  1  0.50960139  0.25102821  0.27227530  1
  O2-  O139  1  0.49619094  0.24765175  0.61110075  1
  O2-  O140  1  0.49783030  0.24990264  0.94209119  1
  O2-  O141  1  0.49473052  0.74765245  0.26868072  1
  O2-  O142  1  0.50754638  0.74733123  0.60674705  1
  O2-  O143  1  0.50233368  0.74953921  0.93352049  1
  O2-  O144  1  0.07487780  0.17780868  0.08676822  1
  O2-  O145  1  0.06956435  0.17798208  0.43409186  1
  O2-  O146  1  0.07545042  0.18151810  0.75846952  1
  O2-  O147  1  0.06760126  0.67715886  0.09761148  1
  O2-  O148  1  0.07014552  0.67821706  0.43056433  1
  O2-  O149  1  0.07113511  0.67902740  0.76397307  1
  O2-  O150  1  0.57033888  0.18084064  0.09042958  1
  O2-  O151  1  0.57148765  0.17562542  0.42186315  1
  O2-  O152  1  0.57189712  0.18064942  0.75714544  1
  O2-  O153  1  0.57094500  0.67504987  0.09639674  1
  O2-  O154  1  0.56862814  0.68350675  0.43311600  1
  O2-  O155  1  0.57106457  0.67103426  0.75462930  1
  O2-  O156  1  0.18302943  0.42731459  0.23241533  1
  O2-  O157  1  0.18126242  0.42422730  0.56920838  1
  O2-  O158  1  0.17662876  0.42826481  0.91004180  1
  O2-  O159  1  0.17804714  0.93337305  0.24283579  1
  O2-  O160  1  0.18155206  0.93114150  0.56587169  1
  O2-  O161  1  0.17952380  0.92819495  0.91426650  1
  O2-  O162  1  0.67954438  0.42705506  0.23767933  1
  O2-  O163  1  0.67596080  0.42930070  0.57742913  1
  O2-  O164  1  0.68155054  0.42726398  0.89897327  1
  O2-  O165  1  0.67707234  0.93621192  0.24341821  1
  O2-  O166  1  0.67132584  0.93256126  0.57792234  1
  O2-  O167  1  0.67476800  0.93260010  0.91116065  1
  O2-  O168  1  0.42649616  0.32012153  0.08907500  1
  O2-  O169  1  0.42804422  0.31501515  0.43417828  1
  O2-  O170  1  0.43048295  0.32097730  0.75941216  1
  O2-  O171  1  0.43370503  0.82181830  0.09693250  1
  O2-  O172  1  0.42947068  0.82523882  0.43102228  1
  O2-  O173  1  0.43223134  0.82237442  0.76478303  1
  O2-  O174  1  0.93064328  0.31589790  0.10098764  1
  O2-  O175  1  0.92586549  0.31822519  0.42318511  1
  O2-  O176  1  0.92322013  0.31720056  0.76424955  1
  O2-  O177  1  0.92980222  0.82608086  0.08864007  1
  O2-  O178  1  0.93402148  0.82735445  0.43203186  1
  O2-  O179  1  0.93223307  0.82189028  0.76846076  1
  O2-  O180  1  0.32104545  0.07249011  0.24340978  1
  O2-  O181  1  0.32418115  0.07592197  0.57587580  1
  O2-  O182  1  0.32024684  0.07133051  0.90165398  1
  O2-  O183  1  0.32077461  0.57208395  0.24439673  1
  O2-  O184  1  0.32907699  0.56587734  0.57763701  1
  O2-  O185  1  0.31741829  0.56792483  0.90012188  1
  O2-  O186  1  0.82214545  0.07061477  0.24443138  1
  O2-  O187  1  0.81839899  0.07118425  0.56675358  1
  O2-  O188  1  0.81726709  0.07163117  0.90309564  1
  O2-  O189  1  0.82120540  0.56903841  0.23478336  1
  O2-  O190  1  0.81927637  0.57198493  0.57796763  1
  O2-  O191  1  0.82383384  0.56853787  0.90692180  1
  O2-  O192  1  0.04112182  0.08645465  0.26177923  1
  O2-  O193  1  0.04803657  0.08571742  0.60904394  1
  O2-  O194  1  0.05023088  0.08047253  0.93857798  1
  O2-  O195  1  0.04286337  0.57593161  0.26560797  1
  O2-  O196  1  0.04029141  0.57992530  0.59942490  1
  O2-  O197  1  0.03899383  0.58307869  0.92849220  1
  O2-  O198  1  0.54522874  0.08800019  0.26679541  1
  O2-  O199  1  0.54669612  0.08851902  0.60180650  1
  O2-  O200  1  0.54309588  0.08921192  0.93650560  1
  O2-  O201  1  0.54564232  0.57911059  0.26909316  1
  O2-  O202  1  0.54388721  0.58237358  0.60203194  1
  O2-  O203  1  0.54006749  0.57773666  0.93009405  1
  O2-  O204  1  0.16671763  0.21068540  0.26501954  1
  O2-  O205  1  0.16843036  0.20492110  0.60696127  1
  O2-  O206  1  0.16741899  0.20120279  0.93424420  1
  O2-  O207  1  0.16613296  0.70757777  0.26388972  1
  O2-  O208  1  0.17096595  0.70247460  0.59822882  1
  O2-  O209  1  0.16478966  0.71087191  0.93070737  1
  O2-  O210  1  0.67009009  0.19961800  0.27236170  1
  O2-  O211  1  0.65962230  0.21126376  0.60149175  1
  O2-  O212  1  0.66098684  0.21103490  0.93775792  1
  O2-  O213  1  0.66673560  0.70987841  0.26512306  1
  O2-  O214  1  0.66780953  0.69725215  0.60526598  1
  O2-  O215  1  0.67229033  0.70062847  0.93024152  1
  O2-  O216  1  0.08085953  0.45399316  0.05972309  1
  O2-  O217  1  0.08191286  0.45257618  0.39983781  1
  O2-  O218  1  0.07850677  0.45655216  0.73414104  1
  O2-  O219  1  0.08677264  0.95353087  0.06753241  1
  O2-  O220  1  0.08989589  0.96474400  0.39529230  1
  O2-  O221  1  0.08893911  0.96087439  0.73937432  1
  O2-  O222  1  0.58052156  0.45533301  0.06474277  1
  O2-  O223  1  0.57688176  0.45508985  0.40379510  1
  O2-  O224  1  0.58577104  0.45528189  0.73023822  1
  O2-  O225  1  0.58775579  0.96114629  0.06498649  1
  O2-  O226  1  0.58912135  0.96605435  0.39799247  1
  O2-  O227  1  0.58561203  0.96165996  0.73185746  1
  O2-  O228  1  0.19904186  0.33262470  0.05918570  1
  O2-  O229  1  0.21664431  0.33343363  0.39979034  1
  O2-  O230  1  0.21013734  0.33404257  0.73991469  1
  O2-  O231  1  0.20521727  0.83351329  0.06521987  1
  O2-  O232  1  0.20314752  0.83688871  0.39430342  1
  O2-  O233  1  0.21310770  0.83048239  0.73222068  1
  O2-  O234  1  0.71105744  0.33567950  0.06942613  1
  O2-  O235  1  0.70316647  0.32840049  0.40409791  1
  O2-  O236  1  0.70652498  0.33704008  0.72800694  1
  O2-  O237  1  0.69742356  0.83089507  0.05898436  1
  O2-  O238  1  0.69878411  0.83844662  0.39549012  1
  O2-  O239  1  0.69267452  0.83090317  0.72708105  1
  O2-  O240  1  0.45510306  0.41775173  0.26695545  1
  O2-  O241  1  0.45894467  0.41092835  0.60543997  1
  O2-  O242  1  0.45464251  0.41168140  0.93549251  1
  O2-  O243  1  0.46007025  0.92223814  0.26639887  1
  O2-  O244  1  0.46006789  0.91851180  0.59778410  1
  O2-  O245  1  0.45910980  0.92120074  0.93196376  1
  O2-  O246  1  0.95014818  0.41501803  0.27294579  1
  O2-  O247  1  0.95499848  0.41609886  0.59752663  1
  O2-  O248  1  0.95772680  0.41173263  0.92973719  1
  O2-  O249  1  0.96327961  0.91781783  0.26258312  1
  O2-  O250  1  0.95896623  0.92401013  0.60566268  1
  O2-  O251  1  0.95789364  0.91907371  0.93920858  1
  O2-  O252  1  0.33765614  0.28376783  0.26282479  1
  O2-  O253  1  0.33551984  0.29420070  0.60804082  1
  O2-  O254  1  0.33463013  0.29176601  0.93683881  1
  O2-  O255  1  0.32721897  0.80390276  0.26528705  1
  O2-  O256  1  0.33629914  0.78887938  0.59643973  1
  O2-  O257  1  0.33139568  0.79250612  0.93314200  1
  O2-  O258  1  0.83269927  0.29256693  0.27279806  1
  O2-  O259  1  0.83199414  0.28536657  0.59574139  1
  O2-  O260  1  0.83169446  0.28350844  0.93544551  1
  O2-  O261  1  0.82689929  0.80547063  0.26902463  1
  O2-  O262  1  0.82770212  0.80148775  0.60566364  1
  O2-  O263  1  0.83247875  0.80783860  0.93820046  1
  O2-  O264  1  0.41952203  0.04415833  0.06916713  1
  O2-  O265  1  0.41635755  0.04955277  0.39459823  1
  O2-  O266  1  0.42031391  0.05027521  0.72549325  1
  O2-  O267  1  0.41341183  0.53777944  0.06805174  1
  O2-  O268  1  0.41279956  0.54677494  0.39716781  1
  O2-  O269  1  0.41505166  0.53914947  0.73199518  1
  O2-  O270  1  0.91991382  0.04544940  0.06951790  1
  O2-  O271  1  0.91706891  0.04244215  0.39452060  1
  O2-  O272  1  0.91758909  0.04673607  0.73766027  1
  O2-  O273  1  0.91429981  0.53934921  0.05914066  1
  O2-  O274  1  0.91751546  0.54277577  0.40402055  1
  O2-  O275  1  0.91109025  0.54087497  0.72989981  1
  O2-  O276  1  0.29046855  0.16763798  0.06961870  1
  O2-  O277  1  0.29043864  0.16153554  0.39662521  1
  O2-  O278  1  0.29824372  0.16460612  0.73087375  1
  O2-  O279  1  0.28827720  0.66694151  0.06724849  1
  O2-  O280  1  0.29744015  0.67075728  0.39297968  1
  O2-  O281  1  0.30118797  0.66490797  0.72683578  1
  O2-  O282  1  0.78357127  0.16254004  0.07281470  1
  O2-  O283  1  0.79549410  0.16080019  0.39822808  1
  O2-  O284  1  0.78111320  0.16483748  0.73353428  1
  O2-  O285  1  0.80649826  0.66981365  0.05506639  1
  O2-  O286  1  0.79190960  0.67280333  0.40059868  1
  O2-  O287  1  0.79479520  0.66392823  0.73123140  1
