# generated using pymatgen
data_Ca2Al2SiO7
_symmetry_space_group_name_H-M   'P 1'
_cell_length_a   15.45772711
_cell_length_b   15.45766894
_cell_length_c   15.28397831
_cell_angle_alpha   90.01338031
_cell_angle_beta   90.00219491
_cell_angle_gamma   89.98470850
_symmetry_Int_Tables_number   1
_chemical_formula_structural   Ca2Al2SiO7
_chemical_formula_sum   'Ca48 Al48 Si24 O168'
_cell_volume   3651.96008920
_cell_formula_units_Z   24
loop_
 _symmetry_equiv_pos_site_id
 _symmetry_equiv_pos_as_xyz
  1  'x, y, z'
loop_
 _atom_type_symbol
 _atom_type_oxidation_number
  Ca2+  2.0
  Al0+  0.0
  Si0+  0.0
  O2-  -2.0
loop_
 _atom_site_type_symbol
 _atom_site_label
 _atom_site_symmetry_multiplicity
 _atom_site_fract_x
 _atom_site_fract_y
 _atom_site_fract_z
 _atom_site_occupancy
  Ca2+  Ca0  1  0.17649359  0.07565414  0.17832096  1
  Ca2+  Ca1  1  0.16556577  0.07399601  0.50565409  1
  Ca2+  Ca2  1  0.16271845  0.07892013  0.83466490  1
  Ca2+  Ca3  1  0.16872675  0.58486646  0.17033546  1
  Ca2+  Ca4  1  0.16762586  0.58189538  0.51241371  1
  Ca2+  Ca5  1  0.17035133  0.58217577  0.82763935  1
  Ca2+  Ca6  1  0.65900554  0.07743216  0.16559863  1
  Ca2+  Ca7  1  0.66740145  0.08640448  0.50510815  1
  Ca2+  Ca8  1  0.66065966  0.08267151  0.83893933  1
  Ca2+  Ca9  1  0.66628649  0.57690139  0.16683724  1
  Ca2+  Ca10  1  0.66949377  0.57502268  0.50208220  1
  Ca2+  Ca11  1  0.67225949  0.57840514  0.84703798  1
  Ca2+  Ca12  1  0.07702735  0.33410130  0.16536641  1
  Ca2+  Ca13  1  0.07556724  0.33887318  0.49812901  1
  Ca2+  Ca14  1  0.07819444  0.32915355  0.82029208  1
  Ca2+  Ca15  1  0.07699397  0.83368241  0.16692121  1
  Ca2+  Ca16  1  0.09083379  0.82513386  0.49455479  1
  Ca2+  Ca17  1  0.07904689  0.82908559  0.82552209  1
  Ca2+  Ca18  1  0.57585475  0.33449881  0.15914343  1
  Ca2+  Ca19  1  0.57363931  0.33223969  0.49544842  1
  Ca2+  Ca20  1  0.58171838  0.32740057  0.82826281  1
  Ca2+  Ca21  1  0.58010509  0.82847109  0.15151688  1
  Ca2+  Ca22  1  0.57526076  0.83164391  0.50006720  1
  Ca2+  Ca23  1  0.57564058  0.83237359  0.83341691  1
  Ca2+  Ca24  1  0.33821230  0.41518956  0.17177426  1
  Ca2+  Ca25  1  0.33118601  0.42141644  0.51112524  1
  Ca2+  Ca26  1  0.33379332  0.41250029  0.83250458  1
  Ca2+  Ca27  1  0.33343066  0.92370204  0.17641919  1
  Ca2+  Ca28  1  0.32439236  0.92033029  0.50737475  1
  Ca2+  Ca29  1  0.33202257  0.91058706  0.83430049  1
  Ca2+  Ca30  1  0.82072804  0.41834234  0.17145157  1
  Ca2+  Ca31  1  0.83054284  0.40600246  0.50320629  1
  Ca2+  Ca32  1  0.83002354  0.42177466  0.84256965  1
  Ca2+  Ca33  1  0.83145485  0.90983632  0.16723367  1
  Ca2+  Ca34  1  0.83502134  0.91488831  0.50239233  1
  Ca2+  Ca35  1  0.82732799  0.91823604  0.84440172  1
  Ca2+  Ca36  1  0.41745427  0.17552838  0.15989744  1
  Ca2+  Ca37  1  0.41319005  0.17623118  0.49766978  1
  Ca2+  Ca38  1  0.42833819  0.17657177  0.82876994  1
  Ca2+  Ca39  1  0.42448398  0.67442043  0.15690055  1
  Ca2+  Ca40  1  0.40553490  0.67182554  0.50226295  1
  Ca2+  Ca41  1  0.41798261  0.67267927  0.83043500  1
  Ca2+  Ca42  1  0.91483442  0.17152058  0.16810582  1
  Ca2+  Ca43  1  0.92384147  0.17577917  0.50163015  1
  Ca2+  Ca44  1  0.92097946  0.17398101  0.82373916  1
  Ca2+  Ca45  1  0.91869470  0.67340816  0.16298041  1
  Ca2+  Ca46  1  0.93310648  0.67025180  0.49187923  1
  Ca2+  Ca47  1  0.91751532  0.66862886  0.83117025  1
  Al0+  Al48  1  -0.00032035  -0.00121709  -0.00108083  1
  Al0+  Al49  1  -0.00103474  -0.00101705  0.33424437  1
  Al0+  Al50  1  -0.00219600  0.00182925  0.66883979  1
  Al0+  Al51  1  0.00146728  0.50057520  0.00498337  1
  Al0+  Al52  1  -0.00034070  0.50132900  0.32291529  1
  Al0+  Al53  1  -0.00073511  0.50199211  0.66372432  1
  Al0+  Al54  1  0.49862660  0.00236832  -0.00204015  1
  Al0+  Al55  1  0.50067730  0.00119035  0.34042431  1
  Al0+  Al56  1  0.49972343  -0.00194566  0.65885397  1
  Al0+  Al57  1  0.49778091  0.50153523  -0.00315033  1
  Al0+  Al58  1  0.50114391  0.49889210  0.33539632  1
  Al0+  Al59  1  0.50229993  0.50078646  0.66888223  1
  Al0+  Al60  1  0.24899602  0.24893842  -0.00186961  1
  Al0+  Al61  1  0.25071787  0.25136129  0.33316019  1
  Al0+  Al62  1  0.25075663  0.24741971  0.66467877  1
  Al0+  Al63  1  0.24745173  0.74833347  -0.00080117  1
  Al0+  Al64  1  0.25113865  0.74996700  0.33010547  1
  Al0+  Al65  1  0.24954443  0.75063138  0.66910933  1
  Al0+  Al66  1  0.75110553  0.25021322  0.00176427  1
  Al0+  Al67  1  0.74920748  0.24807082  0.33359232  1
  Al0+  Al68  1  0.75022069  0.24815298  0.66181351  1
  Al0+  Al69  1  0.75178529  0.75104691  0.00044384  1
  Al0+  Al70  1  0.75108076  0.74820728  0.33353487  1
  Al0+  Al71  1  0.74763465  0.74979084  0.66713423  1
  Al0+  Al72  1  0.57094430  0.17842319  0.64923904  1
  Al0+  Al73  1  0.92787110  0.82197132  0.31821512  1
  Al0+  Al74  1  0.67843301  0.93197465  0.01197580  1
  Al0+  Al75  1  0.42905258  0.81822015  0.65177505  1
  Al0+  Al76  1  0.82338949  0.57236960  0.01711262  1
  Al0+  Al77  1  0.06906110  0.68191339  0.65488751  1
  Al0+  Al78  1  0.17860268  0.93050200  0.68268810  1
  Al0+  Al79  1  0.32249840  0.57116993  0.68339872  1
  Al0+  Al80  1  0.32266878  0.07356129  0.35051436  1
  Al0+  Al81  1  0.42927946  0.32103367  0.31944575  1
  Al0+  Al82  1  0.07452865  0.67912873  0.31565111  1
  Al0+  Al83  1  0.57252278  0.18042482  0.98653977  1
  Al0+  Al84  1  0.67980722  0.42858652  0.34898208  1
  Al0+  Al85  1  0.57223406  0.67903314  0.98549500  1
  Al0+  Al86  1  0.93059621  0.82061608  0.98487021  1
  Al0+  Al87  1  0.42666159  0.82271144  0.98662069  1
  Al0+  Al88  1  0.67741394  0.42809846  0.01455793  1
  Al0+  Al89  1  0.42952713  0.32314721  0.65074332  1
  Al0+  Al90  1  0.07270864  0.17636873  0.65209064  1
  Al0+  Al91  1  0.17772357  0.42707245  0.68020049  1
  Al0+  Al92  1  0.93033759  0.32263032  0.65346995  1
  Al0+  Al93  1  0.17949167  0.92864405  0.34846607  1
  Al0+  Al94  1  0.92743814  0.32031770  0.31703175  1
  Al0+  Al95  1  0.42651844  0.32270794  0.98424312  1
  Si0+  Si96  1  0.57118046  0.67901908  0.31995276  1
  Si0+  Si97  1  0.07028306  0.17893824  0.98700649  1
  Si0+  Si98  1  0.67767017  0.92781119  0.68160503  1
  Si0+  Si99  1  0.57201772  0.17671982  0.31586452  1
  Si0+  Si100  1  0.92511706  0.82280318  0.65183863  1
  Si0+  Si101  1  0.81863008  0.07061629  0.68218864  1
  Si0+  Si102  1  0.82064874  0.07075766  0.34978956  1
  Si0+  Si103  1  0.31959653  0.57179429  0.01580374  1
  Si0+  Si104  1  0.82267946  0.57140284  0.35133663  1
  Si0+  Si105  1  0.07183181  0.17825319  0.31668399  1
  Si0+  Si106  1  0.57466042  0.67748669  0.64857565  1
  Si0+  Si107  1  0.82061971  0.57248646  0.68018848  1
  Si0+  Si108  1  0.67900904  0.92624275  0.34964948  1
  Si0+  Si109  1  0.68128506  0.42784919  0.68154275  1
  Si0+  Si110  1  0.43123391  0.82167700  0.31966168  1
  Si0+  Si111  1  0.07218206  0.67576937  0.98038660  1
  Si0+  Si112  1  0.82497676  0.07211936  0.01776538  1
  Si0+  Si113  1  0.93043141  0.32145189  0.98705857  1
  Si0+  Si114  1  0.17718453  0.92797186  0.01541256  1
  Si0+  Si115  1  0.32460927  0.07107971  0.68553172  1
  Si0+  Si116  1  0.18005698  0.42660811  0.01612410  1
  Si0+  Si117  1  0.31863602  0.07101798  0.01363415  1
  Si0+  Si118  1  0.17690536  0.43028058  0.34575333  1
  Si0+  Si119  1  0.32161279  0.56981276  0.34609498  1
  O2-  O120  1  0.25165327  -0.00418196  0.05637166  1
  O2-  O121  1  0.24993996  0.00156560  0.39930825  1
  O2-  O122  1  0.25223916  0.00607699  0.73092293  1
  O2-  O123  1  0.25199315  0.49709838  0.05816659  1
  O2-  O124  1  0.24769171  0.50149175  0.38723139  1
  O2-  O125  1  0.25341801  0.49476837  0.73215313  1
  O2-  O126  1  0.75314141  0.00603624  0.06124002  1
  O2-  O127  1  0.75086223  -0.00283758  0.39091751  1
  O2-  O128  1  0.74841948  -0.00114505  0.72375204  1
  O2-  O129  1  0.74884070  0.50126171  0.06504357  1
  O2-  O130  1  0.75825743  0.49944444  0.39727691  1
  O2-  O131  1  0.75151051  0.49993974  0.72264933  1
  O2-  O132  1  0.00397010  0.24697409  0.27028049  1
  O2-  O133  1  0.00768189  0.25567251  0.60363430  1
  O2-  O134  1  -0.00066950  0.24936218  0.94457066  1
  O2-  O135  1  0.00137685  0.75153525  0.26831785  1
  O2-  O136  1  -0.00416131  0.75748258  0.60723535  1
  O2-  O137  1  0.00292788  0.74449577  0.93769635  1
  O2-  O138  1  0.50203263  0.24430390  0.27292846  1
  O2-  O139  1  0.49925461  0.24989903  0.59900001  1
  O2-  O140  1  0.50515063  0.25663711  0.93687583  1
  O2-  O141  1  0.50429745  0.75365730  0.27712231  1
  O2-  O142  1  0.50170966  0.74148083  0.60392093  1
  O2-  O143  1  0.49971697  0.75146150  0.93701329  1
  O2-  O144  1  0.07106708  0.18000411  0.09229318  1
  O2-  O145  1  0.06990613  0.17869480  0.42173754  1
  O2-  O146  1  0.06521669  0.17450442  0.76640239  1
  O2-  O147  1  0.07483473  0.67692858  0.08585662  1
  O2-  O148  1  0.07521374  0.67833429  0.42927074  1
  O2-  O149  1  0.06587467  0.68189465  0.76795104  1
  O2-  O150  1  0.56784918  0.17704938  0.10015347  1
  O2-  O151  1  0.57332661  0.17755494  0.42119873  1
  O2-  O152  1  0.57326763  0.17958582  0.76264472  1
  O2-  O153  1  0.56852735  0.68033700  0.10008155  1
  O2-  O154  1  0.57080481  0.68029865  0.42516868  1
  O2-  O155  1  0.58034742  0.68154255  0.75344963  1
  O2-  O156  1  0.17871295  0.42979251  0.24007541  1
  O2-  O157  1  0.17492183  0.43287523  0.56628158  1
  O2-  O158  1  0.17722668  0.42505533  0.91164685  1
  O2-  O159  1  0.18279633  0.93028429  0.23403395  1
  O2-  O160  1  0.17969798  0.92968522  0.56985290  1
  O2-  O161  1  0.17463443  0.93016001  0.91040430  1
  O2-  O162  1  0.67770047  0.43193993  0.23632497  1
  O2-  O163  1  0.68218653  0.42881636  0.57610655  1
  O2-  O164  1  0.68334431  0.42691511  0.90057495  1
  O2-  O165  1  0.67607992  0.92647327  0.24467680  1
  O2-  O166  1  0.68092841  0.92551825  0.57608811  1
  O2-  O167  1  0.67992869  0.93408879  0.89877274  1
  O2-  O168  1  0.42357065  0.31835784  0.09817293  1
  O2-  O169  1  0.43041122  0.32414468  0.43180936  1
  O2-  O170  1  0.43419311  0.32219511  0.76408171  1
  O2-  O171  1  0.42747472  0.82145876  0.10110138  1
  O2-  O172  1  0.43088276  0.81899944  0.42468651  1
  O2-  O173  1  0.43223724  0.81894245  0.76454431  1
  O2-  O174  1  0.93233727  0.31954992  0.09232627  1
  O2-  O175  1  0.92918502  0.31849843  0.42973145  1
  O2-  O176  1  0.92751202  0.31993377  0.76758845  1
  O2-  O177  1  0.93467003  0.82352532  0.09756035  1
  O2-  O178  1  0.92473883  0.81865066  0.43191638  1
  O2-  O179  1  0.92343992  0.82050990  0.75741817  1
  O2-  O180  1  0.32284533  0.07062304  0.23585276  1
  O2-  O181  1  0.32517791  0.06711075  0.58004153  1
  O2-  O182  1  0.31460714  0.07337162  0.90901223  1
  O2-  O183  1  0.32295538  0.56892926  0.24066380  1
  O2-  O184  1  0.31867419  0.57228367  0.56894131  1
  O2-  O185  1  0.31646333  0.57551066  0.91147280  1
  O2-  O186  1  0.81966162  0.07254504  0.24465361  1
  O2-  O187  1  0.81868840  0.06976875  0.57685488  1
  O2-  O188  1  0.82912500  0.07066324  0.91233226  1
  O2-  O189  1  0.81851910  0.57277911  0.24614540  1
  O2-  O190  1  0.81783205  0.57568854  0.57522270  1
  O2-  O191  1  0.82596686  0.56768532  0.90272473  1
  O2-  O192  1  0.04464909  0.08496287  0.27063473  1
  O2-  O193  1  0.03378118  0.08181978  0.59727493  1
  O2-  O194  1  0.04272606  0.08738298  0.93952957  1
  O2-  O195  1  0.04647068  0.58214979  0.25958180  1
  O2-  O196  1  0.03768136  0.58707266  0.59845409  1
  O2-  O197  1  0.04673793  0.58112852  0.93667520  1
  O2-  O198  1  0.54757464  0.08099123  0.27274561  1
  O2-  O199  1  0.54671814  0.07922089  0.59628690  1
  O2-  O200  1  0.54000224  0.08433951  0.93164039  1
  O2-  O201  1  0.53900648  0.58901488  0.27264330  1
  O2-  O202  1  0.55442575  0.58225068  0.60471822  1
  O2-  O203  1  0.54389695  0.58186233  0.93141579  1
  O2-  O204  1  0.16507320  0.20441451  0.26992905  1
  O2-  O205  1  0.17396580  0.19171066  0.60248198  1
  O2-  O206  1  0.16060160  0.20671452  0.93785801  1
  O2-  O207  1  0.17260031  0.70770077  0.26064866  1
  O2-  O208  1  0.16558592  0.71182582  0.60168276  1
  O2-  O209  1  0.16487896  0.70269529  0.93419315  1
  O2-  O210  1  0.66566637  0.20065142  0.27003925  1
  O2-  O211  1  0.66910596  0.20667771  0.59570287  1
  O2-  O212  1  0.67399821  0.20169558  0.93538601  1
  O2-  O213  1  0.66394705  0.70313371  0.27359537  1
  O2-  O214  1  0.66535982  0.70915464  0.59830765  1
  O2-  O215  1  0.67085549  0.70608489  0.93401021  1
  O2-  O216  1  0.08957009  0.45606109  0.06597249  1
  O2-  O217  1  0.08369471  0.45765770  0.39016601  1
  O2-  O218  1  0.07947487  0.45987235  0.73339550  1
  O2-  O219  1  0.08734977  0.96070064  0.06401335  1
  O2-  O220  1  0.07933277  0.95373607  0.39948675  1
  O2-  O221  1  0.08034952  0.96055962  0.73579765  1
  O2-  O222  1  0.57716858  0.45600607  0.06488969  1
  O2-  O223  1  0.58535427  0.46499463  0.40454013  1
  O2-  O224  1  0.58998465  0.45462860  0.72918491  1
  O2-  O225  1  0.58145029  0.96236126  0.06757346  1
  O2-  O226  1  0.58851513  0.95445439  0.39986283  1
  O2-  O227  1  0.58511364  0.95548475  0.72636388  1
  O2-  O228  1  0.20618710  0.33437953  0.06465866  1
  O2-  O229  1  0.20196991  0.33797000  0.39228482  1
  O2-  O230  1  0.19989222  0.32563721  0.73101684  1
  O2-  O231  1  0.20013289  0.83413782  0.06075026  1
  O2-  O232  1  0.21130716  0.82985544  0.39902374  1
  O2-  O233  1  0.21053682  0.83498400  0.73744560  1
  O2-  O234  1  0.70775764  0.33022194  0.06895536  1
  O2-  O235  1  0.70888330  0.33049648  0.40096435  1
  O2-  O236  1  0.71084553  0.33564988  0.72684756  1
  O2-  O237  1  0.70914333  0.83571352  0.06641811  1
  O2-  O238  1  0.70651845  0.83449333  0.39790001  1
  O2-  O239  1  0.70506513  0.83616471  0.72986859  1
  O2-  O240  1  0.46294767  0.41751426  0.26579097  1
  O2-  O241  1  0.45934704  0.42239592  0.59955827  1
  O2-  O242  1  0.44420441  0.42387334  0.93522375  1
  O2-  O243  1  0.45772942  0.91540823  0.27580669  1
  O2-  O244  1  0.46236003  0.91197613  0.59432054  1
  O2-  O245  1  0.45270284  0.92088144  0.93383246  1
  O2-  O246  1  0.95625931  0.41611126  0.26137558  1
  O2-  O247  1  0.95168293  0.42156121  0.59904678  1
  O2-  O248  1  0.96042851  0.41311345  0.94147162  1
  O2-  O249  1  0.95227009  0.92183966  0.26582986  1
  O2-  O250  1  0.94656679  0.91804473  0.60889096  1
  O2-  O251  1  0.96195378  0.91734361  0.93029224  1
  O2-  O252  1  0.33125291  0.29423003  0.26521185  1
  O2-  O253  1  0.32948236  0.29789184  0.60014653  1
  O2-  O254  1  0.32989242  0.28761394  0.93115519  1
  O2-  O255  1  0.34097600  0.79307275  0.27059494  1
  O2-  O256  1  0.33265828  0.78769131  0.59809337  1
  O2-  O257  1  0.32822309  0.79233846  0.93500684  1
  O2-  O258  1  0.83196425  0.28469232  0.26376419  1
  O2-  O259  1  0.83567765  0.28592091  0.59838597  1
  O2-  O260  1  0.83842919  0.29583514  0.94012989  1
  O2-  O261  1  0.82924706  0.79147119  0.26536513  1
  O2-  O262  1  0.83187763  0.79578005  0.60538385  1
  O2-  O263  1  0.83329621  0.79382694  0.93148961  1
  O2-  O264  1  0.41100537  0.04695482  0.06126825  1
  O2-  O265  1  0.42061443  0.04559768  0.40475634  1
  O2-  O266  1  0.41758623  0.03913004  0.72964547  1
  O2-  O267  1  0.41246812  0.54901486  0.06335903  1
  O2-  O268  1  0.41169128  0.54128664  0.39584109  1
  O2-  O269  1  0.42365541  0.54924393  0.73416286  1
  O2-  O270  1  0.91698577  0.04283043  0.06633884  1
  O2-  O271  1  0.91247551  0.04471512  0.39787500  1
  O2-  O272  1  0.90964635  0.04473966  0.73208466  1
  O2-  O273  1  0.92130351  0.54266837  0.07137545  1
  O2-  O274  1  0.91927161  0.54854069  0.39190125  1
  O2-  O275  1  0.91238979  0.54697645  0.72773520  1
  O2-  O276  1  0.28569716  0.16072664  0.06361931  1
  O2-  O277  1  0.29392357  0.17267143  0.40124479  1
  O2-  O278  1  0.30464443  0.16648470  0.72956346  1
  O2-  O279  1  0.28784179  0.66199562  0.06616709  1
  O2-  O280  1  0.29644708  0.66314410  0.39163495  1
  O2-  O281  1  0.28869936  0.66744467  0.73723141  1
  O2-  O282  1  0.80285874  0.16665658  0.06330186  1
  O2-  O283  1  0.79022886  0.16063788  0.39930172  1
  O2-  O284  1  0.79007461  0.16224748  0.73011431  1
  O2-  O285  1  0.79743789  0.67165003  0.06853896  1
  O2-  O286  1  0.79346911  0.66351648  0.39936048  1
  O2-  O287  1  0.79076514  0.66359892  0.72927322  1
