# generated using pymatgen
data_Ca2Al2SiO7
_symmetry_space_group_name_H-M   'P 1'
_cell_length_a   15.46599746
_cell_length_b   15.46700564
_cell_length_c   15.28916437
_cell_angle_alpha   89.98846110
_cell_angle_beta   90.00301308
_cell_angle_gamma   90.01092832
_symmetry_Int_Tables_number   1
_chemical_formula_structural   Ca2Al2SiO7
_chemical_formula_sum   'Ca48 Al48 Si24 O168'
_cell_volume   3657.36168346
_cell_formula_units_Z   24
loop_
 _symmetry_equiv_pos_site_id
 _symmetry_equiv_pos_as_xyz
  1  'x, y, z'
loop_
 _atom_type_symbol
 _atom_type_oxidation_number
  Ca2+  2.0
  Al0+  0.0
  Si0+  0.0
  O2-  -2.0
loop_
 _atom_site_type_symbol
 _atom_site_label
 _atom_site_symmetry_multiplicity
 _atom_site_fract_x
 _atom_site_fract_y
 _atom_site_fract_z
 _atom_site_occupancy
  Ca2+  Ca0  1  0.17348869  0.07637919  0.18091136  1
  Ca2+  Ca1  1  0.17646180  0.08906879  0.50735844  1
  Ca2+  Ca2  1  0.17210953  0.09452402  0.83113925  1
  Ca2+  Ca3  1  0.17022380  0.58061799  0.17663414  1
  Ca2+  Ca4  1  0.15937548  0.57089767  0.50173774  1
  Ca2+  Ca5  1  0.15512968  0.58068847  0.83247412  1
  Ca2+  Ca6  1  0.67430786  0.08908287  0.16817005  1
  Ca2+  Ca7  1  0.67619034  0.09520571  0.50240279  1
  Ca2+  Ca8  1  0.67682048  0.08588160  0.83982784  1
  Ca2+  Ca9  1  0.67073745  0.57077634  0.17904644  1
  Ca2+  Ca10  1  0.66875739  0.57932527  0.49782375  1
  Ca2+  Ca11  1  0.67233620  0.57277681  0.84197910  1
  Ca2+  Ca12  1  0.07066770  0.34049319  0.16574429  1
  Ca2+  Ca13  1  0.07748000  0.33422590  0.49853841  1
  Ca2+  Ca14  1  0.06991658  0.33037748  0.82299443  1
  Ca2+  Ca15  1  0.08511395  0.82865764  0.16220458  1
  Ca2+  Ca16  1  0.08307158  0.83260330  0.49857431  1
  Ca2+  Ca17  1  0.07807889  0.82249392  0.82487108  1
  Ca2+  Ca18  1  0.59281223  0.32525225  0.16479416  1
  Ca2+  Ca19  1  0.58493328  0.32311352  0.49196386  1
  Ca2+  Ca20  1  0.58881578  0.32151777  0.83145259  1
  Ca2+  Ca21  1  0.58737667  0.82898395  0.16481041  1
  Ca2+  Ca22  1  0.58205046  0.82631974  0.49083061  1
  Ca2+  Ca23  1  0.58633967  0.83734776  0.83075061  1
  Ca2+  Ca24  1  0.32362530  0.42212544  0.17878627  1
  Ca2+  Ca25  1  0.32192380  0.41771453  0.50256281  1
  Ca2+  Ca26  1  0.32336945  0.41411113  0.83296746  1
  Ca2+  Ca27  1  0.32614869  0.92162206  0.17555448  1
  Ca2+  Ca28  1  0.32768397  0.92551396  0.49848873  1
  Ca2+  Ca29  1  0.33289456  0.92266321  0.83245505  1
  Ca2+  Ca30  1  0.82727516  0.41488907  0.17413253  1
  Ca2+  Ca31  1  0.83500983  0.41417030  0.49789594  1
  Ca2+  Ca32  1  0.83219083  0.40841035  0.83850689  1
  Ca2+  Ca33  1  0.83151717  0.93112866  0.17089668  1
  Ca2+  Ca34  1  0.83665873  0.92961318  0.50621697  1
  Ca2+  Ca35  1  0.83558818  0.92834133  0.83679781  1
  Ca2+  Ca36  1  0.42824854  0.16055565  0.16551916  1
  Ca2+  Ca37  1  0.42612069  0.15686394  0.49451702  1
  Ca2+  Ca38  1  0.42995256  0.16094564  0.82660895  1
  Ca2+  Ca39  1  0.42079094  0.66049135  0.16924322  1
  Ca2+  Ca40  1  0.42046051  0.66417387  0.49046670  1
  Ca2+  Ca41  1  0.42038221  0.66980444  0.82946257  1
  Ca2+  Ca42  1  0.90684566  0.17630952  0.16484085  1
  Ca2+  Ca43  1  0.91328378  0.17566214  0.49528675  1
  Ca2+  Ca44  1  0.91400441  0.17327518  0.82531222  1
  Ca2+  Ca45  1  0.92084591  0.66355399  0.16376315  1
  Ca2+  Ca46  1  0.91572368  0.67239327  0.49703099  1
  Ca2+  Ca47  1  0.92573313  0.67239819  0.82431398  1
  Al0+  Al48  1  0.00250746  0.00049265  0.00407394  1
  Al0+  Al49  1  -0.00146933  -0.00072806  0.33914257  1
  Al0+  Al50  1  0.00154432  -0.00018916  0.66630069  1
  Al0+  Al51  1  0.00007097  0.49915258  -0.00821706  1
  Al0+  Al52  1  -0.00172255  0.50169769  0.33504032  1
  Al0+  Al53  1  -0.00115247  0.50074014  0.66448414  1
  Al0+  Al54  1  0.49991184  -0.00166440  -0.00116330  1
  Al0+  Al55  1  0.49943778  -0.00231198  0.32949289  1
  Al0+  Al56  1  0.49934798  -0.00175728  0.66535351  1
  Al0+  Al57  1  0.49860680  0.49975622  0.00165561  1
  Al0+  Al58  1  0.50003261  0.49827345  0.33582048  1
  Al0+  Al59  1  0.49934068  0.49922103  0.66968035  1
  Al0+  Al60  1  0.25100016  0.25224852  0.00326282  1
  Al0+  Al61  1  0.25074226  0.24938623  0.33979643  1
  Al0+  Al62  1  0.25038577  0.25300603  0.67549593  1
  Al0+  Al63  1  0.25174066  0.74979473  -0.00569835  1
  Al0+  Al64  1  0.25074290  0.75129165  0.33963635  1
  Al0+  Al65  1  0.25221519  0.74933339  0.66287643  1
  Al0+  Al66  1  0.74921883  0.25058149  -0.00124127  1
  Al0+  Al67  1  0.74975509  0.25036570  0.33252326  1
  Al0+  Al68  1  0.74829161  0.24959302  0.66358624  1
  Al0+  Al69  1  0.75076169  0.75083335  0.00106738  1
  Al0+  Al70  1  0.75004311  0.74973909  0.32939808  1
  Al0+  Al71  1  0.75000280  0.74854483  0.66456554  1
  Al0+  Al72  1  0.56826422  0.17993381  0.98536553  1
  Al0+  Al73  1  0.81839896  0.07144134  0.34826365  1
  Al0+  Al74  1  0.32170641  0.57071448  0.34811343  1
  Al0+  Al75  1  0.92769554  0.82203773  0.65113235  1
  Al0+  Al76  1  0.17686046  0.92847426  0.34896205  1
  Al0+  Al77  1  0.07117875  0.68060180  0.98716890  1
  Al0+  Al78  1  0.32243255  0.07092116  0.34768175  1
  Al0+  Al79  1  0.67891500  0.43016285  0.01322906  1
  Al0+  Al80  1  0.82210674  0.07161387  0.01531776  1
  Al0+  Al81  1  0.67978294  0.42769862  0.34991113  1
  Al0+  Al82  1  0.82095341  0.07155883  0.67997926  1
  Al0+  Al83  1  0.07159730  0.67933820  0.64782760  1
  Al0+  Al84  1  0.93183284  0.32080484  0.31827362  1
  Al0+  Al85  1  0.82104056  0.57333007  0.34825550  1
  Al0+  Al86  1  0.56981368  0.17895513  0.31774611  1
  Al0+  Al87  1  0.57149254  0.67714818  0.31878191  1
  Al0+  Al88  1  0.56834914  0.17895151  0.65253330  1
  Al0+  Al89  1  0.93015475  0.31763437  0.98669378  1
  Al0+  Al90  1  0.67692993  0.92747825  0.01542085  1
  Al0+  Al91  1  0.92717608  0.31953100  0.64965496  1
  Al0+  Al92  1  0.07421295  0.17931265  0.65301205  1
  Al0+  Al93  1  0.32158188  0.07051905  0.68239524  1
  Al0+  Al94  1  0.17733719  0.43137671  0.68357961  1
  Al0+  Al95  1  0.17614176  0.42871566  0.34804606  1
  Si0+  Si96  1  0.17934937  0.92594665  0.68529063  1
  Si0+  Si97  1  0.67812825  0.92721289  0.34872025  1
  Si0+  Si98  1  0.92765662  0.82376812  0.31601276  1
  Si0+  Si99  1  0.67847103  0.92549551  0.68075435  1
  Si0+  Si100  1  0.82377616  0.57174170  0.01396445  1
  Si0+  Si101  1  0.43008972  0.82067575  0.64988305  1
  Si0+  Si102  1  0.07349304  0.17635010  0.31840144  1
  Si0+  Si103  1  0.17797659  0.43061230  0.01465089  1
  Si0+  Si104  1  0.57055907  0.67682476  0.65320760  1
  Si0+  Si105  1  0.32040719  0.57287359  0.01409605  1
  Si0+  Si106  1  0.42993743  0.81932127  0.98367039  1
  Si0+  Si107  1  0.42809655  0.32363076  0.65130597  1
  Si0+  Si108  1  0.57213449  0.67701596  0.98507300  1
  Si0+  Si109  1  0.42780428  0.81985608  0.31468130  1
  Si0+  Si110  1  0.42497350  0.32456951  0.98284077  1
  Si0+  Si111  1  0.81940396  0.57237486  0.68279257  1
  Si0+  Si112  1  0.07045031  0.68174830  0.31893407  1
  Si0+  Si113  1  0.67802759  0.42965681  0.68262321  1
  Si0+  Si114  1  0.32109788  0.07164058  0.01435361  1
  Si0+  Si115  1  0.32380527  0.57252398  0.68594170  1
  Si0+  Si116  1  0.18197843  0.92701993  0.01229105  1
  Si0+  Si117  1  0.07642078  0.17615131  0.98677561  1
  Si0+  Si118  1  0.92788428  0.82500824  0.98455058  1
  Si0+  Si119  1  0.42563156  0.32198341  0.31732101  1
  O2-  O120  1  0.24587562  0.00431636  0.05481223  1
  O2-  O121  1  0.24438401  0.00540755  0.39725312  1
  O2-  O122  1  0.24357235  -0.00101360  0.73065212  1
  O2-  O123  1  0.24983681  0.50145155  0.05573923  1
  O2-  O124  1  0.24979741  0.49952783  0.39780033  1
  O2-  O125  1  0.25152926  0.50820438  0.73070531  1
  O2-  O126  1  0.74977310  -0.00135639  0.06459509  1
  O2-  O127  1  0.74336801  -0.00315066  0.39491114  1
  O2-  O128  1  0.74765979  -0.00647569  0.72444787  1
  O2-  O129  1  0.75202011  0.50707357  0.05830434  1
  O2-  O130  1  0.75030221  0.50110054  0.39996318  1
  O2-  O131  1  0.75072323  0.49906800  0.72506998  1
  O2-  O132  1  0.00743339  0.24605574  0.27149212  1
  O2-  O133  1  -0.00069862  0.24668131  0.60130464  1
  O2-  O134  1  0.00413159  0.24084408  0.94324908  1
  O2-  O135  1  0.00034213  0.75299616  0.27488502  1
  O2-  O136  1  0.00114137  0.75284204  0.59859799  1
  O2-  O137  1  -0.00503468  0.75415204  0.94139531  1
  O2-  O138  1  0.49318934  0.25279144  0.27179107  1
  O2-  O139  1  0.49198671  0.25190637  0.60600886  1
  O2-  O140  1  0.49305002  0.25514568  0.93908376  1
  O2-  O141  1  0.49564248  0.75033666  0.27026763  1
  O2-  O142  1  0.50093644  0.74844825  0.61044936  1
  O2-  O143  1  0.50502140  0.75160796  0.94177540  1
  O2-  O144  1  0.08212761  0.17759328  0.09198645  1
  O2-  O145  1  0.07214865  0.17650385  0.42350368  1
  O2-  O146  1  0.07316193  0.18362672  0.76743620  1
  O2-  O147  1  0.07398708  0.68225103  0.10050834  1
  O2-  O148  1  0.06946763  0.68281091  0.42335373  1
  O2-  O149  1  0.06930834  0.68145257  0.76219159  1
  O2-  O150  1  0.56638701  0.18020337  0.09818604  1
  O2-  O151  1  0.56853997  0.17917963  0.43080945  1
  O2-  O152  1  0.56932013  0.18000647  0.76601738  1
  O2-  O153  1  0.56877986  0.67497351  0.08948483  1
  O2-  O154  1  0.57017108  0.68115647  0.43240520  1
  O2-  O155  1  0.56906406  0.67681348  0.75885181  1
  O2-  O156  1  0.17635422  0.43332375  0.23333479  1
  O2-  O157  1  0.17968032  0.43202342  0.57118247  1
  O2-  O158  1  0.17899516  0.43102336  0.90983357  1
  O2-  O159  1  0.18024476  0.92680105  0.23398654  1
  O2-  O160  1  0.18452770  0.92300933  0.58042599  1
  O2-  O161  1  0.18559208  0.92335860  0.90767496  1
  O2-  O162  1  0.68207653  0.42832043  0.23593969  1
  O2-  O163  1  0.67410779  0.43259255  0.57828672  1
  O2-  O164  1  0.67894452  0.43180516  0.89947795  1
  O2-  O165  1  0.68092227  0.92667575  0.24315831  1
  O2-  O166  1  0.67704811  0.92215223  0.57550388  1
  O2-  O167  1  0.67643724  0.92821851  0.90161528  1
  O2-  O168  1  0.42034211  0.32501683  0.08788853  1
  O2-  O169  1  0.42649388  0.32235126  0.42277944  1
  O2-  O170  1  0.43260320  0.32595714  0.75733202  1
  O2-  O171  1  0.42510213  0.81675510  0.08805482  1
  O2-  O172  1  0.43018221  0.82089666  0.42027608  1
  O2-  O173  1  0.43056651  0.82061282  0.75570430  1
  O2-  O174  1  0.93205543  0.32174808  0.09960727  1
  O2-  O175  1  0.93164956  0.31992843  0.43062752  1
  O2-  O176  1  0.92614785  0.31859930  0.76384085  1
  O2-  O177  1  0.93042800  0.82551760  0.09018607  1
  O2-  O178  1  0.92566109  0.82297070  0.42056964  1
  O2-  O179  1  0.92685991  0.81791653  0.76543615  1
  O2-  O180  1  0.32200810  0.06687603  0.23306686  1
  O2-  O181  1  0.32409653  0.06612491  0.57016429  1
  O2-  O182  1  0.32180284  0.06986403  0.90925649  1
  O2-  O183  1  0.31826007  0.57107448  0.23340170  1
  O2-  O184  1  0.32986083  0.56992487  0.58139487  1
  O2-  O185  1  0.32243996  0.57421452  0.90918541  1
  O2-  O186  1  0.81846595  0.07102836  0.23511403  1
  O2-  O187  1  0.81669635  0.07300267  0.56719271  1
  O2-  O188  1  0.82200735  0.07058138  0.90159581  1
  O2-  O189  1  0.82161481  0.57250547  0.23400140  1
  O2-  O190  1  0.81555826  0.57635035  0.57840028  1
  O2-  O191  1  0.82179352  0.57157208  0.90799072  1
  O2-  O192  1  0.04710075  0.08180506  0.27348458  1
  O2-  O193  1  0.05723764  0.07701964  0.60554635  1
  O2-  O194  1  0.05751190  0.08013872  0.94244770  1
  O2-  O195  1  0.04212637  0.59055993  0.27047248  1
  O2-  O196  1  0.04040049  0.58197016  0.59721246  1
  O2-  O197  1  0.04063742  0.58543541  0.93067951  1
  O2-  O198  1  0.53972139  0.08142722  0.26398346  1
  O2-  O199  1  0.53907744  0.08140305  0.60012645  1
  O2-  O200  1  0.53625266  0.08281193  0.93229005  1
  O2-  O201  1  0.54012390  0.58025062  0.26520325  1
  O2-  O202  1  0.54084757  0.58553258  0.60657231  1
  O2-  O203  1  0.53930962  0.58729425  0.93543679  1
  O2-  O204  1  0.16947419  0.19810927  0.27451279  1
  O2-  O205  1  0.17337858  0.21127107  0.60370435  1
  O2-  O206  1  0.16899053  0.20578950  0.93933433  1
  O2-  O207  1  0.16358348  0.70974346  0.27324166  1
  O2-  O208  1  0.17245874  0.70374617  0.59863171  1
  O2-  O209  1  0.16680502  0.71205125  0.93075448  1
  O2-  O210  1  0.66527775  0.21292402  0.26382001  1
  O2-  O211  1  0.66241153  0.21377187  0.59823522  1
  O2-  O212  1  0.66404184  0.21267637  0.93147130  1
  O2-  O213  1  0.66677976  0.70915471  0.26240034  1
  O2-  O214  1  0.66204206  0.70250524  0.60559572  1
  O2-  O215  1  0.66560922  0.70074593  0.93817534  1
  O2-  O216  1  0.08619156  0.46064734  0.06009288  1
  O2-  O217  1  0.08062904  0.46197295  0.40172810  1
  O2-  O218  1  0.08027057  0.46368335  0.73714522  1
  O2-  O219  1  0.08859819  0.94646398  0.05983260  1
  O2-  O220  1  0.07730996  0.94828193  0.40084000  1
  O2-  O221  1  0.08386885  0.94448014  0.72964517  1
  O2-  O222  1  0.58116188  0.45917653  0.06608464  1
  O2-  O223  1  0.58097515  0.45411287  0.40154909  1
  O2-  O224  1  0.58739255  0.45956260  0.73249313  1
  O2-  O225  1  0.57677950  0.95220836  0.06699851  1
  O2-  O226  1  0.58238774  0.94768530  0.39150230  1
  O2-  O227  1  0.58455994  0.95080964  0.72658506  1
  O2-  O228  1  0.20520727  0.33913899  0.06325557  1
  O2-  O229  1  0.20167912  0.33027070  0.40076513  1
  O2-  O230  1  0.21022688  0.33761731  0.74238923  1
  O2-  O231  1  0.21724089  0.83776213  0.06086012  1
  O2-  O232  1  0.21090450  0.83384455  0.40478307  1
  O2-  O233  1  0.21266006  0.83379915  0.73194693  1
  O2-  O234  1  0.71063427  0.33451419  0.06612608  1
  O2-  O235  1  0.71000012  0.33086158  0.40289934  1
  O2-  O236  1  0.70618351  0.33770079  0.72889271  1
  O2-  O237  1  0.70170419  0.82696391  0.06707549  1
  O2-  O238  1  0.70422564  0.83369857  0.39392313  1
  O2-  O239  1  0.70172371  0.83117903  0.72826183  1
  O2-  O240  1  0.45068195  0.41561414  0.27071027  1
  O2-  O241  1  0.45638662  0.41647280  0.60490449  1
  O2-  O242  1  0.45003807  0.41852812  0.93643727  1
  O2-  O243  1  0.45430882  0.91174358  0.26541036  1
  O2-  O244  1  0.45899248  0.91059711  0.60079357  1
  O2-  O245  1  0.45476227  0.91127872  0.93480336  1
  O2-  O246  1  0.96159576  0.41876942  0.26460536  1
  O2-  O247  1  0.95442411  0.41913973  0.60048830  1
  O2-  O248  1  0.96134548  0.41308278  0.92982518  1
  O2-  O249  1  0.95628195  0.91544326  0.26822962  1
  O2-  O250  1  0.95371139  0.92100299  0.59974934  1
  O2-  O251  1  0.95682020  0.91767175  0.93805863  1
  O2-  O252  1  0.33087203  0.29822084  0.27123930  1
  O2-  O253  1  0.33217077  0.30307921  0.61074650  1
  O2-  O254  1  0.33121472  0.29864270  0.93592701  1
  O2-  O255  1  0.33347012  0.79429030  0.26925268  1
  O2-  O256  1  0.33937418  0.79339416  0.60155452  1
  O2-  O257  1  0.34169974  0.78699492  0.93124418  1
  O2-  O258  1  0.83513173  0.28804155  0.26545637  1
  O2-  O259  1  0.82884941  0.29248419  0.59714719  1
  O2-  O260  1  0.83359261  0.28913555  0.93200482  1
  O2-  O261  1  0.83735230  0.79465212  0.26644503  1
  O2-  O262  1  0.82987933  0.79046354  0.59788429  1
  O2-  O263  1  0.83314964  0.80207755  0.93933488  1
  O2-  O264  1  0.41043379  0.03767236  0.06157961  1
  O2-  O265  1  0.41859937  0.03399406  0.39975198  1
  O2-  O266  1  0.41652383  0.03221511  0.73707309  1
  O2-  O267  1  0.41203876  0.54613557  0.06214486  1
  O2-  O268  1  0.41965719  0.54392132  0.40124649  1
  O2-  O269  1  0.41585886  0.54345782  0.73595093  1
  O2-  O270  1  0.92196680  0.04596977  0.06850077  1
  O2-  O271  1  0.91444294  0.04101993  0.40177386  1
  O2-  O272  1  0.91917134  0.04389754  0.73325461  1
  O2-  O273  1  0.91717372  0.54331328  0.05855584  1
  O2-  O274  1  0.91885699  0.54748712  0.40139926  1
  O2-  O275  1  0.91217079  0.54725959  0.72866075  1
  O2-  O276  1  0.29924080  0.16522536  0.06103171  1
  O2-  O277  1  0.30297759  0.17028499  0.40090148  1
  O2-  O278  1  0.29622708  0.16779247  0.73835164  1
  O2-  O279  1  0.29192490  0.66459887  0.06102248  1
  O2-  O280  1  0.29777747  0.66960701  0.40050656  1
  O2-  O281  1  0.30241220  0.66858481  0.72944770  1
  O2-  O282  1  0.78916435  0.16876751  0.06712769  1
  O2-  O283  1  0.78580119  0.16668167  0.40143156  1
  O2-  O284  1  0.78481788  0.16706243  0.73381294  1
  O2-  O285  1  0.80410892  0.66730414  0.05811759  1
  O2-  O286  1  0.79067545  0.67167834  0.40020724  1
  O2-  O287  1  0.78834498  0.66244917  0.73303648  1
