# generated using pymatgen
data_Ca2Al2SiO7
_symmetry_space_group_name_H-M   'P 1'
_cell_length_a   15.45626059
_cell_length_b   15.45665898
_cell_length_c   15.28272613
_cell_angle_alpha   90.00278521
_cell_angle_beta   89.99691912
_cell_angle_gamma   90.01137846
_symmetry_Int_Tables_number   1
_chemical_formula_structural   Ca2Al2SiO7
_chemical_formula_sum   'Ca48 Al48 Si24 O168'
_cell_volume   3651.07603338
_cell_formula_units_Z   24
loop_
 _symmetry_equiv_pos_site_id
 _symmetry_equiv_pos_as_xyz
  1  'x, y, z'
loop_
 _atom_type_symbol
 _atom_type_oxidation_number
  Ca2+  2.0
  Al0+  0.0
  Si0+  0.0
  O2-  -2.0
loop_
 _atom_site_type_symbol
 _atom_site_label
 _atom_site_symmetry_multiplicity
 _atom_site_fract_x
 _atom_site_fract_y
 _atom_site_fract_z
 _atom_site_occupancy
  Ca2+  Ca0  1  0.16873284  0.07145032  0.16924679  1
  Ca2+  Ca1  1  0.17131685  0.06923979  0.50808904  1
  Ca2+  Ca2  1  0.17631325  0.07727579  0.83983702  1
  Ca2+  Ca3  1  0.17232300  0.58669322  0.17699457  1
  Ca2+  Ca4  1  0.17195965  0.59120492  0.50126534  1
  Ca2+  Ca5  1  0.16489178  0.58544022  0.83209840  1
  Ca2+  Ca6  1  0.66842452  0.07450835  0.17304260  1
  Ca2+  Ca7  1  0.66554810  0.07521659  0.50860601  1
  Ca2+  Ca8  1  0.66503627  0.08083147  0.82865236  1
  Ca2+  Ca9  1  0.67659063  0.59382979  0.17192447  1
  Ca2+  Ca10  1  0.67842292  0.58368157  0.50592164  1
  Ca2+  Ca11  1  0.67443363  0.58075801  0.83787734  1
  Ca2+  Ca12  1  0.07049445  0.33659160  0.16369389  1
  Ca2+  Ca13  1  0.07498482  0.32876144  0.49199585  1
  Ca2+  Ca14  1  0.07582067  0.33380870  0.83034019  1
  Ca2+  Ca15  1  0.08278486  0.83212665  0.16373603  1
  Ca2+  Ca16  1  0.08832414  0.82600740  0.49518893  1
  Ca2+  Ca17  1  0.08158177  0.83519451  0.82838204  1
  Ca2+  Ca18  1  0.57644660  0.33517512  0.16580657  1
  Ca2+  Ca19  1  0.57926256  0.33114203  0.50022818  1
  Ca2+  Ca20  1  0.57777333  0.32718072  0.81905698  1
  Ca2+  Ca21  1  0.58491693  0.82450509  0.16714110  1
  Ca2+  Ca22  1  0.58009262  0.83519612  0.49039741  1
  Ca2+  Ca23  1  0.58719078  0.82929507  0.82977633  1
  Ca2+  Ca24  1  0.33282051  0.42265481  0.17573571  1
  Ca2+  Ca25  1  0.34285683  0.42061523  0.50070901  1
  Ca2+  Ca26  1  0.33308299  0.41369340  0.83495234  1
  Ca2+  Ca27  1  0.32469211  0.91328020  0.17350117  1
  Ca2+  Ca28  1  0.32572074  0.91327403  0.50578945  1
  Ca2+  Ca29  1  0.32383183  0.92619126  0.83775464  1
  Ca2+  Ca30  1  0.83805822  0.42624796  0.17264895  1
  Ca2+  Ca31  1  0.82924141  0.42400232  0.50514431  1
  Ca2+  Ca32  1  0.83116721  0.42628374  0.83677282  1
  Ca2+  Ca33  1  0.82896585  0.91067957  0.17202745  1
  Ca2+  Ca34  1  0.81908556  0.91933689  0.50713550  1
  Ca2+  Ca35  1  0.83255865  0.91802638  0.83364841  1
  Ca2+  Ca36  1  0.41259953  0.16878740  0.16495286  1
  Ca2+  Ca37  1  0.41574836  0.17298069  0.49992114  1
  Ca2+  Ca38  1  0.41754451  0.16604665  0.82173042  1
  Ca2+  Ca39  1  0.42580973  0.66873563  0.16895292  1
  Ca2+  Ca40  1  0.42551670  0.67270810  0.48593449  1
  Ca2+  Ca41  1  0.42477580  0.66725287  0.82992774  1
  Ca2+  Ca42  1  0.91295153  0.18071888  0.16163508  1
  Ca2+  Ca43  1  0.90985365  0.17114704  0.49541071  1
  Ca2+  Ca44  1  0.91125207  0.17106256  0.82711157  1
  Ca2+  Ca45  1  0.91820424  0.66905653  0.16168471  1
  Ca2+  Ca46  1  0.92627530  0.65790797  0.49570881  1
  Ca2+  Ca47  1  0.91754840  0.66953609  0.82959018  1
  Al0+  Al48  1  0.00025871  0.00077280  0.00070089  1
  Al0+  Al49  1  0.00152038  -0.00002203  0.33788389  1
  Al0+  Al50  1  -0.00228110  -0.00064485  0.67144431  1
  Al0+  Al51  1  -0.00097509  0.50032031  -0.00157579  1
  Al0+  Al52  1  0.00099532  0.49929404  0.32906080  1
  Al0+  Al53  1  0.00192238  0.50132032  0.66580444  1
  Al0+  Al54  1  0.49975391  0.00046173  0.00442276  1
  Al0+  Al55  1  0.49882629  0.00096723  0.33165709  1
  Al0+  Al56  1  0.49931380  -0.00026859  0.67011187  1
  Al0+  Al57  1  0.50079889  0.49882583  -0.00498181  1
  Al0+  Al58  1  0.50143065  0.49855908  0.32857633  1
  Al0+  Al59  1  0.50051616  0.50095923  0.66702621  1
  Al0+  Al60  1  0.24871377  0.25035466  0.00524702  1
  Al0+  Al61  1  0.24904801  0.24880522  0.32806756  1
  Al0+  Al62  1  0.24785900  0.25181337  0.66444622  1
  Al0+  Al63  1  0.25167326  0.74938732  0.00233384  1
  Al0+  Al64  1  0.25103319  0.74873168  0.33350712  1
  Al0+  Al65  1  0.24981516  0.74844745  0.66900245  1
  Al0+  Al66  1  0.74704101  0.25123101  -0.00405608  1
  Al0+  Al67  1  0.74965982  0.25150260  0.32676212  1
  Al0+  Al68  1  0.74690392  0.25037211  0.66774388  1
  Al0+  Al69  1  0.75190837  0.74873876  -0.00542099  1
  Al0+  Al70  1  0.75207193  0.75044858  0.34119050  1
  Al0+  Al71  1  0.75223594  0.75053746  0.67315866  1
  Al0+  Al72  1  0.32227294  0.07197807  0.01809828  1
  Al0+  Al73  1  0.93020161  0.82193453  0.98649763  1
  Al0+  Al74  1  0.57510752  0.67924620  0.32079959  1
  Al0+  Al75  1  0.82242994  0.57043421  0.34698797  1
  Al0+  Al76  1  0.42849229  0.82258348  0.31871463  1
  Al0+  Al77  1  0.82446299  0.56982467  0.68349907  1
  Al0+  Al78  1  0.17787811  0.92778997  0.01735047  1
  Al0+  Al79  1  0.57055117  0.17724398  0.65042139  1
  Al0+  Al80  1  0.67910319  0.92955215  0.34524917  1
  Al0+  Al81  1  0.57084717  0.67974025  0.98454042  1
  Al0+  Al82  1  0.67694278  0.92799887  0.68349152  1
  Al0+  Al83  1  0.07026197  0.68051058  0.65225424  1
  Al0+  Al84  1  0.67726620  0.43050523  0.68121076  1
  Al0+  Al85  1  0.17986585  0.92798654  0.34907411  1
  Al0+  Al86  1  0.07086724  0.67978263  0.31943217  1
  Al0+  Al87  1  0.32188906  0.56872046  0.34619896  1
  Al0+  Al88  1  0.92789029  0.32223847  0.98322030  1
  Al0+  Al89  1  0.42627805  0.32272771  0.65102628  1
  Al0+  Al90  1  0.92886732  0.31995089  0.31985664  1
  Al0+  Al91  1  0.17859583  0.92573312  0.68273062  1
  Al0+  Al92  1  0.42881771  0.32034535  0.31794307  1
  Al0+  Al93  1  0.82026069  0.07232385  0.68108830  1
  Al0+  Al94  1  0.81976035  0.57016773  0.01563134  1
  Al0+  Al95  1  0.31885694  0.07272281  0.67969037  1
  Si0+  Si96  1  0.92912664  0.82302587  0.32011992  1
  Si0+  Si97  1  0.92917923  0.32079796  0.65199572  1
  Si0+  Si98  1  0.42791583  0.31963118  0.98506338  1
  Si0+  Si99  1  0.57300440  0.67949690  0.65234106  1
  Si0+  Si100  1  0.82111339  0.07430614  0.34642744  1
  Si0+  Si101  1  0.17810085  0.42688274  0.34922590  1
  Si0+  Si102  1  0.56979736  0.17701380  0.98459090  1
  Si0+  Si103  1  0.07028884  0.17770646  0.65268939  1
  Si0+  Si104  1  0.42990678  0.81899080  0.65433270  1
  Si0+  Si105  1  0.67811463  0.42601266  0.34861846  1
  Si0+  Si106  1  0.07178534  0.17533035  0.31566716  1
  Si0+  Si107  1  0.32149022  0.07411281  0.35119010  1
  Si0+  Si108  1  0.68087240  0.92866753  0.01537104  1
  Si0+  Si109  1  0.07449278  0.67819863  0.98365857  1
  Si0+  Si110  1  0.82039997  0.07401158  0.01510745  1
  Si0+  Si111  1  0.92699268  0.82373029  0.64835805  1
  Si0+  Si112  1  0.42763424  0.82249108  0.98251383  1
  Si0+  Si113  1  0.67687840  0.42738848  0.01793711  1
  Si0+  Si114  1  0.17833777  0.42890986  0.68036876  1
  Si0+  Si115  1  0.32167082  0.57058230  0.68145873  1
  Si0+  Si116  1  0.32357772  0.56963030  0.01423577  1
  Si0+  Si117  1  0.57206205  0.17769374  0.31432679  1
  Si0+  Si118  1  0.17864616  0.43012857  0.01499381  1
  Si0+  Si119  1  0.07091326  0.18013995  0.98308051  1
  O2-  O120  1  0.25266844  -0.00263661  0.06713897  1
  O2-  O121  1  0.25581421  0.00246196  0.39445863  1
  O2-  O122  1  0.24689849  0.00177596  0.73118468  1
  O2-  O123  1  0.24923444  0.50182908  0.05609279  1
  O2-  O124  1  0.24889362  0.49252447  0.39458506  1
  O2-  O125  1  0.25260983  0.49682813  0.72271696  1
  O2-  O126  1  0.75228772  0.00016588  0.05755158  1
  O2-  O127  1  0.75278751  0.00606479  0.39023006  1
  O2-  O128  1  0.74981065  -0.00017663  0.73301655  1
  O2-  O129  1  0.74548972  0.49504188  0.06323729  1
  O2-  O130  1  0.74537129  0.49663796  0.39145325  1
  O2-  O131  1  0.74962902  0.50062705  0.73328258  1
  O2-  O132  1  0.00211705  0.24371169  0.27221570  1
  O2-  O133  1  -0.00442314  0.24509386  0.60984622  1
  O2-  O134  1  0.00064455  0.24581977  0.93604513  1
  O2-  O135  1  -0.00295191  0.75511043  0.27344473  1
  O2-  O136  1  -0.00372500  0.75536584  0.60477839  1
  O2-  O137  1  0.00889682  0.75014103  0.94092729  1
  O2-  O138  1  0.50219192  0.24524828  0.26949214  1
  O2-  O139  1  0.49785928  0.24976647  0.60207406  1
  O2-  O140  1  0.49583068  0.24599388  0.94391045  1
  O2-  O141  1  0.50308290  0.75169600  0.27036225  1
  O2-  O142  1  0.50476583  0.75288790  0.61077299  1
  O2-  O143  1  0.49610128  0.75427690  0.93683351  1
  O2-  O144  1  0.06938339  0.18335555  0.08869585  1
  O2-  O145  1  0.07157941  0.17659432  0.42155506  1
  O2-  O146  1  0.07192841  0.18236606  0.75778818  1
  O2-  O147  1  0.07456880  0.67586938  0.08910321  1
  O2-  O148  1  0.07044596  0.67908833  0.43249390  1
  O2-  O149  1  0.07100561  0.67934648  0.76555119  1
  O2-  O150  1  0.57230565  0.17852274  0.08978009  1
  O2-  O151  1  0.57453584  0.17816971  0.41921486  1
  O2-  O152  1  0.56838271  0.17884785  0.76467530  1
  O2-  O153  1  0.57038081  0.68112474  0.09738551  1
  O2-  O154  1  0.57393458  0.68061919  0.43469554  1
  O2-  O155  1  0.56896560  0.67865502  0.75780150  1
  O2-  O156  1  0.17851867  0.42915785  0.24312206  1
  O2-  O157  1  0.17449951  0.42887759  0.57580482  1
  O2-  O158  1  0.18006371  0.42843783  0.90950053  1
  O2-  O159  1  0.17780667  0.93005169  0.23618156  1
  O2-  O160  1  0.18238093  0.92445578  0.56909456  1
  O2-  O161  1  0.17913230  0.92975471  0.90398218  1
  O2-  O162  1  0.68004835  0.42289896  0.24285722  1
  O2-  O163  1  0.67839963  0.43273948  0.56733761  1
  O2-  O164  1  0.67639832  0.42789378  0.91266243  1
  O2-  O165  1  0.68267835  0.92967944  0.23136282  1
  O2-  O166  1  0.67698673  0.92773647  0.56982086  1
  O2-  O167  1  0.67976685  0.93073338  0.91068656  1
  O2-  O168  1  0.42949832  0.32167948  0.09009718  1
  O2-  O169  1  0.42954440  0.31940317  0.43034140  1
  O2-  O170  1  0.42570735  0.32226299  0.76531357  1
  O2-  O171  1  0.42788106  0.82071146  0.08779993  1
  O2-  O172  1  0.42913076  0.82072121  0.43294798  1
  O2-  O173  1  0.42893883  0.81443768  0.75968239  1
  O2-  O174  1  0.93001967  0.32195889  0.09639705  1
  O2-  O175  1  0.92930450  0.31783601  0.43337328  1
  O2-  O176  1  0.93324620  0.32157783  0.75724289  1
  O2-  O177  1  0.92749468  0.81908010  0.09990556  1
  O2-  O178  1  0.93009102  0.82397578  0.42527300  1
  O2-  O179  1  0.92795501  0.82307126  0.75420985  1
  O2-  O180  1  0.31842903  0.07534137  0.24557641  1
  O2-  O181  1  0.31615483  0.07235565  0.56621864  1
  O2-  O182  1  0.32071772  0.07405270  0.90465805  1
  O2-  O183  1  0.32014942  0.56703353  0.23247683  1
  O2-  O184  1  0.32184685  0.57228884  0.57672069  1
  O2-  O185  1  0.32411492  0.56756425  0.90870577  1
  O2-  O186  1  0.81993826  0.07494094  0.24035025  1
  O2-  O187  1  0.82014223  0.07129569  0.56712894  1
  O2-  O188  1  0.81791901  0.07564221  0.91052136  1
  O2-  O189  1  0.82266845  0.57048700  0.23363315  1
  O2-  O190  1  0.82577991  0.56609977  0.56979239  1
  O2-  O191  1  0.81995653  0.56850096  0.90294342  1
  O2-  O192  1  0.04592467  0.08180288  0.26962793  1
  O2-  O193  1  0.04586649  0.08423651  0.60698980  1
  O2-  O194  1  0.04875728  0.08561986  0.93863799  1
  O2-  O195  1  0.04258532  0.58312578  0.26432788  1
  O2-  O196  1  0.04123658  0.58306181  0.59771770  1
  O2-  O197  1  0.04627874  0.58547085  0.93683856  1
  O2-  O198  1  0.54664627  0.08468546  0.26675407  1
  O2-  O199  1  0.54254985  0.07786063  0.59908995  1
  O2-  O200  1  0.54470829  0.08402500  0.93831707  1
  O2-  O201  1  0.54807266  0.58121323  0.26649415  1
  O2-  O202  1  0.54231883  0.58908026  0.60508406  1
  O2-  O203  1  0.53835027  0.58324078  0.92981857  1
  O2-  O204  1  0.16403619  0.20124073  0.26737087  1
  O2-  O205  1  0.15883466  0.21014654  0.60207429  1
  O2-  O206  1  0.16414677  0.21051482  0.93802461  1
  O2-  O207  1  0.16734911  0.70934320  0.26550022  1
  O2-  O208  1  0.16873361  0.70932363  0.59975834  1
  O2-  O209  1  0.17030951  0.69859435  0.93853750  1
  O2-  O210  1  0.66449396  0.20446807  0.26528430  1
  O2-  O211  1  0.66907850  0.20619222  0.59710050  1
  O2-  O212  1  0.66007254  0.20657403  0.93546007  1
  O2-  O213  1  0.67327028  0.71132608  0.26852264  1
  O2-  O214  1  0.66740308  0.70353691  0.60921683  1
  O2-  O215  1  0.66597515  0.71129969  0.92930053  1
  O2-  O216  1  0.08682648  0.45764440  0.06184253  1
  O2-  O217  1  0.08519815  0.45344633  0.39513630  1
  O2-  O218  1  0.08963662  0.46096894  0.73160264  1
  O2-  O219  1  0.07952877  0.95883436  0.07015336  1
  O2-  O220  1  0.08351114  0.95938291  0.40432391  1
  O2-  O221  1  0.07868191  0.95067869  0.73243540  1
  O2-  O222  1  0.58212096  0.45330601  0.06218343  1
  O2-  O223  1  0.58338607  0.44793722  0.39246769  1
  O2-  O224  1  0.57926112  0.45929041  0.73607743  1
  O2-  O225  1  0.58924901  0.95635385  0.06331845  1
  O2-  O226  1  0.58147802  0.95950341  0.39742459  1
  O2-  O227  1  0.57930517  0.95529252  0.73841000  1
  O2-  O228  1  0.20568771  0.33953759  0.06495084  1
  O2-  O229  1  0.19977841  0.33089451  0.39219126  1
  O2-  O230  1  0.20279210  0.33742886  0.73034757  1
  O2-  O231  1  0.20497752  0.82751280  0.06813259  1
  O2-  O232  1  0.21137042  0.83161836  0.40191958  1
  O2-  O233  1  0.21102885  0.82918685  0.73739606  1
  O2-  O234  1  0.70049758  0.33248826  0.06287665  1
  O2-  O235  1  0.70679620  0.33299892  0.39487146  1
  O2-  O236  1  0.70250710  0.33146702  0.73327823  1
  O2-  O237  1  0.71116083  0.83711057  0.06064943  1
  O2-  O238  1  0.71075088  0.83608015  0.40369018  1
  O2-  O239  1  0.70659177  0.83079988  0.73827156  1
  O2-  O240  1  0.46027875  0.41530569  0.26067500  1
  O2-  O241  1  0.45665981  0.42172374  0.59956905  1
  O2-  O242  1  0.45647633  0.41018549  0.93555727  1
  O2-  O243  1  0.45265400  0.92188178  0.26541216  1
  O2-  O244  1  0.45248405  0.91227013  0.60856549  1
  O2-  O245  1  0.45406723  0.91715593  0.93914316  1
  O2-  O246  1  0.96406953  0.41360762  0.26309070  1
  O2-  O247  1  0.96365787  0.41005456  0.60435094  1
  O2-  O248  1  0.96350863  0.41709808  0.92884682  1
  O2-  O249  1  0.95301034  0.91760449  0.27385330  1
  O2-  O250  1  0.94945451  0.91877467  0.60355738  1
  O2-  O251  1  0.95616116  0.92067330  0.93338288  1
  O2-  O252  1  0.33120824  0.29214911  0.26287535  1
  O2-  O253  1  0.32662769  0.29833660  0.59790051  1
  O2-  O254  1  0.33337870  0.29604936  0.94083916  1
  O2-  O255  1  0.33268497  0.78873478  0.26458314  1
  O2-  O256  1  0.33972313  0.78627003  0.60691075  1
  O2-  O257  1  0.33431419  0.79506911  0.93615580  1
  O2-  O258  1  0.83339706  0.29121762  0.26162450  1
  O2-  O259  1  0.83588975  0.29716831  0.60654225  1
  O2-  O260  1  0.83022202  0.29253394  0.93113952  1
  O2-  O261  1  0.83568182  0.79628225  0.27471166  1
  O2-  O262  1  0.83242975  0.79740659  0.60438821  1
  O2-  O263  1  0.83626084  0.78865148  0.92935120  1
  O2-  O264  1  0.42219961  0.04797578  0.07070729  1
  O2-  O265  1  0.41742043  0.05399858  0.39351793  1
  O2-  O266  1  0.41631703  0.04425661  0.73326205  1
  O2-  O267  1  0.41393572  0.53702567  0.06128709  1
  O2-  O268  1  0.41957134  0.53837491  0.39857383  1
  O2-  O269  1  0.41300127  0.54474909  0.73073627  1
  O2-  O270  1  0.91371143  0.05141858  0.06112350  1
  O2-  O271  1  0.91521665  0.05229855  0.39253084  1
  O2-  O272  1  0.91848589  0.04706892  0.73664156  1
  O2-  O273  1  0.91786422  0.53936743  0.06724296  1
  O2-  O274  1  0.91866269  0.53508893  0.39898241  1
  O2-  O275  1  0.92193529  0.53784847  0.73646703  1
  O2-  O276  1  0.29084480  0.17013089  0.07152254  1
  O2-  O277  1  0.29232899  0.16739362  0.39628694  1
  O2-  O278  1  0.29009971  0.17199434  0.73203434  1
  O2-  O279  1  0.30026218  0.66246185  0.06092175  1
  O2-  O280  1  0.29014819  0.66394793  0.40125437  1
  O2-  O281  1  0.29030013  0.65929461  0.73267141  1
  O2-  O282  1  0.78801071  0.16499511  0.06280073  1
  O2-  O283  1  0.79498176  0.16829925  0.39147004  1
  O2-  O284  1  0.79245530  0.17055663  0.73465674  1
  O2-  O285  1  0.78774730  0.66770774  0.06711091  1
  O2-  O286  1  0.79518828  0.66602073  0.40401795  1
  O2-  O287  1  0.79933683  0.66904615  0.73476654  1
