# generated using pymatgen
data_Ca2Al2SiO7
_symmetry_space_group_name_H-M   'P 1'
_cell_length_a   15.45989331
_cell_length_b   15.46012130
_cell_length_c   15.28591152
_cell_angle_alpha   89.99964350
_cell_angle_beta   89.99836019
_cell_angle_gamma   90.00483342
_symmetry_Int_Tables_number   1
_chemical_formula_structural   Ca2Al2SiO7
_chemical_formula_sum   'Ca48 Al48 Si24 O168'
_cell_volume   3653.51360584
_cell_formula_units_Z   24
loop_
 _symmetry_equiv_pos_site_id
 _symmetry_equiv_pos_as_xyz
  1  'x, y, z'
loop_
 _atom_type_symbol
 _atom_type_oxidation_number
  Ca2+  2.0
  Al0+  0.0
  Si0+  0.0
  O2-  -2.0
loop_
 _atom_site_type_symbol
 _atom_site_label
 _atom_site_symmetry_multiplicity
 _atom_site_fract_x
 _atom_site_fract_y
 _atom_site_fract_z
 _atom_site_occupancy
  Ca2+  Ca0  1  0.17203049  0.08885742  0.17077021  1
  Ca2+  Ca1  1  0.17147988  0.08067585  0.50028559  1
  Ca2+  Ca2  1  0.16934794  0.07369941  0.84358735  1
  Ca2+  Ca3  1  0.17625373  0.57836949  0.17519228  1
  Ca2+  Ca4  1  0.16915896  0.58650220  0.49700691  1
  Ca2+  Ca5  1  0.17628365  0.58043092  0.84290691  1
  Ca2+  Ca6  1  0.67579257  0.07988435  0.17185746  1
  Ca2+  Ca7  1  0.67024826  0.07651931  0.49648717  1
  Ca2+  Ca8  1  0.67023058  0.07682774  0.84743361  1
  Ca2+  Ca9  1  0.66570932  0.57665988  0.17640888  1
  Ca2+  Ca10  1  0.65577330  0.58181880  0.49866085  1
  Ca2+  Ca11  1  0.66568629  0.58438763  0.83717347  1
  Ca2+  Ca12  1  0.08383484  0.32277966  0.16077041  1
  Ca2+  Ca13  1  0.07881653  0.33123411  0.48911471  1
  Ca2+  Ca14  1  0.07525191  0.32502236  0.83301343  1
  Ca2+  Ca15  1  0.08188774  0.83149669  0.16113392  1
  Ca2+  Ca16  1  0.08618823  0.83083634  0.49310883  1
  Ca2+  Ca17  1  0.08041459  0.84548067  0.83445866  1
  Ca2+  Ca18  1  0.57941950  0.32728617  0.15858589  1
  Ca2+  Ca19  1  0.58235288  0.33337296  0.49372216  1
  Ca2+  Ca20  1  0.57982786  0.32459063  0.83860001  1
  Ca2+  Ca21  1  0.58309027  0.83675887  0.16690097  1
  Ca2+  Ca22  1  0.57389013  0.82745519  0.48899189  1
  Ca2+  Ca23  1  0.57732008  0.83076068  0.82597847  1
  Ca2+  Ca24  1  0.33508611  0.42575546  0.17383642  1
  Ca2+  Ca25  1  0.32601144  0.42223996  0.49572647  1
  Ca2+  Ca26  1  0.33889831  0.42458707  0.84353687  1
  Ca2+  Ca27  1  0.33236527  0.92851237  0.17016096  1
  Ca2+  Ca28  1  0.33364721  0.91517139  0.50180983  1
  Ca2+  Ca29  1  0.32343366  0.91566844  0.84084862  1
  Ca2+  Ca30  1  0.82709915  0.41009564  0.17207695  1
  Ca2+  Ca31  1  0.82865083  0.41495354  0.50209866  1
  Ca2+  Ca32  1  0.83847978  0.41377113  0.83716821  1
  Ca2+  Ca33  1  0.82587363  0.92254701  0.16829882  1
  Ca2+  Ca34  1  0.83136474  0.92019486  0.49786518  1
  Ca2+  Ca35  1  0.82610877  0.92125944  0.84940672  1
  Ca2+  Ca36  1  0.41636712  0.16958530  0.15620284  1
  Ca2+  Ca37  1  0.41546294  0.16576416  0.49162084  1
  Ca2+  Ca38  1  0.41769314  0.16178366  0.83993285  1
  Ca2+  Ca39  1  0.41510105  0.66840019  0.16723216  1
  Ca2+  Ca40  1  0.41954686  0.67874211  0.49032830  1
  Ca2+  Ca41  1  0.42043527  0.67285404  0.82635310  1
  Ca2+  Ca42  1  0.92442607  0.16268342  0.15852090  1
  Ca2+  Ca43  1  0.92289519  0.16821376  0.49179914  1
  Ca2+  Ca44  1  0.91649616  0.17072017  0.83554915  1
  Ca2+  Ca45  1  0.92304874  0.67175579  0.16271862  1
  Ca2+  Ca46  1  0.92531130  0.66980403  0.49089379  1
  Ca2+  Ca47  1  0.91751010  0.67651197  0.83359494  1
  Al0+  Al48  1  -0.00150058  -0.00202513  -0.00176159  1
  Al0+  Al49  1  0.00042686  0.00186424  0.33343574  1
  Al0+  Al50  1  0.00075911  0.00172903  0.66904261  1
  Al0+  Al51  1  0.00141961  0.50132308  -0.00375131  1
  Al0+  Al52  1  -0.00165605  0.50008187  0.33134982  1
  Al0+  Al53  1  -0.00171734  0.49936053  0.66434361  1
  Al0+  Al54  1  0.49776337  -0.00274705  0.00106473  1
  Al0+  Al55  1  0.50057729  0.00036973  0.33791386  1
  Al0+  Al56  1  0.50111984  0.00108839  0.66303877  1
  Al0+  Al57  1  0.50195790  0.50039069  -0.00003340  1
  Al0+  Al58  1  0.49934127  0.50158600  0.33983505  1
  Al0+  Al59  1  0.50080858  0.49674549  0.66569957  1
  Al0+  Al60  1  0.24860179  0.25153224  -0.00891492  1
  Al0+  Al61  1  0.24904857  0.25083584  0.33867978  1
  Al0+  Al62  1  0.25012376  0.24975315  0.66828484  1
  Al0+  Al63  1  0.25170465  0.74788129  0.00784705  1
  Al0+  Al64  1  0.25040433  0.75090157  0.32732763  1
  Al0+  Al65  1  0.24979540  0.75030011  0.66881373  1
  Al0+  Al66  1  0.74899996  0.24978346  -0.00461646  1
  Al0+  Al67  1  0.74969198  0.25047348  0.34339270  1
  Al0+  Al68  1  0.74999357  0.25140926  0.66348244  1
  Al0+  Al69  1  0.75147506  0.74819339  0.00013409  1
  Al0+  Al70  1  0.74874651  0.74957053  0.33402366  1
  Al0+  Al71  1  0.75173583  0.74807798  0.66306555  1
  Al0+  Al72  1  0.32033682  0.57367225  0.35057350  1
  Al0+  Al73  1  0.42866843  0.32310472  0.98671939  1
  Al0+  Al74  1  0.32384233  0.56919704  0.01380638  1
  Al0+  Al75  1  0.31887082  0.07253827  0.01392342  1
  Al0+  Al76  1  0.82326941  0.07109783  0.34982482  1
  Al0+  Al77  1  0.17730045  0.92810875  0.01711025  1
  Al0+  Al78  1  0.67890909  0.42985457  0.34723088  1
  Al0+  Al79  1  0.92799915  0.32217180  0.98649745  1
  Al0+  Al80  1  0.92956449  0.81926484  0.98747772  1
  Al0+  Al81  1  0.07147084  0.18016856  0.32034017  1
  Al0+  Al82  1  0.56976767  0.17586548  0.98750325  1
  Al0+  Al83  1  0.07088199  0.67804883  0.31875374  1
  Al0+  Al84  1  0.18032510  0.92904439  0.67982558  1
  Al0+  Al85  1  0.32097849  0.07198544  0.34670581  1
  Al0+  Al86  1  0.57242318  0.67745090  0.65149308  1
  Al0+  Al87  1  0.67883307  0.92754830  0.35032851  1
  Al0+  Al88  1  0.17747720  0.42927425  0.34688699  1
  Al0+  Al89  1  0.42890286  0.82408111  0.31397792  1
  Al0+  Al90  1  0.07221554  0.17636599  0.98342592  1
  Al0+  Al91  1  0.81964706  0.07313407  0.01374544  1
  Al0+  Al92  1  0.42805310  0.82125521  0.65206136  1
  Al0+  Al93  1  0.67678888  0.92526740  0.01371868  1
  Al0+  Al94  1  0.57031936  0.67817956  0.31587263  1
  Al0+  Al95  1  0.92999705  0.32055807  0.64961342  1
  Si0+  Si96  1  0.17655530  0.42846533  0.68262960  1
  Si0+  Si97  1  0.92780176  0.82311483  0.31704033  1
  Si0+  Si98  1  0.42935037  0.32007937  0.32152822  1
  Si0+  Si99  1  0.17650444  0.42906140  0.01404038  1
  Si0+  Si100  1  0.42786360  0.81947292  0.98539186  1
  Si0+  Si101  1  0.07009086  0.67899624  0.65367010  1
  Si0+  Si102  1  0.81967390  0.07133455  0.68231583  1
  Si0+  Si103  1  0.42769026  0.32090751  0.64986228  1
  Si0+  Si104  1  0.92948127  0.82296426  0.65172975  1
  Si0+  Si105  1  0.92587734  0.32107088  0.31767936  1
  Si0+  Si106  1  0.31986500  0.56836111  0.68149068  1
  Si0+  Si107  1  0.82275963  0.57073110  0.68284523  1
  Si0+  Si108  1  0.82226925  0.57248965  0.34987869  1
  Si0+  Si109  1  0.68102948  0.43012352  0.01269733  1
  Si0+  Si110  1  0.32457460  0.07372041  0.68424942  1
  Si0+  Si111  1  0.57224999  0.18014037  0.32085133  1
  Si0+  Si112  1  0.07411204  0.67910220  0.98236578  1
  Si0+  Si113  1  0.57101524  0.17996294  0.64994560  1
  Si0+  Si114  1  0.82301271  0.57123584  0.01374713  1
  Si0+  Si115  1  0.07212255  0.17768731  0.64817498  1
  Si0+  Si116  1  0.68047110  0.92823608  0.68066352  1
  Si0+  Si117  1  0.67909394  0.42837704  0.68483444  1
  Si0+  Si118  1  0.57183812  0.67845730  0.98571153  1
  Si0+  Si119  1  0.17811268  0.92855175  0.34830828  1
  O2-  O120  1  0.24429772  0.00494213  0.06624473  1
  O2-  O121  1  0.24815692  -0.00464912  0.39337194  1
  O2-  O122  1  0.25666797  0.00295959  0.72534424  1
  O2-  O123  1  0.25020415  0.49230900  0.05746524  1
  O2-  O124  1  0.24484829  0.50436490  0.39998948  1
  O2-  O125  1  0.24997861  0.49680564  0.72548518  1
  O2-  O126  1  0.74584519  0.00151043  0.06129013  1
  O2-  O127  1  0.75289476  -0.00229547  0.40074955  1
  O2-  O128  1  0.75108443  -0.00174845  0.72498908  1
  O2-  O129  1  0.75672131  0.49580839  0.05461583  1
  O2-  O130  1  0.75220513  0.50573282  0.39521056  1
  O2-  O131  1  0.74861738  0.50221002  0.72521234  1
  O2-  O132  1  -0.00460170  0.25389905  0.27436638  1
  O2-  O133  1  0.00599354  0.24814930  0.60285234  1
  O2-  O134  1  -0.00211877  0.24842267  0.93559041  1
  O2-  O135  1  -0.00359248  0.75364029  0.27393614  1
  O2-  O136  1  0.00186383  0.75276167  0.61078712  1
  O2-  O137  1  0.00790756  0.74958461  0.93699076  1
  O2-  O138  1  0.50021505  0.24970810  0.27879667  1
  O2-  O139  1  0.49566791  0.24688206  0.60808290  1
  O2-  O140  1  0.49560900  0.24606132  0.93618867  1
  O2-  O141  1  0.50097325  0.75118644  0.26425194  1
  O2-  O142  1  0.50189676  0.75080571  0.60258903  1
  O2-  O143  1  0.50167431  0.75022010  0.94378068  1
  O2-  O144  1  0.07308249  0.18012976  0.09697629  1
  O2-  O145  1  0.07077129  0.18150335  0.43399528  1
  O2-  O146  1  0.07030683  0.17759090  0.75330301  1
  O2-  O147  1  0.07039646  0.67661558  0.08748435  1
  O2-  O148  1  0.06853756  0.68063670  0.43310305  1
  O2-  O149  1  0.06799553  0.67648825  0.75853018  1
  O2-  O150  1  0.57212568  0.18116325  0.10100137  1
  O2-  O151  1  0.57114365  0.18321339  0.42679060  1
  O2-  O152  1  0.57265692  0.18021420  0.75474368  1
  O2-  O153  1  0.57263205  0.67455085  0.08988865  1
  O2-  O154  1  0.56724236  0.67860916  0.42952014  1
  O2-  O155  1  0.57151775  0.67807802  0.76593042  1
  O2-  O156  1  0.18147976  0.42782262  0.23365348  1
  O2-  O157  1  0.17671268  0.42974769  0.57788367  1
  O2-  O158  1  0.17454088  0.43481481  0.90769983  1
  O2-  O159  1  0.17600605  0.93081391  0.24340428  1
  O2-  O160  1  0.17832545  0.92934758  0.56678180  1
  O2-  O161  1  0.18209191  0.92675406  0.90284152  1
  O2-  O162  1  0.68076714  0.42713898  0.23391115  1
  O2-  O163  1  0.67915244  0.42726983  0.57994000  1
  O2-  O164  1  0.67888038  0.43348917  0.90721937  1
  O2-  O165  1  0.68030606  0.93043907  0.23721992  1
  O2-  O166  1  0.68245103  0.93001564  0.57609252  1
  O2-  O167  1  0.67918819  0.92353518  0.89878359  1
  O2-  O168  1  0.43369352  0.32738893  0.10019709  1
  O2-  O169  1  0.43066647  0.31783725  0.42741712  1
  O2-  O170  1  0.42969882  0.32493806  0.75452178  1
  O2-  O171  1  0.42699967  0.81872392  0.08967688  1
  O2-  O172  1  0.42902498  0.82291833  0.42810964  1
  O2-  O173  1  0.42836379  0.81841281  0.76629040  1
  O2-  O174  1  0.92876555  0.32545753  0.09954794  1
  O2-  O175  1  0.92673952  0.32039508  0.42373955  1
  O2-  O176  1  0.93065955  0.32018970  0.76230789  1
  O2-  O177  1  0.92621960  0.81287768  0.09987056  1
  O2-  O178  1  0.93012595  0.82185631  0.42374921  1
  O2-  O179  1  0.92687964  0.82135193  0.75658392  1
  O2-  O180  1  0.32031543  0.07613213  0.23441692  1
  O2-  O181  1  0.32317106  0.07683371  0.57870666  1
  O2-  O182  1  0.32063341  0.06651213  0.89985827  1
  O2-  O183  1  0.32189637  0.56855072  0.23724417  1
  O2-  O184  1  0.31736067  0.56822626  0.57707310  1
  O2-  O185  1  0.32303870  0.56986100  0.89945115  1
  O2-  O186  1  0.82187700  0.07282957  0.23694350  1
  O2-  O187  1  0.81918192  0.06957605  0.57742476  1
  O2-  O188  1  0.81675929  0.07122114  0.89900630  1
  O2-  O189  1  0.82283739  0.57019831  0.24419341  1
  O2-  O190  1  0.82684574  0.57003967  0.57831399  1
  O2-  O191  1  0.82029338  0.57365646  0.90814968  1
  O2-  O192  1  0.04278570  0.08314030  0.26714612  1
  O2-  O193  1  0.04343546  0.08476497  0.60194099  1
  O2-  O194  1  0.04434584  0.07793872  0.93049244  1
  O2-  O195  1  0.03837091  0.58226155  0.26396106  1
  O2-  O196  1  0.03903763  0.58909781  0.60448630  1
  O2-  O197  1  0.04589419  0.58731879  0.93320591  1
  O2-  O198  1  0.54796732  0.08749639  0.27644992  1
  O2-  O199  1  0.54776205  0.08745552  0.60164862  1
  O2-  O200  1  0.54253879  0.07743550  0.93236588  1
  O2-  O201  1  0.54148881  0.57775914  0.26642789  1
  O2-  O202  1  0.54472577  0.57724270  0.60214065  1
  O2-  O203  1  0.54319814  0.58791378  0.93551105  1
  O2-  O204  1  0.16768752  0.21426722  0.26800312  1
  O2-  O205  1  0.16799848  0.20118641  0.60546423  1
  O2-  O206  1  0.16787965  0.20619331  0.92473396  1
  O2-  O207  1  0.16674820  0.70592120  0.26400898  1
  O2-  O208  1  0.16244077  0.70489020  0.60717855  1
  O2-  O209  1  0.16946297  0.70209547  0.93876847  1
  O2-  O210  1  0.66402525  0.21121123  0.27617085  1
  O2-  O211  1  0.66035871  0.21353106  0.60147429  1
  O2-  O212  1  0.66478656  0.20944913  0.92962794  1
  O2-  O213  1  0.67191048  0.70097229  0.26651125  1
  O2-  O214  1  0.67304728  0.69988767  0.60004826  1
  O2-  O215  1  0.66382149  0.70437718  0.93705507  1
  O2-  O216  1  0.08526391  0.45982759  0.06172515  1
  O2-  O217  1  0.07728573  0.45476786  0.39872373  1
  O2-  O218  1  0.08545528  0.45951757  0.72943329  1
  O2-  O219  1  0.07534010  0.94670822  0.06448212  1
  O2-  O220  1  0.08526323  0.95447014  0.39634203  1
  O2-  O221  1  0.08331227  0.96101646  0.73412680  1
  O2-  O222  1  0.59208778  0.46263633  0.06187542  1
  O2-  O223  1  0.58363183  0.45908791  0.40503516  1
  O2-  O224  1  0.58637675  0.45363344  0.73229119  1
  O2-  O225  1  0.57715117  0.94758591  0.06396429  1
  O2-  O226  1  0.58311420  0.96070484  0.40603814  1
  O2-  O227  1  0.58758991  0.95653460  0.72607512  1
  O2-  O228  1  0.19579587  0.33276746  0.05428001  1
  O2-  O229  1  0.21117633  0.33507003  0.40580202  1
  O2-  O230  1  0.20210898  0.33533186  0.72857945  1
  O2-  O231  1  0.20807510  0.83071254  0.06969575  1
  O2-  O232  1  0.20234101  0.83415050  0.39311926  1
  O2-  O233  1  0.20732745  0.83165268  0.73562163  1
  O2-  O234  1  0.70391485  0.33711245  0.05872261  1
  O2-  O235  1  0.71010384  0.33611061  0.40731904  1
  O2-  O236  1  0.71026641  0.33711664  0.73162305  1
  O2-  O237  1  0.71024507  0.82849226  0.06674612  1
  O2-  O238  1  0.70585430  0.82836255  0.40327825  1
  O2-  O239  1  0.70726553  0.83472826  0.72555464  1
  O2-  O240  1  0.45752053  0.41249541  0.27731961  1
  O2-  O241  1  0.45930104  0.41063457  0.60084639  1
  O2-  O242  1  0.46657467  0.41819909  0.92998366  1
  O2-  O243  1  0.45955369  0.92363194  0.26475529  1
  O2-  O244  1  0.45373840  0.92112456  0.60056657  1
  O2-  O245  1  0.45219662  0.91084781  0.93591021  1
  O2-  O246  1  0.94607733  0.41603287  0.27311940  1
  O2-  O247  1  0.95837907  0.41847520  0.59645591  1
  O2-  O248  1  0.95769068  0.42065726  0.93093481  1
  O2-  O249  1  0.95393271  0.91621452  0.27200871  1
  O2-  O250  1  0.95667802  0.91525326  0.60518007  1
  O2-  O251  1  0.95411696  0.91556551  0.93019244  1
  O2-  O252  1  0.33770060  0.29285032  0.27552143  1
  O2-  O253  1  0.33408612  0.29626926  0.60402521  1
  O2-  O254  1  0.32996647  0.30382102  0.93072202  1
  O2-  O255  1  0.33035026  0.79728730  0.26203640  1
  O2-  O256  1  0.32962199  0.79052089  0.60004886  1
  O2-  O257  1  0.33721109  0.78630156  0.93804555  1
  O2-  O258  1  0.83127629  0.29417488  0.27492524  1
  O2-  O259  1  0.83233872  0.29062880  0.59699185  1
  O2-  O260  1  0.82959119  0.29729021  0.93076312  1
  O2-  O261  1  0.83420904  0.79707926  0.27290060  1
  O2-  O262  1  0.83942051  0.79278424  0.60241579  1
  O2-  O263  1  0.83527924  0.78193721  0.92989613  1
  O2-  O264  1  0.41694446  0.04294140  0.06613215  1
  O2-  O265  1  0.41742687  0.04465913  0.40285287  1
  O2-  O266  1  0.42013486  0.05069690  0.72771579  1
  O2-  O267  1  0.42033739  0.53887738  0.06752830  1
  O2-  O268  1  0.41580514  0.54089286  0.40632421  1
  O2-  O269  1  0.41230948  0.53879196  0.72759031  1
  O2-  O270  1  0.91768022  0.04338253  0.06396635  1
  O2-  O271  1  0.92124347  0.04203915  0.40482714  1
  O2-  O272  1  0.91281900  0.04680594  0.72806191  1
  O2-  O273  1  0.91689941  0.54876457  0.05897370  1
  O2-  O274  1  0.91472617  0.54529407  0.39799090  1
  O2-  O275  1  0.91305560  0.54014662  0.73247436  1
  O2-  O276  1  0.29654201  0.17535604  0.06041596  1
  O2-  O277  1  0.28831617  0.16623727  0.40504641  1
  O2-  O278  1  0.29924819  0.16766012  0.73071742  1
  O2-  O279  1  0.29225004  0.66297028  0.07024554  1
  O2-  O280  1  0.29095345  0.67298010  0.40103778  1
  O2-  O281  1  0.29162278  0.65972480  0.72966914  1
  O2-  O282  1  0.79289796  0.17242663  0.06521138  1
  O2-  O283  1  0.79173381  0.16703202  0.40684904  1
  O2-  O284  1  0.78866211  0.16345947  0.72696685  1
  O2-  O285  1  0.79086797  0.65946271  0.06390602  1
  O2-  O286  1  0.80075449  0.66665390  0.39630759  1
  O2-  O287  1  0.79704334  0.66388021  0.73017829  1
