# generated using pymatgen
data_Ca2Al2SiO7
_symmetry_space_group_name_H-M   'P 1'
_cell_length_a   15.46761226
_cell_length_b   15.47110355
_cell_length_c   15.29321545
_cell_angle_alpha   89.98208200
_cell_angle_beta   89.99369857
_cell_angle_gamma   89.99376985
_symmetry_Int_Tables_number   1
_chemical_formula_structural   Ca2Al2SiO7
_chemical_formula_sum   'Ca48 Al48 Si24 O168'
_cell_volume   3659.68200105
_cell_formula_units_Z   24
loop_
 _symmetry_equiv_pos_site_id
 _symmetry_equiv_pos_as_xyz
  1  'x, y, z'
loop_
 _atom_type_symbol
 _atom_type_oxidation_number
  Ca2+  2.0
  Al0+  0.0
  Si0+  0.0
  O2-  -2.0
loop_
 _atom_site_type_symbol
 _atom_site_label
 _atom_site_symmetry_multiplicity
 _atom_site_fract_x
 _atom_site_fract_y
 _atom_site_fract_z
 _atom_site_occupancy
  Ca2+  Ca0  1  0.17467307  0.09708626  0.16634378  1
  Ca2+  Ca1  1  0.16613155  0.07798936  0.50615944  1
  Ca2+  Ca2  1  0.17150352  0.08443346  0.84598216  1
  Ca2+  Ca3  1  0.16506420  0.58347096  0.16378220  1
  Ca2+  Ca4  1  0.16972434  0.59001157  0.50742137  1
  Ca2+  Ca5  1  0.17577581  0.58269730  0.84185165  1
  Ca2+  Ca6  1  0.66918626  0.08389497  0.17748387  1
  Ca2+  Ca7  1  0.66366784  0.08347543  0.49690969  1
  Ca2+  Ca8  1  0.65774821  0.08608840  0.83593983  1
  Ca2+  Ca9  1  0.67733445  0.56811870  0.17125386  1
  Ca2+  Ca10  1  0.67884620  0.58417479  0.50705290  1
  Ca2+  Ca11  1  0.67627353  0.57800859  0.84187646  1
  Ca2+  Ca12  1  0.07519950  0.33249561  0.15358627  1
  Ca2+  Ca13  1  0.07333663  0.33849828  0.49991581  1
  Ca2+  Ca14  1  0.07277121  0.34530357  0.83646066  1
  Ca2+  Ca15  1  0.07556823  0.82219982  0.16444740  1
  Ca2+  Ca16  1  0.07505146  0.82050310  0.49189844  1
  Ca2+  Ca17  1  0.08217551  0.82017940  0.83093528  1
  Ca2+  Ca18  1  0.58806517  0.32740369  0.15797037  1
  Ca2+  Ca19  1  0.58311677  0.32917418  0.49558010  1
  Ca2+  Ca20  1  0.57473903  0.33339461  0.82923995  1
  Ca2+  Ca21  1  0.58782424  0.83449073  0.16600184  1
  Ca2+  Ca22  1  0.58683191  0.82901324  0.49773890  1
  Ca2+  Ca23  1  0.58044453  0.82336520  0.82819401  1
  Ca2+  Ca24  1  0.32886751  0.41287048  0.16131931  1
  Ca2+  Ca25  1  0.32932053  0.41958290  0.50862327  1
  Ca2+  Ca26  1  0.33352845  0.42111190  0.84284256  1
  Ca2+  Ca27  1  0.33189851  0.92454696  0.16688844  1
  Ca2+  Ca28  1  0.33199779  0.91749594  0.50425653  1
  Ca2+  Ca29  1  0.33247526  0.92551355  0.84156425  1
  Ca2+  Ca30  1  0.82770452  0.41778069  0.16881200  1
  Ca2+  Ca31  1  0.82870982  0.42303719  0.50278628  1
  Ca2+  Ca32  1  0.83242303  0.42107148  0.83989051  1
  Ca2+  Ca33  1  0.83039770  0.92489146  0.17833804  1
  Ca2+  Ca34  1  0.83476658  0.91942010  0.49664723  1
  Ca2+  Ca35  1  0.83119298  0.92072551  0.83702450  1
  Ca2+  Ca36  1  0.42858407  0.17242065  0.15599825  1
  Ca2+  Ca37  1  0.42749443  0.17267935  0.49752515  1
  Ca2+  Ca38  1  0.42141620  0.17862064  0.83240718  1
  Ca2+  Ca39  1  0.41656149  0.66771185  0.16034656  1
  Ca2+  Ca40  1  0.42545824  0.65783561  0.50183582  1
  Ca2+  Ca41  1  0.42075782  0.65769684  0.82653163  1
  Ca2+  Ca42  1  0.91761743  0.17172998  0.15709713  1
  Ca2+  Ca43  1  0.90987725  0.17293845  0.49675560  1
  Ca2+  Ca44  1  0.91858512  0.18370932  0.83218152  1
  Ca2+  Ca45  1  0.91928664  0.66066393  0.16298881  1
  Ca2+  Ca46  1  0.92399029  0.66092197  0.49114881  1
  Ca2+  Ca47  1  0.92819560  0.65022116  0.83063093  1
  Al0+  Al48  1  -0.00114334  -0.00332519  -0.00318683  1
  Al0+  Al49  1  0.00263927  -0.00152762  0.33447112  1
  Al0+  Al50  1  -0.00135533  -0.00116842  0.67006728  1
  Al0+  Al51  1  0.00263348  0.50169129  -0.00102146  1
  Al0+  Al52  1  0.00238181  0.49709944  0.33144604  1
  Al0+  Al53  1  -0.00017030  0.49914324  0.65951052  1
  Al0+  Al54  1  0.49773182  -0.00131845  0.00092648  1
  Al0+  Al55  1  0.49992586  0.00155590  0.33424456  1
  Al0+  Al56  1  0.49924909  -0.00017547  0.66417231  1
  Al0+  Al57  1  0.50172717  0.50069785  0.00570277  1
  Al0+  Al58  1  0.49671742  0.49970843  0.33420284  1
  Al0+  Al59  1  0.49976761  0.49970470  0.66042725  1
  Al0+  Al60  1  0.25282414  0.24976501  0.00318581  1
  Al0+  Al61  1  0.25146664  0.25234988  0.33799079  1
  Al0+  Al62  1  0.24937850  0.24842753  0.66443688  1
  Al0+  Al63  1  0.24894936  0.75263690  0.00036771  1
  Al0+  Al64  1  0.25016362  0.75082969  0.32987596  1
  Al0+  Al65  1  0.24876412  0.75068423  0.66785888  1
  Al0+  Al66  1  0.75145996  0.24750206  -0.00599523  1
  Al0+  Al67  1  0.74946280  0.25006779  0.33708514  1
  Al0+  Al68  1  0.75085216  0.24853462  0.65939619  1
  Al0+  Al69  1  0.74977993  0.75183160  0.00337912  1
  Al0+  Al70  1  0.74998284  0.75151022  0.33606485  1
  Al0+  Al71  1  0.75033297  0.75245670  0.66890054  1
  Al0+  Al72  1  0.57008537  0.17769583  0.64866002  1
  Al0+  Al73  1  0.06960229  0.68041173  0.65342825  1
  Al0+  Al74  1  0.07052680  0.68049912  0.98456801  1
  Al0+  Al75  1  0.43093564  0.32357494  0.98649325  1
  Al0+  Al76  1  0.57250414  0.67909493  0.65451925  1
  Al0+  Al77  1  0.07238227  0.17686511  0.98741192  1
  Al0+  Al78  1  0.82249095  0.57185027  0.01430525  1
  Al0+  Al79  1  0.57231120  0.17656384  0.98550719  1
  Al0+  Al80  1  0.67972526  0.42581922  0.01214581  1
  Al0+  Al81  1  0.32011152  0.07118701  0.01446382  1
  Al0+  Al82  1  0.82209302  0.56931445  0.34813569  1
  Al0+  Al83  1  0.32278907  0.57366957  0.01591202  1
  Al0+  Al84  1  0.32096977  0.57004726  0.67889730  1
  Al0+  Al85  1  0.82393631  0.07152263  0.34817135  1
  Al0+  Al86  1  0.42673640  0.32248909  0.65014570  1
  Al0+  Al87  1  0.67716965  0.92927857  0.34971366  1
  Al0+  Al88  1  0.67647935  0.42815393  0.34980700  1
  Al0+  Al89  1  0.07114197  0.67700744  0.31533731  1
  Al0+  Al90  1  0.92940817  0.32209271  0.98561664  1
  Al0+  Al91  1  0.18010533  0.42937405  0.01435187  1
  Al0+  Al92  1  0.56965248  0.18177734  0.31827215  1
  Al0+  Al93  1  0.93010854  0.32069895  0.65033916  1
  Al0+  Al94  1  0.82140557  0.57169192  0.68042608  1
  Al0+  Al95  1  0.92729600  0.82176825  0.31787687  1
  Si0+  Si96  1  0.07415669  0.17801097  0.32173462  1
  Si0+  Si97  1  0.67767509  0.92957025  0.01373233  1
  Si0+  Si98  1  0.42814075  0.82145810  0.65104181  1
  Si0+  Si99  1  0.32015262  0.07159002  0.35056500  1
  Si0+  Si100  1  0.57148396  0.68050694  0.98806949  1
  Si0+  Si101  1  0.67733440  0.93034226  0.68367197  1
  Si0+  Si102  1  0.17772720  0.42648021  0.68222930  1
  Si0+  Si103  1  0.93054817  0.31799593  0.31849041  1
  Si0+  Si104  1  0.18138051  0.92762194  0.34939752  1
  Si0+  Si105  1  0.92485846  0.82114919  0.98149086  1
  Si0+  Si106  1  0.42853544  0.82078638  0.98569139  1
  Si0+  Si107  1  0.17602889  0.92862985  0.01862091  1
  Si0+  Si108  1  0.17795864  0.92909603  0.68301140  1
  Si0+  Si109  1  0.42535442  0.32337908  0.31469982  1
  Si0+  Si110  1  0.31921499  0.57457677  0.34924683  1
  Si0+  Si111  1  0.18060578  0.42854324  0.34999501  1
  Si0+  Si112  1  0.92747505  0.82529919  0.64992421  1
  Si0+  Si113  1  0.07107989  0.17471573  0.65077120  1
  Si0+  Si114  1  0.67889060  0.42684118  0.68166906  1
  Si0+  Si115  1  0.57098293  0.67812840  0.31806992  1
  Si0+  Si116  1  0.82112084  0.07168957  0.68376039  1
  Si0+  Si117  1  0.32059184  0.06967953  0.68197788  1
  Si0+  Si118  1  0.42932909  0.82162472  0.31830073  1
  Si0+  Si119  1  0.82146005  0.06908344  0.01182780  1
  O2-  O120  1  0.23971740  0.00229067  0.06270285  1
  O2-  O121  1  0.24891822  0.00123891  0.39370012  1
  O2-  O122  1  0.24704094  0.00172023  0.72521127  1
  O2-  O123  1  0.25145782  0.50152156  0.06644734  1
  O2-  O124  1  0.24852048  0.50312640  0.39082615  1
  O2-  O125  1  0.24886461  0.49318289  0.72493093  1
  O2-  O126  1  0.74667178  0.00248063  0.05417819  1
  O2-  O127  1  0.75169902  -0.00065297  0.39891433  1
  O2-  O128  1  0.74738193  0.00257850  0.72538848  1
  O2-  O129  1  0.75377186  0.49602020  0.06213358  1
  O2-  O130  1  0.74616149  0.50250840  0.39992786  1
  O2-  O131  1  0.74521690  0.49778085  0.72604404  1
  O2-  O132  1  -0.00148780  0.24261465  0.27918764  1
  O2-  O133  1  0.00500838  0.24434835  0.60478138  1
  O2-  O134  1  0.00455355  0.25159017  0.93622691  1
  O2-  O135  1  -0.00647541  0.74459635  0.26756458  1
  O2-  O136  1  -0.00867596  0.75164686  0.60745811  1
  O2-  O137  1  -0.00922337  0.75009446  0.93747636  1
  O2-  O138  1  0.49884285  0.25970189  0.27213991  1
  O2-  O139  1  0.50101556  0.25302086  0.59975192  1
  O2-  O140  1  0.50432371  0.25275101  0.93671102  1
  O2-  O141  1  0.50112168  0.75150949  0.27614680  1
  O2-  O142  1  0.49455556  0.75108134  0.60688023  1
  O2-  O143  1  0.49588944  0.74652368  0.94424123  1
  O2-  O144  1  0.06700826  0.17665518  0.10168187  1
  O2-  O145  1  0.07722173  0.18077615  0.42700513  1
  O2-  O146  1  0.06982327  0.17098739  0.75564042  1
  O2-  O147  1  0.07246110  0.68442659  0.09715316  1
  O2-  O148  1  0.07494781  0.68084154  0.42922981  1
  O2-  O149  1  0.07169527  0.68266050  0.76620043  1
  O2-  O150  1  0.57095007  0.17299652  0.09902289  1
  O2-  O151  1  0.56474559  0.17993625  0.43101970  1
  O2-  O152  1  0.56571516  0.17463031  0.76175967  1
  O2-  O153  1  0.57192045  0.68602555  0.09312213  1
  O2-  O154  1  0.56778081  0.67857792  0.42329478  1
  O2-  O155  1  0.57186096  0.68229598  0.76784206  1
  O2-  O156  1  0.18200785  0.42318483  0.24576749  1
  O2-  O157  1  0.17830813  0.42739765  0.57596434  1
  O2-  O158  1  0.17994549  0.43237080  0.90071459  1
  O2-  O159  1  0.18472122  0.92643320  0.24486485  1
  O2-  O160  1  0.17944438  0.93037227  0.57759233  1
  O2-  O161  1  0.17982145  0.92752065  0.91264884  1
  O2-  O162  1  0.67868154  0.42743780  0.23641245  1
  O2-  O163  1  0.68121365  0.42855919  0.57606436  1
  O2-  O164  1  0.67751696  0.42991827  0.89828281  1
  O2-  O165  1  0.67417655  0.93346410  0.23580409  1
  O2-  O166  1  0.67621007  0.92941898  0.57922192  1
  O2-  O167  1  0.67806319  0.92685135  0.90836956  1
  O2-  O168  1  0.43118329  0.31982763  0.10012995  1
  O2-  O169  1  0.42011674  0.32007189  0.42009907  1
  O2-  O170  1  0.42505011  0.32114808  0.76330149  1
  O2-  O171  1  0.43028174  0.82328941  0.09100659  1
  O2-  O172  1  0.42629313  0.82100508  0.42340356  1
  O2-  O173  1  0.43015292  0.82503775  0.75655680  1
  O2-  O174  1  0.92792189  0.31780453  0.09954412  1
  O2-  O175  1  0.93380229  0.31917162  0.42375011  1
  O2-  O176  1  0.93038652  0.32055181  0.76294217  1
  O2-  O177  1  0.92511708  0.82455820  0.08652945  1
  O2-  O178  1  0.93368478  0.82440802  0.43150703  1
  O2-  O179  1  0.93089863  0.83212101  0.75520902  1
  O2-  O180  1  0.31862833  0.07100037  0.24579282  1
  O2-  O181  1  0.31894372  0.06610942  0.57641232  1
  O2-  O182  1  0.32179754  0.06518443  0.90118126  1
  O2-  O183  1  0.31979323  0.57750385  0.24473814  1
  O2-  O184  1  0.31747314  0.57239163  0.56531511  1
  O2-  O185  1  0.32193924  0.57499919  0.90231738  1
  O2-  O186  1  0.82381940  0.07157189  0.23415922  1
  O2-  O187  1  0.82529424  0.06854434  0.57915183  1
  O2-  O188  1  0.82312615  0.06557696  0.90663146  1
  O2-  O189  1  0.82203286  0.56502754  0.23485721  1
  O2-  O190  1  0.82143218  0.57132047  0.56746694  1
  O2-  O191  1  0.81882302  0.57271695  0.90040679  1
  O2-  O192  1  0.05627737  0.08362314  0.27666479  1
  O2-  O193  1  0.04376341  0.08114470  0.60411535  1
  O2-  O194  1  0.04425219  0.07803994  0.93414365  1
  O2-  O195  1  0.04890711  0.57610757  0.26553937  1
  O2-  O196  1  0.04369813  0.58403889  0.59760825  1
  O2-  O197  1  0.04566409  0.58326712  0.93016487  1
  O2-  O198  1  0.53544164  0.08483595  0.26644217  1
  O2-  O199  1  0.53680253  0.08006339  0.59562655  1
  O2-  O200  1  0.53806151  0.07877389  0.93309027  1
  O2-  O201  1  0.53925316  0.58751239  0.27086544  1
  O2-  O202  1  0.54369500  0.58435537  0.59680901  1
  O2-  O203  1  0.54832164  0.58778418  0.94218778  1
  O2-  O204  1  0.16472837  0.21162376  0.27489751  1
  O2-  O205  1  0.16573590  0.19598362  0.60477165  1
  O2-  O206  1  0.17385783  0.19779244  0.93944528  1
  O2-  O207  1  0.16814831  0.71295508  0.26348090  1
  O2-  O208  1  0.16526054  0.71610709  0.59931293  1
  O2-  O209  1  0.16604750  0.71771271  0.93109874  1
  O2-  O210  1  0.66915699  0.20755902  0.26804126  1
  O2-  O211  1  0.67016876  0.19983082  0.59758395  1
  O2-  O212  1  0.67188584  0.19612970  0.93231215  1
  O2-  O213  1  0.66277577  0.70519255  0.27169891  1
  O2-  O214  1  0.66718126  0.71558625  0.60017419  1
  O2-  O215  1  0.66082136  0.71445080  0.93913233  1
  O2-  O216  1  0.08222048  0.45771236  0.06819500  1
  O2-  O217  1  0.08811226  0.45315888  0.39711779  1
  O2-  O218  1  0.08439952  0.45520642  0.72535747  1
  O2-  O219  1  0.07996786  0.94724189  0.06176819  1
  O2-  O220  1  0.09015746  0.95365792  0.39833769  1
  O2-  O221  1  0.08590615  0.95460560  0.73079147  1
  O2-  O222  1  0.58420550  0.45642156  0.06914649  1
  O2-  O223  1  0.57509167  0.45270242  0.39913548  1
  O2-  O224  1  0.58332782  0.45062533  0.72339670  1
  O2-  O225  1  0.58511474  0.95306978  0.06109270  1
  O2-  O226  1  0.57867789  0.95908762  0.40358955  1
  O2-  O227  1  0.58451393  0.95721287  0.73070648  1
  O2-  O228  1  0.20689313  0.33102669  0.06919028  1
  O2-  O229  1  0.21128158  0.33913429  0.40201201  1
  O2-  O230  1  0.19806115  0.33058675  0.72563848  1
  O2-  O231  1  0.20958979  0.83897259  0.06686799  1
  O2-  O232  1  0.21437415  0.83788498  0.39838313  1
  O2-  O233  1  0.20829323  0.83908982  0.73184055  1
  O2-  O234  1  0.70760395  0.32589386  0.06279654  1
  O2-  O235  1  0.70768146  0.33159268  0.40381980  1
  O2-  O236  1  0.70613284  0.33245504  0.72468119  1
  O2-  O237  1  0.70658939  0.83976216  0.06426025  1
  O2-  O238  1  0.70121135  0.83006030  0.40282775  1
  O2-  O239  1  0.70608848  0.83998671  0.73375990  1
  O2-  O240  1  0.44280519  0.41981977  0.27198864  1
  O2-  O241  1  0.45162280  0.42057514  0.59500190  1
  O2-  O242  1  0.45693061  0.42366631  0.93521158  1
  O2-  O243  1  0.45579232  0.91381454  0.27095855  1
  O2-  O244  1  0.45607028  0.91301358  0.60185043  1
  O2-  O245  1  0.46044001  0.90978038  0.93527700  1
  O2-  O246  1  0.96351780  0.40698164  0.26995767  1
  O2-  O247  1  0.96322076  0.41424051  0.59214667  1
  O2-  O248  1  0.95820685  0.42001573  0.93233740  1
  O2-  O249  1  0.96284045  0.91889843  0.26446718  1
  O2-  O250  1  0.95882894  0.91658047  0.60167055  1
  O2-  O251  1  0.95373546  0.91277500  0.93232391  1
  O2-  O252  1  0.33337352  0.29070783  0.26897189  1
  O2-  O253  1  0.32852532  0.29073329  0.59638974  1
  O2-  O254  1  0.33282666  0.29317483  0.93483778  1
  O2-  O255  1  0.33890279  0.79311810  0.26864400  1
  O2-  O256  1  0.33350658  0.79939340  0.60582012  1
  O2-  O257  1  0.33561646  0.79951178  0.93827676  1
  O2-  O258  1  0.83767636  0.29309015  0.27344844  1
  O2-  O259  1  0.83546746  0.28814437  0.59448501  1
  O2-  O260  1  0.83430725  0.28982721  0.92871296  1
  O2-  O261  1  0.82508151  0.80380880  0.26866654  1
  O2-  O262  1  0.83146136  0.80635134  0.60783830  1
  O2-  O263  1  0.82966327  0.80008861  0.93612469  1
  O2-  O264  1  0.41330371  0.03106729  0.07022275  1
  O2-  O265  1  0.41016959  0.04029418  0.39834953  1
  O2-  O266  1  0.41086088  0.03690234  0.72863709  1
  O2-  O267  1  0.42125521  0.54908954  0.07022786  1
  O2-  O268  1  0.41114841  0.54689105  0.39637722  1
  O2-  O269  1  0.42016900  0.54360809  0.72975515  1
  O2-  O270  1  0.91176840  0.03771241  0.06046017  1
  O2-  O271  1  0.92352143  0.04446633  0.40159036  1
  O2-  O272  1  0.91144350  0.04049550  0.73290153  1
  O2-  O273  1  0.92245842  0.54870752  0.06379072  1
  O2-  O274  1  0.92093303  0.53673124  0.39892795  1
  O2-  O275  1  0.91867880  0.53664457  0.73031524  1
  O2-  O276  1  0.29546050  0.16689312  0.07220940  1
  O2-  O277  1  0.29176551  0.16277285  0.39903818  1
  O2-  O278  1  0.29501476  0.16242424  0.72760651  1
  O2-  O279  1  0.29385383  0.67337845  0.06728719  1
  O2-  O280  1  0.29192777  0.66651279  0.39705646  1
  O2-  O281  1  0.29149496  0.66801059  0.73200659  1
  O2-  O282  1  0.79890601  0.16198562  0.05803728  1
  O2-  O283  1  0.79426441  0.16836136  0.40244636  1
  O2-  O284  1  0.79470174  0.16451399  0.72887024  1
  O2-  O285  1  0.79078691  0.66974408  0.06719896  1
  O2-  O286  1  0.79886147  0.67022256  0.39794951  1
  O2-  O287  1  0.79459038  0.67028565  0.73287757  1
