# generated using pymatgen
data_Ca2Al2SiO7
_symmetry_space_group_name_H-M   'P 1'
_cell_length_a   15.45911080
_cell_length_b   15.46027052
_cell_length_c   15.28502604
_cell_angle_alpha   90.00581359
_cell_angle_beta   90.01168228
_cell_angle_gamma   89.99859643
_symmetry_Int_Tables_number   1
_chemical_formula_structural   Ca2Al2SiO7
_chemical_formula_sum   'Ca48 Al48 Si24 O168'
_cell_volume   3653.15223117
_cell_formula_units_Z   24
loop_
 _symmetry_equiv_pos_site_id
 _symmetry_equiv_pos_as_xyz
  1  'x, y, z'
loop_
 _atom_type_symbol
 _atom_type_oxidation_number
  Ca2+  2.0
  Al0+  0.0
  Si0+  0.0
  O2-  -2.0
loop_
 _atom_site_type_symbol
 _atom_site_label
 _atom_site_symmetry_multiplicity
 _atom_site_fract_x
 _atom_site_fract_y
 _atom_site_fract_z
 _atom_site_occupancy
  Ca2+  Ca0  1  0.16695650  0.07795000  0.16529383  1
  Ca2+  Ca1  1  0.16721170  0.07691919  0.51116118  1
  Ca2+  Ca2  1  0.17382728  0.08342584  0.83949890  1
  Ca2+  Ca3  1  0.15969430  0.57269043  0.16799878  1
  Ca2+  Ca4  1  0.16740414  0.57265429  0.49934542  1
  Ca2+  Ca5  1  0.16321199  0.57762364  0.84266307  1
  Ca2+  Ca6  1  0.65863336  0.08344455  0.16570880  1
  Ca2+  Ca7  1  0.67305402  0.08449187  0.50911207  1
  Ca2+  Ca8  1  0.66899298  0.07661007  0.84114754  1
  Ca2+  Ca9  1  0.67322283  0.58452976  0.17113787  1
  Ca2+  Ca10  1  0.67309350  0.57538100  0.50652232  1
  Ca2+  Ca11  1  0.66421598  0.57786486  0.83714064  1
  Ca2+  Ca12  1  0.07744484  0.33724260  0.15690148  1
  Ca2+  Ca13  1  0.08193422  0.32350508  0.49318432  1
  Ca2+  Ca14  1  0.08357462  0.32233877  0.83432156  1
  Ca2+  Ca15  1  0.08994562  0.82870401  0.15819787  1
  Ca2+  Ca16  1  0.07879715  0.84280859  0.49927898  1
  Ca2+  Ca17  1  0.08689930  0.83419511  0.82665108  1
  Ca2+  Ca18  1  0.57785427  0.32106486  0.16248618  1
  Ca2+  Ca19  1  0.57437974  0.33031397  0.49331403  1
  Ca2+  Ca20  1  0.57838540  0.32744620  0.82643604  1
  Ca2+  Ca21  1  0.57708246  0.82973632  0.15142709  1
  Ca2+  Ca22  1  0.58466401  0.83682214  0.49846157  1
  Ca2+  Ca23  1  0.58556245  0.83590972  0.83508595  1
  Ca2+  Ca24  1  0.32092901  0.41044767  0.16947941  1
  Ca2+  Ca25  1  0.33365109  0.40805459  0.50292309  1
  Ca2+  Ca26  1  0.32909108  0.41512687  0.83842187  1
  Ca2+  Ca27  1  0.32695188  0.91866443  0.16474983  1
  Ca2+  Ca28  1  0.32237641  0.92637402  0.50810143  1
  Ca2+  Ca29  1  0.32779435  0.92822505  0.84301190  1
  Ca2+  Ca30  1  0.84099216  0.42074279  0.17409152  1
  Ca2+  Ca31  1  0.83090843  0.41724622  0.50137350  1
  Ca2+  Ca32  1  0.82897296  0.41158310  0.83806193  1
  Ca2+  Ca33  1  0.82599680  0.91738298  0.16736503  1
  Ca2+  Ca34  1  0.82779337  0.92371489  0.51431229  1
  Ca2+  Ca35  1  0.82865080  0.91856688  0.83120498  1
  Ca2+  Ca36  1  0.42286751  0.16386079  0.16281246  1
  Ca2+  Ca37  1  0.41843552  0.17341573  0.49724059  1
  Ca2+  Ca38  1  0.41583669  0.16402187  0.82937825  1
  Ca2+  Ca39  1  0.42153313  0.67532697  0.15484215  1
  Ca2+  Ca40  1  0.41938216  0.66934491  0.49687134  1
  Ca2+  Ca41  1  0.41747587  0.67664866  0.83466899  1
  Ca2+  Ca42  1  0.92423143  0.18134394  0.15841162  1
  Ca2+  Ca43  1  0.92017082  0.16589742  0.49857799  1
  Ca2+  Ca44  1  0.92913188  0.15899132  0.83054178  1
  Ca2+  Ca45  1  0.92120621  0.66648446  0.15995149  1
  Ca2+  Ca46  1  0.91318625  0.67249981  0.49876603  1
  Ca2+  Ca47  1  0.92339150  0.67530772  0.83185428  1
  Al0+  Al48  1  -0.00189406  0.00181883  0.00298700  1
  Al0+  Al49  1  -0.00311208  -0.00063280  0.33432740  1
  Al0+  Al50  1  -0.00142762  -0.00207876  0.66445970  1
  Al0+  Al51  1  -0.00173344  0.50279127  -0.00644242  1
  Al0+  Al52  1  0.00096670  0.50180449  0.34214362  1
  Al0+  Al53  1  0.00003425  0.50099922  0.66585319  1
  Al0+  Al54  1  0.49983706  0.00029302  0.00042607  1
  Al0+  Al55  1  0.49834135  -0.00209712  0.33116479  1
  Al0+  Al56  1  0.49930288  -0.00099219  0.67030647  1
  Al0+  Al57  1  0.50118217  0.50043166  -0.00090977  1
  Al0+  Al58  1  0.49965955  0.50022857  0.32784547  1
  Al0+  Al59  1  0.50050178  0.50003742  0.66608643  1
  Al0+  Al60  1  0.24865674  0.25072262  0.00710018  1
  Al0+  Al61  1  0.25065005  0.24771336  0.33365417  1
  Al0+  Al62  1  0.24905222  0.24984623  0.66120651  1
  Al0+  Al63  1  0.25132418  0.74961441  -0.00614295  1
  Al0+  Al64  1  0.24900097  0.74933721  0.33889578  1
  Al0+  Al65  1  0.25179205  0.74640315  0.66472260  1
  Al0+  Al66  1  0.74731648  0.25109527  -0.00508962  1
  Al0+  Al67  1  0.75076628  0.24975194  0.32559921  1
  Al0+  Al68  1  0.75159169  0.25103154  0.67513887  1
  Al0+  Al69  1  0.75043880  0.74892194  0.00032022  1
  Al0+  Al70  1  0.75133755  0.75005229  0.33764962  1
  Al0+  Al71  1  0.75218656  0.74849718  0.66586521  1
  Al0+  Al72  1  0.42628053  0.32250376  0.31556409  1
  Al0+  Al73  1  0.57110434  0.17771344  0.31921773  1
  Al0+  Al74  1  0.17854375  0.43179677  0.01141141  1
  Al0+  Al75  1  0.32150666  0.07253802  0.01772769  1
  Al0+  Al76  1  0.06922528  0.17990547  0.65243910  1
  Al0+  Al77  1  0.92869346  0.32366604  0.98385273  1
  Al0+  Al78  1  0.57373876  0.67782728  0.98424750  1
  Al0+  Al79  1  0.42904857  0.82181776  0.98363747  1
  Al0+  Al80  1  0.93243706  0.32211717  0.32193255  1
  Al0+  Al81  1  0.18019655  0.42725965  0.34789539  1
  Al0+  Al82  1  0.82191505  0.07250817  0.68251231  1
  Al0+  Al83  1  0.67893438  0.43007779  0.67985006  1
  Al0+  Al84  1  0.17881264  0.92727152  0.68111740  1
  Al0+  Al85  1  0.17686604  0.92744778  0.01397661  1
  Al0+  Al86  1  0.07178031  0.17848323  0.98620811  1
  Al0+  Al87  1  0.43032365  0.32109566  0.65384713  1
  Al0+  Al88  1  0.93110796  0.81860273  0.65244797  1
  Al0+  Al89  1  0.17827321  0.92848608  0.34809444  1
  Al0+  Al90  1  0.82141279  0.57163704  0.34829153  1
  Al0+  Al91  1  0.68177805  0.92970666  0.01455165  1
  Al0+  Al92  1  0.31945396  0.07337305  0.68090813  1
  Al0+  Al93  1  0.07104621  0.68135602  0.98788114  1
  Al0+  Al94  1  0.56892952  0.17889369  0.98368314  1
  Al0+  Al95  1  0.67799456  0.92729709  0.68164759  1
  Si0+  Si96  1  0.07155661  0.17502204  0.31684583  1
  Si0+  Si97  1  0.67841622  0.92891675  0.34721418  1
  Si0+  Si98  1  0.57323200  0.68022498  0.31990018  1
  Si0+  Si99  1  0.42808990  0.81830944  0.31971871  1
  Si0+  Si100  1  0.17891451  0.42964054  0.68076298  1
  Si0+  Si101  1  0.92727356  0.82164112  0.31761201  1
  Si0+  Si102  1  0.42713000  0.32220104  0.98432617  1
  Si0+  Si103  1  0.82290980  0.57165997  0.68590309  1
  Si0+  Si104  1  0.32384979  0.57215271  0.01554047  1
  Si0+  Si105  1  0.07491264  0.67518367  0.64598880  1
  Si0+  Si106  1  0.07034860  0.68101385  0.32028471  1
  Si0+  Si107  1  0.42845783  0.82135452  0.64958944  1
  Si0+  Si108  1  0.57371304  0.17711167  0.65261708  1
  Si0+  Si109  1  0.81906623  0.56910315  0.01419926  1
  Si0+  Si110  1  0.67676124  0.42745920  0.01707015  1
  Si0+  Si111  1  0.32285193  0.57024384  0.68170267  1
  Si0+  Si112  1  0.67778485  0.42766049  0.34725041  1
  Si0+  Si113  1  0.82155948  0.07546965  0.01981022  1
  Si0+  Si114  1  0.57072444  0.67916561  0.65021523  1
  Si0+  Si115  1  0.92698925  0.82337774  0.98577963  1
  Si0+  Si116  1  0.92643067  0.32420794  0.64939197  1
  Si0+  Si117  1  0.32338497  0.57194922  0.34947180  1
  Si0+  Si118  1  0.32370786  0.06985184  0.35138366  1
  Si0+  Si119  1  0.81912631  0.07189609  0.34665896  1
  O2-  O120  1  0.24773707  -0.00002954  0.06533724  1
  O2-  O121  1  0.24956575  0.00626529  0.39443541  1
  O2-  O122  1  0.24945412  -0.00033992  0.73083231  1
  O2-  O123  1  0.25402149  0.50520316  0.06021402  1
  O2-  O124  1  0.26081281  0.49738340  0.39390079  1
  O2-  O125  1  0.24918820  0.50160947  0.72265190  1
  O2-  O126  1  0.75376772  0.00547498  0.06452627  1
  O2-  O127  1  0.74605621  0.00265287  0.38878972  1
  O2-  O128  1  0.74583669  0.00344937  0.73069270  1
  O2-  O129  1  0.74965325  0.49738369  0.05827665  1
  O2-  O130  1  0.74602464  0.49640787  0.39288612  1
  O2-  O131  1  0.75674567  0.50060979  0.72917877  1
  O2-  O132  1  0.00964461  0.25078932  0.27423414  1
  O2-  O133  1  -0.00620319  0.25449795  0.60518587  1
  O2-  O134  1  -0.00248256  0.24825321  0.93553840  1
  O2-  O135  1  0.00107032  0.75322913  0.27647884  1
  O2-  O136  1  0.00842901  0.74683948  0.60323539  1
  O2-  O137  1  0.00426618  0.76364907  0.94272222  1
  O2-  O138  1  0.49824638  0.24904572  0.26864897  1
  O2-  O139  1  0.50541517  0.24595880  0.60777000  1
  O2-  O140  1  0.49328444  0.25275112  0.93811193  1
  O2-  O141  1  0.50048645  0.74858946  0.27758822  1
  O2-  O142  1  0.50335037  0.75346986  0.60671036  1
  O2-  O143  1  0.50295531  0.75048751  0.93423061  1
  O2-  O144  1  0.06997895  0.18042896  0.10028102  1
  O2-  O145  1  0.06746104  0.17341423  0.42264119  1
  O2-  O146  1  0.07171913  0.18231164  0.76489704  1
  O2-  O147  1  0.06644833  0.67740966  0.10156438  1
  O2-  O148  1  0.06990839  0.68150459  0.42527797  1
  O2-  O149  1  0.07388348  0.67181183  0.75133454  1
  O2-  O150  1  0.56935651  0.18151400  0.09691593  1
  O2-  O151  1  0.57292213  0.17802253  0.43313724  1
  O2-  O152  1  0.57196556  0.17874845  0.75780941  1
  O2-  O153  1  0.57347045  0.67922052  0.09880809  1
  O2-  O154  1  0.57306374  0.68150836  0.42536736  1
  O2-  O155  1  0.56846019  0.67699223  0.75457486  1
  O2-  O156  1  0.17598216  0.43363052  0.23518737  1
  O2-  O157  1  0.17973520  0.43142171  0.57537159  1
  O2-  O158  1  0.18046333  0.43304757  0.89802947  1
  O2-  O159  1  0.18065305  0.92453112  0.23559072  1
  O2-  O160  1  0.18124442  0.92985180  0.56677474  1
  O2-  O161  1  0.17900474  0.92687783  0.90106549  1
  O2-  O162  1  0.67873820  0.43075607  0.24176366  1
  O2-  O163  1  0.67856101  0.43335124  0.56619765  1
  O2-  O164  1  0.67551737  0.42982753  0.91198426  1
  O2-  O165  1  0.68063925  0.92494778  0.24242143  1
  O2-  O166  1  0.67976615  0.92757403  0.56682807  1
  O2-  O167  1  0.68574831  0.92853145  0.90213710  1
  O2-  O168  1  0.43058968  0.32379832  0.08981268  1
  O2-  O169  1  0.43036027  0.32272932  0.42949985  1
  O2-  O170  1  0.43075514  0.32434192  0.76655400  1
  O2-  O171  1  0.42988699  0.81786563  0.09840385  1
  O2-  O172  1  0.43049249  0.81736600  0.42519556  1
  O2-  O173  1  0.42594886  0.81778456  0.75363701  1
  O2-  O174  1  0.93183376  0.32646957  0.09810967  1
  O2-  O175  1  0.93084555  0.31870323  0.43498877  1
  O2-  O176  1  0.92965336  0.32807568  0.75429359  1
  O2-  O177  1  0.92296512  0.81784677  0.09192235  1
  O2-  O178  1  0.92506599  0.82062109  0.42243965  1
  O2-  O179  1  0.92936433  0.81432391  0.76528948  1
  O2-  O180  1  0.32714035  0.06575603  0.24631601  1
  O2-  O181  1  0.31936313  0.07201395  0.56667730  1
  O2-  O182  1  0.32056938  0.07362684  0.90429317  1
  O2-  O183  1  0.32073842  0.57799680  0.24458841  1
  O2-  O184  1  0.32414761  0.57113690  0.57621934  1
  O2-  O185  1  0.32454027  0.56942676  0.90968973  1
  O2-  O186  1  0.82136636  0.06889591  0.24193417  1
  O2-  O187  1  0.81943164  0.07203403  0.56760414  1
  O2-  O188  1  0.82140911  0.07422812  0.91456732  1
  O2-  O189  1  0.82034151  0.57409491  0.23505184  1
  O2-  O190  1  0.82074724  0.57237855  0.57990001  1
  O2-  O191  1  0.81808172  0.56940681  0.90934661  1
  O2-  O192  1  0.03813914  0.08423034  0.26951472  1
  O2-  O193  1  0.03805575  0.08346704  0.59803772  1
  O2-  O194  1  0.04373419  0.07923609  0.93431425  1
  O2-  O195  1  0.03971232  0.58948588  0.27467091  1
  O2-  O196  1  0.04427537  0.58301707  0.59842792  1
  O2-  O197  1  0.03240419  0.59025226  0.92859439  1
  O2-  O198  1  0.54250696  0.07825325  0.26665172  1
  O2-  O199  1  0.54996627  0.08250183  0.60698922  1
  O2-  O200  1  0.54204799  0.08152344  0.93156614  1
  O2-  O201  1  0.55062129  0.58759658  0.27230373  1
  O2-  O202  1  0.53797266  0.58986979  0.60022291  1
  O2-  O203  1  0.54454928  0.57950006  0.93151517  1
  O2-  O204  1  0.16841633  0.19180001  0.27618468  1
  O2-  O205  1  0.16353762  0.21294805  0.59455250  1
  O2-  O206  1  0.16972221  0.21115284  0.93530621  1
  O2-  O207  1  0.16322251  0.70668056  0.27390761  1
  O2-  O208  1  0.17027497  0.69510596  0.60061699  1
  O2-  O209  1  0.16886892  0.70079738  0.93220070  1
  O2-  O210  1  0.66830871  0.20521310  0.26283005  1
  O2-  O211  1  0.66861549  0.20350485  0.60919612  1
  O2-  O212  1  0.66453994  0.21051635  0.92932777  1
  O2-  O213  1  0.66468230  0.71052495  0.27303585  1
  O2-  O214  1  0.66387918  0.70317479  0.60324747  1
  O2-  O215  1  0.67207602  0.70525846  0.93139592  1
  O2-  O216  1  0.08204868  0.46799676  0.06343852  1
  O2-  O217  1  0.08783032  0.46445793  0.40634188  1
  O2-  O218  1  0.08683218  0.45779225  0.72690758  1
  O2-  O219  1  0.07682138  0.95171068  0.06768469  1
  O2-  O220  1  0.07887666  0.95663478  0.39887247  1
  O2-  O221  1  0.07821603  0.94957593  0.72886363  1
  O2-  O222  1  0.58602587  0.45749291  0.06553652  1
  O2-  O223  1  0.58370554  0.45439601  0.39251402  1
  O2-  O224  1  0.58436041  0.46621565  0.73451077  1
  O2-  O225  1  0.58430167  0.95784644  0.06768603  1
  O2-  O226  1  0.58451951  0.95134119  0.39312404  1
  O2-  O227  1  0.57798878  0.94816739  0.73259418  1
  O2-  O228  1  0.20641439  0.33712281  0.06953745  1
  O2-  O229  1  0.20543676  0.32839821  0.40079571  1
  O2-  O230  1  0.20818849  0.33835646  0.72629118  1
  O2-  O231  1  0.20781295  0.82746037  0.06469776  1
  O2-  O232  1  0.21013625  0.83271945  0.40410414  1
  O2-  O233  1  0.20574476  0.82577157  0.72783659  1
  O2-  O234  1  0.70267924  0.33493079  0.06341227  1
  O2-  O235  1  0.70475685  0.33379181  0.39167331  1
  O2-  O236  1  0.70491426  0.33426044  0.73653232  1
  O2-  O237  1  0.71383335  0.83260777  0.06917103  1
  O2-  O238  1  0.70905299  0.83889854  0.39699842  1
  O2-  O239  1  0.71024716  0.82905542  0.73218908  1
  O2-  O240  1  0.45223524  0.42200557  0.26280171  1
  O2-  O241  1  0.46161459  0.41771238  0.59829420  1
  O2-  O242  1  0.45406189  0.41559233  0.93848394  1
  O2-  O243  1  0.45430745  0.90959489  0.27174331  1
  O2-  O244  1  0.45395678  0.91385911  0.60182360  1
  O2-  O245  1  0.45770449  0.91937733  0.93204171  1
  O2-  O246  1  0.96101781  0.42157169  0.27185333  1
  O2-  O247  1  0.95221048  0.41844531  0.60310901  1
  O2-  O248  1  0.95756580  0.42021323  0.92825400  1
  O2-  O249  1  0.95046038  0.91445231  0.27046608  1
  O2-  O250  1  0.95720687  0.91485919  0.59502839  1
  O2-  O251  1  0.94109580  0.92020952  0.94440928  1
  O2-  O252  1  0.32661839  0.29526025  0.26491897  1
  O2-  O253  1  0.33449085  0.29128212  0.59763843  1
  O2-  O254  1  0.33175167  0.30004684  0.94197733  1
  O2-  O255  1  0.33662411  0.78745771  0.27394644  1
  O2-  O256  1  0.33927616  0.78740929  0.59919348  1
  O2-  O257  1  0.33364948  0.79021641  0.92728466  1
  O2-  O258  1  0.83680899  0.29277102  0.26543411  1
  O2-  O259  1  0.83107732  0.30039118  0.60582684  1
  O2-  O260  1  0.82828240  0.29991287  0.93445938  1
  O2-  O261  1  0.83629724  0.78983640  0.27012554  1
  O2-  O262  1  0.83529796  0.78411887  0.59617055  1
  O2-  O263  1  0.83884934  0.78635695  0.93691008  1
  O2-  O264  1  0.41922246  0.04120589  0.07050682  1
  O2-  O265  1  0.41509042  0.03786287  0.39959557  1
  O2-  O266  1  0.41867110  0.04675226  0.73181294  1
  O2-  O267  1  0.41745966  0.54708566  0.06285310  1
  O2-  O268  1  0.41994047  0.55259384  0.39349836  1
  O2-  O269  1  0.41316173  0.54125636  0.73002626  1
  O2-  O270  1  0.91477267  0.05146227  0.06754166  1
  O2-  O271  1  0.90933845  0.04182295  0.39624683  1
  O2-  O272  1  0.91744306  0.03639277  0.73472297  1
  O2-  O273  1  0.91110747  0.54187643  0.06163588  1
  O2-  O274  1  0.91606538  0.54327917  0.40646128  1
  O2-  O275  1  0.91845096  0.54982746  0.72951112  1
  O2-  O276  1  0.29408490  0.17012656  0.07312197  1
  O2-  O277  1  0.30432207  0.16584127  0.39427384  1
  O2-  O278  1  0.29016865  0.17197378  0.73232619  1
  O2-  O279  1  0.29989707  0.66643810  0.05976150  1
  O2-  O280  1  0.29189312  0.66182812  0.40119603  1
  O2-  O281  1  0.29723789  0.66227363  0.72902307  1
  O2-  O282  1  0.79235070  0.16922474  0.06400864  1
  O2-  O283  1  0.79303902  0.16455592  0.39319871  1
  O2-  O284  1  0.80267187  0.17178811  0.73621158  1
  O2-  O285  1  0.79131973  0.65996533  0.06406250  1
  O2-  O286  1  0.78809191  0.66704090  0.40482867  1
  O2-  O287  1  0.79384100  0.66343638  0.73214538  1
