# generated using pymatgen
data_Ca2Al2SiO7
_symmetry_space_group_name_H-M   'P 1'
_cell_length_a   15.45825236
_cell_length_b   15.45656261
_cell_length_c   15.28315923
_cell_angle_alpha   89.98938421
_cell_angle_beta   89.99354766
_cell_angle_gamma   90.00422684
_symmetry_Int_Tables_number   1
_chemical_formula_structural   Ca2Al2SiO7
_chemical_formula_sum   'Ca48 Al48 Si24 O168'
_cell_volume   3651.62722984
_cell_formula_units_Z   24
loop_
 _symmetry_equiv_pos_site_id
 _symmetry_equiv_pos_as_xyz
  1  'x, y, z'
loop_
 _atom_type_symbol
 _atom_type_oxidation_number
  Ca2+  2.0
  Al0+  0.0
  Si0+  0.0
  O2-  -2.0
loop_
 _atom_site_type_symbol
 _atom_site_label
 _atom_site_symmetry_multiplicity
 _atom_site_fract_x
 _atom_site_fract_y
 _atom_site_fract_z
 _atom_site_occupancy
  Ca2+  Ca0  1  0.17199740  0.08448360  0.17014575  1
  Ca2+  Ca1  1  0.16788796  0.08474365  0.50864681  1
  Ca2+  Ca2  1  0.17513664  0.08601159  0.83346262  1
  Ca2+  Ca3  1  0.16187615  0.57484226  0.16997098  1
  Ca2+  Ca4  1  0.16903660  0.57247661  0.51044302  1
  Ca2+  Ca5  1  0.16812448  0.58019270  0.83912967  1
  Ca2+  Ca6  1  0.67212377  0.07884776  0.17475507  1
  Ca2+  Ca7  1  0.66662075  0.07956349  0.50342971  1
  Ca2+  Ca8  1  0.68083069  0.08073235  0.83744381  1
  Ca2+  Ca9  1  0.67706550  0.58517603  0.17768287  1
  Ca2+  Ca10  1  0.66697481  0.58719876  0.49648255  1
  Ca2+  Ca11  1  0.67195407  0.58219351  0.83906011  1
  Ca2+  Ca12  1  0.09059712  0.33303846  0.16686586  1
  Ca2+  Ca13  1  0.09369621  0.32452756  0.49684086  1
  Ca2+  Ca14  1  0.09084579  0.33086865  0.82753484  1
  Ca2+  Ca15  1  0.07386774  0.82298283  0.15477841  1
  Ca2+  Ca16  1  0.07934100  0.82758270  0.50101676  1
  Ca2+  Ca17  1  0.07664089  0.82193068  0.82773083  1
  Ca2+  Ca18  1  0.59176144  0.32911138  0.16636689  1
  Ca2+  Ca19  1  0.57825076  0.32970652  0.49272536  1
  Ca2+  Ca20  1  0.57324954  0.33092988  0.82493536  1
  Ca2+  Ca21  1  0.58277396  0.83286678  0.17176187  1
  Ca2+  Ca22  1  0.57257109  0.83308062  0.49059064  1
  Ca2+  Ca23  1  0.57641859  0.82978705  0.82813267  1
  Ca2+  Ca24  1  0.32272818  0.42313783  0.16786990  1
  Ca2+  Ca25  1  0.32661324  0.41944873  0.51007728  1
  Ca2+  Ca26  1  0.32421442  0.42538658  0.83515282  1
  Ca2+  Ca27  1  0.33661402  0.92013059  0.16987703  1
  Ca2+  Ca28  1  0.33934836  0.92129580  0.50726016  1
  Ca2+  Ca29  1  0.33760282  0.92664380  0.83564044  1
  Ca2+  Ca30  1  0.83179686  0.43119132  0.17450169  1
  Ca2+  Ca31  1  0.82710094  0.41879687  0.49714728  1
  Ca2+  Ca32  1  0.83304100  0.42316384  0.83929399  1
  Ca2+  Ca33  1  0.83073742  0.91738344  0.17071658  1
  Ca2+  Ca34  1  0.82742750  0.91832534  0.50681839  1
  Ca2+  Ca35  1  0.84609724  0.92300659  0.83482235  1
  Ca2+  Ca36  1  0.42337319  0.16580616  0.16413187  1
  Ca2+  Ca37  1  0.41487903  0.17377137  0.49569879  1
  Ca2+  Ca38  1  0.40923177  0.17170931  0.82503875  1
  Ca2+  Ca39  1  0.41988350  0.66652753  0.16422023  1
  Ca2+  Ca40  1  0.41533226  0.67657431  0.49411909  1
  Ca2+  Ca41  1  0.41056358  0.66775492  0.82444119  1
  Ca2+  Ca42  1  0.92158574  0.16667160  0.16216320  1
  Ca2+  Ca43  1  0.92805573  0.16252355  0.49754582  1
  Ca2+  Ca44  1  0.92092980  0.16510467  0.82413534  1
  Ca2+  Ca45  1  0.91591628  0.66716483  0.15514916  1
  Ca2+  Ca46  1  0.91908809  0.66555451  0.49927556  1
  Ca2+  Ca47  1  0.92429397  0.67147107  0.82926592  1
  Al0+  Al48  1  0.00148499  0.00086734  0.00122590  1
  Al0+  Al49  1  0.00318086  0.00023857  0.32770614  1
  Al0+  Al50  1  -0.00027465  -0.00012452  0.66286089  1
  Al0+  Al51  1  -0.00153028  0.49733391  0.00354963  1
  Al0+  Al52  1  0.00078276  0.49840506  0.34350573  1
  Al0+  Al53  1  -0.00283803  0.49800886  0.66628487  1
  Al0+  Al54  1  0.50218682  0.00016538  0.00251283  1
  Al0+  Al55  1  0.50095706  0.00276248  0.32918923  1
  Al0+  Al56  1  0.50222748  -0.00151955  0.66969238  1
  Al0+  Al57  1  0.49750416  0.49756423  0.00211902  1
  Al0+  Al58  1  0.49992393  0.50190009  0.33166072  1
  Al0+  Al59  1  0.49938342  0.49820537  0.66534436  1
  Al0+  Al60  1  0.25189903  0.25000213  0.00837667  1
  Al0+  Al61  1  0.25088314  0.24983031  0.33022345  1
  Al0+  Al62  1  0.25015875  0.24995979  0.66561490  1
  Al0+  Al63  1  0.25121581  0.75054915  -0.00081342  1
  Al0+  Al64  1  0.24723624  0.75240167  0.32759295  1
  Al0+  Al65  1  0.24924989  0.75043847  0.66032658  1
  Al0+  Al66  1  0.75131132  0.24645122  0.00141846  1
  Al0+  Al67  1  0.75255175  0.25274672  0.33245936  1
  Al0+  Al68  1  0.75017886  0.24903390  0.67094908  1
  Al0+  Al69  1  0.74756960  0.75146143  -0.00262698  1
  Al0+  Al70  1  0.74857789  0.75341230  0.33993173  1
  Al0+  Al71  1  0.74895785  0.74956310  0.66518339  1
  Al0+  Al72  1  0.57257854  0.18159452  0.32006811  1
  Al0+  Al73  1  0.32117180  0.57298964  0.67892628  1
  Al0+  Al74  1  0.32182516  0.07047657  0.01527129  1
  Al0+  Al75  1  0.92656495  0.82195633  0.98496221  1
  Al0+  Al76  1  0.92837705  0.82112347  0.64949678  1
  Al0+  Al77  1  0.17822838  0.42985169  0.01629635  1
  Al0+  Al78  1  0.67913933  0.93278583  0.34808970  1
  Al0+  Al79  1  0.07197019  0.17909375  0.31695911  1
  Al0+  Al80  1  0.17759654  0.42841287  0.68186164  1
  Al0+  Al81  1  0.07088322  0.67615507  0.65014870  1
  Al0+  Al82  1  0.82140204  0.06938862  0.67878258  1
  Al0+  Al83  1  0.32161962  0.06963158  0.67778618  1
  Al0+  Al84  1  0.18204754  0.42891728  0.35019095  1
  Al0+  Al85  1  0.57111414  0.67986930  0.31784284  1
  Al0+  Al86  1  0.81794685  0.57087501  0.01062082  1
  Al0+  Al87  1  0.42903343  0.31960169  0.65377114  1
  Al0+  Al88  1  0.67695711  0.42811927  0.34840482  1
  Al0+  Al89  1  0.42687055  0.82261195  0.31571344  1
  Al0+  Al90  1  0.82352997  0.07012229  0.01517227  1
  Al0+  Al91  1  0.07001635  0.18159122  0.65518471  1
  Al0+  Al92  1  0.42936872  0.82156394  0.65477866  1
  Al0+  Al93  1  0.32240957  0.57428521  0.01626831  1
  Al0+  Al94  1  0.82107391  0.57352576  0.35086877  1
  Al0+  Al95  1  0.07112065  0.67541370  0.98586592  1
  Si0+  Si96  1  0.42982817  0.82252898  0.98423989  1
  Si0+  Si97  1  0.67677154  0.42677429  0.01444598  1
  Si0+  Si98  1  0.57383633  0.17843224  0.65226337  1
  Si0+  Si99  1  0.42757459  0.32310710  0.31433239  1
  Si0+  Si100  1  0.32043221  0.06903800  0.34790499  1
  Si0+  Si101  1  0.42932396  0.31850792  0.98492821  1
  Si0+  Si102  1  0.07302351  0.18031664  0.98518198  1
  Si0+  Si103  1  0.17745621  0.92875252  0.34779533  1
  Si0+  Si104  1  0.82539014  0.07246771  0.34930246  1
  Si0+  Si105  1  0.67829628  0.92638710  0.68531620  1
  Si0+  Si106  1  0.17899692  0.92823961  0.01630643  1
  Si0+  Si107  1  0.92980305  0.32294302  0.31597358  1
  Si0+  Si108  1  0.67748564  0.92866253  0.01776030  1
  Si0+  Si109  1  0.56940832  0.67717735  0.98521590  1
  Si0+  Si110  1  0.57201862  0.67596385  0.65072767  1
  Si0+  Si111  1  0.32119713  0.57548278  0.34919098  1
  Si0+  Si112  1  0.67823272  0.42758660  0.68240841  1
  Si0+  Si113  1  0.17683181  0.92756022  0.68208131  1
  Si0+  Si114  1  0.92342919  0.32242894  0.64956791  1
  Si0+  Si115  1  0.81925648  0.57152550  0.68327548  1
  Si0+  Si116  1  0.92749962  0.31880283  0.98554995  1
  Si0+  Si117  1  0.06841306  0.67721428  0.31900334  1
  Si0+  Si118  1  0.92909315  0.82118890  0.31898846  1
  Si0+  Si119  1  0.57270277  0.17765594  0.98318761  1
  O2-  O120  1  0.24882771  -0.00504743  0.06264075  1
  O2-  O121  1  0.25075240  -0.00278035  0.39036455  1
  O2-  O122  1  0.24910982  -0.00669381  0.72595181  1
  O2-  O123  1  0.24529673  0.50733278  0.06542604  1
  O2-  O124  1  0.25638698  0.50435347  0.39485798  1
  O2-  O125  1  0.24561061  0.50519305  0.73015176  1
  O2-  O126  1  0.75048575  -0.00621956  0.06046795  1
  O2-  O127  1  0.75384078  0.00781904  0.39443813  1
  O2-  O128  1  0.74999650  -0.00744963  0.72836089  1
  O2-  O129  1  0.74242031  0.49779074  0.05832523  1
  O2-  O130  1  0.74591208  0.50274988  0.39916118  1
  O2-  O131  1  0.74814610  0.49963278  0.72463951  1
  O2-  O132  1  -0.00292659  0.25339580  0.27025230  1
  O2-  O133  1  -0.00445411  0.25627595  0.60735909  1
  O2-  O134  1  0.00030403  0.24955424  0.94307748  1
  O2-  O135  1  -0.00495377  0.74572180  0.27634646  1
  O2-  O136  1  -0.00174519  0.74762267  0.59891919  1
  O2-  O137  1  -0.00175793  0.74807307  0.93746982  1
  O2-  O138  1  0.50203557  0.25953596  0.27069845  1
  O2-  O139  1  0.50294705  0.24378244  0.60748386  1
  O2-  O140  1  0.50169587  0.24860821  0.94157580  1
  O2-  O141  1  0.49676683  0.74842642  0.26560215  1
  O2-  O142  1  0.50131171  0.74386476  0.60925812  1
  O2-  O143  1  0.49551245  0.74566388  0.94301067  1
  O2-  O144  1  0.07212521  0.18126450  0.09038209  1
  O2-  O145  1  0.07182020  0.17751632  0.42987107  1
  O2-  O146  1  0.06969001  0.18181832  0.76874877  1
  O2-  O147  1  0.06731095  0.67689549  0.10026753  1
  O2-  O148  1  0.06973232  0.67986704  0.42367237  1
  O2-  O149  1  0.06863358  0.67626431  0.76375005  1
  O2-  O150  1  0.57351666  0.17873657  0.08828162  1
  O2-  O151  1  0.56822354  0.18010682  0.43318180  1
  O2-  O152  1  0.57570062  0.18186755  0.75828603  1
  O2-  O153  1  0.57160254  0.67838203  0.08971418  1
  O2-  O154  1  0.56922155  0.68312678  0.43147193  1
  O2-  O155  1  0.57422780  0.67662840  0.75702592  1
  O2-  O156  1  0.18163270  0.43025591  0.23707229  1
  O2-  O157  1  0.18241711  0.42665001  0.56834001  1
  O2-  O158  1  0.18199452  0.42501261  0.90334149  1
  O2-  O159  1  0.17595453  0.93053282  0.24278792  1
  O2-  O160  1  0.17623551  0.93067055  0.57602140  1
  O2-  O161  1  0.17978172  0.93035054  0.91086015  1
  O2-  O162  1  0.68306674  0.42685828  0.23454139  1
  O2-  O163  1  0.67890571  0.42520602  0.57790737  1
  O2-  O164  1  0.67725457  0.42725359  0.90829210  1
  O2-  O165  1  0.68204998  0.93331970  0.23469890  1
  O2-  O166  1  0.67608435  0.92896454  0.57994366  1
  O2-  O167  1  0.67186866  0.93146310  0.91240181  1
  O2-  O168  1  0.43135722  0.31712011  0.08993957  1
  O2-  O169  1  0.42519292  0.31830190  0.41995166  1
  O2-  O170  1  0.43134560  0.31839567  0.76741282  1
  O2-  O171  1  0.43333727  0.82604790  0.08889359  1
  O2-  O172  1  0.42777628  0.82397745  0.42928393  1
  O2-  O173  1  0.43358677  0.82445418  0.76834288  1
  O2-  O174  1  0.92443079  0.31698170  0.09035763  1
  O2-  O175  1  0.92887439  0.32114792  0.42149876  1
  O2-  O176  1  0.91933171  0.32063415  0.75550211  1
  O2-  O177  1  0.92688201  0.82065607  0.09928662  1
  O2-  O178  1  0.93313562  0.82406890  0.42366504  1
  O2-  O179  1  0.93051699  0.82007828  0.76298952  1
  O2-  O180  1  0.31934823  0.06836217  0.24252211  1
  O2-  O181  1  0.32127680  0.06957307  0.56461069  1
  O2-  O182  1  0.32100142  0.07100703  0.90207355  1
  O2-  O183  1  0.31747587  0.57500689  0.24347364  1
  O2-  O184  1  0.32313771  0.57029982  0.56535642  1
  O2-  O185  1  0.32647777  0.57080521  0.90310776  1
  O2-  O186  1  0.82542785  0.06889502  0.24339219  1
  O2-  O187  1  0.81840889  0.07034092  0.56577754  1
  O2-  O188  1  0.82152083  0.07299937  0.90209947  1
  O2-  O189  1  0.82224528  0.57299125  0.23679707  1
  O2-  O190  1  0.81760920  0.57208224  0.57853301  1
  O2-  O191  1  0.81576465  0.56817451  0.89721900  1
  O2-  O192  1  0.04218949  0.08285190  0.26056388  1
  O2-  O193  1  0.03975972  0.08574418  0.59930695  1
  O2-  O194  1  0.04788785  0.08757742  0.93915662  1
  O2-  O195  1  0.04239621  0.58333294  0.27548101  1
  O2-  O196  1  0.04008102  0.57752537  0.59822520  1
  O2-  O197  1  0.04250226  0.57621153  0.93497162  1
  O2-  O198  1  0.53813846  0.08806536  0.26233391  1
  O2-  O199  1  0.55224616  0.08291266  0.60988417  1
  O2-  O200  1  0.54524231  0.08542455  0.93690933  1
  O2-  O201  1  0.54916697  0.57949904  0.26476716  1
  O2-  O202  1  0.55023934  0.58173636  0.60512330  1
  O2-  O203  1  0.54566118  0.58314255  0.93924199  1
  O2-  O204  1  0.16831357  0.21050600  0.26233368  1
  O2-  O205  1  0.16575481  0.21079984  0.59891846  1
  O2-  O206  1  0.16574484  0.20985538  0.94052332  1
  O2-  O207  1  0.15848801  0.70714713  0.26939527  1
  O2-  O208  1  0.16798737  0.70508593  0.59498780  1
  O2-  O209  1  0.17043970  0.70479650  0.93460516  1
  O2-  O210  1  0.67095860  0.20840482  0.26581115  1
  O2-  O211  1  0.66591470  0.20717322  0.60516419  1
  O2-  O212  1  0.66473457  0.20565033  0.93550226  1
  O2-  O213  1  0.66982949  0.71356496  0.26712857  1
  O2-  O214  1  0.66459918  0.70280382  0.60399576  1
  O2-  O215  1  0.65880208  0.70824227  0.93423084  1
  O2-  O216  1  0.07807442  0.45050806  0.06957398  1
  O2-  O217  1  0.08546438  0.45568483  0.40495362  1
  O2-  O218  1  0.07528098  0.44828482  0.73106361  1
  O2-  O219  1  0.08676185  0.95589995  0.06431855  1
  O2-  O220  1  0.08702182  0.95984223  0.39614007  1
  O2-  O221  1  0.08531165  0.95748284  0.72910554  1
  O2-  O222  1  0.58244834  0.44710608  0.05999659  1
  O2-  O223  1  0.57631018  0.45193009  0.39930838  1
  O2-  O224  1  0.58672436  0.45502209  0.73083421  1
  O2-  O225  1  0.58710749  0.95942954  0.06737930  1
  O2-  O226  1  0.58229975  0.96589240  0.40060787  1
  O2-  O227  1  0.58725299  0.95520857  0.73520048  1
  O2-  O228  1  0.21379122  0.33452232  0.07220451  1
  O2-  O229  1  0.21440880  0.33075413  0.40028152  1
  O2-  O230  1  0.21147747  0.33171741  0.73481701  1
  O2-  O231  1  0.20280759  0.83442469  0.06258292  1
  O2-  O232  1  0.20131511  0.83547993  0.39415547  1
  O2-  O233  1  0.19934207  0.83285134  0.72581297  1
  O2-  O234  1  0.70512990  0.33342744  0.05910016  1
  O2-  O235  1  0.70907398  0.33059998  0.40282394  1
  O2-  O236  1  0.70639121  0.33699149  0.73283737  1
  O2-  O237  1  0.69935944  0.83378029  0.06217723  1
  O2-  O238  1  0.70797265  0.83795699  0.40508954  1
  O2-  O239  1  0.70012707  0.83120104  0.73027761  1
  O2-  O240  1  0.44591299  0.41903195  0.27097809  1
  O2-  O241  1  0.46138631  0.41474645  0.59828809  1
  O2-  O242  1  0.45574353  0.41071831  0.93710545  1
  O2-  O243  1  0.45973686  0.91994496  0.26282054  1
  O2-  O244  1  0.46430401  0.91733366  0.60013429  1
  O2-  O245  1  0.46419677  0.91291273  0.93650564  1
  O2-  O246  1  0.95864162  0.41686907  0.27191559  1
  O2-  O247  1  0.94329241  0.41693497  0.60419668  1
  O2-  O248  1  0.95239376  0.41121162  0.93834443  1
  O2-  O249  1  0.96130309  0.91059162  0.26877224  1
  O2-  O250  1  0.95714961  0.91875549  0.59565718  1
  O2-  O251  1  0.95908702  0.92073076  0.93418555  1
  O2-  O252  1  0.33792546  0.28912428  0.26536095  1
  O2-  O253  1  0.33470562  0.28710442  0.59770937  1
  O2-  O254  1  0.33811949  0.28642823  0.93938268  1
  O2-  O255  1  0.32704366  0.79849792  0.26231908  1
  O2-  O256  1  0.33222714  0.79892444  0.59873657  1
  O2-  O257  1  0.33618072  0.80245243  0.93786240  1
  O2-  O258  1  0.83639248  0.30014362  0.26817356  1
  O2-  O259  1  0.83121261  0.29267662  0.60254435  1
  O2-  O260  1  0.83638966  0.28953180  0.93600175  1
  O2-  O261  1  0.83480856  0.79911481  0.27523077  1
  O2-  O262  1  0.82817254  0.79421653  0.59918135  1
  O2-  O263  1  0.82691894  0.79811961  0.93189697  1
  O2-  O264  1  0.41927923  0.04027911  0.06812265  1
  O2-  O265  1  0.41275863  0.04357638  0.39405972  1
  O2-  O266  1  0.41882054  0.04189490  0.73362424  1
  O2-  O267  1  0.41874609  0.53891297  0.07092732  1
  O2-  O268  1  0.41719129  0.55546336  0.39138805  1
  O2-  O269  1  0.41969659  0.54217327  0.73219130  1
  O2-  O270  1  0.92108692  0.04389183  0.06930451  1
  O2-  O271  1  0.91864680  0.04215078  0.39345994  1
  O2-  O272  1  0.91857711  0.04015338  0.73295557  1
  O2-  O273  1  0.91259781  0.53852573  0.06644781  1
  O2-  O274  1  0.91661410  0.54028937  0.40644702  1
  O2-  O275  1  0.91027154  0.54242647  0.73071575  1
  O2-  O276  1  0.29076959  0.16459566  0.07269844  1
  O2-  O277  1  0.29134639  0.16119536  0.39307017  1
  O2-  O278  1  0.28764354  0.16442728  0.73294250  1
  O2-  O279  1  0.30343406  0.67597936  0.06603315  1
  O2-  O280  1  0.29271430  0.66968947  0.39265003  1
  O2-  O281  1  0.29782380  0.67410292  0.72889492  1
  O2-  O282  1  0.78968903  0.16554268  0.07030633  1
  O2-  O283  1  0.80544254  0.16837684  0.39122602  1
  O2-  O284  1  0.78934495  0.16496545  0.73578553  1
  O2-  O285  1  0.78786091  0.66823241  0.06323515  1
  O2-  O286  1  0.79376969  0.67148256  0.40458079  1
  O2-  O287  1  0.79023862  0.66310498  0.73077420  1
