# generated using pymatgen
data_Ca2Al2SiO7
_symmetry_space_group_name_H-M   'P 1'
_cell_length_a   15.45394509
_cell_length_b   15.45376041
_cell_length_c   15.27969251
_cell_angle_alpha   89.99276148
_cell_angle_beta   90.01739676
_cell_angle_gamma   90.00515745
_symmetry_Int_Tables_number   1
_chemical_formula_structural   Ca2Al2SiO7
_chemical_formula_sum   'Ca48 Al48 Si24 O168'
_cell_volume   3649.11986312
_cell_formula_units_Z   24
loop_
 _symmetry_equiv_pos_site_id
 _symmetry_equiv_pos_as_xyz
  1  'x, y, z'
loop_
 _atom_type_symbol
 _atom_type_oxidation_number
  Ca2+  2.0
  Al0+  0.0
  Si0+  0.0
  O2-  -2.0
loop_
 _atom_site_type_symbol
 _atom_site_label
 _atom_site_symmetry_multiplicity
 _atom_site_fract_x
 _atom_site_fract_y
 _atom_site_fract_z
 _atom_site_occupancy
  Ca2+  Ca0  1  0.17765981  0.08139886  0.17890386  1
  Ca2+  Ca1  1  0.17066587  0.08747807  0.50228954  1
  Ca2+  Ca2  1  0.17844716  0.09525037  0.83673103  1
  Ca2+  Ca3  1  0.16595667  0.58262420  0.17232375  1
  Ca2+  Ca4  1  0.16789205  0.58703269  0.50437755  1
  Ca2+  Ca5  1  0.15608758  0.57435127  0.83764139  1
  Ca2+  Ca6  1  0.66921489  0.08533495  0.16752904  1
  Ca2+  Ca7  1  0.66604932  0.07761608  0.50592025  1
  Ca2+  Ca8  1  0.67062228  0.07406633  0.84553226  1
  Ca2+  Ca9  1  0.65497140  0.57408675  0.17335135  1
  Ca2+  Ca10  1  0.66377989  0.57198616  0.50341873  1
  Ca2+  Ca11  1  0.66689519  0.57242036  0.84050516  1
  Ca2+  Ca12  1  0.08749848  0.32916282  0.16259063  1
  Ca2+  Ca13  1  0.08433790  0.32709825  0.50129814  1
  Ca2+  Ca14  1  0.07730826  0.33386226  0.82043087  1
  Ca2+  Ca15  1  0.08613822  0.82791115  0.16655792  1
  Ca2+  Ca16  1  0.08121872  0.82752707  0.48775769  1
  Ca2+  Ca17  1  0.08691240  0.81996627  0.82835991  1
  Ca2+  Ca18  1  0.58574717  0.32611959  0.16213016  1
  Ca2+  Ca19  1  0.58490137  0.32944427  0.49084563  1
  Ca2+  Ca20  1  0.58958146  0.32792093  0.83210266  1
  Ca2+  Ca21  1  0.58598234  0.82152108  0.15859804  1
  Ca2+  Ca22  1  0.58330413  0.82828605  0.49282379  1
  Ca2+  Ca23  1  0.58979777  0.83442330  0.83285062  1
  Ca2+  Ca24  1  0.32819335  0.42287355  0.16992312  1
  Ca2+  Ca25  1  0.32820056  0.42477357  0.50215260  1
  Ca2+  Ca26  1  0.31667850  0.41385577  0.83722381  1
  Ca2+  Ca27  1  0.32901074  0.92531210  0.17302502  1
  Ca2+  Ca28  1  0.32812991  0.92755964  0.50059185  1
  Ca2+  Ca29  1  0.33261223  0.92888398  0.83736691  1
  Ca2+  Ca30  1  0.82055948  0.41786663  0.16933673  1
  Ca2+  Ca31  1  0.82392142  0.41079007  0.50391565  1
  Ca2+  Ca32  1  0.82586506  0.41068740  0.83670967  1
  Ca2+  Ca33  1  0.83270464  0.91674451  0.16688612  1
  Ca2+  Ca34  1  0.83002076  0.91274731  0.50220192  1
  Ca2+  Ca35  1  0.82515620  0.92270215  0.83980058  1
  Ca2+  Ca36  1  0.42560011  0.15790967  0.16316291  1
  Ca2+  Ca37  1  0.41832953  0.16516265  0.49394796  1
  Ca2+  Ca38  1  0.41879573  0.16133142  0.83309109  1
  Ca2+  Ca39  1  0.42330800  0.66210161  0.16429483  1
  Ca2+  Ca40  1  0.42009800  0.66664112  0.49016540  1
  Ca2+  Ca41  1  0.42408845  0.66683109  0.83333085  1
  Ca2+  Ca42  1  0.92180174  0.16332526  0.16404122  1
  Ca2+  Ca43  1  0.92710170  0.17074150  0.49612579  1
  Ca2+  Ca44  1  0.92026454  0.17130460  0.82604951  1
  Ca2+  Ca45  1  0.92489585  0.67274785  0.16482554  1
  Ca2+  Ca46  1  0.92751165  0.67206208  0.49250712  1
  Ca2+  Ca47  1  0.92636002  0.66302655  0.83000856  1
  Al0+  Al48  1  0.00045377  -0.00042467  -0.00033129  1
  Al0+  Al49  1  -0.00115891  0.00119252  0.32921145  1
  Al0+  Al50  1  0.00094519  -0.00192654  0.66448655  1
  Al0+  Al51  1  -0.00178890  0.49848563  0.00227495  1
  Al0+  Al52  1  -0.00314447  0.49992530  0.32996205  1
  Al0+  Al53  1  -0.00146053  0.50057763  0.65876401  1
  Al0+  Al54  1  0.50055137  -0.00108334  0.00344194  1
  Al0+  Al55  1  0.50069441  0.00025620  0.33330068  1
  Al0+  Al56  1  0.49911740  -0.00154202  0.67386613  1
  Al0+  Al57  1  0.49725411  0.49928805  -0.00372600  1
  Al0+  Al58  1  0.49722632  0.49826289  0.33910078  1
  Al0+  Al59  1  0.50038288  0.49900423  0.67185266  1
  Al0+  Al60  1  0.25158426  0.25127010  0.00998697  1
  Al0+  Al61  1  0.25065246  0.25266027  0.33294280  1
  Al0+  Al62  1  0.25252210  0.25258464  0.67017954  1
  Al0+  Al63  1  0.25119062  0.75016072  -0.00732304  1
  Al0+  Al64  1  0.25074938  0.75112610  0.33724300  1
  Al0+  Al65  1  0.25413476  0.75255215  0.66357384  1
  Al0+  Al66  1  0.75004933  0.24967568  0.00373883  1
  Al0+  Al67  1  0.74946233  0.24905730  0.33432126  1
  Al0+  Al68  1  0.75014189  0.24858680  0.66608348  1
  Al0+  Al69  1  0.75167921  0.74941612  -0.00305019  1
  Al0+  Al70  1  0.75111605  0.74827897  0.32532465  1
  Al0+  Al71  1  0.75021349  0.74781483  0.67084143  1
  Al0+  Al72  1  0.07371326  0.67860821  0.31751581  1
  Al0+  Al73  1  0.57068304  0.17989866  0.98569119  1
  Al0+  Al74  1  0.67971139  0.42936274  0.34733109  1
  Al0+  Al75  1  0.17697719  0.93065480  0.34815782  1
  Al0+  Al76  1  0.82264768  0.07179270  0.01586750  1
  Al0+  Al77  1  0.92814271  0.82262774  0.31664668  1
  Al0+  Al78  1  0.07441867  0.17877974  0.65327599  1
  Al0+  Al79  1  0.67867382  0.42712422  0.68171421  1
  Al0+  Al80  1  0.67976877  0.92722146  0.01787952  1
  Al0+  Al81  1  0.17650590  0.43048069  0.01418636  1
  Al0+  Al82  1  0.07066303  0.67886924  0.98544828  1
  Al0+  Al83  1  0.57173360  0.67708062  0.98446033  1
  Al0+  Al84  1  0.67743971  0.43058457  0.01415871  1
  Al0+  Al85  1  0.17945472  0.43342771  0.67760361  1
  Al0+  Al86  1  0.07207035  0.67988807  0.65176051  1
  Al0+  Al87  1  0.67967058  0.92818339  0.67932542  1
  Al0+  Al88  1  0.32003674  0.07075339  0.01593632  1
  Al0+  Al89  1  0.56880821  0.67772440  0.32199620  1
  Al0+  Al90  1  0.31876332  0.07148567  0.68159865  1
  Al0+  Al91  1  0.92615925  0.32075029  0.65032547  1
  Al0+  Al92  1  0.07170430  0.18208678  0.31853239  1
  Al0+  Al93  1  0.32277219  0.07266705  0.34963448  1
  Al0+  Al94  1  0.57074285  0.17842633  0.32088228  1
  Al0+  Al95  1  0.31883975  0.57071862  0.34597248  1
  Si0+  Si96  1  0.43192868  0.82276179  0.65027776  1
  Si0+  Si97  1  0.68033839  0.92677730  0.34658422  1
  Si0+  Si98  1  0.57095647  0.67771813  0.65217134  1
  Si0+  Si99  1  0.17420720  0.42865087  0.35057524  1
  Si0+  Si100  1  0.42833488  0.32282481  0.31686708  1
  Si0+  Si101  1  0.82229308  0.57158073  0.01708186  1
  Si0+  Si102  1  0.42908321  0.82218410  0.98149338  1
  Si0+  Si103  1  0.07338522  0.17941862  0.98707844  1
  Si0+  Si104  1  0.82364185  0.07120615  0.68134707  1
  Si0+  Si105  1  0.92967328  0.31947025  0.98651195  1
  Si0+  Si106  1  0.92648170  0.82095518  0.65120930  1
  Si0+  Si107  1  0.32336198  0.57549555  0.68522043  1
  Si0+  Si108  1  0.92861416  0.82354689  0.97961612  1
  Si0+  Si109  1  0.82202216  0.57329526  0.35001550  1
  Si0+  Si110  1  0.82054859  0.07135754  0.34985719  1
  Si0+  Si111  1  0.92578008  0.32143477  0.31430700  1
  Si0+  Si112  1  0.32045451  0.57345266  0.01407582  1
  Si0+  Si113  1  0.17716707  0.92652113  0.68365027  1
  Si0+  Si114  1  0.82102364  0.57118715  0.68290875  1
  Si0+  Si115  1  0.42620699  0.32170033  0.98205945  1
  Si0+  Si116  1  0.42988490  0.32217384  0.65244887  1
  Si0+  Si117  1  0.56924720  0.17774390  0.65407484  1
  Si0+  Si118  1  0.42889830  0.82294401  0.31727224  1
  Si0+  Si119  1  0.17858654  0.92547355  0.01440382  1
  O2-  O120  1  0.24283508  -0.00242378  0.05924416  1
  O2-  O121  1  0.24686367  0.00466120  0.39923638  1
  O2-  O122  1  0.23904812  0.00134160  0.72826890  1
  O2-  O123  1  0.24900829  0.50817348  0.05853389  1
  O2-  O124  1  0.23860166  0.50219811  0.39341561  1
  O2-  O125  1  0.24966689  0.51138288  0.72773114  1
  O2-  O126  1  0.75102373  -0.00002533  0.06758974  1
  O2-  O127  1  0.75016155  -0.00166425  0.39058680  1
  O2-  O128  1  0.75528487  0.00212506  0.72501029  1
  O2-  O129  1  0.74644695  0.51049683  0.06107252  1
  O2-  O130  1  0.75383154  0.50420953  0.39488611  1
  O2-  O131  1  0.75465147  0.50047365  0.72794053  1
  O2-  O132  1  -0.00077729  0.25817546  0.26966371  1
  O2-  O133  1  -0.00020353  0.24848360  0.60317695  1
  O2-  O134  1  0.00129480  0.24880308  0.94432912  1
  O2-  O135  1  0.00306141  0.75233159  0.26820668  1
  O2-  O136  1  -0.00017833  0.75768063  0.60686771  1
  O2-  O137  1  -0.00223190  0.75448167  0.93646763  1
  O2-  O138  1  0.49371981  0.25051555  0.27382885  1
  O2-  O139  1  0.50217516  0.25185445  0.61085779  1
  O2-  O140  1  0.49614501  0.25422130  0.93714850  1
  O2-  O141  1  0.49624770  0.75306923  0.27300285  1
  O2-  O142  1  0.50095181  0.74902681  0.60892458  1
  O2-  O143  1  0.50004237  0.75487379  0.93725040  1
  O2-  O144  1  0.07263833  0.18118854  0.09208864  1
  O2-  O145  1  0.07041265  0.18342079  0.43166792  1
  O2-  O146  1  0.07387001  0.18262994  0.76756236  1
  O2-  O147  1  0.07083036  0.68016237  0.09790716  1
  O2-  O148  1  0.07124262  0.67980997  0.43128574  1
  O2-  O149  1  0.06906864  0.67899511  0.76529124  1
  O2-  O150  1  0.57018784  0.18198060  0.09861526  1
  O2-  O151  1  0.57131897  0.17877867  0.43489490  1
  O2-  O152  1  0.56834260  0.17792154  0.75912161  1
  O2-  O153  1  0.56657533  0.67518305  0.09752652  1
  O2-  O154  1  0.56827291  0.67960644  0.43579851  1
  O2-  O155  1  0.56924831  0.67779490  0.75720323  1
  O2-  O156  1  0.17716119  0.42801213  0.24472845  1
  O2-  O157  1  0.18415270  0.43308188  0.56483109  1
  O2-  O158  1  0.17566789  0.42931348  0.90073900  1
  O2-  O159  1  0.18066794  0.93094127  0.23410949  1
  O2-  O160  1  0.18050595  0.92369156  0.57864937  1
  O2-  O161  1  0.18120207  0.92408717  0.90849417  1
  O2-  O162  1  0.67967590  0.42983548  0.23424493  1
  O2-  O163  1  0.67614227  0.42905202  0.56865960  1
  O2-  O164  1  0.68174438  0.42918861  0.90084032  1
  O2-  O165  1  0.68060965  0.92665750  0.24216036  1
  O2-  O166  1  0.67898138  0.92865612  0.56555930  1
  O2-  O167  1  0.68232827  0.92946899  0.90374485  1
  O2-  O168  1  0.42627293  0.32311007  0.08749202  1
  O2-  O169  1  0.43052898  0.32447215  0.42302622  1
  O2-  O170  1  0.42873141  0.32224379  0.75741131  1
  O2-  O171  1  0.42636904  0.81958214  0.08681827  1
  O2-  O172  1  0.43299515  0.82338523  0.42341267  1
  O2-  O173  1  0.43191856  0.82327671  0.75529644  1
  O2-  O174  1  0.93064384  0.32021799  0.09154090  1
  O2-  O175  1  0.92350313  0.31810926  0.41976211  1
  O2-  O176  1  0.92572282  0.31907987  0.76465534  1
  O2-  O177  1  0.92916852  0.82337421  0.08481411  1
  O2-  O178  1  0.92523395  0.81930760  0.43082015  1
  O2-  O179  1  0.92539025  0.81914449  0.75666920  1
  O2-  O180  1  0.32367666  0.06862941  0.23620863  1
  O2-  O181  1  0.32284851  0.06927047  0.56913224  1
  O2-  O182  1  0.31849007  0.07125580  0.90231339  1
  O2-  O183  1  0.32179118  0.56677665  0.23289270  1
  O2-  O184  1  0.32668803  0.57368025  0.57965116  1
  O2-  O185  1  0.32070949  0.57197121  0.90829712  1
  O2-  O186  1  0.81899745  0.07375815  0.24511668  1
  O2-  O187  1  0.82158252  0.07115945  0.57555980  1
  O2-  O188  1  0.82271911  0.07137258  0.90168703  1
  O2-  O189  1  0.82176841  0.57181141  0.24444451  1
  O2-  O190  1  0.81614223  0.57511915  0.57761932  1
  O2-  O191  1  0.82509439  0.56670279  0.91120669  1
  O2-  O192  1  0.03954408  0.08646859  0.26455380  1
  O2-  O193  1  0.04996662  0.07816800  0.60221547  1
  O2-  O194  1  0.04981320  0.08630357  0.93996179  1
  O2-  O195  1  0.04379040  0.57962884  0.26564591  1
  O2-  O196  1  0.04013578  0.58553057  0.59535077  1
  O2-  O197  1  0.03515684  0.58193974  0.93353512  1
  O2-  O198  1  0.54297118  0.08129916  0.26636592  1
  O2-  O199  1  0.53814913  0.08618638  0.60789133  1
  O2-  O200  1  0.54000507  0.08179717  0.93395586  1
  O2-  O201  1  0.53366161  0.58155739  0.27002255  1
  O2-  O202  1  0.54182623  0.58529228  0.60630247  1
  O2-  O203  1  0.53668851  0.58223501  0.92806518  1
  O2-  O204  1  0.16908072  0.21191445  0.26475456  1
  O2-  O205  1  0.17211988  0.21165204  0.60114645  1
  O2-  O206  1  0.16577749  0.21014373  0.94273762  1
  O2-  O207  1  0.17356797  0.70543030  0.26689980  1
  O2-  O208  1  0.17146919  0.70780346  0.60164835  1
  O2-  O209  1  0.16744891  0.70703478  0.92914958  1
  O2-  O210  1  0.66651564  0.21137423  0.26701982  1
  O2-  O211  1  0.66228880  0.20102464  0.60715456  1
  O2-  O212  1  0.66799055  0.21155015  0.93263739  1
  O2-  O213  1  0.66489692  0.70447241  0.26627064  1
  O2-  O214  1  0.66374368  0.70447765  0.60663965  1
  O2-  O215  1  0.67013360  0.70353276  0.93134531  1
  O2-  O216  1  0.08015893  0.45795383  0.06957977  1
  O2-  O217  1  0.07768639  0.44752201  0.39296886  1
  O2-  O218  1  0.07998913  0.45991094  0.72868031  1
  O2-  O219  1  0.08324297  0.94587410  0.05753112  1
  O2-  O220  1  0.07690911  0.95656405  0.39897927  1
  O2-  O221  1  0.08033727  0.94210447  0.72696485  1
  O2-  O222  1  0.57802528  0.45718561  0.06415574  1
  O2-  O223  1  0.58373107  0.45950068  0.40277913  1
  O2-  O224  1  0.58301476  0.45877299  0.73737026  1
  O2-  O225  1  0.58039702  0.95186783  0.06864856  1
  O2-  O226  1  0.58853968  0.95404163  0.39459048  1
  O2-  O227  1  0.58502006  0.95940370  0.73612972  1
  O2-  O228  1  0.21163905  0.33740797  0.07178528  1
  O2-  O229  1  0.20578695  0.33743208  0.39755621  1
  O2-  O230  1  0.21396571  0.33908226  0.73423358  1
  O2-  O231  1  0.20896238  0.83299358  0.06021887  1
  O2-  O232  1  0.20736940  0.83339467  0.40240596  1
  O2-  O233  1  0.21188842  0.83573239  0.73152641  1
  O2-  O234  1  0.71272855  0.33618786  0.06849368  1
  O2-  O235  1  0.71207930  0.33292084  0.40169546  1
  O2-  O236  1  0.70858736  0.32941951  0.73431960  1
  O2-  O237  1  0.70833899  0.82703621  0.06717720  1
  O2-  O238  1  0.70902698  0.83447596  0.39341214  1
  O2-  O239  1  0.70854811  0.83134225  0.73421667  1
  O2-  O240  1  0.45834634  0.41426242  0.26943467  1
  O2-  O241  1  0.45736829  0.41478468  0.60545056  1
  O2-  O242  1  0.44758392  0.41540843  0.93427046  1
  O2-  O243  1  0.45579611  0.91530799  0.27016168  1
  O2-  O244  1  0.46341121  0.91337902  0.60260479  1
  O2-  O245  1  0.45501122  0.91571767  0.93537247  1
  O2-  O246  1  0.94394513  0.41723702  0.27002111  1
  O2-  O247  1  0.95165606  0.41867396  0.59580190  1
  O2-  O248  1  0.95634545  0.41108925  0.93811240  1
  O2-  O249  1  0.95190054  0.92157333  0.26335288  1
  O2-  O250  1  0.94515204  0.91638075  0.60588011  1
  O2-  O251  1  0.95374535  0.91744975  0.93279746  1
  O2-  O252  1  0.33353894  0.30328810  0.27117023  1
  O2-  O253  1  0.33956206  0.29365977  0.60331126  1
  O2-  O254  1  0.33254664  0.29164858  0.93720778  1
  O2-  O255  1  0.33490094  0.79890441  0.27287041  1
  O2-  O256  1  0.34033293  0.79757677  0.60113994  1
  O2-  O257  1  0.33747585  0.79535190  0.93066972  1
  O2-  O258  1  0.83451960  0.28947275  0.26736255  1
  O2-  O259  1  0.82835639  0.28991651  0.59588630  1
  O2-  O260  1  0.83829072  0.29074468  0.93879895  1
  O2-  O261  1  0.83241090  0.79067010  0.25957629  1
  O2-  O262  1  0.83402249  0.79011556  0.60438096  1
  O2-  O263  1  0.83545880  0.79723906  0.93284961  1
  O2-  O264  1  0.41574102  0.03762625  0.06858049  1
  O2-  O265  1  0.42071842  0.04061165  0.40298890  1
  O2-  O266  1  0.41268829  0.03467173  0.73776535  1
  O2-  O267  1  0.41258909  0.54396139  0.06067366  1
  O2-  O268  1  0.41143712  0.53420524  0.40563274  1
  O2-  O269  1  0.41475562  0.54469458  0.73304420  1
  O2-  O270  1  0.92229124  0.04396296  0.06772203  1
  O2-  O271  1  0.91236286  0.04444989  0.39685315  1
  O2-  O272  1  0.91786428  0.04735613  0.72770242  1
  O2-  O273  1  0.91152287  0.53822914  0.06693459  1
  O2-  O274  1  0.91579641  0.54784989  0.39650624  1
  O2-  O275  1  0.91582660  0.54684882  0.72641706  1
  O2-  O276  1  0.29247894  0.16653705  0.07207011  1
  O2-  O277  1  0.29805760  0.17376859  0.39889192  1
  O2-  O278  1  0.29337386  0.16900788  0.73691464  1
  O2-  O279  1  0.29921757  0.66868730  0.05793733  1
  O2-  O280  1  0.29692301  0.66860509  0.40171054  1
  O2-  O281  1  0.30443138  0.67162542  0.72859667  1
  O2-  O282  1  0.79400962  0.16908628  0.07040218  1
  O2-  O283  1  0.79026556  0.16145338  0.39914192  1
  O2-  O284  1  0.79739892  0.16415640  0.72785913  1
  O2-  O285  1  0.80561043  0.66833773  0.05819869  1
  O2-  O286  1  0.79565561  0.66708953  0.39512467  1
  O2-  O287  1  0.79411719  0.66250303  0.73371456  1
