# generated using pymatgen
data_Ca2Al2SiO7
_symmetry_space_group_name_H-M   'P 1'
_cell_length_a   15.46084101
_cell_length_b   15.46153132
_cell_length_c   15.28510168
_cell_angle_alpha   90.00236275
_cell_angle_beta   89.97757652
_cell_angle_gamma   90.01973928
_symmetry_Int_Tables_number   1
_chemical_formula_structural   Ca2Al2SiO7
_chemical_formula_sum   'Ca48 Al48 Si24 O168'
_cell_volume   3653.87672916
_cell_formula_units_Z   24
loop_
 _symmetry_equiv_pos_site_id
 _symmetry_equiv_pos_as_xyz
  1  'x, y, z'
loop_
 _atom_type_symbol
 _atom_type_oxidation_number
  Ca2+  2.0
  Al0+  0.0
  Si0+  0.0
  O2-  -2.0
loop_
 _atom_site_type_symbol
 _atom_site_label
 _atom_site_symmetry_multiplicity
 _atom_site_fract_x
 _atom_site_fract_y
 _atom_site_fract_z
 _atom_site_occupancy
  Ca2+  Ca0  1  0.17546337  0.07848636  0.17248436  1
  Ca2+  Ca1  1  0.17095454  0.08150060  0.50328080  1
  Ca2+  Ca2  1  0.17642079  0.08903982  0.83391633  1
  Ca2+  Ca3  1  0.17570272  0.58169593  0.16971432  1
  Ca2+  Ca4  1  0.17451318  0.58565921  0.50638534  1
  Ca2+  Ca5  1  0.17493278  0.58566117  0.83539137  1
  Ca2+  Ca6  1  0.66722401  0.06923022  0.17188415  1
  Ca2+  Ca7  1  0.67449072  0.07420886  0.50800339  1
  Ca2+  Ca8  1  0.67175798  0.07116090  0.83217190  1
  Ca2+  Ca9  1  0.67436363  0.58297526  0.17409958  1
  Ca2+  Ca10  1  0.67910731  0.57812645  0.50646433  1
  Ca2+  Ca11  1  0.66983205  0.58042543  0.82687093  1
  Ca2+  Ca12  1  0.08120602  0.33863379  0.16558652  1
  Ca2+  Ca13  1  0.08000177  0.32559064  0.49747783  1
  Ca2+  Ca14  1  0.09049176  0.32758005  0.82733865  1
  Ca2+  Ca15  1  0.07247506  0.84095229  0.16466045  1
  Ca2+  Ca16  1  0.07346044  0.83066954  0.49613928  1
  Ca2+  Ca17  1  0.07266124  0.82904447  0.82109372  1
  Ca2+  Ca18  1  0.57465194  0.33143559  0.16510444  1
  Ca2+  Ca19  1  0.57454711  0.33872995  0.49717760  1
  Ca2+  Ca20  1  0.57608569  0.33287405  0.82158989  1
  Ca2+  Ca21  1  0.58670505  0.83435134  0.16312223  1
  Ca2+  Ca22  1  0.58002013  0.84219515  0.49939210  1
  Ca2+  Ca23  1  0.57990447  0.83731758  0.82680193  1
  Ca2+  Ca24  1  0.32945101  0.42425221  0.17147207  1
  Ca2+  Ca25  1  0.34182997  0.42505835  0.50573737  1
  Ca2+  Ca26  1  0.32997846  0.42680334  0.83638377  1
  Ca2+  Ca27  1  0.32703672  0.92798156  0.17793254  1
  Ca2+  Ca28  1  0.32971613  0.92609615  0.50738257  1
  Ca2+  Ca29  1  0.33966735  0.92817656  0.83469629  1
  Ca2+  Ca30  1  0.83530776  0.42364814  0.17861497  1
  Ca2+  Ca31  1  0.83443965  0.42407931  0.50741964  1
  Ca2+  Ca32  1  0.83203907  0.42116764  0.83134748  1
  Ca2+  Ca33  1  0.82578236  0.90620118  0.17216825  1
  Ca2+  Ca34  1  0.82580043  0.91116893  0.50780718  1
  Ca2+  Ca35  1  0.82833443  0.90864691  0.83310889  1
  Ca2+  Ca36  1  0.40903303  0.16667672  0.16636989  1
  Ca2+  Ca37  1  0.40935454  0.17645434  0.49600807  1
  Ca2+  Ca38  1  0.41243647  0.17146115  0.82220336  1
  Ca2+  Ca39  1  0.41496796  0.66393949  0.16422972  1
  Ca2+  Ca40  1  0.41364500  0.66976644  0.49863999  1
  Ca2+  Ca41  1  0.41419687  0.67053781  0.82138971  1
  Ca2+  Ca42  1  0.91631948  0.17410990  0.16516176  1
  Ca2+  Ca43  1  0.92010046  0.16514024  0.49728288  1
  Ca2+  Ca44  1  0.92506347  0.16464404  0.82121162  1
  Ca2+  Ca45  1  0.91415591  0.67609165  0.16403635  1
  Ca2+  Ca46  1  0.91372705  0.67097713  0.49645684  1
  Ca2+  Ca47  1  0.92252872  0.67362607  0.82286411  1
  Al0+  Al48  1  -0.00144503  0.00373765  -0.00551310  1
  Al0+  Al49  1  -0.00039205  -0.00047052  0.32922515  1
  Al0+  Al50  1  0.00066967  -0.00059190  0.66002086  1
  Al0+  Al51  1  -0.00044565  0.50127860  0.00232664  1
  Al0+  Al52  1  0.00216226  0.50086196  0.33280916  1
  Al0+  Al53  1  0.00181716  0.49871289  0.66817430  1
  Al0+  Al54  1  0.50284613  0.00034730  0.00803233  1
  Al0+  Al55  1  0.50002130  0.00091429  0.33922449  1
  Al0+  Al56  1  0.50043461  0.00140320  0.66952005  1
  Al0+  Al57  1  0.50150419  0.49981070  0.00166072  1
  Al0+  Al58  1  0.50019137  0.49965298  0.32951167  1
  Al0+  Al59  1  0.49953340  0.50094554  0.67045287  1
  Al0+  Al60  1  0.24918108  0.25208327  0.00802657  1
  Al0+  Al61  1  0.24971979  0.25131038  0.32957555  1
  Al0+  Al62  1  0.24987298  0.25019481  0.65985264  1
  Al0+  Al63  1  0.24953891  0.75177051  0.00382642  1
  Al0+  Al64  1  0.24965744  0.74986775  0.33861239  1
  Al0+  Al65  1  0.24990661  0.75121017  0.66248938  1
  Al0+  Al66  1  0.74862992  0.24917371  -0.00152778  1
  Al0+  Al67  1  0.74773395  0.24796777  0.32634997  1
  Al0+  Al68  1  0.74904229  0.24813581  0.67438576  1
  Al0+  Al69  1  0.74834673  0.74912244  -0.00228521  1
  Al0+  Al70  1  0.74928160  0.74780948  0.33760839  1
  Al0+  Al71  1  0.74841483  0.74683330  0.67194614  1
  Al0+  Al72  1  0.92870171  0.82090916  0.98494763  1
  Al0+  Al73  1  0.42925518  0.32169867  0.31661405  1
  Al0+  Al74  1  0.92819478  0.81891693  0.31899792  1
  Al0+  Al75  1  0.17580272  0.92840775  0.34941520  1
  Al0+  Al76  1  0.43042702  0.32134574  0.65421261  1
  Al0+  Al77  1  0.32294206  0.57384756  0.01510036  1
  Al0+  Al78  1  0.32241177  0.56935354  0.34884289  1
  Al0+  Al79  1  0.17825970  0.42998020  0.01555780  1
  Al0+  Al80  1  0.31945079  0.57261113  0.67919505  1
  Al0+  Al81  1  0.67803976  0.42803087  0.68052758  1
  Al0+  Al82  1  0.92893080  0.32140508  0.32133655  1
  Al0+  Al83  1  0.07148272  0.17860826  0.65235508  1
  Al0+  Al84  1  0.32122391  0.07017455  0.01375651  1
  Al0+  Al85  1  0.68294300  0.92907763  0.01528660  1
  Al0+  Al86  1  0.82476784  0.07029276  0.68062324  1
  Al0+  Al87  1  0.92683671  0.81862528  0.65011332  1
  Al0+  Al88  1  0.31868436  0.07188608  0.67962539  1
  Al0+  Al89  1  0.82430973  0.57006365  0.68326453  1
  Al0+  Al90  1  0.43056056  0.82341963  0.65367544  1
  Al0+  Al91  1  0.32000444  0.07243849  0.35095381  1
  Al0+  Al92  1  0.82205115  0.56904026  0.34582068  1
  Al0+  Al93  1  0.07260176  0.67644173  0.65105051  1
  Al0+  Al94  1  0.68076540  0.92800851  0.34805833  1
  Al0+  Al95  1  0.67911615  0.92805759  0.68256905  1
  Si0+  Si96  1  0.17825490  0.92810909  0.68313626  1
  Si0+  Si97  1  0.57038247  0.67711581  0.64944460  1
  Si0+  Si98  1  0.56988721  0.68007870  0.31870183  1
  Si0+  Si99  1  0.07162777  0.17800152  0.31320461  1
  Si0+  Si100  1  0.07466027  0.67800972  0.31444586  1
  Si0+  Si101  1  0.92584043  0.32101167  0.65277083  1
  Si0+  Si102  1  0.57026671  0.67781562  0.98457257  1
  Si0+  Si103  1  0.67847090  0.42594622  0.34644201  1
  Si0+  Si104  1  0.82383522  0.07424968  0.01780841  1
  Si0+  Si105  1  0.82146332  0.07412159  0.34698508  1
  Si0+  Si106  1  0.57309029  0.17783432  0.65063639  1
  Si0+  Si107  1  0.07090753  0.18262370  0.98529232  1
  Si0+  Si108  1  0.17903960  0.42665970  0.68052955  1
  Si0+  Si109  1  0.07279230  0.67791170  0.98426649  1
  Si0+  Si110  1  0.67870045  0.42614160  0.01663465  1
  Si0+  Si111  1  0.81856005  0.56904313  0.01523104  1
  Si0+  Si112  1  0.42946507  0.31977494  0.98466271  1
  Si0+  Si113  1  0.42860593  0.82225307  0.31887030  1
  Si0+  Si114  1  0.92707684  0.32347100  0.98451584  1
  Si0+  Si115  1  0.17786179  0.42843718  0.35184155  1
  Si0+  Si116  1  0.57092294  0.17754831  0.98372607  1
  Si0+  Si117  1  0.42943190  0.82216144  0.98917884  1
  Si0+  Si118  1  0.17485616  0.92931888  0.01382976  1
  Si0+  Si119  1  0.57101990  0.17564254  0.31432654  1
  O2-  O120  1  0.24779762  -0.00663413  0.05852436  1
  O2-  O121  1  0.24828327  -0.00013945  0.39942865  1
  O2-  O122  1  0.24631945  -0.00333463  0.72939297  1
  O2-  O123  1  0.25007585  0.50265215  0.06479023  1
  O2-  O124  1  0.24867737  0.49429989  0.39597573  1
  O2-  O125  1  0.24300405  0.49960099  0.72494170  1
  O2-  O126  1  0.75972657  0.00159654  0.06235240  1
  O2-  O127  1  0.75719798  0.00196643  0.39113025  1
  O2-  O128  1  0.75603433  -0.00441500  0.73194706  1
  O2-  O129  1  0.75127758  0.49501834  0.05922831  1
  O2-  O130  1  0.75321505  0.48764403  0.38961159  1
  O2-  O131  1  0.75266036  0.49649475  0.73238909  1
  O2-  O132  1  0.00207590  0.24719366  0.27017452  1
  O2-  O133  1  -0.00829227  0.24987371  0.60858509  1
  O2-  O134  1  -0.00104992  0.25322955  0.94295920  1
  O2-  O135  1  0.00571757  0.74722310  0.27047258  1
  O2-  O136  1  -0.00296426  0.74446201  0.60071446  1
  O2-  O137  1  0.00743477  0.74968292  0.94035261  1
  O2-  O138  1  0.50102437  0.24359020  0.26969631  1
  O2-  O139  1  0.50660452  0.24846439  0.60644840  1
  O2-  O140  1  0.49903564  0.24787392  0.94126515  1
  O2-  O141  1  0.49900900  0.75101625  0.27520979  1
  O2-  O142  1  0.50576827  0.74956852  0.60538546  1
  O2-  O143  1  0.49395039  0.74522201  0.94611313  1
  O2-  O144  1  0.06891723  0.18178860  0.09022235  1
  O2-  O145  1  0.07127529  0.17857630  0.41853322  1
  O2-  O146  1  0.07493082  0.18336582  0.76621725  1
  O2-  O147  1  0.07074191  0.67625785  0.08983839  1
  O2-  O148  1  0.07361946  0.67641541  0.41946543  1
  O2-  O149  1  0.07314918  0.67992237  0.76550071  1
  O2-  O150  1  0.57221487  0.17992739  0.08881849  1
  O2-  O151  1  0.57472966  0.17711955  0.41922855  1
  O2-  O152  1  0.56964796  0.17812029  0.75682168  1
  O2-  O153  1  0.57409900  0.67796339  0.09000453  1
  O2-  O154  1  0.56976319  0.67824022  0.42313979  1
  O2-  O155  1  0.56700142  0.67562578  0.75569206  1
  O2-  O156  1  0.17766206  0.43123542  0.24590820  1
  O2-  O157  1  0.18033941  0.42481213  0.57517622  1
  O2-  O158  1  0.18105868  0.42722006  0.90212292  1
  O2-  O159  1  0.17770424  0.93091127  0.23459532  1
  O2-  O160  1  0.18038083  0.92991233  0.57784771  1
  O2-  O161  1  0.17483924  0.93093728  0.90854476  1
  O2-  O162  1  0.67814687  0.42951037  0.24005346  1
  O2-  O163  1  0.67804912  0.43046478  0.56672878  1
  O2-  O164  1  0.67756718  0.42601393  0.91214858  1
  O2-  O165  1  0.68147375  0.92750456  0.23439958  1
  O2-  O166  1  0.67827819  0.93165365  0.56912974  1
  O2-  O167  1  0.68023968  0.93013527  0.90314101  1
  O2-  O168  1  0.43262678  0.31982044  0.08979023  1
  O2-  O169  1  0.43339083  0.32447181  0.42932156  1
  O2-  O170  1  0.42930698  0.31990752  0.76806654  1
  O2-  O171  1  0.43266674  0.82275193  0.09449556  1
  O2-  O172  1  0.43061589  0.82217103  0.42360680  1
  O2-  O173  1  0.43143070  0.82275983  0.76788223  1
  O2-  O174  1  0.92589602  0.32240065  0.08974172  1
  O2-  O175  1  0.92956144  0.31928510  0.43398945  1
  O2-  O176  1  0.92843735  0.32096249  0.75892376  1
  O2-  O177  1  0.92770933  0.81778549  0.09841308  1
  O2-  O178  1  0.92543155  0.81616025  0.43100894  1
  O2-  O179  1  0.92981376  0.81805708  0.76434314  1
  O2-  O180  1  0.31876203  0.06953181  0.23653789  1
  O2-  O181  1  0.31690669  0.07294189  0.56737837  1
  O2-  O182  1  0.32124884  0.07195754  0.90067168  1
  O2-  O183  1  0.32219298  0.56833756  0.23549132  1
  O2-  O184  1  0.32151663  0.56967317  0.56635248  1
  O2-  O185  1  0.32399755  0.57331240  0.90174170  1
  O2-  O186  1  0.81822985  0.07656619  0.24095717  1
  O2-  O187  1  0.82103223  0.07322092  0.56689477  1
  O2-  O188  1  0.82254043  0.07778472  0.91294365  1
  O2-  O189  1  0.81759161  0.57007123  0.23176632  1
  O2-  O190  1  0.82272637  0.56794653  0.56964675  1
  O2-  O191  1  0.81739049  0.56729430  0.91075125  1
  O2-  O192  1  0.04623503  0.08516511  0.26508240  1
  O2-  O193  1  0.04517207  0.08276530  0.59571579  1
  O2-  O194  1  0.04539853  0.09154674  0.93531980  1
  O2-  O195  1  0.04885737  0.58446062  0.26775055  1
  O2-  O196  1  0.05077440  0.57500748  0.60117893  1
  O2-  O197  1  0.04386737  0.58510126  0.93788151  1
  O2-  O198  1  0.54367565  0.08189377  0.26798046  1
  O2-  O199  1  0.54607451  0.08545356  0.60438941  1
  O2-  O200  1  0.54391414  0.08452460  0.93900951  1
  O2-  O201  1  0.54305739  0.58911406  0.26765913  1
  O2-  O202  1  0.54080007  0.58549903  0.60245219  1
  O2-  O203  1  0.54761511  0.58420571  0.93772190  1
  O2-  O204  1  0.16423413  0.20564076  0.26586481  1
  O2-  O205  1  0.16366636  0.21491396  0.59398974  1
  O2-  O206  1  0.16322422  0.21286857  0.93947007  1
  O2-  O207  1  0.16894314  0.70371380  0.26870310  1
  O2-  O208  1  0.16902972  0.70753474  0.59636078  1
  O2-  O209  1  0.16862771  0.70009628  0.94048672  1
  O2-  O210  1  0.66309032  0.20097612  0.26323832  1
  O2-  O211  1  0.66812560  0.20093530  0.60656593  1
  O2-  O212  1  0.66264712  0.20582975  0.93583279  1
  O2-  O213  1  0.66095489  0.70907866  0.26956440  1
  O2-  O214  1  0.66615458  0.69715111  0.60676861  1
  O2-  O215  1  0.65932203  0.70967180  0.93469540  1
  O2-  O216  1  0.07874266  0.45690524  0.06883516  1
  O2-  O217  1  0.08500290  0.45456650  0.39807972  1
  O2-  O218  1  0.08442243  0.44465631  0.72760299  1
  O2-  O219  1  0.08281193  0.96111434  0.06045771  1
  O2-  O220  1  0.07648283  0.95681802  0.39974354  1
  O2-  O221  1  0.08415197  0.95364649  0.72703060  1
  O2-  O222  1  0.58801048  0.45617831  0.06505895  1
  O2-  O223  1  0.58775946  0.45900808  0.39220718  1
  O2-  O224  1  0.58285802  0.46213942  0.73777571  1
  O2-  O225  1  0.58819333  0.96190246  0.07226863  1
  O2-  O226  1  0.58472225  0.95938088  0.40109509  1
  O2-  O227  1  0.58308028  0.96247478  0.73764800  1
  O2-  O228  1  0.20651299  0.33372860  0.07301233  1
  O2-  O229  1  0.19980800  0.33279557  0.39350268  1
  O2-  O230  1  0.21093049  0.33562695  0.72810594  1
  O2-  O231  1  0.19411172  0.83461397  0.06022510  1
  O2-  O232  1  0.20218443  0.82999761  0.40119515  1
  O2-  O233  1  0.20398822  0.83482887  0.72893288  1
  O2-  O234  1  0.70393911  0.33329614  0.06358285  1
  O2-  O235  1  0.69574573  0.32940105  0.38809443  1
  O2-  O236  1  0.70054719  0.32957355  0.73640318  1
  O2-  O237  1  0.71098413  0.83054658  0.06803357  1
  O2-  O238  1  0.70852392  0.83160695  0.40202097  1
  O2-  O239  1  0.69974560  0.82784892  0.73489796  1
  O2-  O240  1  0.46498031  0.41617965  0.25971445  1
  O2-  O241  1  0.46280970  0.41800117  0.60126950  1
  O2-  O242  1  0.45937299  0.41207960  0.93900948  1
  O2-  O243  1  0.45739860  0.91447388  0.27208196  1
  O2-  O244  1  0.46176013  0.91984581  0.59948893  1
  O2-  O245  1  0.46377571  0.91251600  0.94226514  1
  O2-  O246  1  0.96080761  0.41772669  0.26529056  1
  O2-  O247  1  0.95369981  0.41349847  0.60640025  1
  O2-  O248  1  0.95301962  0.41630694  0.93853202  1
  O2-  O249  1  0.95445178  0.91723226  0.26387090  1
  O2-  O250  1  0.95470858  0.91684515  0.59747425  1
  O2-  O251  1  0.95361314  0.92025857  0.93330721  1
  O2-  O252  1  0.33149621  0.29430702  0.26246650  1
  O2-  O253  1  0.33612266  0.29011217  0.59734572  1
  O2-  O254  1  0.33573297  0.29318491  0.94149921  1
  O2-  O255  1  0.33616408  0.79450637  0.27238763  1
  O2-  O256  1  0.33492379  0.79321383  0.59896838  1
  O2-  O257  1  0.33449698  0.80314919  0.94394949  1
  O2-  O258  1  0.83192103  0.29298076  0.26403935  1
  O2-  O259  1  0.83034781  0.29919095  0.60964532  1
  O2-  O260  1  0.83466754  0.29595718  0.93793805  1
  O2-  O261  1  0.83190528  0.78234982  0.26557582  1
  O2-  O262  1  0.82617761  0.79060750  0.60204866  1
  O2-  O263  1  0.83304865  0.78523584  0.93238664  1
  O2-  O264  1  0.41722834  0.04132028  0.06952619  1
  O2-  O265  1  0.41894715  0.04665679  0.40198369  1
  O2-  O266  1  0.41549310  0.04290003  0.73409729  1
  O2-  O267  1  0.42185010  0.54384229  0.06728882  1
  O2-  O268  1  0.42022733  0.53823236  0.39967951  1
  O2-  O269  1  0.41445712  0.54070308  0.73501612  1
  O2-  O270  1  0.91946801  0.05424897  0.06190547  1
  O2-  O271  1  0.91744104  0.05412205  0.38805771  1
  O2-  O272  1  0.92540496  0.04664298  0.73129949  1
  O2-  O273  1  0.91127241  0.54552386  0.06264221  1
  O2-  O274  1  0.92007792  0.54351059  0.39766400  1
  O2-  O275  1  0.92224878  0.54114793  0.73771591  1
  O2-  O276  1  0.28832388  0.16513406  0.06905085  1
  O2-  O277  1  0.29174697  0.17279942  0.39856179  1
  O2-  O278  1  0.28542766  0.16861018  0.73268547  1
  O2-  O279  1  0.29711152  0.67305282  0.06919862  1
  O2-  O280  1  0.29452463  0.66671473  0.40111226  1
  O2-  O281  1  0.29034514  0.66996480  0.73278415  1
  O2-  O282  1  0.79330576  0.16697462  0.06461767  1
  O2-  O283  1  0.79222296  0.16648255  0.39363952  1
  O2-  O284  1  0.79595252  0.16710734  0.73764259  1
  O2-  O285  1  0.78511977  0.65926236  0.06213358  1
  O2-  O286  1  0.78347744  0.66072334  0.40172953  1
  O2-  O287  1  0.79187211  0.66554893  0.73909905  1
