# generated using pymatgen
data_Ca2Al2SiO7
_symmetry_space_group_name_H-M   'P 1'
_cell_length_a   15.45689031
_cell_length_b   15.45688315
_cell_length_c   15.28245687
_cell_angle_alpha   90.01238310
_cell_angle_beta   89.99510959
_cell_angle_gamma   89.98826149
_symmetry_Int_Tables_number   1
_chemical_formula_structural   Ca2Al2SiO7
_chemical_formula_sum   'Ca48 Al48 Si24 O168'
_cell_volume   3651.21331645
_cell_formula_units_Z   24
loop_
 _symmetry_equiv_pos_site_id
 _symmetry_equiv_pos_as_xyz
  1  'x, y, z'
loop_
 _atom_type_symbol
 _atom_type_oxidation_number
  Ca2+  2.0
  Al0+  0.0
  Si0+  0.0
  O2-  -2.0
loop_
 _atom_site_type_symbol
 _atom_site_label
 _atom_site_symmetry_multiplicity
 _atom_site_fract_x
 _atom_site_fract_y
 _atom_site_fract_z
 _atom_site_occupancy
  Ca2+  Ca0  1  0.16862104  0.08475330  0.16962614  1
  Ca2+  Ca1  1  0.16983237  0.08111229  0.50142610  1
  Ca2+  Ca2  1  0.16208151  0.07342735  0.83967625  1
  Ca2+  Ca3  1  0.15622519  0.57114242  0.17162045  1
  Ca2+  Ca4  1  0.16081672  0.58031268  0.49659941  1
  Ca2+  Ca5  1  0.16933634  0.57513588  0.84241468  1
  Ca2+  Ca6  1  0.67391242  0.08996471  0.16991364  1
  Ca2+  Ca7  1  0.67259113  0.07729586  0.50694654  1
  Ca2+  Ca8  1  0.67929838  0.07932384  0.83611993  1
  Ca2+  Ca9  1  0.67190761  0.57725252  0.16336326  1
  Ca2+  Ca10  1  0.66592939  0.58449807  0.50563266  1
  Ca2+  Ca11  1  0.66939704  0.58141773  0.84201687  1
  Ca2+  Ca12  1  0.08311750  0.32584140  0.16007084  1
  Ca2+  Ca13  1  0.07656167  0.32690684  0.48668473  1
  Ca2+  Ca14  1  0.08303739  0.32798385  0.83655281  1
  Ca2+  Ca15  1  0.07599253  0.83314660  0.15947033  1
  Ca2+  Ca16  1  0.07502355  0.83451367  0.49490457  1
  Ca2+  Ca17  1  0.07442444  0.84391855  0.83180184  1
  Ca2+  Ca18  1  0.57953905  0.32959959  0.15999611  1
  Ca2+  Ca19  1  0.57583452  0.32483113  0.49462675  1
  Ca2+  Ca20  1  0.57401752  0.34201181  0.83146476  1
  Ca2+  Ca21  1  0.56824568  0.83817467  0.16174405  1
  Ca2+  Ca22  1  0.58506558  0.83127670  0.49580954  1
  Ca2+  Ca23  1  0.58256092  0.83007767  0.82804778  1
  Ca2+  Ca24  1  0.32077778  0.40816122  0.16837993  1
  Ca2+  Ca25  1  0.32576407  0.41179251  0.50274148  1
  Ca2+  Ca26  1  0.33337628  0.41490977  0.84309798  1
  Ca2+  Ca27  1  0.32918097  0.91660382  0.17399125  1
  Ca2+  Ca28  1  0.33017696  0.92010788  0.50183780  1
  Ca2+  Ca29  1  0.32105696  0.91215335  0.84098585  1
  Ca2+  Ca30  1  0.84107009  0.41706494  0.16800300  1
  Ca2+  Ca31  1  0.83494852  0.41645265  0.50143406  1
  Ca2+  Ca32  1  0.82777264  0.42533306  0.85079616  1
  Ca2+  Ca33  1  0.84040957  0.92039630  0.16670732  1
  Ca2+  Ca34  1  0.83490722  0.92108372  0.51134207  1
  Ca2+  Ca35  1  0.83732043  0.92387178  0.83814261  1
  Ca2+  Ca36  1  0.42270491  0.16344599  0.16284727  1
  Ca2+  Ca37  1  0.42090502  0.16425574  0.49327107  1
  Ca2+  Ca38  1  0.41492487  0.18003346  0.83197291  1
  Ca2+  Ca39  1  0.41090293  0.67891259  0.16322969  1
  Ca2+  Ca40  1  0.42357010  0.67442235  0.49715065  1
  Ca2+  Ca41  1  0.42282609  0.67055154  0.83052283  1
  Ca2+  Ca42  1  0.92680021  0.17445168  0.15833436  1
  Ca2+  Ca43  1  0.92211244  0.16777926  0.49145997  1
  Ca2+  Ca44  1  0.91660896  0.16236570  0.83677271  1
  Ca2+  Ca45  1  0.91855244  0.67498319  0.16394128  1
  Ca2+  Ca46  1  0.92055565  0.68159054  0.49239843  1
  Ca2+  Ca47  1  0.90871600  0.67857025  0.83256457  1
  Al0+  Al48  1  0.00058350  -0.00073605  0.00224646  1
  Al0+  Al49  1  0.00050799  0.00141542  0.32825393  1
  Al0+  Al50  1  0.00185760  0.00158664  0.66818627  1
  Al0+  Al51  1  0.00059071  0.50017448  0.00408117  1
  Al0+  Al52  1  -0.00225113  0.50237020  0.33579040  1
  Al0+  Al53  1  0.00017818  0.49941263  0.66826234  1
  Al0+  Al54  1  0.49950903  0.00008220  -0.00943576  1
  Al0+  Al55  1  0.50034035  -0.00002452  0.33059254  1
  Al0+  Al56  1  0.49954177  0.00210177  0.67302423  1
  Al0+  Al57  1  0.50096477  0.50121568  0.00343365  1
  Al0+  Al58  1  0.50014009  0.50020551  0.33517419  1
  Al0+  Al59  1  0.49768986  0.50136764  0.65610438  1
  Al0+  Al60  1  0.25158807  0.24831980  -0.00508534  1
  Al0+  Al61  1  0.25027534  0.24959682  0.34138495  1
  Al0+  Al62  1  0.24861097  0.25047798  0.66265587  1
  Al0+  Al63  1  0.24890561  0.75018654  -0.00064363  1
  Al0+  Al64  1  0.25016338  0.74712333  0.32971502  1
  Al0+  Al65  1  0.25035401  0.74714885  0.67054168  1
  Al0+  Al66  1  0.75020811  0.24875529  0.00363864  1
  Al0+  Al67  1  0.74827139  0.25010399  0.32953436  1
  Al0+  Al68  1  0.74859542  0.25091916  0.67120167  1
  Al0+  Al69  1  0.74933407  0.74997442  0.00256177  1
  Al0+  Al70  1  0.74921301  0.74844593  0.32915762  1
  Al0+  Al71  1  0.74960663  0.74981663  0.66101272  1
  Al0+  Al72  1  0.42816451  0.32063004  0.65047261  1
  Al0+  Al73  1  0.82199291  0.57294682  0.01683076  1
  Al0+  Al74  1  0.92933739  0.81962849  0.98502624  1
  Al0+  Al75  1  0.67802951  0.92623831  0.68114036  1
  Al0+  Al76  1  0.18122170  0.42761113  0.01263550  1
  Al0+  Al77  1  0.18166158  0.92877546  0.67896341  1
  Al0+  Al78  1  0.92857360  0.32231878  0.98417963  1
  Al0+  Al79  1  0.92783905  0.82297576  0.31741857  1
  Al0+  Al80  1  0.32222353  0.06934722  0.34640229  1
  Al0+  Al81  1  0.07427817  0.17942316  0.31869340  1
  Al0+  Al82  1  0.07162173  0.17879987  0.98284911  1
  Al0+  Al83  1  0.56940571  0.17857245  0.32070061  1
  Al0+  Al84  1  0.67738259  0.42819654  0.01555680  1
  Al0+  Al85  1  0.17977986  0.92897324  0.01565239  1
  Al0+  Al86  1  0.17874930  0.43015164  0.34862193  1
  Al0+  Al87  1  0.93198189  0.82129778  0.65409146  1
  Al0+  Al88  1  0.43160369  0.32017715  0.98913321  1
  Al0+  Al89  1  0.42634014  0.82233350  0.98408349  1
  Al0+  Al90  1  0.57051310  0.68150352  0.65314813  1
  Al0+  Al91  1  0.82068226  0.06945511  0.01680399  1
  Al0+  Al92  1  0.82229968  0.07216611  0.68136974  1
  Al0+  Al93  1  0.92782377  0.32094685  0.31974093  1
  Al0+  Al94  1  0.07107383  0.67928241  0.31874315  1
  Al0+  Al95  1  0.43113468  0.81987957  0.32219893  1
  Si0+  Si96  1  0.32219250  0.07469810  0.68483369  1
  Si0+  Si97  1  0.17853677  0.42830690  0.68227896  1
  Si0+  Si98  1  0.82090719  0.07088987  0.34695886  1
  Si0+  Si99  1  0.32419269  0.57354215  0.35258125  1
  Si0+  Si100  1  0.42798859  0.32272808  0.31775448  1
  Si0+  Si101  1  0.07216053  0.67680310  0.98218186  1
  Si0+  Si102  1  0.32272369  0.57229961  0.01703576  1
  Si0+  Si103  1  0.82091851  0.56995240  0.67963265  1
  Si0+  Si104  1  0.06942678  0.18013626  0.65044739  1
  Si0+  Si105  1  0.67705771  0.43091228  0.67892268  1
  Si0+  Si106  1  0.57288683  0.17846739  0.65088642  1
  Si0+  Si107  1  0.32305054  0.07127193  0.01449051  1
  Si0+  Si108  1  0.57029016  0.67998640  0.98495128  1
  Si0+  Si109  1  0.67586475  0.92823307  0.01713388  1
  Si0+  Si110  1  0.67748490  0.42793552  0.35103968  1
  Si0+  Si111  1  0.32202911  0.56875484  0.68147149  1
  Si0+  Si112  1  0.57297213  0.67510177  0.31393461  1
  Si0+  Si113  1  0.92750807  0.32338003  0.65357891  1
  Si0+  Si114  1  0.57473212  0.17655869  0.98004174  1
  Si0+  Si115  1  0.67913762  0.92880969  0.34572680  1
  Si0+  Si116  1  0.17761318  0.92604892  0.34903333  1
  Si0+  Si117  1  0.07363385  0.67422380  0.65125479  1
  Si0+  Si118  1  0.81881809  0.57179982  0.35174903  1
  Si0+  Si119  1  0.42557411  0.82334657  0.65178430  1
  O2-  O120  1  0.25786317  0.00072475  0.06043798  1
  O2-  O121  1  0.24601895  -0.00446658  0.39319776  1
  O2-  O122  1  0.25872927  0.00076120  0.72745904  1
  O2-  O123  1  0.25491916  0.50282885  0.06061629  1
  O2-  O124  1  0.25518711  0.50412411  0.39607001  1
  O2-  O125  1  0.25020449  0.49879541  0.72382646  1
  O2-  O126  1  0.74342799  -0.00345987  0.06337504  1
  O2-  O127  1  0.75442558  -0.00486692  0.38882075  1
  O2-  O128  1  0.75173915  -0.00282638  0.72988719  1
  O2-  O129  1  0.75507142  0.49455608  0.06562630  1
  O2-  O130  1  0.74790419  0.49968891  0.39397295  1
  O2-  O131  1  0.75028054  0.49871412  0.72186768  1
  O2-  O132  1  0.00275432  0.25238538  0.27038943  1
  O2-  O133  1  -0.00372049  0.25062410  0.61061351  1
  O2-  O134  1  -0.00114092  0.25021221  0.93159439  1
  O2-  O135  1  0.00376915  0.75475072  0.26840221  1
  O2-  O136  1  0.00764482  0.74642781  0.60897169  1
  O2-  O137  1  0.00275858  0.74399395  0.93687826  1
  O2-  O138  1  0.49525265  0.25342707  0.27372597  1
  O2-  O139  1  0.50124285  0.24364638  0.60551581  1
  O2-  O140  1  0.50859447  0.24962406  0.93858285  1
  O2-  O141  1  0.50295395  0.74342153  0.27255992  1
  O2-  O142  1  0.50032347  0.76135657  0.60726546  1
  O2-  O143  1  0.50263693  0.74861335  0.93910350  1
  O2-  O144  1  0.07412156  0.18082634  0.09602344  1
  O2-  O145  1  0.07076030  0.17864389  0.43339240  1
  O2-  O146  1  0.07234601  0.18108279  0.75503868  1
  O2-  O147  1  0.07310237  0.67885749  0.08753689  1
  O2-  O148  1  0.06767510  0.68073807  0.43322293  1
  O2-  O149  1  0.07258472  0.66790931  0.75624191  1
  O2-  O150  1  0.57117591  0.17333664  0.08579881  1
  O2-  O151  1  0.57003624  0.17949830  0.43426608  1
  O2-  O152  1  0.57428226  0.18231503  0.75598822  1
  O2-  O153  1  0.56831585  0.68055516  0.09049077  1
  O2-  O154  1  0.57382566  0.67606263  0.41999321  1
  O2-  O155  1  0.56686606  0.67670433  0.76585381  1
  O2-  O156  1  0.18109294  0.42944392  0.23591173  1
  O2-  O157  1  0.17731516  0.42942866  0.57728388  1
  O2-  O158  1  0.18442604  0.42957342  0.89869810  1
  O2-  O159  1  0.17959736  0.92548346  0.24382755  1
  O2-  O160  1  0.18208813  0.93056241  0.56556417  1
  O2-  O161  1  0.18050923  0.92996356  0.90202328  1
  O2-  O162  1  0.67477129  0.42894166  0.24676970  1
  O2-  O163  1  0.67934738  0.43088671  0.57348266  1
  O2-  O164  1  0.67390149  0.43498567  0.90104959  1
  O2-  O165  1  0.67691536  0.93106523  0.24093770  1
  O2-  O166  1  0.67904987  0.92828509  0.56668523  1
  O2-  O167  1  0.67691018  0.92827106  0.91151721  1
  O2-  O168  1  0.43062339  0.31668812  0.10200605  1
  O2-  O169  1  0.43124909  0.32265719  0.42379261  1
  O2-  O170  1  0.42970496  0.32303579  0.76362146  1
  O2-  O171  1  0.42766519  0.82208575  0.09742920  1
  O2-  O172  1  0.43441661  0.81980824  0.43573111  1
  O2-  O173  1  0.42325741  0.81721495  0.75695900  1
  O2-  O174  1  0.93215647  0.32094705  0.09737166  1
  O2-  O175  1  0.92670607  0.31744774  0.43483925  1
  O2-  O176  1  0.92973013  0.32833456  0.75772949  1
  O2-  O177  1  0.93055153  0.81877162  0.09765465  1
  O2-  O178  1  0.92638804  0.82258146  0.43171835  1
  O2-  O179  1  0.93158270  0.81988694  0.76689300  1
  O2-  O180  1  0.32473358  0.06720532  0.23362350  1
  O2-  O181  1  0.32139930  0.07517370  0.57898467  1
  O2-  O182  1  0.32136373  0.07157687  0.90863952  1
  O2-  O183  1  0.32820185  0.57333554  0.24754798  1
  O2-  O184  1  0.32212624  0.56948530  0.57660046  1
  O2-  O185  1  0.32340515  0.57064292  0.91067296  1
  O2-  O186  1  0.81856777  0.07199358  0.24236084  1
  O2-  O187  1  0.82157273  0.07326995  0.56692485  1
  O2-  O188  1  0.81975111  0.06702228  0.90356439  1
  O2-  O189  1  0.81735169  0.57289877  0.24733077  1
  O2-  O190  1  0.82123176  0.56779884  0.57430803  1
  O2-  O191  1  0.81692551  0.57517807  0.90214790  1
  O2-  O192  1  0.04797283  0.08154696  0.26594807  1
  O2-  O193  1  0.04283334  0.08879231  0.60208590  1
  O2-  O194  1  0.04034111  0.08055612  0.93157768  1
  O2-  O195  1  0.03692866  0.58284598  0.26674098  1
  O2-  O196  1  0.04423535  0.58206642  0.60266742  1
  O2-  O197  1  0.04924749  0.58224627  0.93727302  1
  O2-  O198  1  0.53926446  0.08390699  0.26397732  1
  O2-  O199  1  0.54938254  0.08300013  0.60684696  1
  O2-  O200  1  0.54610550  0.08567553  0.92992595  1
  O2-  O201  1  0.54791795  0.58073871  0.26994616  1
  O2-  O202  1  0.53497384  0.58860681  0.59354392  1
  O2-  O203  1  0.54387994  0.58672161  0.93838314  1
  O2-  O204  1  0.17401719  0.20718437  0.26945187  1
  O2-  O205  1  0.16023671  0.20963128  0.60160166  1
  O2-  O206  1  0.16912749  0.20780551  0.92758697  1
  O2-  O207  1  0.17203734  0.69585023  0.26733387  1
  O2-  O208  1  0.16899516  0.69643790  0.60694149  1
  O2-  O209  1  0.16582779  0.70194456  0.93560166  1
  O2-  O210  1  0.66394568  0.21081800  0.26504365  1
  O2-  O211  1  0.66552638  0.20744943  0.60343236  1
  O2-  O212  1  0.66929136  0.19890254  0.93624548  1
  O2-  O213  1  0.66551883  0.70044562  0.26730396  1
  O2-  O214  1  0.66679780  0.70646036  0.59491045  1
  O2-  O215  1  0.66366974  0.70506680  0.93859419  1
  O2-  O216  1  0.08527728  0.45705951  0.06713279  1
  O2-  O217  1  0.08222067  0.46308799  0.40392427  1
  O2-  O218  1  0.08701785  0.45644154  0.73031536  1
  O2-  O219  1  0.08468759  0.96067678  0.06992963  1
  O2-  O220  1  0.08346093  0.95316254  0.39427240  1
  O2-  O221  1  0.08714097  0.96401406  0.73351130  1
  O2-  O222  1  0.58195871  0.46256590  0.07244322  1
  O2-  O223  1  0.58556740  0.45583201  0.40004464  1
  O2-  O224  1  0.58486262  0.46290908  0.72267945  1
  O2-  O225  1  0.58045340  0.95507836  0.05945623  1
  O2-  O226  1  0.58977651  0.96059000  0.39538513  1
  O2-  O227  1  0.57927652  0.95304879  0.73523016  1
  O2-  O228  1  0.21556406  0.33134659  0.06487278  1
  O2-  O229  1  0.20927738  0.33491875  0.40673132  1
  O2-  O230  1  0.20672558  0.33601345  0.72784714  1
  O2-  O231  1  0.20894580  0.83110851  0.06783290  1
  O2-  O232  1  0.20390324  0.83203428  0.39456831  1
  O2-  O233  1  0.20771261  0.83060381  0.73336178  1
  O2-  O234  1  0.69614429  0.32711817  0.06533253  1
  O2-  O235  1  0.70641292  0.33606964  0.39875896  1
  O2-  O236  1  0.69897722  0.33861180  0.72721740  1
  O2-  O237  1  0.69870614  0.83446533  0.06329668  1
  O2-  O238  1  0.70141350  0.83388024  0.39063740  1
  O2-  O239  1  0.70320104  0.82573173  0.73126483  1
  O2-  O240  1  0.45394880  0.41660124  0.27320085  1
  O2-  O241  1  0.45970187  0.41497878  0.59302355  1
  O2-  O242  1  0.45970278  0.41893589  0.93600635  1
  O2-  O243  1  0.46424480  0.91376510  0.26556830  1
  O2-  O244  1  0.44365805  0.92112747  0.61188809  1
  O2-  O245  1  0.45467668  0.91791460  0.92712213  1
  O2-  O246  1  0.95053863  0.42209331  0.27305163  1
  O2-  O247  1  0.95765685  0.41406378  0.60362602  1
  O2-  O248  1  0.95602651  0.42245727  0.93335888  1
  O2-  O249  1  0.95223413  0.92184232  0.26555342  1
  O2-  O250  1  0.96324939  0.91812865  0.60025247  1
  O2-  O251  1  0.96296730  0.91549755  0.93235204  1
  O2-  O252  1  0.33316611  0.29807268  0.27663386  1
  O2-  O253  1  0.33094914  0.29094048  0.59667675  1
  O2-  O254  1  0.33796882  0.28758144  0.93023376  1
  O2-  O255  1  0.33467416  0.79069778  0.26785178  1
  O2-  O256  1  0.33485811  0.78988813  0.60386801  1
  O2-  O257  1  0.33114490  0.78781506  0.92978247  1
  O2-  O258  1  0.83020610  0.29338139  0.26689730  1
  O2-  O259  1  0.83334593  0.29935947  0.60847036  1
  O2-  O260  1  0.82768810  0.29617333  0.93465842  1
  O2-  O261  1  0.83043026  0.79074011  0.26492467  1
  O2-  O262  1  0.83616047  0.78998455  0.59881198  1
  O2-  O263  1  0.83084174  0.78975831  0.93336711  1
  O2-  O264  1  0.41906704  0.04825133  0.05682996  1
  O2-  O265  1  0.41809367  0.03568615  0.40237750  1
  O2-  O266  1  0.41758987  0.05846087  0.73046663  1
  O2-  O267  1  0.41615572  0.55004980  0.06386893  1
  O2-  O268  1  0.41828791  0.54804454  0.39992403  1
  O2-  O269  1  0.41363112  0.53839591  0.72794659  1
  O2-  O270  1  0.91614714  0.03671361  0.07041596  1
  O2-  O271  1  0.91454494  0.04719971  0.39354186  1
  O2-  O272  1  0.92066050  0.04519345  0.73379573  1
  O2-  O273  1  0.92152866  0.54985298  0.06884346  1
  O2-  O274  1  0.90969382  0.54548676  0.40185092  1
  O2-  O275  1  0.91256739  0.54315094  0.72788834  1
  O2-  O276  1  0.29624254  0.16397140  0.06088499  1
  O2-  O277  1  0.29503625  0.16534761  0.40440912  1
  O2-  O278  1  0.28997255  0.16718048  0.72978867  1
  O2-  O279  1  0.29544498  0.66550608  0.06210814  1
  O2-  O280  1  0.29752660  0.66663830  0.40035521  1
  O2-  O281  1  0.29673835  0.66002726  0.73150217  1
  O2-  O282  1  0.79146882  0.16616483  0.07092249  1
  O2-  O283  1  0.78844515  0.16154089  0.39479427  1
  O2-  O284  1  0.79187942  0.16998317  0.73583566  1
  O2-  O285  1  0.78676648  0.66843871  0.07213020  1
  O2-  O286  1  0.78777094  0.66345822  0.39947239  1
  O2-  O287  1  0.79191862  0.66179986  0.72504026  1
