# generated using pymatgen
data_Ca2Al2SiO7
_symmetry_space_group_name_H-M   'P 1'
_cell_length_a   15.46624415
_cell_length_b   15.46750654
_cell_length_c   15.28881722
_cell_angle_alpha   90.01655705
_cell_angle_beta   90.00105867
_cell_angle_gamma   89.98529587
_symmetry_Int_Tables_number   1
_chemical_formula_structural   Ca2Al2SiO7
_chemical_formula_sum   'Ca48 Al48 Si24 O168'
_cell_volume   3657.45529252
_cell_formula_units_Z   24
loop_
 _symmetry_equiv_pos_site_id
 _symmetry_equiv_pos_as_xyz
  1  'x, y, z'
loop_
 _atom_type_symbol
 _atom_type_oxidation_number
  Ca2+  2.0
  Al0+  0.0
  Si0+  0.0
  O2-  -2.0
loop_
 _atom_site_type_symbol
 _atom_site_label
 _atom_site_symmetry_multiplicity
 _atom_site_fract_x
 _atom_site_fract_y
 _atom_site_fract_z
 _atom_site_occupancy
  Ca2+  Ca0  1  0.16189522  0.07019497  0.17331665  1
  Ca2+  Ca1  1  0.16080543  0.07191192  0.49946132  1
  Ca2+  Ca2  1  0.16698006  0.07110448  0.83965204  1
  Ca2+  Ca3  1  0.16403979  0.58561783  0.16633856  1
  Ca2+  Ca4  1  0.16490313  0.58635687  0.49897351  1
  Ca2+  Ca5  1  0.17100328  0.57976403  0.84841644  1
  Ca2+  Ca6  1  0.67374400  0.08235500  0.16469533  1
  Ca2+  Ca7  1  0.67262732  0.08027924  0.50436399  1
  Ca2+  Ca8  1  0.66781226  0.07774843  0.84165755  1
  Ca2+  Ca9  1  0.67470202  0.58303877  0.17342393  1
  Ca2+  Ca10  1  0.67485843  0.57817599  0.50298491  1
  Ca2+  Ca11  1  0.66504178  0.57608024  0.83600191  1
  Ca2+  Ca12  1  0.08063340  0.32887690  0.16465083  1
  Ca2+  Ca13  1  0.07757609  0.32266548  0.48668458  1
  Ca2+  Ca14  1  0.08591217  0.33345242  0.83342340  1
  Ca2+  Ca15  1  0.07770803  0.82955972  0.16156485  1
  Ca2+  Ca16  1  0.07539741  0.83449911  0.49117166  1
  Ca2+  Ca17  1  0.07366574  0.84134987  0.83316924  1
  Ca2+  Ca18  1  0.57299351  0.32804143  0.15823042  1
  Ca2+  Ca19  1  0.58373344  0.33046741  0.49633639  1
  Ca2+  Ca20  1  0.58546098  0.32126401  0.82889896  1
  Ca2+  Ca21  1  0.57254055  0.84011010  0.15902457  1
  Ca2+  Ca22  1  0.57699578  0.83986352  0.49556274  1
  Ca2+  Ca23  1  0.57887228  0.84470510  0.83160648  1
  Ca2+  Ca24  1  0.33372102  0.41678578  0.16692952  1
  Ca2+  Ca25  1  0.33586037  0.41575434  0.50109145  1
  Ca2+  Ca26  1  0.32880990  0.42297061  0.84763936  1
  Ca2+  Ca27  1  0.32318671  0.90450853  0.16976892  1
  Ca2+  Ca28  1  0.32012437  0.90950139  0.50072217  1
  Ca2+  Ca29  1  0.32210766  0.91175060  0.84276736  1
  Ca2+  Ca30  1  0.83628265  0.42317754  0.17628246  1
  Ca2+  Ca31  1  0.83823876  0.42367621  0.50058126  1
  Ca2+  Ca32  1  0.82670326  0.41595396  0.83721616  1
  Ca2+  Ca33  1  0.83735182  0.92320343  0.17091721  1
  Ca2+  Ca34  1  0.83661154  0.92027509  0.50454320  1
  Ca2+  Ca35  1  0.82527107  0.91684416  0.84307443  1
  Ca2+  Ca36  1  0.41989133  0.17582266  0.15751791  1
  Ca2+  Ca37  1  0.42580907  0.16979878  0.49290033  1
  Ca2+  Ca38  1  0.43047036  0.16413360  0.83219571  1
  Ca2+  Ca39  1  0.41449637  0.67460640  0.16175686  1
  Ca2+  Ca40  1  0.42186185  0.67284680  0.49255529  1
  Ca2+  Ca41  1  0.41207334  0.66971719  0.83946697  1
  Ca2+  Ca42  1  0.91528404  0.16312642  0.16790594  1
  Ca2+  Ca43  1  0.91959567  0.17024902  0.48844981  1
  Ca2+  Ca44  1  0.91396375  0.16257358  0.83493945  1
  Ca2+  Ca45  1  0.92348740  0.67540255  0.16306058  1
  Ca2+  Ca46  1  0.91967723  0.67844762  0.48953971  1
  Ca2+  Ca47  1  0.92151093  0.67937070  0.83252217  1
  Al0+  Al48  1  -0.00069321  0.00138017  0.00285337  1
  Al0+  Al49  1  -0.00072043  0.00009056  0.33649283  1
  Al0+  Al50  1  0.00099296  0.00116268  0.66717806  1
  Al0+  Al51  1  -0.00025788  0.49924998  -0.00139857  1
  Al0+  Al52  1  0.00055650  0.49940201  0.33417759  1
  Al0+  Al53  1  0.00164109  0.50169276  0.66816387  1
  Al0+  Al54  1  0.49949636  0.00084532  -0.00489161  1
  Al0+  Al55  1  0.49861411  0.00081520  0.32909602  1
  Al0+  Al56  1  0.50061876  0.00232964  0.66182567  1
  Al0+  Al57  1  0.49796429  0.50090139  0.00107251  1
  Al0+  Al58  1  0.49951126  0.49967418  0.33138995  1
  Al0+  Al59  1  0.50088800  0.50087694  0.67059466  1
  Al0+  Al60  1  0.24774765  0.25065538  -0.00150320  1
  Al0+  Al61  1  0.25115164  0.24881967  0.32781250  1
  Al0+  Al62  1  0.25145907  0.25085143  0.66654477  1
  Al0+  Al63  1  0.25121268  0.74716411  0.00027083  1
  Al0+  Al64  1  0.25100035  0.74794348  0.33382451  1
  Al0+  Al65  1  0.24979559  0.74943460  0.67121533  1
  Al0+  Al66  1  0.74987240  0.24960174  0.00035008  1
  Al0+  Al67  1  0.74904799  0.24834691  0.33378827  1
  Al0+  Al68  1  0.75027480  0.25140030  0.66481065  1
  Al0+  Al69  1  0.74815745  0.74909811  -0.00003937  1
  Al0+  Al70  1  0.74927047  0.74835697  0.33631600  1
  Al0+  Al71  1  0.75017771  0.75088453  0.66646342  1
  Al0+  Al72  1  0.82304820  0.57109745  0.34738008  1
  Al0+  Al73  1  0.57155182  0.18063726  0.98388347  1
  Al0+  Al74  1  0.68065700  0.42961687  0.68021267  1
  Al0+  Al75  1  0.17637401  0.42702601  0.01751989  1
  Al0+  Al76  1  0.42979477  0.32173084  0.31960873  1
  Al0+  Al77  1  0.67643616  0.92723849  0.01542301  1
  Al0+  Al78  1  0.07016209  0.67859564  0.98415374  1
  Al0+  Al79  1  0.17966683  0.92995443  0.68167231  1
  Al0+  Al80  1  0.18086376  0.92792115  0.34718211  1
  Al0+  Al81  1  0.92806383  0.82351008  0.98495181  1
  Al0+  Al82  1  0.43021900  0.82074534  0.32114005  1
  Al0+  Al83  1  0.32133854  0.57011422  0.01866712  1
  Al0+  Al84  1  0.07100540  0.17750274  0.31777428  1
  Al0+  Al85  1  0.42673051  0.32238218  0.98280399  1
  Al0+  Al86  1  0.17973127  0.92888858  0.01453058  1
  Al0+  Al87  1  0.81977498  0.06973634  0.34889090  1
  Al0+  Al88  1  0.92663727  0.82212138  0.31897205  1
  Al0+  Al89  1  0.42996795  0.82008996  0.98550038  1
  Al0+  Al90  1  0.92890704  0.82151269  0.65236250  1
  Al0+  Al91  1  0.07192717  0.67851561  0.31926675  1
  Al0+  Al92  1  0.67838831  0.92951852  0.67889327  1
  Al0+  Al93  1  0.92754198  0.32059906  0.31902564  1
  Al0+  Al94  1  0.57232104  0.17908235  0.64934989  1
  Al0+  Al95  1  0.82036210  0.07132731  0.01590766  1
  Si0+  Si96  1  0.92857227  0.32160054  0.98433269  1
  Si0+  Si97  1  0.07243961  0.18069773  0.65271789  1
  Si0+  Si98  1  0.92993266  0.32287449  0.65274001  1
  Si0+  Si99  1  0.32189556  0.56920121  0.35072823  1
  Si0+  Si100  1  0.32234261  0.07375016  0.68224464  1
  Si0+  Si101  1  0.18005151  0.42674253  0.34944073  1
  Si0+  Si102  1  0.32170084  0.07195344  0.01512762  1
  Si0+  Si103  1  0.57177693  0.67732071  0.31826702  1
  Si0+  Si104  1  0.32301756  0.07395086  0.34948814  1
  Si0+  Si105  1  0.42849615  0.82025183  0.65199497  1
  Si0+  Si106  1  0.07305575  0.67780212  0.65029677  1
  Si0+  Si107  1  0.82059399  0.57046865  0.01380634  1
  Si0+  Si108  1  0.82355295  0.57270905  0.68530217  1
  Si0+  Si109  1  0.67703297  0.42904640  0.34862884  1
  Si0+  Si110  1  0.82227323  0.07261301  0.68241620  1
  Si0+  Si111  1  0.32145708  0.57063574  0.68177672  1
  Si0+  Si112  1  0.57347808  0.67664832  0.98282765  1
  Si0+  Si113  1  0.42938068  0.32321674  0.65010570  1
  Si0+  Si114  1  0.67528451  0.92777529  0.34946136  1
  Si0+  Si115  1  0.17961391  0.42824607  0.67996038  1
  Si0+  Si116  1  0.67930128  0.42903896  0.01484173  1
  Si0+  Si117  1  0.57231507  0.17724619  0.31482575  1
  Si0+  Si118  1  0.57075822  0.67684113  0.65192457  1
  Si0+  Si119  1  0.07032236  0.17851689  0.98384714  1
  O2-  O120  1  0.25599836  0.00199324  0.06119134  1
  O2-  O121  1  0.25541352  0.00406609  0.39408758  1
  O2-  O122  1  0.25575103  0.00380999  0.72740775  1
  O2-  O123  1  0.24922879  0.49770994  0.06779528  1
  O2-  O124  1  0.25110377  0.49775441  0.39333653  1
  O2-  O125  1  0.24959706  0.49965861  0.72167693  1
  O2-  O126  1  0.75157161  -0.00428864  0.06501945  1
  O2-  O127  1  0.74669807  -0.00710320  0.39502132  1
  O2-  O128  1  0.75422518  0.00304852  0.72516817  1
  O2-  O129  1  0.74836519  0.50106675  0.05702313  1
  O2-  O130  1  0.74907801  0.49425865  0.39332814  1
  O2-  O131  1  0.75574182  0.50285577  0.72941224  1
  O2-  O132  1  -0.00184628  0.24864084  0.26754563  1
  O2-  O133  1  0.00153767  0.25234704  0.61154670  1
  O2-  O134  1  -0.00025093  0.25080163  0.94170522  1
  O2-  O135  1  -0.00041139  0.75040238  0.27076455  1
  O2-  O136  1  0.00450339  0.74644659  0.60700197  1
  O2-  O137  1  0.00187168  0.75354639  0.93351472  1
  O2-  O138  1  0.50290308  0.24633107  0.27319654  1
  O2-  O139  1  0.49702427  0.25466650  0.60438995  1
  O2-  O140  1  0.49914390  0.25181074  0.93212806  1
  O2-  O141  1  0.50862394  0.75047648  0.27458785  1
  O2-  O142  1  0.50263705  0.75151932  0.61034690  1
  O2-  O143  1  0.50825923  0.74881431  0.93832376  1
  O2-  O144  1  0.07063499  0.17836576  0.08825002  1
  O2-  O145  1  0.07090429  0.18073320  0.43256581  1
  O2-  O146  1  0.07311889  0.18209356  0.75788609  1
  O2-  O147  1  0.06587076  0.67709108  0.09719540  1
  O2-  O148  1  0.07203502  0.68024805  0.43384875  1
  O2-  O149  1  0.07257316  0.67415970  0.75520770  1
  O2-  O150  1  0.57179323  0.18416960  0.09738728  1
  O2-  O151  1  0.57155380  0.17765204  0.42095871  1
  O2-  O152  1  0.57217802  0.17975459  0.76177681  1
  O2-  O153  1  0.57370208  0.67361531  0.08824428  1
  O2-  O154  1  0.56827070  0.67401910  0.42442963  1
  O2-  O155  1  0.56831521  0.67251226  0.75645324  1
  O2-  O156  1  0.18023251  0.42614485  0.24527822  1
  O2-  O157  1  0.17993176  0.42680453  0.57483719  1
  O2-  O158  1  0.17649956  0.42894113  0.90261851  1
  O2-  O159  1  0.18287813  0.92720212  0.23464927  1
  O2-  O160  1  0.18057413  0.92968060  0.56851413  1
  O2-  O161  1  0.17966874  0.93294424  0.90078047  1
  O2-  O162  1  0.67488719  0.43291253  0.24310414  1
  O2-  O163  1  0.68050075  0.43261882  0.56722763  1
  O2-  O164  1  0.68216719  0.42925026  0.90928564  1
  O2-  O165  1  0.67227700  0.92986987  0.24456138  1
  O2-  O166  1  0.67692068  0.93152930  0.56569882  1
  O2-  O167  1  0.67745541  0.93024405  0.90127718  1
  O2-  O168  1  0.43032356  0.32050737  0.09650773  1
  O2-  O169  1  0.43226454  0.32217316  0.43351790  1
  O2-  O170  1  0.42858326  0.32308339  0.75481126  1
  O2-  O171  1  0.43036706  0.81772404  0.09843887  1
  O2-  O172  1  0.43058161  0.81732452  0.43530187  1
  O2-  O173  1  0.42704265  0.81857088  0.75669898  1
  O2-  O174  1  0.92726822  0.32321136  0.08874083  1
  O2-  O175  1  0.93134832  0.32071862  0.43361363  1
  O2-  O176  1  0.93060757  0.32405424  0.75801735  1
  O2-  O177  1  0.92819597  0.82178821  0.09793901  1
  O2-  O178  1  0.92819085  0.82093811  0.43334401  1
  O2-  O179  1  0.92862922  0.82118195  0.76503748  1
  O2-  O180  1  0.32357342  0.07516662  0.24445741  1
  O2-  O181  1  0.32017365  0.07582549  0.57668544  1
  O2-  O182  1  0.31868965  0.07080554  0.90891666  1
  O2-  O183  1  0.32458346  0.56882461  0.24680801  1
  O2-  O184  1  0.32268665  0.57112375  0.57629002  1
  O2-  O185  1  0.32055443  0.56882391  0.90394443  1
  O2-  O186  1  0.81685585  0.07183789  0.23667491  1
  O2-  O187  1  0.82264718  0.07324181  0.57681263  1
  O2-  O188  1  0.81907675  0.07345771  0.90166242  1
  O2-  O189  1  0.81939994  0.56976411  0.23419619  1
  O2-  O190  1  0.82405859  0.57051743  0.57975359  1
  O2-  O191  1  0.81943355  0.56735084  0.90830175  1
  O2-  O192  1  0.04225692  0.07955333  0.26698533  1
  O2-  O193  1  0.04418928  0.08949936  0.60511986  1
  O2-  O194  1  0.04020663  0.08855426  0.93409189  1
  O2-  O195  1  0.04572798  0.57931449  0.26917224  1
  O2-  O196  1  0.04877527  0.58314677  0.60380134  1
  O2-  O197  1  0.03853315  0.58052795  0.93005135  1
  O2-  O198  1  0.54624880  0.08472530  0.26837096  1
  O2-  O199  1  0.53988634  0.08407606  0.59252568  1
  O2-  O200  1  0.54229255  0.08328101  0.92922387  1
  O2-  O201  1  0.54172603  0.58635493  0.27006553  1
  O2-  O202  1  0.53826764  0.58719393  0.60195927  1
  O2-  O203  1  0.54291045  0.58482004  0.93495370  1
  O2-  O204  1  0.16885096  0.20483124  0.26513759  1
  O2-  O205  1  0.16409255  0.20865982  0.60479487  1
  O2-  O206  1  0.16104039  0.20593792  0.93370262  1
  O2-  O207  1  0.17094682  0.70423784  0.26826677  1
  O2-  O208  1  0.16797449  0.70247395  0.60580331  1
  O2-  O209  1  0.17064330  0.70147439  0.93407520  1
  O2-  O210  1  0.66502173  0.20379229  0.26948922  1
  O2-  O211  1  0.66868975  0.21221532  0.59572028  1
  O2-  O212  1  0.66922373  0.21242508  0.93025456  1
  O2-  O213  1  0.66700823  0.69638130  0.27456333  1
  O2-  O214  1  0.66390866  0.70037776  0.60550426  1
  O2-  O215  1  0.66772043  0.69573104  0.93535062  1
  O2-  O216  1  0.07693322  0.45481992  0.06813370  1
  O2-  O217  1  0.08896175  0.45451194  0.39880762  1
  O2-  O218  1  0.08725324  0.45388267  0.72780596  1
  O2-  O219  1  0.08438957  0.96231166  0.06740553  1
  O2-  O220  1  0.08522254  0.96019083  0.40251136  1
  O2-  O221  1  0.08433577  0.96514307  0.73549543  1
  O2-  O222  1  0.58709026  0.45575282  0.06064541  1
  O2-  O223  1  0.58530936  0.45953259  0.39718553  1
  O2-  O224  1  0.58483870  0.46164467  0.73531839  1
  O2-  O225  1  0.57806563  0.95963775  0.06614471  1
  O2-  O226  1  0.58211281  0.95765641  0.39626167  1
  O2-  O227  1  0.58053266  0.96090383  0.73048068  1
  O2-  O228  1  0.20203813  0.32719513  0.06811300  1
  O2-  O229  1  0.20966042  0.33496048  0.39724323  1
  O2-  O230  1  0.20668500  0.33665908  0.72865912  1
  O2-  O231  1  0.21080063  0.83200414  0.06527172  1
  O2-  O232  1  0.21518901  0.83229738  0.40284055  1
  O2-  O233  1  0.20992870  0.83303969  0.73518236  1
  O2-  O234  1  0.70876116  0.33874524  0.06254716  1
  O2-  O235  1  0.69798492  0.33397766  0.39293138  1
  O2-  O236  1  0.71298505  0.33361831  0.73452666  1
  O2-  O237  1  0.69620623  0.82541186  0.06487437  1
  O2-  O238  1  0.69401022  0.83189528  0.39411197  1
  O2-  O239  1  0.70373943  0.83091013  0.73165310  1
  O2-  O240  1  0.46102206  0.41764851  0.26526623  1
  O2-  O241  1  0.45593514  0.41739475  0.60477766  1
  O2-  O242  1  0.45446921  0.42210026  0.93267719  1
  O2-  O243  1  0.45428803  0.91824210  0.26676083  1
  O2-  O244  1  0.45322463  0.91243347  0.60417872  1
  O2-  O245  1  0.45549527  0.91726275  0.92980850  1
  O2-  O246  1  0.95699287  0.41848390  0.26761293  1
  O2-  O247  1  0.95769235  0.41549978  0.60616343  1
  O2-  O248  1  0.95563776  0.41199829  0.93357667  1
  O2-  O249  1  0.95446956  0.92070217  0.26942237  1
  O2-  O250  1  0.96074692  0.91914415  0.60034611  1
  O2-  O251  1  0.95670132  0.92256194  0.93250261  1
  O2-  O252  1  0.33366478  0.29387437  0.26543882  1
  O2-  O253  1  0.33481841  0.29863190  0.60390658  1
  O2-  O254  1  0.32694813  0.29609626  0.93150822  1
  O2-  O255  1  0.33644739  0.78382085  0.26813163  1
  O2-  O256  1  0.33756531  0.78755569  0.60496432  1
  O2-  O257  1  0.33547140  0.78461136  0.92995163  1
  O2-  O258  1  0.82768348  0.29613963  0.26824382  1
  O2-  O259  1  0.83885991  0.29630556  0.60444534  1
  O2-  O260  1  0.83747972  0.29263876  0.93553786  1
  O2-  O261  1  0.82708150  0.79378795  0.26925510  1
  O2-  O262  1  0.83186223  0.79088916  0.59857619  1
  O2-  O263  1  0.82939563  0.79149641  0.93327306  1
  O2-  O264  1  0.41662220  0.05066296  0.05857679  1
  O2-  O265  1  0.41722256  0.04835294  0.39567541  1
  O2-  O266  1  0.41678356  0.04874982  0.72564086  1
  O2-  O267  1  0.42064180  0.54374987  0.07138210  1
  O2-  O268  1  0.41359463  0.54012446  0.39971469  1
  O2-  O269  1  0.41240303  0.54334133  0.73036527  1
  O2-  O270  1  0.91958315  0.04761111  0.06811248  1
  O2-  O271  1  0.91668186  0.04278015  0.40477359  1
  O2-  O272  1  0.91650476  0.04958335  0.72818630  1
  O2-  O273  1  0.91063963  0.53896021  0.06068542  1
  O2-  O274  1  0.91837951  0.53916509  0.40443456  1
  O2-  O275  1  0.91735207  0.54655707  0.73115663  1
  O2-  O276  1  0.29446405  0.16542841  0.05967292  1
  O2-  O277  1  0.29751063  0.16748359  0.39698845  1
  O2-  O278  1  0.29635422  0.16713527  0.72940907  1
  O2-  O279  1  0.29350184  0.66818366  0.07098750  1
  O2-  O280  1  0.29345048  0.65971618  0.40085726  1
  O2-  O281  1  0.29414536  0.66161041  0.73066945  1
  O2-  O282  1  0.79000512  0.16976062  0.06862014  1
  O2-  O283  1  0.78830837  0.16707581  0.40376127  1
  O2-  O284  1  0.79741228  0.16698851  0.72701921  1
  O2-  O285  1  0.79386668  0.66176472  0.06158509  1
  O2-  O286  1  0.78933228  0.66565935  0.40503261  1
  O2-  O287  1  0.79507420  0.66517121  0.73066573  1
