# generated using pymatgen
data_Ca2Al2SiO7
_symmetry_space_group_name_H-M   'P 1'
_cell_length_a   15.46575661
_cell_length_b   15.46698086
_cell_length_c   15.29046467
_cell_angle_alpha   90.01190452
_cell_angle_beta   90.01822690
_cell_angle_gamma   90.02084210
_symmetry_Int_Tables_number   1
_chemical_formula_structural   Ca2Al2SiO7
_chemical_formula_sum   'Ca48 Al48 Si24 O168'
_cell_volume   3657.60955300
_cell_formula_units_Z   24
loop_
 _symmetry_equiv_pos_site_id
 _symmetry_equiv_pos_as_xyz
  1  'x, y, z'
loop_
 _atom_type_symbol
 _atom_type_oxidation_number
  Ca2+  2.0
  Al0+  0.0
  Si0+  0.0
  O2-  -2.0
loop_
 _atom_site_type_symbol
 _atom_site_label
 _atom_site_symmetry_multiplicity
 _atom_site_fract_x
 _atom_site_fract_y
 _atom_site_fract_z
 _atom_site_occupancy
  Ca2+  Ca0  1  0.15175294  0.07737388  0.17187904  1
  Ca2+  Ca1  1  0.16820011  0.07924759  0.50352379  1
  Ca2+  Ca2  1  0.16654189  0.08018268  0.83815387  1
  Ca2+  Ca3  1  0.16470753  0.56834184  0.17156158  1
  Ca2+  Ca4  1  0.16548471  0.56866832  0.50079165  1
  Ca2+  Ca5  1  0.16077180  0.57065204  0.83565392  1
  Ca2+  Ca6  1  0.67198348  0.08315370  0.17775625  1
  Ca2+  Ca7  1  0.67639476  0.08869959  0.50424709  1
  Ca2+  Ca8  1  0.67307899  0.08482341  0.83398757  1
  Ca2+  Ca9  1  0.67399832  0.57651980  0.18004422  1
  Ca2+  Ca10  1  0.66909703  0.57441557  0.49648111  1
  Ca2+  Ca11  1  0.66757777  0.57391752  0.83392084  1
  Ca2+  Ca12  1  0.07671565  0.32725907  0.16168471  1
  Ca2+  Ca13  1  0.07516288  0.32991935  0.48926747  1
  Ca2+  Ca14  1  0.07520319  0.33721281  0.82733977  1
  Ca2+  Ca15  1  0.07870179  0.83682325  0.15892250  1
  Ca2+  Ca16  1  0.08827073  0.83455878  0.49364722  1
  Ca2+  Ca17  1  0.08282436  0.84081289  0.83187406  1
  Ca2+  Ca18  1  0.58987731  0.32084723  0.16748262  1
  Ca2+  Ca19  1  0.57752693  0.33344274  0.48759910  1
  Ca2+  Ca20  1  0.58448012  0.32718569  0.82859220  1
  Ca2+  Ca21  1  0.59349774  0.82637540  0.16727929  1
  Ca2+  Ca22  1  0.59317827  0.83099580  0.49147855  1
  Ca2+  Ca23  1  0.58406422  0.83331488  0.82493418  1
  Ca2+  Ca24  1  0.32290429  0.40548466  0.17141176  1
  Ca2+  Ca25  1  0.31984517  0.40239250  0.49899618  1
  Ca2+  Ca26  1  0.31800028  0.41260943  0.83673705  1
  Ca2+  Ca27  1  0.31980858  0.91977469  0.17215640  1
  Ca2+  Ca28  1  0.32452690  0.92470946  0.50619980  1
  Ca2+  Ca29  1  0.32326648  0.92321698  0.83476979  1
  Ca2+  Ca30  1  0.83496084  0.41845971  0.17805685  1
  Ca2+  Ca31  1  0.82415510  0.40751270  0.50124945  1
  Ca2+  Ca32  1  0.83197503  0.40580274  0.83394235  1
  Ca2+  Ca33  1  0.83336757  0.92571989  0.17720963  1
  Ca2+  Ca34  1  0.82366106  0.93318188  0.50082497  1
  Ca2+  Ca35  1  0.83522438  0.92359201  0.83487282  1
  Ca2+  Ca36  1  0.42833618  0.16793148  0.16948537  1
  Ca2+  Ca37  1  0.42258914  0.16764724  0.49153965  1
  Ca2+  Ca38  1  0.42195663  0.15858580  0.83131174  1
  Ca2+  Ca39  1  0.42252848  0.66609171  0.16803045  1
  Ca2+  Ca40  1  0.42424747  0.67130590  0.49045119  1
  Ca2+  Ca41  1  0.41580623  0.66934373  0.82823587  1
  Ca2+  Ca42  1  0.92199706  0.17409713  0.16596005  1
  Ca2+  Ca43  1  0.91609591  0.17233785  0.49342109  1
  Ca2+  Ca44  1  0.92290646  0.17407435  0.83056560  1
  Ca2+  Ca45  1  0.91303933  0.67343471  0.16408938  1
  Ca2+  Ca46  1  0.91239447  0.66950873  0.49438384  1
  Ca2+  Ca47  1  0.91643883  0.67610987  0.83167824  1
  Al0+  Al48  1  -0.00202262  0.00170731  -0.00430402  1
  Al0+  Al49  1  -0.00259933  -0.00099084  0.34045063  1
  Al0+  Al50  1  -0.00153048  0.00040022  0.67121662  1
  Al0+  Al51  1  -0.00072475  0.50235280  0.00067701  1
  Al0+  Al52  1  0.00163420  0.50318545  0.33764868  1
  Al0+  Al53  1  -0.00148224  0.50274277  0.66509573  1
  Al0+  Al54  1  0.49974591  -0.00249278  -0.00314400  1
  Al0+  Al55  1  0.49643540  -0.00284775  0.33042142  1
  Al0+  Al56  1  0.49925677  -0.00133386  0.67109084  1
  Al0+  Al57  1  0.50123621  0.49958662  -0.00052916  1
  Al0+  Al58  1  0.49843126  0.50316421  0.32614886  1
  Al0+  Al59  1  0.50125172  0.50035788  0.66960696  1
  Al0+  Al60  1  0.25328446  0.24820580  0.00260227  1
  Al0+  Al61  1  0.24988325  0.24613264  0.32905230  1
  Al0+  Al62  1  0.25044128  0.24967267  0.67625342  1
  Al0+  Al63  1  0.25159215  0.74999687  0.00331084  1
  Al0+  Al64  1  0.24963933  0.74835635  0.33485589  1
  Al0+  Al65  1  0.25103121  0.75009002  0.66761108  1
  Al0+  Al66  1  0.74941574  0.24800318  -0.00688263  1
  Al0+  Al67  1  0.75023125  0.25168082  0.33333127  1
  Al0+  Al68  1  0.75006613  0.25041827  0.67207723  1
  Al0+  Al69  1  0.75005005  0.74832125  -0.00725909  1
  Al0+  Al70  1  0.75057942  0.74948800  0.33530471  1
  Al0+  Al71  1  0.75065540  0.74895294  0.66792249  1
  Al0+  Al72  1  0.92947139  0.32143927  0.65054519  1
  Al0+  Al73  1  0.93056101  0.32368013  0.98467074  1
  Al0+  Al74  1  0.17879796  0.92771898  0.68239373  1
  Al0+  Al75  1  0.67873881  0.43007000  0.68109895  1
  Al0+  Al76  1  0.57001491  0.17751515  0.98426715  1
  Al0+  Al77  1  0.17856325  0.42858463  0.01489545  1
  Al0+  Al78  1  0.67690262  0.92892687  0.34409773  1
  Al0+  Al79  1  0.32139532  0.07231393  0.68223008  1
  Al0+  Al80  1  0.18074064  0.42643632  0.34569918  1
  Al0+  Al81  1  0.42713071  0.32206618  0.31881816  1
  Al0+  Al82  1  0.07289729  0.17912662  0.98436142  1
  Al0+  Al83  1  0.82284689  0.57182711  0.34807894  1
  Al0+  Al84  1  0.57165251  0.68167268  0.31913464  1
  Al0+  Al85  1  0.82076357  0.07323040  0.68532189  1
  Al0+  Al86  1  0.57252460  0.17752628  0.32156039  1
  Al0+  Al87  1  0.17857560  0.93217390  0.01498813  1
  Al0+  Al88  1  0.17753775  0.43020149  0.67934213  1
  Al0+  Al89  1  0.92900132  0.82111741  0.98646622  1
  Al0+  Al90  1  0.68005335  0.92799497  0.68206950  1
  Al0+  Al91  1  0.17771775  0.92841755  0.34616873  1
  Al0+  Al92  1  0.67774854  0.42875213  0.34534359  1
  Al0+  Al93  1  0.81970251  0.07371335  0.34688598  1
  Al0+  Al94  1  0.92922736  0.32404434  0.32029497  1
  Al0+  Al95  1  0.06970238  0.17639342  0.32093785  1
  Si0+  Si96  1  0.67845916  0.92655415  0.01382861  1
  Si0+  Si97  1  0.07171126  0.68064238  0.65045925  1
  Si0+  Si98  1  0.42420231  0.82106685  0.31499303  1
  Si0+  Si99  1  0.42966792  0.32319177  0.98144118  1
  Si0+  Si100  1  0.42943578  0.82046853  0.65102842  1
  Si0+  Si101  1  0.81855112  0.07041949  0.01561169  1
  Si0+  Si102  1  0.57128092  0.67810041  0.65057047  1
  Si0+  Si103  1  0.32439686  0.57185285  0.01753340  1
  Si0+  Si104  1  0.42844081  0.32262033  0.65411208  1
  Si0+  Si105  1  0.68016508  0.42807189  0.01465874  1
  Si0+  Si106  1  0.82196348  0.57308886  0.68563992  1
  Si0+  Si107  1  0.57118034  0.67826218  0.98191446  1
  Si0+  Si108  1  0.92834123  0.82199662  0.64942117  1
  Si0+  Si109  1  0.93074003  0.81884902  0.32093193  1
  Si0+  Si110  1  0.42820277  0.81875528  0.98332473  1
  Si0+  Si111  1  0.81925535  0.57288365  0.01367826  1
  Si0+  Si112  1  0.07370183  0.67945377  0.98376021  1
  Si0+  Si113  1  0.56901674  0.17915078  0.65291606  1
  Si0+  Si114  1  0.32159395  0.57267273  0.34941827  1
  Si0+  Si115  1  0.32598537  0.07073037  0.02030295  1
  Si0+  Si116  1  0.07400164  0.67922443  0.31779852  1
  Si0+  Si117  1  0.07387896  0.17837142  0.65092012  1
  Si0+  Si118  1  0.32240046  0.07056333  0.34884504  1
  Si0+  Si119  1  0.32240372  0.57191676  0.68187800  1
  O2-  O120  1  0.24988741  0.00934348  0.06341846  1
  O2-  O121  1  0.25195770  0.00306328  0.39193033  1
  O2-  O122  1  0.24638097  0.00339668  0.73236994  1
  O2-  O123  1  0.25625518  0.50229816  0.06016454  1
  O2-  O124  1  0.25888396  0.49841200  0.39284286  1
  O2-  O125  1  0.25359865  0.50404674  0.72639643  1
  O2-  O126  1  0.74776064  -0.00203347  0.05659888  1
  O2-  O127  1  0.73907064  0.00871953  0.39420639  1
  O2-  O128  1  0.75040645  -0.00127363  0.73546443  1
  O2-  O129  1  0.75400099  0.49666683  0.05525137  1
  O2-  O130  1  0.75417391  0.49587638  0.39650981  1
  O2-  O131  1  0.75637277  0.50137504  0.72953830  1
  O2-  O132  1  0.00119265  0.25187293  0.27109233  1
  O2-  O133  1  0.00604991  0.24748786  0.60629461  1
  O2-  O134  1  0.00755134  0.25720423  0.93411410  1
  O2-  O135  1  0.00296665  0.75028510  0.27639214  1
  O2-  O136  1  0.00318254  0.75419394  0.60792468  1
  O2-  O137  1  0.00764166  0.75031338  0.93879370  1
  O2-  O138  1  0.50411104  0.25349373  0.27101088  1
  O2-  O139  1  0.49749433  0.25001398  0.61172908  1
  O2-  O140  1  0.49565826  0.25249639  0.93628828  1
  O2-  O141  1  0.49864343  0.75795621  0.27096842  1
  O2-  O142  1  0.50295777  0.75198898  0.60894154  1
  O2-  O143  1  0.49946457  0.74817488  0.93952303  1
  O2-  O144  1  0.06550560  0.17655146  0.09746949  1
  O2-  O145  1  0.07072425  0.17649813  0.43470926  1
  O2-  O146  1  0.07379987  0.18047116  0.75651528  1
  O2-  O147  1  0.07216640  0.67914072  0.08926371  1
  O2-  O148  1  0.07668583  0.68059631  0.42300691  1
  O2-  O149  1  0.07045192  0.67952921  0.75571805  1
  O2-  O150  1  0.57130059  0.17745109  0.09692452  1
  O2-  O151  1  0.56895089  0.17705794  0.43541541  1
  O2-  O152  1  0.56722376  0.18026035  0.75835898  1
  O2-  O153  1  0.57323771  0.67929053  0.08657745  1
  O2-  O154  1  0.56993119  0.68253789  0.43247820  1
  O2-  O155  1  0.56847593  0.67744135  0.75624167  1
  O2-  O156  1  0.18038449  0.43008884  0.23273729  1
  O2-  O157  1  0.17940256  0.43001876  0.56652844  1
  O2-  O158  1  0.17865731  0.43362402  0.90141223  1
  O2-  O159  1  0.17770337  0.92723226  0.23288504  1
  O2-  O160  1  0.18316302  0.92490854  0.56896185  1
  O2-  O161  1  0.18252371  0.93017720  0.90233954  1
  O2-  O162  1  0.67887193  0.43125928  0.23121833  1
  O2-  O163  1  0.67360784  0.43280012  0.56892568  1
  O2-  O164  1  0.67813430  0.43139157  0.90925151  1
  O2-  O165  1  0.68415711  0.92594186  0.22999996  1
  O2-  O166  1  0.68068567  0.92754111  0.56909799  1
  O2-  O167  1  0.67932968  0.92575853  0.90890650  1
  O2-  O168  1  0.43295149  0.32578108  0.08650130  1
  O2-  O169  1  0.42612229  0.31862613  0.43326172  1
  O2-  O170  1  0.43098622  0.32490872  0.75920286  1
  O2-  O171  1  0.42803559  0.81720587  0.08803730  1
  O2-  O172  1  0.41974068  0.81675480  0.42044126  1
  O2-  O173  1  0.42878907  0.81633765  0.75647500  1
  O2-  O174  1  0.92801032  0.32452419  0.09769161  1
  O2-  O175  1  0.93064182  0.32280219  0.43398099  1
  O2-  O176  1  0.93190164  0.32163390  0.76376340  1
  O2-  O177  1  0.92668211  0.81834634  0.09965713  1
  O2-  O178  1  0.93235491  0.81663396  0.42600763  1
  O2-  O179  1  0.92706579  0.81829372  0.75476984  1
  O2-  O180  1  0.32585216  0.06793155  0.24352684  1
  O2-  O181  1  0.32336865  0.07052036  0.56869400  1
  O2-  O182  1  0.32946728  0.06521528  0.91485985  1
  O2-  O183  1  0.31698120  0.57842730  0.24405514  1
  O2-  O184  1  0.32305809  0.57371622  0.57677601  1
  O2-  O185  1  0.32572004  0.57270560  0.91165521  1
  O2-  O186  1  0.82288878  0.06894851  0.23282841  1
  O2-  O187  1  0.81844302  0.07354630  0.57206116  1
  O2-  O188  1  0.81722075  0.06944525  0.91067332  1
  O2-  O189  1  0.81998237  0.57561450  0.23388975  1
  O2-  O190  1  0.81962498  0.57754895  0.58076649  1
  O2-  O191  1  0.81529363  0.57725503  0.90872598  1
  O2-  O192  1  0.03594762  0.07829423  0.26934114  1
  O2-  O193  1  0.04870774  0.08304450  0.60807389  1
  O2-  O194  1  0.03827412  0.08374247  0.92887541  1
  O2-  O195  1  0.04541642  0.58839960  0.26965964  1
  O2-  O196  1  0.04166460  0.59050236  0.60118003  1
  O2-  O197  1  0.04342069  0.58811641  0.93560720  1
  O2-  O198  1  0.54157760  0.07945132  0.26694076  1
  O2-  O199  1  0.54208729  0.08626317  0.60786749  1
  O2-  O200  1  0.53935479  0.08021313  0.93036208  1
  O2-  O201  1  0.53970734  0.58791376  0.26014717  1
  O2-  O202  1  0.54001087  0.58737913  0.60347871  1
  O2-  O203  1  0.54304198  0.58612366  0.93445690  1
  O2-  O204  1  0.16878324  0.19779244  0.26709666  1
  O2-  O205  1  0.16956919  0.20272768  0.60840202  1
  O2-  O206  1  0.17660319  0.19681825  0.93800359  1
  O2-  O207  1  0.16479483  0.70655598  0.26842676  1
  O2-  O208  1  0.16491035  0.70589806  0.60413516  1
  O2-  O209  1  0.16900466  0.70129249  0.93919195  1
  O2-  O210  1  0.67038746  0.20400301  0.26667770  1
  O2-  O211  1  0.66132459  0.20809384  0.60915885  1
  O2-  O212  1  0.66460934  0.20972572  0.92748970  1
  O2-  O213  1  0.66799564  0.71333570  0.26369120  1
  O2-  O214  1  0.66444441  0.70341482  0.60550223  1
  O2-  O215  1  0.66112884  0.70661202  0.93121402  1
  O2-  O216  1  0.08278286  0.46407517  0.06767480  1
  O2-  O217  1  0.08761299  0.46360744  0.40146235  1
  O2-  O218  1  0.08268329  0.46697519  0.73314615  1
  O2-  O219  1  0.07904922  0.95934690  0.06512452  1
  O2-  O220  1  0.08241743  0.95595593  0.40280239  1
  O2-  O221  1  0.07855527  0.94980533  0.73254250  1
  O2-  O222  1  0.58903526  0.45917784  0.06081440  1
  O2-  O223  1  0.57911192  0.46254380  0.39533179  1
  O2-  O224  1  0.58421730  0.46510263  0.73857788  1
  O2-  O225  1  0.58497595  0.95029810  0.05906569  1
  O2-  O226  1  0.57294552  0.94067846  0.39056894  1
  O2-  O227  1  0.58068801  0.95280450  0.73450172  1
  O2-  O228  1  0.20904889  0.33120656  0.06699212  1
  O2-  O229  1  0.21055107  0.32911276  0.39850950  1
  O2-  O230  1  0.20793600  0.33587841  0.73689321  1
  O2-  O231  1  0.21091948  0.83419479  0.06689680  1
  O2-  O232  1  0.20988409  0.83169754  0.39930161  1
  O2-  O233  1  0.21147612  0.83015602  0.73584867  1
  O2-  O234  1  0.70516988  0.33415160  0.05773297  1
  O2-  O235  1  0.70008999  0.33015606  0.39939362  1
  O2-  O236  1  0.70728962  0.33439351  0.73715625  1
  O2-  O237  1  0.70707211  0.83306488  0.05767726  1
  O2-  O238  1  0.71382503  0.83487835  0.39947815  1
  O2-  O239  1  0.70726407  0.82833159  0.73467040  1
  O2-  O240  1  0.44514057  0.42293363  0.26694874  1
  O2-  O241  1  0.45726648  0.41423093  0.60683059  1
  O2-  O242  1  0.45711175  0.41657686  0.93439258  1
  O2-  O243  1  0.44133535  0.91573008  0.26886338  1
  O2-  O244  1  0.45405082  0.91335209  0.60522022  1
  O2-  O245  1  0.45646687  0.90950389  0.93477398  1
  O2-  O246  1  0.95767208  0.42404658  0.26998426  1
  O2-  O247  1  0.95595931  0.42091393  0.60016067  1
  O2-  O248  1  0.95233744  0.42509897  0.93298301  1
  O2-  O249  1  0.95729645  0.91084848  0.27422829  1
  O2-  O250  1  0.95166563  0.91568647  0.60467260  1
  O2-  O251  1  0.95674716  0.91691308  0.93074469  1
  O2-  O252  1  0.33265708  0.28676956  0.26227351  1
  O2-  O253  1  0.33488188  0.29577769  0.61003061  1
  O2-  O254  1  0.33475187  0.29969694  0.93753174  1
  O2-  O255  1  0.33394866  0.78678897  0.26602153  1
  O2-  O256  1  0.33872056  0.78981464  0.60276747  1
  O2-  O257  1  0.33723148  0.78889302  0.93456678  1
  O2-  O258  1  0.83024162  0.29894832  0.26770423  1
  O2-  O259  1  0.83057558  0.28959684  0.60178657  1
  O2-  O260  1  0.83370367  0.28972525  0.93110573  1
  O2-  O261  1  0.84059006  0.78863893  0.27206695  1
  O2-  O262  1  0.83795895  0.78832356  0.60271438  1
  O2-  O263  1  0.83524915  0.78510114  0.92840419  1
  O2-  O264  1  0.41653896  0.03506275  0.06702963  1
  O2-  O265  1  0.41432038  0.04265998  0.39752466  1
  O2-  O266  1  0.41713866  0.03823313  0.73776792  1
  O2-  O267  1  0.41903402  0.54738492  0.06281649  1
  O2-  O268  1  0.41790135  0.55542986  0.39188807  1
  O2-  O269  1  0.41527050  0.54706124  0.73014820  1
  O2-  O270  1  0.91007615  0.04154433  0.06151376  1
  O2-  O271  1  0.91209817  0.03555828  0.40502219  1
  O2-  O272  1  0.91883456  0.04445221  0.73805530  1
  O2-  O273  1  0.91340403  0.55379354  0.05939227  1
  O2-  O274  1  0.92298014  0.55409584  0.40102947  1
  O2-  O275  1  0.91692711  0.55248451  0.73037369  1
  O2-  O276  1  0.31198045  0.16788308  0.06169449  1
  O2-  O277  1  0.29804716  0.16378870  0.39504132  1
  O2-  O278  1  0.29933400  0.17011927  0.73953977  1
  O2-  O279  1  0.29980870  0.66524306  0.06421090  1
  O2-  O280  1  0.29043461  0.66281303  0.39983825  1
  O2-  O281  1  0.29679250  0.66489013  0.72975429  1
  O2-  O282  1  0.78802030  0.16215445  0.06097546  1
  O2-  O283  1  0.79729476  0.17258858  0.40001546  1
  O2-  O284  1  0.78875687  0.16885181  0.74095855  1
  O2-  O285  1  0.78522128  0.66279869  0.06166103  1
  O2-  O286  1  0.78811354  0.66708422  0.40346689  1
  O2-  O287  1  0.79195064  0.66447231  0.73445261  1
