# generated using pymatgen
data_Ca2Al2SiO7
_symmetry_space_group_name_H-M   'P 1'
_cell_length_a   15.45682672
_cell_length_b   15.45644413
_cell_length_c   15.28281573
_cell_angle_alpha   90.00390114
_cell_angle_beta   90.00188351
_cell_angle_gamma   90.00778430
_symmetry_Int_Tables_number   1
_chemical_formula_structural   Ca2Al2SiO7
_chemical_formula_sum   'Ca48 Al48 Si24 O168'
_cell_volume   3651.18045521
_cell_formula_units_Z   24
loop_
 _symmetry_equiv_pos_site_id
 _symmetry_equiv_pos_as_xyz
  1  'x, y, z'
loop_
 _atom_type_symbol
 _atom_type_oxidation_number
  Ca2+  2.0
  Al0+  0.0
  Si0+  0.0
  O2-  -2.0
loop_
 _atom_site_type_symbol
 _atom_site_label
 _atom_site_symmetry_multiplicity
 _atom_site_fract_x
 _atom_site_fract_y
 _atom_site_fract_z
 _atom_site_occupancy
  Ca2+  Ca0  1  0.17374902  0.08816545  0.16679385  1
  Ca2+  Ca1  1  0.17234536  0.08191252  0.50338876  1
  Ca2+  Ca2  1  0.16823443  0.07297861  0.84409734  1
  Ca2+  Ca3  1  0.16092784  0.57583359  0.16886364  1
  Ca2+  Ca4  1  0.16852201  0.57982824  0.51003419  1
  Ca2+  Ca5  1  0.17491670  0.57254389  0.83461867  1
  Ca2+  Ca6  1  0.66828771  0.07421634  0.16936829  1
  Ca2+  Ca7  1  0.66373661  0.07966603  0.50361314  1
  Ca2+  Ca8  1  0.66964217  0.07991228  0.84080703  1
  Ca2+  Ca9  1  0.67053132  0.58828593  0.16395608  1
  Ca2+  Ca10  1  0.67347103  0.57679213  0.51103452  1
  Ca2+  Ca11  1  0.67472696  0.58565787  0.83854035  1
  Ca2+  Ca12  1  0.08280982  0.32189837  0.15451915  1
  Ca2+  Ca13  1  0.08633323  0.33083092  0.49573521  1
  Ca2+  Ca14  1  0.08593302  0.33214466  0.83603183  1
  Ca2+  Ca15  1  0.08812174  0.82694096  0.16156907  1
  Ca2+  Ca16  1  0.08050438  0.82996532  0.49864345  1
  Ca2+  Ca17  1  0.07912298  0.84021993  0.82434824  1
  Ca2+  Ca18  1  0.57340208  0.33021117  0.15561324  1
  Ca2+  Ca19  1  0.58245750  0.33214356  0.50396015  1
  Ca2+  Ca20  1  0.57425934  0.32869226  0.82312579  1
  Ca2+  Ca21  1  0.58353782  0.83641691  0.16174882  1
  Ca2+  Ca22  1  0.57066545  0.83611087  0.49509496  1
  Ca2+  Ca23  1  0.58111125  0.83084552  0.82950052  1
  Ca2+  Ca24  1  0.32794035  0.41059518  0.16459607  1
  Ca2+  Ca25  1  0.32744422  0.42491320  0.51360877  1
  Ca2+  Ca26  1  0.32838732  0.40915569  0.83609950  1
  Ca2+  Ca27  1  0.33444643  0.92915036  0.17101280  1
  Ca2+  Ca28  1  0.33132148  0.91734176  0.50570929  1
  Ca2+  Ca29  1  0.32518478  0.91915707  0.83834121  1
  Ca2+  Ca30  1  0.84192254  0.42052062  0.16331880  1
  Ca2+  Ca31  1  0.82802174  0.42385839  0.51212883  1
  Ca2+  Ca32  1  0.83080979  0.42493085  0.83889816  1
  Ca2+  Ca33  1  0.82225702  0.91907137  0.16441130  1
  Ca2+  Ca34  1  0.82830173  0.91283346  0.50455636  1
  Ca2+  Ca35  1  0.82984574  0.92144617  0.84302179  1
  Ca2+  Ca36  1  0.41067803  0.16734700  0.15904974  1
  Ca2+  Ca37  1  0.41790956  0.16897511  0.50061880  1
  Ca2+  Ca38  1  0.41606477  0.17389878  0.82961842  1
  Ca2+  Ca39  1  0.42483565  0.67671664  0.15930404  1
  Ca2+  Ca40  1  0.40507027  0.67935247  0.49891281  1
  Ca2+  Ca41  1  0.42005412  0.67004008  0.82676127  1
  Ca2+  Ca42  1  0.92648447  0.16828449  0.15508200  1
  Ca2+  Ca43  1  0.92691234  0.16993265  0.49356265  1
  Ca2+  Ca44  1  0.91813154  0.16708672  0.83347399  1
  Ca2+  Ca45  1  0.92035194  0.66565511  0.16137674  1
  Ca2+  Ca46  1  0.91974844  0.66888241  0.49960898  1
  Ca2+  Ca47  1  0.91353605  0.66990210  0.82803395  1
  Al0+  Al48  1  -0.00032886  -0.00196182  0.00566888  1
  Al0+  Al49  1  -0.00056067  -0.00030618  0.32792778  1
  Al0+  Al50  1  -0.00086197  -0.00059042  0.66202086  1
  Al0+  Al51  1  0.00072799  0.49971467  0.00373967  1
  Al0+  Al52  1  -0.00090276  0.50092586  0.33220812  1
  Al0+  Al53  1  0.00078843  0.49951467  0.67364448  1
  Al0+  Al54  1  0.49812536  -0.00056196  0.00539522  1
  Al0+  Al55  1  0.49934515  0.00173900  0.33793853  1
  Al0+  Al56  1  0.50055689  -0.00040324  0.65990280  1
  Al0+  Al57  1  0.50099311  0.50157711  -0.00831889  1
  Al0+  Al58  1  0.49948499  0.50098386  0.33412193  1
  Al0+  Al59  1  0.50073357  0.49975259  0.66800369  1
  Al0+  Al60  1  0.24874111  0.24940108  -0.00154836  1
  Al0+  Al61  1  0.24991295  0.24959039  0.33569080  1
  Al0+  Al62  1  0.25149012  0.24908404  0.66500324  1
  Al0+  Al63  1  0.25133384  0.74808132  0.00194447  1
  Al0+  Al64  1  0.24991255  0.75091703  0.32210297  1
  Al0+  Al65  1  0.24858373  0.74938038  0.67121290  1
  Al0+  Al66  1  0.75075234  0.25181452  0.00086693  1
  Al0+  Al67  1  0.74912934  0.25040119  0.33300088  1
  Al0+  Al68  1  0.75130577  0.24939244  0.66437047  1
  Al0+  Al69  1  0.75102729  0.74825323  0.00448711  1
  Al0+  Al70  1  0.74944213  0.74943322  0.33938158  1
  Al0+  Al71  1  0.74993938  0.75153013  0.66421288  1
  Al0+  Al72  1  0.57257304  0.68168873  0.98572702  1
  Al0+  Al73  1  0.67908330  0.42626934  0.68263150  1
  Al0+  Al74  1  0.06965639  0.67946267  0.31955852  1
  Al0+  Al75  1  0.31889199  0.07059958  0.01328761  1
  Al0+  Al76  1  0.82065063  0.56959578  0.01577279  1
  Al0+  Al77  1  0.68002363  0.92983660  0.35034299  1
  Al0+  Al78  1  0.42770870  0.32233793  0.64925752  1
  Al0+  Al79  1  0.17812536  0.93072920  0.67701559  1
  Al0+  Al80  1  0.17955460  0.42553046  0.68225016  1
  Al0+  Al81  1  0.42893953  0.31986781  0.98652186  1
  Al0+  Al82  1  0.17720246  0.92530606  0.01656063  1
  Al0+  Al83  1  0.82010347  0.57279509  0.68244891  1
  Al0+  Al84  1  0.42765460  0.81904081  0.65430088  1
  Al0+  Al85  1  0.92797245  0.82233186  0.65354508  1
  Al0+  Al86  1  0.07209862  0.17975247  0.31940962  1
  Al0+  Al87  1  0.31915567  0.07157434  0.35069527  1
  Al0+  Al88  1  0.42992333  0.82303785  0.31776690  1
  Al0+  Al89  1  0.32195208  0.57311844  0.68108634  1
  Al0+  Al90  1  0.18154136  0.43102454  0.01520021  1
  Al0+  Al91  1  0.67876993  0.92877360  0.01291847  1
  Al0+  Al92  1  0.82146648  0.07445881  0.01477654  1
  Al0+  Al93  1  0.57290356  0.17880969  0.65093107  1
  Al0+  Al94  1  0.92848231  0.32260554  0.98337202  1
  Al0+  Al95  1  0.06997134  0.17664749  0.98277795  1
  Si0+  Si96  1  0.92477378  0.82095228  0.31508259  1
  Si0+  Si97  1  0.82146473  0.56925841  0.34982412  1
  Si0+  Si98  1  0.67586557  0.42893767  0.01660007  1
  Si0+  Si99  1  0.07306160  0.67727185  0.98377086  1
  Si0+  Si100  1  0.17948958  0.43044086  0.34724773  1
  Si0+  Si101  1  0.17737770  0.92526768  0.34954272  1
  Si0+  Si102  1  0.82280834  0.07305745  0.35101988  1
  Si0+  Si103  1  0.42784674  0.82338840  0.98271753  1
  Si0+  Si104  1  0.57237890  0.67719161  0.31823719  1
  Si0+  Si105  1  0.67801484  0.93048959  0.68026068  1
  Si0+  Si106  1  0.93058825  0.32203689  0.65199840  1
  Si0+  Si107  1  0.82223839  0.07041849  0.67883113  1
  Si0+  Si108  1  0.57271121  0.17604809  0.98637852  1
  Si0+  Si109  1  0.43003433  0.32257788  0.31909948  1
  Si0+  Si110  1  0.07032720  0.67745320  0.65330684  1
  Si0+  Si111  1  0.57125852  0.18024556  0.31724079  1
  Si0+  Si112  1  0.32584337  0.57197759  0.01846674  1
  Si0+  Si113  1  0.32374938  0.07015069  0.68251079  1
  Si0+  Si114  1  0.92684677  0.32182932  0.31767504  1
  Si0+  Si115  1  0.67656886  0.42808592  0.34773349  1
  Si0+  Si116  1  0.93077193  0.81809850  0.98718623  1
  Si0+  Si117  1  0.32110435  0.57225362  0.34529215  1
  Si0+  Si118  1  0.57320514  0.67860295  0.64916015  1
  Si0+  Si119  1  0.07058847  0.17763727  0.65138749  1
  O2-  O120  1  0.24854009  -0.00192672  0.06584216  1
  O2-  O121  1  0.24383016  -0.00441669  0.39485756  1
  O2-  O122  1  0.25347516  0.00317317  0.72534697  1
  O2-  O123  1  0.25650644  0.50471733  0.06434889  1
  O2-  O124  1  0.24859551  0.50325603  0.38863808  1
  O2-  O125  1  0.25629506  0.49436164  0.72967567  1
  O2-  O126  1  0.74626946  0.00496870  0.06366440  1
  O2-  O127  1  0.75645098  0.00342218  0.39750798  1
  O2-  O128  1  0.74918557  0.00160442  0.72109502  1
  O2-  O129  1  0.74709145  0.49376708  0.06371278  1
  O2-  O130  1  0.74953930  0.49792847  0.38938306  1
  O2-  O131  1  0.74734447  0.50178572  0.73229909  1
  O2-  O132  1  -0.00610144  0.25178265  0.27468301  1
  O2-  O133  1  0.00413947  0.25372880  0.60903968  1
  O2-  O134  1  -0.00369377  0.24719761  0.93236273  1
  O2-  O135  1  -0.00357532  0.75517651  0.27134216  1
  O2-  O136  1  0.00118848  0.74548989  0.60799179  1
  O2-  O137  1  0.00655953  0.75309087  0.94321707  1
  O2-  O138  1  0.50098653  0.25209431  0.27586145  1
  O2-  O139  1  0.50143419  0.25138360  0.59940475  1
  O2-  O140  1  0.50537540  0.24560545  0.94243447  1
  O2-  O141  1  0.50681380  0.74853873  0.27396713  1
  O2-  O142  1  0.49973930  0.74223746  0.60492663  1
  O2-  O143  1  0.49751501  0.75565116  0.93901937  1
  O2-  O144  1  0.07087054  0.18038504  0.09668406  1
  O2-  O145  1  0.07147401  0.18367806  0.43335251  1
  O2-  O146  1  0.06693727  0.17344072  0.75556297  1
  O2-  O147  1  0.06990268  0.67666151  0.08941437  1
  O2-  O148  1  0.06752691  0.67679459  0.43272686  1
  O2-  O149  1  0.06969078  0.67860180  0.75864959  1
  O2-  O150  1  0.57152301  0.17787458  0.09259314  1
  O2-  O151  1  0.57379421  0.18256857  0.42199196  1
  O2-  O152  1  0.57260190  0.17630885  0.76442736  1
  O2-  O153  1  0.57105748  0.68262176  0.09961492  1
  O2-  O154  1  0.57129182  0.67415346  0.42347363  1
  O2-  O155  1  0.57725437  0.68469422  0.75443708  1
  O2-  O156  1  0.17997197  0.43005506  0.24235121  1
  O2-  O157  1  0.17662387  0.42873770  0.56743579  1
  O2-  O158  1  0.18235848  0.43215740  0.90274272  1
  O2-  O159  1  0.18021423  0.92448920  0.24446296  1
  O2-  O160  1  0.17720075  0.93261571  0.56357479  1
  O2-  O161  1  0.17811339  0.92564014  0.90251199  1
  O2-  O162  1  0.67370392  0.42815954  0.24297293  1
  O2-  O163  1  0.68442454  0.42746164  0.56762617  1
  O2-  O164  1  0.67589612  0.43138485  0.91166292  1
  O2-  O165  1  0.68156933  0.93088508  0.23753134  1
  O2-  O166  1  0.67912990  0.93105096  0.57493647  1
  O2-  O167  1  0.68099617  0.92842266  0.89889773  1
  O2-  O168  1  0.43049862  0.31963135  0.10088313  1
  O2-  O169  1  0.43180321  0.32468760  0.42358016  1
  O2-  O170  1  0.42625268  0.31649454  0.76246928  1
  O2-  O171  1  0.42889988  0.82232088  0.08855636  1
  O2-  O172  1  0.42773924  0.81969319  0.43116058  1
  O2-  O173  1  0.43109344  0.82080692  0.76703272  1
  O2-  O174  1  0.93317826  0.32321586  0.09776698  1
  O2-  O175  1  0.92723283  0.32318866  0.42370408  1
  O2-  O176  1  0.92830747  0.32043135  0.75622864  1
  O2-  O177  1  0.92899042  0.81372503  0.09249018  1
  O2-  O178  1  0.92423312  0.81867728  0.42089519  1
  O2-  O179  1  0.92869207  0.82548989  0.76652451  1
  O2-  O180  1  0.31893830  0.07422747  0.23812171  1
  O2-  O181  1  0.32189310  0.06949783  0.57643601  1
  O2-  O182  1  0.32025155  0.06840878  0.89966649  1
  O2-  O183  1  0.32372026  0.56805849  0.24053534  1
  O2-  O184  1  0.31474676  0.57566039  0.56636095  1
  O2-  O185  1  0.32383456  0.57324076  0.91325231  1
  O2-  O186  1  0.81940546  0.07469590  0.24605042  1
  O2-  O187  1  0.82395435  0.06893682  0.57344421  1
  O2-  O188  1  0.82079818  0.07049606  0.90042727  1
  O2-  O189  1  0.82271379  0.56936197  0.24490939  1
  O2-  O190  1  0.82063212  0.57025750  0.56778081  1
  O2-  O191  1  0.81920725  0.57257677  0.90344541  1
  O2-  O192  1  0.04602252  0.08169219  0.26641881  1
  O2-  O193  1  0.03691692  0.08986380  0.59909723  1
  O2-  O194  1  0.04249247  0.07581425  0.93391657  1
  O2-  O195  1  0.03628449  0.58322377  0.26447893  1
  O2-  O196  1  0.04479684  0.58350613  0.60655110  1
  O2-  O197  1  0.04037459  0.58752753  0.93729198  1
  O2-  O198  1  0.54229453  0.08860008  0.27190380  1
  O2-  O199  1  0.54294263  0.08189306  0.59459153  1
  O2-  O200  1  0.54716605  0.08197646  0.94140132  1
  O2-  O201  1  0.54449045  0.58458701  0.27006190  1
  O2-  O202  1  0.55560832  0.58212191  0.60641241  1
  O2-  O203  1  0.54394205  0.58606512  0.92964133  1
  O2-  O204  1  0.16746940  0.21504296  0.26608818  1
  O2-  O205  1  0.16380961  0.20134071  0.60482953  1
  O2-  O206  1  0.16699521  0.20814638  0.93002791  1
  O2-  O207  1  0.16511632  0.70583375  0.26133267  1
  O2-  O208  1  0.16284373  0.70450061  0.60598232  1
  O2-  O209  1  0.16767740  0.69853395  0.93922571  1
  O2-  O210  1  0.66351535  0.20724696  0.26931350  1
  O2-  O211  1  0.67188115  0.20594271  0.59550258  1
  O2-  O212  1  0.66710446  0.19910540  0.94147102  1
  O2-  O213  1  0.66791331  0.70059070  0.27478183  1
  O2-  O214  1  0.66420571  0.70911685  0.59953892  1
  O2-  O215  1  0.66946059  0.71305223  0.93285377  1
  O2-  O216  1  0.08633648  0.46364833  0.07102268  1
  O2-  O217  1  0.08632392  0.45688580  0.39364076  1
  O2-  O218  1  0.08299676  0.45563598  0.73650865  1
  O2-  O219  1  0.07834014  0.94821902  0.07010128  1
  O2-  O220  1  0.08052229  0.94743078  0.39136654  1
  O2-  O221  1  0.08167119  0.96348172  0.73031002  1
  O2-  O222  1  0.58320681  0.45891906  0.06316273  1
  O2-  O223  1  0.58597295  0.45791053  0.39702247  1
  O2-  O224  1  0.57836659  0.44749714  0.73142722  1
  O2-  O225  1  0.58013276  0.95245998  0.06731678  1
  O2-  O226  1  0.58454365  0.96333456  0.40422770  1
  O2-  O227  1  0.58625671  0.95814783  0.72691524  1
  O2-  O228  1  0.21261948  0.33437455  0.06859812  1
  O2-  O229  1  0.20866408  0.34015187  0.39592323  1
  O2-  O230  1  0.20503624  0.32575056  0.73332177  1
  O2-  O231  1  0.20525578  0.82576322  0.06821116  1
  O2-  O232  1  0.20512820  0.83105267  0.39380393  1
  O2-  O233  1  0.20396779  0.83413246  0.73179522  1
  O2-  O234  1  0.69655394  0.33402971  0.06236772  1
  O2-  O235  1  0.70341957  0.33585123  0.39518431  1
  O2-  O236  1  0.71044924  0.32828687  0.73370181  1
  O2-  O237  1  0.71362397  0.83386000  0.06908313  1
  O2-  O238  1  0.70865161  0.83229317  0.40484109  1
  O2-  O239  1  0.70604440  0.83878977  0.72618425  1
  O2-  O240  1  0.45760249  0.41442363  0.27062498  1
  O2-  O241  1  0.45353491  0.42271309  0.59754787  1
  O2-  O242  1  0.45734679  0.41628467  0.93207904  1
  O2-  O243  1  0.46219634  0.92042527  0.26679081  1
  O2-  O244  1  0.46033544  0.91366197  0.59729097  1
  O2-  O245  1  0.45209079  0.91755750  0.93779105  1
  O2-  O246  1  0.95348545  0.41529639  0.27221553  1
  O2-  O247  1  0.95711203  0.41486419  0.60474484  1
  O2-  O248  1  0.96068592  0.42084809  0.93258036  1
  O2-  O249  1  0.94449038  0.91631001  0.27076964  1
  O2-  O250  1  0.96022493  0.91639976  0.59417951  1
  O2-  O251  1  0.95213663  0.91204069  0.94176601  1
  O2-  O252  1  0.33775243  0.29377908  0.27382950  1
  O2-  O253  1  0.32946235  0.29245444  0.59445212  1
  O2-  O254  1  0.33382330  0.28768700  0.93242696  1
  O2-  O255  1  0.33571125  0.79180042  0.26042252  1
  O2-  O256  1  0.32999354  0.78894408  0.60034147  1
  O2-  O257  1  0.33431214  0.79505852  0.93778097  1
  O2-  O258  1  0.83203113  0.29969699  0.27206062  1
  O2-  O259  1  0.84084153  0.29175903  0.60131032  1
  O2-  O260  1  0.82726479  0.30036899  0.93310046  1
  O2-  O261  1  0.83215012  0.78990470  0.27004821  1
  O2-  O262  1  0.83216654  0.79216126  0.59671302  1
  O2-  O263  1  0.84072119  0.78550844  0.93962561  1
  O2-  O264  1  0.41704049  0.04461516  0.06946924  1
  O2-  O265  1  0.41618843  0.04298133  0.40420855  1
  O2-  O266  1  0.41729621  0.04276916  0.72658863  1
  O2-  O267  1  0.41993294  0.54577753  0.06304620  1
  O2-  O268  1  0.41214099  0.54447209  0.39484097  1
  O2-  O269  1  0.42375889  0.55508211  0.72930505  1
  O2-  O270  1  0.91685544  0.04148559  0.07019300  1
  O2-  O271  1  0.91827388  0.04910777  0.39491292  1
  O2-  O272  1  0.91234723  0.03983614  0.72675350  1
  O2-  O273  1  0.91661601  0.53911989  0.07172050  1
  O2-  O274  1  0.91265759  0.54016717  0.39838515  1
  O2-  O275  1  0.91819948  0.54560118  0.73473309  1
  O2-  O276  1  0.28944320  0.16820096  0.06764886  1
  O2-  O277  1  0.28672486  0.16794812  0.40581817  1
  O2-  O278  1  0.29978247  0.16461934  0.72562565  1
  O2-  O279  1  0.30131182  0.66578997  0.06472957  1
  O2-  O280  1  0.29293208  0.66550382  0.38897515  1
  O2-  O281  1  0.28834574  0.66740985  0.73877014  1
  O2-  O282  1  0.79817743  0.17409335  0.06831425  1
  O2-  O283  1  0.79621212  0.16728920  0.39710177  1
  O2-  O284  1  0.79754300  0.16272215  0.72536123  1
  O2-  O285  1  0.78772441  0.66386522  0.07327558  1
  O2-  O286  1  0.79490967  0.66076854  0.39822332  1
  O2-  O287  1  0.79205046  0.67256142  0.73295735  1
