# generated using pymatgen
data_Ca2Al2SiO7
_symmetry_space_group_name_H-M   'P 1'
_cell_length_a   15.46272985
_cell_length_b   15.46238494
_cell_length_c   15.28700115
_cell_angle_alpha   89.99895018
_cell_angle_beta   89.98992326
_cell_angle_gamma   90.00759863
_symmetry_Int_Tables_number   1
_chemical_formula_structural   Ca2Al2SiO7
_chemical_formula_sum   'Ca48 Al48 Si24 O168'
_cell_volume   3654.97942767
_cell_formula_units_Z   24
loop_
 _symmetry_equiv_pos_site_id
 _symmetry_equiv_pos_as_xyz
  1  'x, y, z'
loop_
 _atom_type_symbol
 _atom_type_oxidation_number
  Ca2+  2.0
  Al0+  0.0
  Si0+  0.0
  O2-  -2.0
loop_
 _atom_site_type_symbol
 _atom_site_label
 _atom_site_symmetry_multiplicity
 _atom_site_fract_x
 _atom_site_fract_y
 _atom_site_fract_z
 _atom_site_occupancy
  Ca2+  Ca0  1  0.17325203  0.07455394  0.16649723  1
  Ca2+  Ca1  1  0.16863567  0.07327471  0.51247559  1
  Ca2+  Ca2  1  0.17605165  0.07716010  0.83593516  1
  Ca2+  Ca3  1  0.17236523  0.56884794  0.17153330  1
  Ca2+  Ca4  1  0.17576725  0.57970484  0.50484358  1
  Ca2+  Ca5  1  0.17039807  0.58023193  0.83457556  1
  Ca2+  Ca6  1  0.67173064  0.09432830  0.16301387  1
  Ca2+  Ca7  1  0.67331245  0.08826806  0.51003789  1
  Ca2+  Ca8  1  0.67274953  0.09746001  0.83646749  1
  Ca2+  Ca9  1  0.67721450  0.57687576  0.17510280  1
  Ca2+  Ca10  1  0.66530330  0.58088020  0.50487481  1
  Ca2+  Ca11  1  0.67061574  0.58659156  0.83714853  1
  Ca2+  Ca12  1  0.08049703  0.34029076  0.15760020  1
  Ca2+  Ca13  1  0.09027153  0.32502532  0.49789036  1
  Ca2+  Ca14  1  0.07923684  0.33044983  0.82966734  1
  Ca2+  Ca15  1  0.08911770  0.83335936  0.16313509  1
  Ca2+  Ca16  1  0.09495681  0.82844660  0.50039800  1
  Ca2+  Ca17  1  0.08890699  0.83143110  0.82539423  1
  Ca2+  Ca18  1  0.57872979  0.33209275  0.15856353  1
  Ca2+  Ca19  1  0.57908574  0.33326172  0.50235692  1
  Ca2+  Ca20  1  0.57105788  0.32367191  0.82979326  1
  Ca2+  Ca21  1  0.57482648  0.82785430  0.15675199  1
  Ca2+  Ca22  1  0.57554475  0.83027179  0.50221634  1
  Ca2+  Ca23  1  0.57007234  0.82926303  0.82631384  1
  Ca2+  Ca24  1  0.32544232  0.41431508  0.17139908  1
  Ca2+  Ca25  1  0.33623632  0.42563769  0.50626391  1
  Ca2+  Ca26  1  0.33453839  0.41722082  0.83720784  1
  Ca2+  Ca27  1  0.32823622  0.91775200  0.16508747  1
  Ca2+  Ca28  1  0.32467001  0.91927788  0.51125909  1
  Ca2+  Ca29  1  0.33050145  0.92003735  0.83798472  1
  Ca2+  Ca30  1  0.83126003  0.42413827  0.17050655  1
  Ca2+  Ca31  1  0.82615532  0.41886889  0.49965306  1
  Ca2+  Ca32  1  0.83328741  0.42060377  0.84304882  1
  Ca2+  Ca33  1  0.83189007  0.92458560  0.16622825  1
  Ca2+  Ca34  1  0.82899908  0.92232312  0.50917950  1
  Ca2+  Ca35  1  0.83134722  0.93075236  0.83681511  1
  Ca2+  Ca36  1  0.42287157  0.17249265  0.15135345  1
  Ca2+  Ca37  1  0.41447935  0.16805896  0.50259934  1
  Ca2+  Ca38  1  0.41486500  0.17143731  0.82525488  1
  Ca2+  Ca39  1  0.41032450  0.67058332  0.16219532  1
  Ca2+  Ca40  1  0.41070481  0.66671170  0.50213062  1
  Ca2+  Ca41  1  0.41315727  0.67736057  0.82288555  1
  Ca2+  Ca42  1  0.91921887  0.17579247  0.15571413  1
  Ca2+  Ca43  1  0.92338763  0.16117046  0.50214318  1
  Ca2+  Ca44  1  0.91922951  0.16720659  0.82825798  1
  Ca2+  Ca45  1  0.91500090  0.66275029  0.16098055  1
  Ca2+  Ca46  1  0.92305125  0.66499782  0.49721040  1
  Ca2+  Ca47  1  0.92416867  0.66707440  0.82764720  1
  Al0+  Al48  1  -0.00194189  -0.00071557  0.00870323  1
  Al0+  Al49  1  0.00032608  -0.00092501  0.33404916  1
  Al0+  Al50  1  -0.00289053  0.00096065  0.67079292  1
  Al0+  Al51  1  0.00082292  0.50108772  0.00219095  1
  Al0+  Al52  1  0.00046082  0.49938837  0.34020317  1
  Al0+  Al53  1  -0.00169985  0.50153866  0.66060737  1
  Al0+  Al54  1  0.50215139  -0.00210829  -0.00407175  1
  Al0+  Al55  1  0.50172932  -0.00035278  0.32964175  1
  Al0+  Al56  1  0.50041269  -0.00043253  0.66036291  1
  Al0+  Al57  1  0.50199733  0.50000228  -0.00284878  1
  Al0+  Al58  1  0.50155237  0.49954229  0.33735524  1
  Al0+  Al59  1  0.50032629  0.49988525  0.66649650  1
  Al0+  Al60  1  0.24859960  0.24868973  0.00450345  1
  Al0+  Al61  1  0.25120218  0.24702813  0.33285022  1
  Al0+  Al62  1  0.24659685  0.24955370  0.66033043  1
  Al0+  Al63  1  0.24945533  0.74856455  -0.00039133  1
  Al0+  Al64  1  0.24899901  0.75005522  0.33596349  1
  Al0+  Al65  1  0.24859903  0.74678780  0.66504292  1
  Al0+  Al66  1  0.75124437  0.25309897  -0.00209270  1
  Al0+  Al67  1  0.75210299  0.25117466  0.33668719  1
  Al0+  Al68  1  0.74851760  0.25296604  0.66724205  1
  Al0+  Al69  1  0.75276554  0.75180240  0.00320895  1
  Al0+  Al70  1  0.75090485  0.75223466  0.33496934  1
  Al0+  Al71  1  0.74988457  0.75042251  0.66432027  1
  Al0+  Al72  1  0.17851937  0.42499629  0.34989118  1
  Al0+  Al73  1  0.42497172  0.32174435  0.98607601  1
  Al0+  Al74  1  0.81920553  0.07344505  0.01473830  1
  Al0+  Al75  1  0.93161703  0.32292447  0.98771845  1
  Al0+  Al76  1  0.32436900  0.07106736  0.01418938  1
  Al0+  Al77  1  0.17913084  0.92668754  0.01550979  1
  Al0+  Al78  1  0.81840983  0.07232177  0.68070335  1
  Al0+  Al79  1  0.06812630  0.17890722  0.65456497  1
  Al0+  Al80  1  0.07039346  0.67859022  0.65172701  1
  Al0+  Al81  1  0.32219899  0.07246400  0.68039048  1
  Al0+  Al82  1  0.57172526  0.17915265  0.98567676  1
  Al0+  Al83  1  0.42775030  0.81847197  0.98655170  1
  Al0+  Al84  1  0.57159818  0.17927009  0.65030192  1
  Al0+  Al85  1  0.17886293  0.92776004  0.68215352  1
  Al0+  Al86  1  0.67956727  0.42810706  0.34976602  1
  Al0+  Al87  1  0.42719574  0.82079796  0.64981963  1
  Al0+  Al88  1  0.82115109  0.57370230  0.35110858  1
  Al0+  Al89  1  0.32094110  0.56801741  0.68219858  1
  Al0+  Al90  1  0.57232071  0.67876123  0.65158648  1
  Al0+  Al91  1  0.42641410  0.32078389  0.65020242  1
  Al0+  Al92  1  0.18030602  0.42871959  0.00991932  1
  Al0+  Al93  1  0.17949065  0.93122278  0.34806675  1
  Al0+  Al94  1  0.82144834  0.57215462  0.01170615  1
  Al0+  Al95  1  0.32084007  0.57010790  0.34773653  1
  Si0+  Si96  1  0.07002374  0.67935144  0.31671584  1
  Si0+  Si97  1  0.67890572  0.92699980  0.01687057  1
  Si0+  Si98  1  0.92838296  0.82222176  0.65069065  1
  Si0+  Si99  1  0.07066592  0.17500180  0.98516032  1
  Si0+  Si100  1  0.32527815  0.07037631  0.34913119  1
  Si0+  Si101  1  0.92655118  0.32386707  0.64807024  1
  Si0+  Si102  1  0.67839594  0.42989026  0.01567503  1
  Si0+  Si103  1  0.06907720  0.68018514  0.98659986  1
  Si0+  Si104  1  0.92791082  0.82312111  0.98545238  1
  Si0+  Si105  1  0.57323950  0.17905303  0.31759175  1
  Si0+  Si106  1  0.42899831  0.82014696  0.31672980  1
  Si0+  Si107  1  0.32373493  0.57121264  0.01420273  1
  Si0+  Si108  1  0.17506872  0.42758310  0.68260716  1
  Si0+  Si109  1  0.57512906  0.67853654  0.98589205  1
  Si0+  Si110  1  0.67775173  0.92632787  0.68308767  1
  Si0+  Si111  1  0.82137608  0.57188146  0.68225510  1
  Si0+  Si112  1  0.67892708  0.43030784  0.68500352  1
  Si0+  Si113  1  0.93049125  0.31965606  0.31852388  1
  Si0+  Si114  1  0.42968514  0.32102677  0.31794830  1
  Si0+  Si115  1  0.07135652  0.17630585  0.31658281  1
  Si0+  Si116  1  0.81988457  0.07057629  0.34818223  1
  Si0+  Si117  1  0.67786130  0.92916661  0.34774531  1
  Si0+  Si118  1  0.92755322  0.82220848  0.31643155  1
  Si0+  Si119  1  0.57303221  0.67893618  0.31766743  1
  O2-  O120  1  0.25229690  -0.00164345  0.06446236  1
  O2-  O121  1  0.25460422  0.00471855  0.39373606  1
  O2-  O122  1  0.25330857  -0.00245834  0.73061557  1
  O2-  O123  1  0.26117455  0.49670273  0.05745562  1
  O2-  O124  1  0.25214677  0.49533810  0.39850475  1
  O2-  O125  1  0.24687356  0.49204803  0.72791868  1
  O2-  O126  1  0.74238833  0.00080211  0.06198336  1
  O2-  O127  1  0.74776375  0.00102345  0.39012383  1
  O2-  O128  1  0.74068472  0.00050899  0.72702501  1
  O2-  O129  1  0.74497101  0.50076311  0.05960829  1
  O2-  O130  1  0.74742523  0.50382264  0.40103656  1
  O2-  O131  1  0.75028633  0.50230288  0.72563495  1
  O2-  O132  1  0.00516393  0.25262852  0.27524989  1
  O2-  O133  1  -0.00471423  0.25480508  0.60470206  1
  O2-  O134  1  0.00382313  0.24609481  0.94156129  1
  O2-  O135  1  -0.00318705  0.74892418  0.27426562  1
  O2-  O136  1  -0.00160548  0.75624037  0.60476428  1
  O2-  O137  1  0.00179806  0.75512069  0.94436687  1
  O2-  O138  1  0.50086182  0.24906034  0.27648040  1
  O2-  O139  1  0.49620063  0.24655735  0.59879061  1
  O2-  O140  1  0.49269059  0.24453947  0.93780102  1
  O2-  O141  1  0.49922485  0.74717222  0.27499893  1
  O2-  O142  1  0.49912988  0.74813463  0.59933967  1
  O2-  O143  1  0.50241895  0.74239425  0.94227826  1
  O2-  O144  1  0.06744839  0.17516272  0.09145959  1
  O2-  O145  1  0.06724101  0.17368463  0.42154591  1
  O2-  O146  1  0.06573213  0.18009567  0.76749149  1
  O2-  O147  1  0.06734356  0.67959116  0.09201632  1
  O2-  O148  1  0.06966146  0.68172323  0.42153858  1
  O2-  O149  1  0.06606984  0.67525185  0.76520081  1
  O2-  O150  1  0.57349834  0.18509521  0.10042461  1
  O2-  O151  1  0.57449006  0.17695684  0.42203962  1
  O2-  O152  1  0.57594321  0.18508432  0.76297161  1
  O2-  O153  1  0.57657720  0.68046284  0.09199158  1
  O2-  O154  1  0.57544461  0.68252889  0.42205346  1
  O2-  O155  1  0.57614384  0.68274335  0.76532923  1
  O2-  O156  1  0.17816406  0.42759681  0.23587224  1
  O2-  O157  1  0.17420123  0.43055836  0.57708312  1
  O2-  O158  1  0.17504473  0.43396673  0.89747934  1
  O2-  O159  1  0.17986217  0.93143443  0.23508009  1
  O2-  O160  1  0.17862101  0.93051001  0.56818703  1
  O2-  O161  1  0.17776022  0.92529008  0.90290973  1
  O2-  O162  1  0.68217552  0.42758932  0.23589237  1
  O2-  O163  1  0.68137576  0.42964550  0.57976533  1
  O2-  O164  1  0.67951739  0.43109655  0.91030357  1
  O2-  O165  1  0.67847739  0.92838949  0.24271165  1
  O2-  O166  1  0.68340835  0.92405697  0.57684434  1
  O2-  O167  1  0.68459578  0.92015836  0.91218740  1
  O2-  O168  1  0.42925840  0.32406231  0.10054511  1
  O2-  O169  1  0.42951485  0.31991735  0.42252918  1
  O2-  O170  1  0.42839596  0.32170446  0.76359009  1
  O2-  O171  1  0.42854284  0.81508800  0.10077211  1
  O2-  O172  1  0.43053922  0.82262133  0.42105142  1
  O2-  O173  1  0.42853184  0.81859862  0.76345482  1
  O2-  O174  1  0.93242189  0.32290609  0.10147975  1
  O2-  O175  1  0.92719216  0.31542583  0.42335452  1
  O2-  O176  1  0.92759549  0.32652102  0.75373927  1
  O2-  O177  1  0.92549778  0.82167848  0.09085567  1
  O2-  O178  1  0.92601558  0.82499112  0.42112224  1
  O2-  O179  1  0.92642548  0.81928484  0.75639053  1
  O2-  O180  1  0.32657380  0.06851938  0.24356201  1
  O2-  O181  1  0.31798088  0.07109217  0.56613920  1
  O2-  O182  1  0.32187156  0.07123132  0.90129752  1
  O2-  O183  1  0.31847886  0.57074202  0.23340594  1
  O2-  O184  1  0.31873872  0.56762350  0.56922599  1
  O2-  O185  1  0.32060249  0.57414455  0.90909329  1
  O2-  O186  1  0.81896575  0.07143884  0.24309689  1
  O2-  O187  1  0.81897783  0.06873079  0.56670982  1
  O2-  O188  1  0.82057197  0.07147631  0.90221299  1
  O2-  O189  1  0.82020107  0.57232679  0.23716858  1
  O2-  O190  1  0.82130654  0.57076403  0.57736889  1
  O2-  O191  1  0.82124841  0.57168394  0.89848039  1
  O2-  O192  1  0.03739812  0.08674252  0.26809266  1
  O2-  O193  1  0.03238685  0.08356301  0.59930937  1
  O2-  O194  1  0.04043481  0.08210297  0.94118883  1
  O2-  O195  1  0.04318223  0.58556788  0.27209485  1
  O2-  O196  1  0.03554439  0.58486367  0.59405720  1
  O2-  O197  1  0.03620588  0.59125901  0.93760839  1
  O2-  O198  1  0.54846515  0.08628960  0.26921566  1
  O2-  O199  1  0.55327213  0.07865080  0.59746939  1
  O2-  O200  1  0.55831918  0.07649302  0.93751826  1
  O2-  O201  1  0.54930205  0.58511358  0.27212469  1
  O2-  O202  1  0.54669148  0.57980184  0.60007359  1
  O2-  O203  1  0.55689661  0.58337302  0.94100229  1
  O2-  O204  1  0.16590645  0.19743655  0.27126026  1
  O2-  O205  1  0.16232068  0.20711465  0.59478798  1
  O2-  O206  1  0.16505063  0.19824234  0.94189456  1
  O2-  O207  1  0.16099414  0.71000722  0.26888340  1
  O2-  O208  1  0.16580616  0.70694650  0.59548206  1
  O2-  O209  1  0.16151131  0.70388611  0.93917811  1
  O2-  O210  1  0.66586374  0.20891125  0.27180581  1
  O2-  O211  1  0.66900071  0.21414305  0.59628774  1
  O2-  O212  1  0.66770425  0.21466643  0.93270818  1
  O2-  O213  1  0.66404024  0.71080476  0.26956025  1
  O2-  O214  1  0.67032938  0.70863236  0.59671241  1
  O2-  O215  1  0.66775360  0.70866028  0.93996932  1
  O2-  O216  1  0.08759093  0.46765739  0.06781938  1
  O2-  O217  1  0.08079493  0.45222861  0.40304283  1
  O2-  O218  1  0.08136423  0.45786877  0.72664054  1
  O2-  O219  1  0.08080516  0.95375742  0.07059730  1
  O2-  O220  1  0.08185064  0.96043538  0.40088018  1
  O2-  O221  1  0.07980072  0.95615209  0.73319920  1
  O2-  O222  1  0.58455579  0.45376513  0.06313045  1
  O2-  O223  1  0.58105241  0.45281058  0.40259536  1
  O2-  O224  1  0.58789307  0.45786282  0.73246570  1
  O2-  O225  1  0.58389264  0.94596511  0.06209207  1
  O2-  O226  1  0.58577698  0.95584980  0.39460054  1
  O2-  O227  1  0.58155744  0.94500531  0.72401148  1
  O2-  O228  1  0.20056874  0.33127843  0.06709954  1
  O2-  O229  1  0.20369950  0.32414106  0.39876834  1
  O2-  O230  1  0.19463945  0.33175348  0.72478290  1
  O2-  O231  1  0.20846573  0.82791399  0.06933660  1
  O2-  O232  1  0.20924597  0.83411837  0.39993568  1
  O2-  O233  1  0.20307102  0.82728452  0.73112445  1
  O2-  O234  1  0.70758418  0.33840922  0.06319593  1
  O2-  O235  1  0.71381359  0.33193987  0.40473500  1
  O2-  O236  1  0.70946032  0.34009710  0.73282439  1
  O2-  O237  1  0.71140624  0.83721132  0.06843145  1
  O2-  O238  1  0.70706367  0.83904218  0.39670929  1
  O2-  O239  1  0.70979404  0.83528383  0.73089258  1
  O2-  O240  1  0.45750162  0.41342961  0.27141908  1
  O2-  O241  1  0.46152850  0.41756392  0.59795213  1
  O2-  O242  1  0.45681796  0.41970031  0.93308266  1
  O2-  O243  1  0.45996289  0.91110399  0.26802287  1
  O2-  O244  1  0.45598799  0.91781281  0.59402659  1
  O2-  O245  1  0.45915779  0.91387765  0.93232326  1
  O2-  O246  1  0.95449028  0.41415316  0.27426901  1
  O2-  O247  1  0.95060112  0.41674033  0.60000553  1
  O2-  O248  1  0.96369140  0.41856754  0.93250780  1
  O2-  O249  1  0.95769620  0.91353264  0.26805814  1
  O2-  O250  1  0.94986297  0.91686491  0.60557247  1
  O2-  O251  1  0.95227831  0.91661128  0.94047757  1
  O2-  O252  1  0.33737415  0.29311633  0.27043800  1
  O2-  O253  1  0.32736325  0.29761746  0.59605130  1
  O2-  O254  1  0.32405196  0.29928524  0.93644339  1
  O2-  O255  1  0.33679579  0.79153181  0.27016025  1
  O2-  O256  1  0.32984574  0.78953681  0.59702764  1
  O2-  O257  1  0.33179841  0.78687684  0.93239480  1
  O2-  O258  1  0.83979890  0.28780809  0.27013207  1
  O2-  O259  1  0.83354063  0.29699329  0.60225692  1
  O2-  O260  1  0.83508090  0.29533417  0.93353515  1
  O2-  O261  1  0.83491397  0.79713344  0.26799501  1
  O2-  O262  1  0.83629306  0.79428595  0.60223495  1
  O2-  O263  1  0.83783953  0.79276857  0.93633879  1
  O2-  O264  1  0.42396068  0.04281624  0.06611771  1
  O2-  O265  1  0.41924768  0.04386347  0.39393266  1
  O2-  O266  1  0.42411724  0.04950131  0.72756769  1
  O2-  O267  1  0.42032178  0.55390832  0.05795929  1
  O2-  O268  1  0.42074259  0.54753051  0.39892296  1
  O2-  O269  1  0.41895962  0.54162513  0.73538853  1
  O2-  O270  1  0.91273914  0.03966773  0.07329277  1
  O2-  O271  1  0.91096682  0.03996561  0.39468805  1
  O2-  O272  1  0.91219993  0.03874280  0.73720908  1
  O2-  O273  1  0.91574174  0.53884656  0.06823367  1
  O2-  O274  1  0.91846886  0.54378859  0.40379273  1
  O2-  O275  1  0.91337036  0.54277470  0.72849012  1
  O2-  O276  1  0.29494882  0.16813560  0.07048778  1
  O2-  O277  1  0.30230153  0.16497432  0.39292011  1
  O2-  O278  1  0.28931733  0.17098460  0.73028327  1
  O2-  O279  1  0.29082876  0.66125099  0.06319630  1
  O2-  O280  1  0.28914823  0.66731777  0.40027977  1
  O2-  O281  1  0.28637836  0.66362948  0.73492031  1
  O2-  O282  1  0.78952861  0.17072132  0.06923122  1
  O2-  O283  1  0.79390718  0.16181960  0.39656397  1
  O2-  O284  1  0.79158512  0.17083019  0.73256571  1
  O2-  O285  1  0.79462114  0.66910225  0.06772044  1
  O2-  O286  1  0.79631870  0.67405600  0.40137519  1
  O2-  O287  1  0.79522621  0.66483681  0.72837904  1
