# generated using pymatgen
data_Ca2Al2SiO7
_symmetry_space_group_name_H-M   'P 1'
_cell_length_a   15.45476648
_cell_length_b   15.45384989
_cell_length_c   15.28113982
_cell_angle_alpha   89.99944553
_cell_angle_beta   90.01258765
_cell_angle_gamma   89.99503600
_symmetry_Int_Tables_number   1
_chemical_formula_structural   Ca2Al2SiO7
_chemical_formula_sum   'Ca48 Al48 Si24 O168'
_cell_volume   3649.68072508
_cell_formula_units_Z   24
loop_
 _symmetry_equiv_pos_site_id
 _symmetry_equiv_pos_as_xyz
  1  'x, y, z'
loop_
 _atom_type_symbol
 _atom_type_oxidation_number
  Ca2+  2.0
  Al0+  0.0
  Si0+  0.0
  O2-  -2.0
loop_
 _atom_site_type_symbol
 _atom_site_label
 _atom_site_symmetry_multiplicity
 _atom_site_fract_x
 _atom_site_fract_y
 _atom_site_fract_z
 _atom_site_occupancy
  Ca2+  Ca0  1  0.16976336  0.07863760  0.18249666  1
  Ca2+  Ca1  1  0.17244977  0.07801052  0.50308772  1
  Ca2+  Ca2  1  0.17465309  0.07945851  0.83221101  1
  Ca2+  Ca3  1  0.15999713  0.58194794  0.16854570  1
  Ca2+  Ca4  1  0.17079463  0.57974189  0.51050767  1
  Ca2+  Ca5  1  0.16964247  0.57664527  0.83694474  1
  Ca2+  Ca6  1  0.66862664  0.07919652  0.16971832  1
  Ca2+  Ca7  1  0.67320472  0.08989722  0.50391671  1
  Ca2+  Ca8  1  0.66131241  0.08060360  0.84079050  1
  Ca2+  Ca9  1  0.65949813  0.58066166  0.17038464  1
  Ca2+  Ca10  1  0.66371853  0.57928072  0.50667445  1
  Ca2+  Ca11  1  0.65864864  0.57379167  0.83801651  1
  Ca2+  Ca12  1  0.08017965  0.33003207  0.16480785  1
  Ca2+  Ca13  1  0.07505449  0.33334142  0.49210497  1
  Ca2+  Ca14  1  0.07913815  0.34117069  0.82676286  1
  Ca2+  Ca15  1  0.08383333  0.82891537  0.16687193  1
  Ca2+  Ca16  1  0.08605898  0.83262628  0.49028225  1
  Ca2+  Ca17  1  0.08794067  0.82899963  0.82911746  1
  Ca2+  Ca18  1  0.57617712  0.32874653  0.16108641  1
  Ca2+  Ca19  1  0.57787063  0.33071410  0.49792245  1
  Ca2+  Ca20  1  0.59284183  0.32456533  0.82699715  1
  Ca2+  Ca21  1  0.58958252  0.82392431  0.16015433  1
  Ca2+  Ca22  1  0.57623060  0.82206122  0.49815386  1
  Ca2+  Ca23  1  0.58090364  0.82401208  0.82449320  1
  Ca2+  Ca24  1  0.32963419  0.41502053  0.17127030  1
  Ca2+  Ca25  1  0.32901358  0.42024969  0.50789459  1
  Ca2+  Ca26  1  0.32469205  0.42132076  0.83470147  1
  Ca2+  Ca27  1  0.32788387  0.92537416  0.17724718  1
  Ca2+  Ca28  1  0.32543191  0.92233507  0.50779404  1
  Ca2+  Ca29  1  0.33842609  0.91727059  0.82864136  1
  Ca2+  Ca30  1  0.82686515  0.41400081  0.16953286  1
  Ca2+  Ca31  1  0.83140733  0.41338992  0.50669170  1
  Ca2+  Ca32  1  0.82391620  0.41427880  0.83394519  1
  Ca2+  Ca33  1  0.82928597  0.91775883  0.17472303  1
  Ca2+  Ca34  1  0.83968580  0.92252091  0.49841631  1
  Ca2+  Ca35  1  0.82371241  0.91961970  0.83983924  1
  Ca2+  Ca36  1  0.41366938  0.17171374  0.16468713  1
  Ca2+  Ca37  1  0.41449270  0.16756030  0.49715460  1
  Ca2+  Ca38  1  0.42849763  0.16370195  0.82607511  1
  Ca2+  Ca39  1  0.42686978  0.66934799  0.16298098  1
  Ca2+  Ca40  1  0.42107119  0.66412754  0.49963229  1
  Ca2+  Ca41  1  0.42460780  0.66861155  0.82356958  1
  Ca2+  Ca42  1  0.91870070  0.16407533  0.17265591  1
  Ca2+  Ca43  1  0.92151197  0.17621676  0.49099712  1
  Ca2+  Ca44  1  0.91893622  0.17541321  0.82493012  1
  Ca2+  Ca45  1  0.92759383  0.67071317  0.16738671  1
  Ca2+  Ca46  1  0.92623352  0.67448181  0.48925563  1
  Ca2+  Ca47  1  0.92248370  0.66408461  0.83339680  1
  Al0+  Al48  1  0.00067123  0.00153222  -0.00179565  1
  Al0+  Al49  1  -0.00269396  0.00041581  0.33398788  1
  Al0+  Al50  1  0.00037109  0.00117754  0.67318227  1
  Al0+  Al51  1  -0.00011529  0.50075296  0.00020303  1
  Al0+  Al52  1  -0.00343812  0.50045345  0.32626028  1
  Al0+  Al53  1  -0.00275936  0.50175023  0.66570764  1
  Al0+  Al54  1  0.50046492  0.00129484  0.00370346  1
  Al0+  Al55  1  0.50069257  -0.00154239  0.33863112  1
  Al0+  Al56  1  0.50165102  -0.00145126  0.65948704  1
  Al0+  Al57  1  0.49768401  0.50035689  0.00096517  1
  Al0+  Al58  1  0.49857418  0.49757608  0.32554482  1
  Al0+  Al59  1  0.50073167  0.49678469  0.67255448  1
  Al0+  Al60  1  0.24851675  0.25129965  0.00241061  1
  Al0+  Al61  1  0.24993484  0.25124700  0.33034685  1
  Al0+  Al62  1  0.25022584  0.24709678  0.67638160  1
  Al0+  Al63  1  0.24963419  0.75062268  -0.00354981  1
  Al0+  Al64  1  0.25321772  0.74839458  0.33196208  1
  Al0+  Al65  1  0.25115605  0.75042982  0.67100772  1
  Al0+  Al66  1  0.75052512  0.25141047  0.00214627  1
  Al0+  Al67  1  0.74807571  0.24892850  0.33346751  1
  Al0+  Al68  1  0.75220810  0.25094116  0.66212477  1
  Al0+  Al69  1  0.75138717  0.75033893  -0.00095889  1
  Al0+  Al70  1  0.75104078  0.74718970  0.32750718  1
  Al0+  Al71  1  0.75215452  0.75007484  0.66279406  1
  Al0+  Al72  1  0.57191404  0.67508531  0.65184708  1
  Al0+  Al73  1  0.92962392  0.82265499  0.31854589  1
  Al0+  Al74  1  0.57184704  0.17874703  0.65199079  1
  Al0+  Al75  1  0.17781998  0.92880798  0.68382427  1
  Al0+  Al76  1  0.93150876  0.32152592  0.65335275  1
  Al0+  Al77  1  0.07057886  0.18048205  0.32019959  1
  Al0+  Al78  1  0.67907777  0.92916080  0.01247609  1
  Al0+  Al79  1  0.32232002  0.07424908  0.34914153  1
  Al0+  Al80  1  0.92559613  0.32199725  0.31580558  1
  Al0+  Al81  1  0.07053770  0.67977940  0.98359943  1
  Al0+  Al82  1  0.67803740  0.42915922  0.01554771  1
  Al0+  Al83  1  0.56982291  0.18126264  0.98827837  1
  Al0+  Al84  1  0.81810057  0.07043204  0.34819221  1
  Al0+  Al85  1  0.32243877  0.57085466  0.68180622  1
  Al0+  Al86  1  0.68083547  0.42902394  0.67820940  1
  Al0+  Al87  1  0.56961051  0.67884482  0.31891180  1
  Al0+  Al88  1  0.42906764  0.31943204  0.32068613  1
  Al0+  Al89  1  0.57184804  0.67888047  0.98487819  1
  Al0+  Al90  1  0.17822248  0.43030291  0.01669604  1
  Al0+  Al91  1  0.17932460  0.92742379  0.34678929  1
  Al0+  Al92  1  0.42791019  0.82027054  0.64975105  1
  Al0+  Al93  1  0.07507397  0.67870180  0.31973650  1
  Al0+  Al94  1  0.32467215  0.07049597  0.68362723  1
  Al0+  Al95  1  0.17573731  0.42879257  0.67937028  1
  Si0+  Si96  1  0.17818614  0.92913625  0.01568161  1
  Si0+  Si97  1  0.42854053  0.82318885  0.98439930  1
  Si0+  Si98  1  0.32065812  0.07050828  0.01585381  1
  Si0+  Si99  1  0.42532258  0.32208515  0.98126348  1
  Si0+  Si100  1  0.82156426  0.57527268  0.68288351  1
  Si0+  Si101  1  0.92910323  0.82432296  0.98135689  1
  Si0+  Si102  1  0.68101082  0.92781171  0.67892763  1
  Si0+  Si103  1  0.06988607  0.68078500  0.65347465  1
  Si0+  Si104  1  0.82008469  0.07174092  0.68234015  1
  Si0+  Si105  1  0.32279014  0.56873437  0.34615298  1
  Si0+  Si106  1  0.07260149  0.17800352  0.98335554  1
  Si0+  Si107  1  0.32047655  0.57362977  0.01901156  1
  Si0+  Si108  1  0.82217105  0.57194236  0.01804894  1
  Si0+  Si109  1  0.42581675  0.31998825  0.65342778  1
  Si0+  Si110  1  0.93006445  0.32019224  0.98428303  1
  Si0+  Si111  1  0.42915106  0.82316069  0.31604992  1
  Si0+  Si112  1  0.92897739  0.82391998  0.65299675  1
  Si0+  Si113  1  0.82078942  0.57027175  0.34796770  1
  Si0+  Si114  1  0.82353157  0.07291746  0.01644586  1
  Si0+  Si115  1  0.67841069  0.92323586  0.35221764  1
  Si0+  Si116  1  0.57214995  0.17589529  0.31721732  1
  Si0+  Si117  1  0.17657549  0.43097210  0.34618129  1
  Si0+  Si118  1  0.07304290  0.17671975  0.65224646  1
  Si0+  Si119  1  0.67747717  0.42999496  0.34771053  1
  O2-  O120  1  0.24829540  0.00066668  0.05763444  1
  O2-  O121  1  0.25073040  0.00028042  0.39643845  1
  O2-  O122  1  0.25241416  -0.00157290  0.73423160  1
  O2-  O123  1  0.25242536  0.50479988  0.06454152  1
  O2-  O124  1  0.24555288  0.50405477  0.38791660  1
  O2-  O125  1  0.24842729  0.49962081  0.73050183  1
  O2-  O126  1  0.75524605  0.00284689  0.05867333  1
  O2-  O127  1  0.74376807  -0.00453815  0.39645473  1
  O2-  O128  1  0.74907874  0.00080786  0.72388223  1
  O2-  O129  1  0.74857356  0.50807489  0.06258470  1
  O2-  O130  1  0.75046874  0.49866817  0.39035050  1
  O2-  O131  1  0.75010275  0.50875793  0.72586840  1
  O2-  O132  1  -0.00071012  0.25160083  0.26631644  1
  O2-  O133  1  0.01086661  0.25139975  0.60856074  1
  O2-  O134  1  0.00144532  0.24938635  0.94190363  1
  O2-  O135  1  0.00612007  0.75438428  0.27029885  1
  O2-  O136  1  0.00269647  0.75542989  0.61171540  1
  O2-  O137  1  -0.00214179  0.75631292  0.93601218  1
  O2-  O138  1  0.49882139  0.23990267  0.27389957  1
  O2-  O139  1  0.49356739  0.25088966  0.60790534  1
  O2-  O140  1  0.49782335  0.25682124  0.93813113  1
  O2-  O141  1  0.50072239  0.75812104  0.27079262  1
  O2-  O142  1  0.49734401  0.74415168  0.60168627  1
  O2-  O143  1  0.49756353  0.75463380  0.94023318  1
  O2-  O144  1  0.07250289  0.17592468  0.08804239  1
  O2-  O145  1  0.07028842  0.18397880  0.43384351  1
  O2-  O146  1  0.06764215  0.17448534  0.75844740  1
  O2-  O147  1  0.06925504  0.68183610  0.09629409  1
  O2-  O148  1  0.07227399  0.67555753  0.43371578  1
  O2-  O149  1  0.06593016  0.67932779  0.75867908  1
  O2-  O150  1  0.56702948  0.18069027  0.10121558  1
  O2-  O151  1  0.57521137  0.18088619  0.42267749  1
  O2-  O152  1  0.57420780  0.17962928  0.76555487  1
  O2-  O153  1  0.56975489  0.68033796  0.09830797  1
  O2-  O154  1  0.56749656  0.67577904  0.43157368  1
  O2-  O155  1  0.57369554  0.67869652  0.76545671  1
  O2-  O156  1  0.17818858  0.43133069  0.24093093  1
  O2-  O157  1  0.17482104  0.43159062  0.56531009  1
  O2-  O158  1  0.17811763  0.43116359  0.90377501  1
  O2-  O159  1  0.18259986  0.92808846  0.23224957  1
  O2-  O160  1  0.17325753  0.93089882  0.57085150  1
  O2-  O161  1  0.17739402  0.93056161  0.91090112  1
  O2-  O162  1  0.67742084  0.43174896  0.24241969  1
  O2-  O163  1  0.68290488  0.42847456  0.56481275  1
  O2-  O164  1  0.68297181  0.42606847  0.90257400  1
  O2-  O165  1  0.67968835  0.92367631  0.24617741  1
  O2-  O166  1  0.68568780  0.92625796  0.57416871  1
  O2-  O167  1  0.67985742  0.93124402  0.89887000  1
  O2-  O168  1  0.42430606  0.31885701  0.08723138  1
  O2-  O169  1  0.43196463  0.32481044  0.43360343  1
  O2-  O170  1  0.42727244  0.31918270  0.75902283  1
  O2-  O171  1  0.42797975  0.82212736  0.09020838  1
  O2-  O172  1  0.42839744  0.82014195  0.42108430  1
  O2-  O173  1  0.43395939  0.82123797  0.76392776  1
  O2-  O174  1  0.92974151  0.31894153  0.08906622  1
  O2-  O175  1  0.92728613  0.32284857  0.42944054  1
  O2-  O176  1  0.92925148  0.31847788  0.76710261  1
  O2-  O177  1  0.93045621  0.82623795  0.08636123  1
  O2-  O178  1  0.92854372  0.81860674  0.43270344  1
  O2-  O179  1  0.92649291  0.82277008  0.75817462  1
  O2-  O180  1  0.32121436  0.07219907  0.23450226  1
  O2-  O181  1  0.32150798  0.07148075  0.57064221  1
  O2-  O182  1  0.32169431  0.06936666  0.91111074  1
  O2-  O183  1  0.32514064  0.56626515  0.24109346  1
  O2-  O184  1  0.32034178  0.56858682  0.56734109  1
  O2-  O185  1  0.31936407  0.57252387  0.91371087  1
  O2-  O186  1  0.81431987  0.07056606  0.23480030  1
  O2-  O187  1  0.82125985  0.07109162  0.57751504  1
  O2-  O188  1  0.82446592  0.07290487  0.91035555  1
  O2-  O189  1  0.82010715  0.57050649  0.24288539  1
  O2-  O190  1  0.82413358  0.57574098  0.57731592  1
  O2-  O191  1  0.82423614  0.56896141  0.91219614  1
  O2-  O192  1  0.04022807  0.08275170  0.26685335  1
  O2-  O193  1  0.03985503  0.08545774  0.60624875  1
  O2-  O194  1  0.04446246  0.08675891  0.93429889  1
  O2-  O195  1  0.03909251  0.58403984  0.26360917  1
  O2-  O196  1  0.03844387  0.59098714  0.60446631  1
  O2-  O197  1  0.03610779  0.58365310  0.93031388  1
  O2-  O198  1  0.55335853  0.07900973  0.27527612  1
  O2-  O199  1  0.54784419  0.08188783  0.59661520  1
  O2-  O200  1  0.53817539  0.08410998  0.93500707  1
  O2-  O201  1  0.53404727  0.58501192  0.26247717  1
  O2-  O202  1  0.54606237  0.57443611  0.60229760  1
  O2-  O203  1  0.53992073  0.58125459  0.93361306  1
  O2-  O204  1  0.16778548  0.20841631  0.26454749  1
  O2-  O205  1  0.16998420  0.19452108  0.61194397  1
  O2-  O206  1  0.16451802  0.20637567  0.93667146  1
  O2-  O207  1  0.17448164  0.70096433  0.26572720  1
  O2-  O208  1  0.16353672  0.70374362  0.60890461  1
  O2-  O209  1  0.16752883  0.70942933  0.92977077  1
  O2-  O210  1  0.66279477  0.20635573  0.26855766  1
  O2-  O211  1  0.66647887  0.21409174  0.59709650  1
  O2-  O212  1  0.66850876  0.20909997  0.93567387  1
  O2-  O213  1  0.66700790  0.70456540  0.26435397  1
  O2-  O214  1  0.67038298  0.70619372  0.59909852  1
  O2-  O215  1  0.67024630  0.70647956  0.93302766  1
  O2-  O216  1  0.08120067  0.46142236  0.06945668  1
  O2-  O217  1  0.08281115  0.45668526  0.39073511  1
  O2-  O218  1  0.07801481  0.46087136  0.73315659  1
  O2-  O219  1  0.08538896  0.95683610  0.06135803  1
  O2-  O220  1  0.07937449  0.95261759  0.39685229  1
  O2-  O221  1  0.08043413  0.95936706  0.74068166  1
  O2-  O222  1  0.57895784  0.45552829  0.06733265  1
  O2-  O223  1  0.58605239  0.46132728  0.39348105  1
  O2-  O224  1  0.58417804  0.45106284  0.73541422  1
  O2-  O225  1  0.58397790  0.96046475  0.06962729  1
  O2-  O226  1  0.58353140  0.94419430  0.39693703  1
  O2-  O227  1  0.58850427  0.95339855  0.72440596  1
  O2-  O228  1  0.20817087  0.33266560  0.07008416  1
  O2-  O229  1  0.20607527  0.33995683  0.39282421  1
  O2-  O230  1  0.19955376  0.33015769  0.73406912  1
  O2-  O231  1  0.20585030  0.83649884  0.06113795  1
  O2-  O232  1  0.20852774  0.82807781  0.39844891  1
  O2-  O233  1  0.20456607  0.83036557  0.73727277  1
  O2-  O234  1  0.71290593  0.33414461  0.07088042  1
  O2-  O235  1  0.70222973  0.33712714  0.39365788  1
  O2-  O236  1  0.71937847  0.33443154  0.73272721  1
  O2-  O237  1  0.71085275  0.83264094  0.06654693  1
  O2-  O238  1  0.70813844  0.83003662  0.39659179  1
  O2-  O239  1  0.71218614  0.83721524  0.72799121  1
  O2-  O240  1  0.46415615  0.41145664  0.26000499  1
  O2-  O241  1  0.45250417  0.41327444  0.60777765  1
  O2-  O242  1  0.44610534  0.41786812  0.93934286  1
  O2-  O243  1  0.45149082  0.91854279  0.27159662  1
  O2-  O244  1  0.45987652  0.91587792  0.59407625  1
  O2-  O245  1  0.45461931  0.91716523  0.93999913  1
  O2-  O246  1  0.95119786  0.41988389  0.26131079  1
  O2-  O247  1  0.95533395  0.42008620  0.59934404  1
  O2-  O248  1  0.95787879  0.41203184  0.93752323  1
  O2-  O249  1  0.95049895  0.92186668  0.26509597  1
  O2-  O250  1  0.95450424  0.91757593  0.60825434  1
  O2-  O251  1  0.95360992  0.91853744  0.93454119  1
  O2-  O252  1  0.33267648  0.29349078  0.26359303  1
  O2-  O253  1  0.33113457  0.29538912  0.60858336  1
  O2-  O254  1  0.33219269  0.29341165  0.93591986  1
  O2-  O255  1  0.33773199  0.79420687  0.26730253  1
  O2-  O256  1  0.32746699  0.79490665  0.59958906  1
  O2-  O257  1  0.33506707  0.79886976  0.93749551  1
  O2-  O258  1  0.82740272  0.29058058  0.26410643  1
  O2-  O259  1  0.83844637  0.28548747  0.59679925  1
  O2-  O260  1  0.83851972  0.29118701  0.93683399  1
  O2-  O261  1  0.83398715  0.78854780  0.26281554  1
  O2-  O262  1  0.83939690  0.79516541  0.60232833  1
  O2-  O263  1  0.83595631  0.79730790  0.93472377  1
  O2-  O264  1  0.41123453  0.04281105  0.06555799  1
  O2-  O265  1  0.42217619  0.04896359  0.40064681  1
  O2-  O266  1  0.42451674  0.03952491  0.73372484  1
  O2-  O267  1  0.41398513  0.54760478  0.06539616  1
  O2-  O268  1  0.41188032  0.53317494  0.39417282  1
  O2-  O269  1  0.41917635  0.54145662  0.73752689  1
  O2-  O270  1  0.91773812  0.04739250  0.06188538  1
  O2-  O271  1  0.91435895  0.04131080  0.40350197  1
  O2-  O272  1  0.91056211  0.04446619  0.73292280  1
  O2-  O273  1  0.91328192  0.54052385  0.06544815  1
  O2-  O274  1  0.91287561  0.54290144  0.39575412  1
  O2-  O275  1  0.91293652  0.54555621  0.73155839  1
  O2-  O276  1  0.29269947  0.16301426  0.06169135  1
  O2-  O277  1  0.29344916  0.17334763  0.40047443  1
  O2-  O278  1  0.29760615  0.16719978  0.74163101  1
  O2-  O279  1  0.29460367  0.66817110  0.06357331  1
  O2-  O280  1  0.30287437  0.66260016  0.39224678  1
  O2-  O281  1  0.29600842  0.66874961  0.73576749  1
  O2-  O282  1  0.79722595  0.16552453  0.06307591  1
  O2-  O283  1  0.78628158  0.16719101  0.40318713  1
  O2-  O284  1  0.79133156  0.16319854  0.72954677  1
  O2-  O285  1  0.80301373  0.66798156  0.06115462  1
  O2-  O286  1  0.79287210  0.66198817  0.39556719  1
  O2-  O287  1  0.80044111  0.66972810  0.72983188  1
