# generated using pymatgen
data_Ca2Al2SiO7
_symmetry_space_group_name_H-M   'P 1'
_cell_length_a   15.46506694
_cell_length_b   15.46467072
_cell_length_c   15.28885761
_cell_angle_alpha   90.00101411
_cell_angle_beta   90.01379802
_cell_angle_gamma   89.99865300
_symmetry_Int_Tables_number   1
_chemical_formula_structural   Ca2Al2SiO7
_chemical_formula_sum   'Ca48 Al48 Si24 O168'
_cell_volume   3656.51622302
_cell_formula_units_Z   24
loop_
 _symmetry_equiv_pos_site_id
 _symmetry_equiv_pos_as_xyz
  1  'x, y, z'
loop_
 _atom_type_symbol
 _atom_type_oxidation_number
  Ca2+  2.0
  Al0+  0.0
  Si0+  0.0
  O2-  -2.0
loop_
 _atom_site_type_symbol
 _atom_site_label
 _atom_site_symmetry_multiplicity
 _atom_site_fract_x
 _atom_site_fract_y
 _atom_site_fract_z
 _atom_site_occupancy
  Ca2+  Ca0  1  0.16917499  0.07762975  0.17851709  1
  Ca2+  Ca1  1  0.16156771  0.07142946  0.50297234  1
  Ca2+  Ca2  1  0.16724480  0.07617734  0.83684365  1
  Ca2+  Ca3  1  0.16505525  0.58858084  0.17134180  1
  Ca2+  Ca4  1  0.16513455  0.57823163  0.50324080  1
  Ca2+  Ca5  1  0.16501335  0.57831390  0.83594273  1
  Ca2+  Ca6  1  0.67327458  0.09328806  0.17036449  1
  Ca2+  Ca7  1  0.67451228  0.08697941  0.50461559  1
  Ca2+  Ca8  1  0.67187051  0.09134967  0.83518594  1
  Ca2+  Ca9  1  0.66869749  0.57101555  0.17871769  1
  Ca2+  Ca10  1  0.67260621  0.57595626  0.50624838  1
  Ca2+  Ca11  1  0.67059278  0.57233268  0.83882791  1
  Ca2+  Ca12  1  0.06676432  0.32976326  0.16429448  1
  Ca2+  Ca13  1  0.07618714  0.32694239  0.49015996  1
  Ca2+  Ca14  1  0.07498894  0.33555500  0.82790044  1
  Ca2+  Ca15  1  0.08454157  0.82476176  0.16651649  1
  Ca2+  Ca16  1  0.08422268  0.83071267  0.49174018  1
  Ca2+  Ca17  1  0.08315492  0.82864091  0.83035018  1
  Ca2+  Ca18  1  0.59080768  0.32686185  0.16126066  1
  Ca2+  Ca19  1  0.59683542  0.32638464  0.49699481  1
  Ca2+  Ca20  1  0.59295656  0.32659952  0.83212525  1
  Ca2+  Ca21  1  0.57459134  0.83124090  0.16411904  1
  Ca2+  Ca22  1  0.58329314  0.82935554  0.49086143  1
  Ca2+  Ca23  1  0.57956584  0.84020601  0.82723050  1
  Ca2+  Ca24  1  0.33326991  0.41411129  0.16919092  1
  Ca2+  Ca25  1  0.32470635  0.41707090  0.50600869  1
  Ca2+  Ca26  1  0.32702639  0.40941195  0.83820581  1
  Ca2+  Ca27  1  0.33166566  0.91033831  0.17332119  1
  Ca2+  Ca28  1  0.32309391  0.90968167  0.50043334  1
  Ca2+  Ca29  1  0.33062316  0.91431699  0.83720039  1
  Ca2+  Ca30  1  0.82618646  0.41355461  0.17334373  1
  Ca2+  Ca31  1  0.82735531  0.42315524  0.49831310  1
  Ca2+  Ca32  1  0.82371112  0.41445953  0.83562266  1
  Ca2+  Ca33  1  0.83697704  0.93204751  0.17194592  1
  Ca2+  Ca34  1  0.82900881  0.92978858  0.50716578  1
  Ca2+  Ca35  1  0.82549011  0.92930415  0.83500822  1
  Ca2+  Ca36  1  0.43060841  0.17266568  0.16011523  1
  Ca2+  Ca37  1  0.43119319  0.16658105  0.49458146  1
  Ca2+  Ca38  1  0.43059839  0.17126707  0.83014468  1
  Ca2+  Ca39  1  0.42168538  0.67579993  0.16772290  1
  Ca2+  Ca40  1  0.42651292  0.67300284  0.48989699  1
  Ca2+  Ca41  1  0.41859354  0.67174516  0.83398357  1
  Ca2+  Ca42  1  0.90848436  0.17544536  0.16593415  1
  Ca2+  Ca43  1  0.91492053  0.17017061  0.48930809  1
  Ca2+  Ca44  1  0.90594251  0.16975408  0.83297683  1
  Ca2+  Ca45  1  0.92770393  0.65611558  0.16562879  1
  Ca2+  Ca46  1  0.91821231  0.66263575  0.49125108  1
  Ca2+  Ca47  1  0.91990085  0.66200844  0.82848410  1
  Al0+  Al48  1  -0.00019582  -0.00239983  0.00508342  1
  Al0+  Al49  1  0.00223749  -0.00152751  0.33867135  1
  Al0+  Al50  1  0.00077657  -0.00131608  0.67617304  1
  Al0+  Al51  1  0.00127353  0.49796675  -0.00927938  1
  Al0+  Al52  1  -0.00029052  0.49863466  0.32855707  1
  Al0+  Al53  1  0.00211758  0.49950347  0.67172816  1
  Al0+  Al54  1  0.49897252  -0.00003585  -0.00785381  1
  Al0+  Al55  1  0.49898309  0.00230535  0.32508964  1
  Al0+  Al56  1  0.49742286  0.00162778  0.66186530  1
  Al0+  Al57  1  0.49656486  0.50106423  0.00186678  1
  Al0+  Al58  1  0.49855510  0.50000333  0.33633702  1
  Al0+  Al59  1  0.49864628  0.50147611  0.66951108  1
  Al0+  Al60  1  0.24961838  0.24745070  -0.00018117  1
  Al0+  Al61  1  0.25100975  0.24776160  0.33244933  1
  Al0+  Al62  1  0.24936899  0.24948583  0.67016492  1
  Al0+  Al63  1  0.24964652  0.74772716  -0.00855631  1
  Al0+  Al64  1  0.24916758  0.74959592  0.33175911  1
  Al0+  Al65  1  0.24913671  0.74901591  0.67030835  1
  Al0+  Al66  1  0.75183688  0.25112260  -0.00027402  1
  Al0+  Al67  1  0.75037060  0.25111677  0.33407865  1
  Al0+  Al68  1  0.75140169  0.25276241  0.66679378  1
  Al0+  Al69  1  0.75167092  0.75059522  0.00137801  1
  Al0+  Al70  1  0.75151572  0.75089318  0.32876838  1
  Al0+  Al71  1  0.75140754  0.75273348  0.67360655  1
  Al0+  Al72  1  0.81975561  0.07005893  0.34657901  1
  Al0+  Al73  1  0.82333237  0.57265816  0.34510306  1
  Al0+  Al74  1  0.18056116  0.42824701  0.67981275  1
  Al0+  Al75  1  0.67826646  0.43030835  0.68291005  1
  Al0+  Al76  1  0.67577850  0.92957676  0.67904505  1
  Al0+  Al77  1  0.06874936  0.67907451  0.32223033  1
  Al0+  Al78  1  0.57121453  0.18206148  0.31984146  1
  Al0+  Al79  1  0.82053729  0.07245264  0.68170321  1
  Al0+  Al80  1  0.57169872  0.18213898  0.98347406  1
  Al0+  Al81  1  0.67715486  0.42965759  0.34909818  1
  Al0+  Al82  1  0.81884792  0.06965713  0.01615173  1
  Al0+  Al83  1  0.42961450  0.82033854  0.31999020  1
  Al0+  Al84  1  0.07286835  0.17492981  0.32028699  1
  Al0+  Al85  1  0.93078182  0.31849289  0.98321389  1
  Al0+  Al86  1  0.67903044  0.43193462  0.01494309  1
  Al0+  Al87  1  0.82240207  0.57270296  0.68192388  1
  Al0+  Al88  1  0.42590788  0.32323323  0.98509265  1
  Al0+  Al89  1  0.06878382  0.68028284  0.98347844  1
  Al0+  Al90  1  0.18013238  0.92782145  0.68296086  1
  Al0+  Al91  1  0.43105687  0.81952165  0.98415012  1
  Al0+  Al92  1  0.92993364  0.31926181  0.31908467  1
  Al0+  Al93  1  0.57119075  0.18192201  0.65005163  1
  Al0+  Al94  1  0.18152624  0.92865813  0.34612316  1
  Al0+  Al95  1  0.57502670  0.67666866  0.31970281  1
  Si0+  Si96  1  0.07252142  0.17469918  0.98353695  1
  Si0+  Si97  1  0.82464616  0.57283500  0.01636054  1
  Si0+  Si98  1  0.31949483  0.57145794  0.34792995  1
  Si0+  Si99  1  0.32167252  0.57233396  0.68462116  1
  Si0+  Si100  1  0.07223485  0.17685489  0.65348429  1
  Si0+  Si101  1  0.32160448  0.07202710  0.68426203  1
  Si0+  Si102  1  0.67503628  0.92830532  0.34568357  1
  Si0+  Si103  1  0.92743580  0.82504823  0.98191487  1
  Si0+  Si104  1  0.42524941  0.32346262  0.64947605  1
  Si0+  Si105  1  0.32420893  0.07327774  0.35027716  1
  Si0+  Si106  1  0.92735758  0.82432971  0.31799872  1
  Si0+  Si107  1  0.31794369  0.57204777  0.01642826  1
  Si0+  Si108  1  0.07009326  0.67916077  0.65057074  1
  Si0+  Si109  1  0.57348620  0.67745333  0.98366501  1
  Si0+  Si110  1  0.57214283  0.67998449  0.65402293  1
  Si0+  Si111  1  0.17921429  0.42751119  0.34530841  1
  Si0+  Si112  1  0.42488092  0.32358291  0.31910580  1
  Si0+  Si113  1  0.17790499  0.42751260  0.01638387  1
  Si0+  Si114  1  0.32139444  0.06984020  0.01541436  1
  Si0+  Si115  1  0.92991283  0.82223942  0.65266426  1
  Si0+  Si116  1  0.42680805  0.82020806  0.65078377  1
  Si0+  Si117  1  0.18131544  0.92674797  0.01621429  1
  Si0+  Si118  1  0.93148774  0.32120186  0.65023049  1
  Si0+  Si119  1  0.67472423  0.92663781  0.01770906  1
  O2-  O120  1  0.25060995  -0.00121591  0.05861497  1
  O2-  O121  1  0.25439782  0.00499334  0.39385844  1
  O2-  O122  1  0.25423702  0.00245987  0.73009027  1
  O2-  O123  1  0.25037020  0.49723323  0.05867878  1
  O2-  O124  1  0.25110443  0.49723444  0.38885024  1
  O2-  O125  1  0.25750666  0.49942288  0.72854647  1
  O2-  O126  1  0.74362845  -0.00541945  0.06222129  1
  O2-  O127  1  0.74485307  -0.00529297  0.39148087  1
  O2-  O128  1  0.74368845  0.00452975  0.73036783  1
  O2-  O129  1  0.75148544  0.50975555  0.06040965  1
  O2-  O130  1  0.74589718  0.50710912  0.39570867  1
  O2-  O131  1  0.74889284  0.50354333  0.73285813  1
  O2-  O132  1  0.00013702  0.24469729  0.26919206  1
  O2-  O133  1  0.00040436  0.24646047  0.61043390  1
  O2-  O134  1  0.00481176  0.24234470  0.93661236  1
  O2-  O135  1  -0.00905367  0.74986514  0.27474121  1
  O2-  O136  1  -0.00188476  0.74870750  0.60855435  1
  O2-  O137  1  -0.00882322  0.75175433  0.93695128  1
  O2-  O138  1  0.49725416  0.25896822  0.27595631  1
  O2-  O139  1  0.49727195  0.25933154  0.60434655  1
  O2-  O140  1  0.50119284  0.25639298  0.93366426  1
  O2-  O141  1  0.50512286  0.75164322  0.27064511  1
  O2-  O142  1  0.50247019  0.75300585  0.61097220  1
  O2-  O143  1  0.51069347  0.75061337  0.93672235  1
  O2-  O144  1  0.07413897  0.17660407  0.08873968  1
  O2-  O145  1  0.07296021  0.17789916  0.43452883  1
  O2-  O146  1  0.07379457  0.17856479  0.75867031  1
  O2-  O147  1  0.07097851  0.68151945  0.09662036  1
  O2-  O148  1  0.07129172  0.67957726  0.43546842  1
  O2-  O149  1  0.07098619  0.68061067  0.75567151  1
  O2-  O150  1  0.56996642  0.18225015  0.09703912  1
  O2-  O151  1  0.57027481  0.18105141  0.43308585  1
  O2-  O152  1  0.56969992  0.18189756  0.76272434  1
  O2-  O153  1  0.56957364  0.67759563  0.08886608  1
  O2-  O154  1  0.57139586  0.67784025  0.43406766  1
  O2-  O155  1  0.56847410  0.67976132  0.75913678  1
  O2-  O156  1  0.18083547  0.42855717  0.24018935  1
  O2-  O157  1  0.18023440  0.43080940  0.56624622  1
  O2-  O158  1  0.17869491  0.42913146  0.91108772  1
  O2-  O159  1  0.18452195  0.92597521  0.23287041  1
  O2-  O160  1  0.18108694  0.92529058  0.57014157  1
  O2-  O161  1  0.18245390  0.92792066  0.91082880  1
  O2-  O162  1  0.67808582  0.42847672  0.23548435  1
  O2-  O163  1  0.67976774  0.43149015  0.56974930  1
  O2-  O164  1  0.68124375  0.43275499  0.90189665  1
  O2-  O165  1  0.67484204  0.93025391  0.24012801  1
  O2-  O166  1  0.67915741  0.92697618  0.56538906  1
  O2-  O167  1  0.67565833  0.92656151  0.91213776  1
  O2-  O168  1  0.42212041  0.31898529  0.09854856  1
  O2-  O169  1  0.41852608  0.32131287  0.42449737  1
  O2-  O170  1  0.42164275  0.32001036  0.75455636  1
  O2-  O171  1  0.42805456  0.81638332  0.09674446  1
  O2-  O172  1  0.42791313  0.81683284  0.43396206  1
  O2-  O173  1  0.42492205  0.81743976  0.75598180  1
  O2-  O174  1  0.93177525  0.32013167  0.09585124  1
  O2-  O175  1  0.93310175  0.32084156  0.43309075  1
  O2-  O176  1  0.93307067  0.32116469  0.75553686  1
  O2-  O177  1  0.93163347  0.82849120  0.08726074  1
  O2-  O178  1  0.93042325  0.82648797  0.42377062  1
  O2-  O179  1  0.93366352  0.82189272  0.75770446  1
  O2-  O180  1  0.32302436  0.07370318  0.24462980  1
  O2-  O181  1  0.31976105  0.07182271  0.57882029  1
  O2-  O182  1  0.31868649  0.06856627  0.91017915  1
  O2-  O183  1  0.31780739  0.57289987  0.24276871  1
  O2-  O184  1  0.31928425  0.57464643  0.57888217  1
  O2-  O185  1  0.31542946  0.57451651  0.91131380  1
  O2-  O186  1  0.81900289  0.07010329  0.23347729  1
  O2-  O187  1  0.82291184  0.07061026  0.56811946  1
  O2-  O188  1  0.81899932  0.06795911  0.90323300  1
  O2-  O189  1  0.82633734  0.56693800  0.23171099  1
  O2-  O190  1  0.82343573  0.57232991  0.56858119  1
  O2-  O191  1  0.82375781  0.57182749  0.91070130  1
  O2-  O192  1  0.04972437  0.07472977  0.26965609  1
  O2-  O193  1  0.04601135  0.08280782  0.60980981  1
  O2-  O194  1  0.04799238  0.07950726  0.93995725  1
  O2-  O195  1  0.04312702  0.58292081  0.26465731  1
  O2-  O196  1  0.04490061  0.58569304  0.60526925  1
  O2-  O197  1  0.04256224  0.58332507  0.92792982  1
  O2-  O198  1  0.54010274  0.08734267  0.26271982  1
  O2-  O199  1  0.53769916  0.08542940  0.59610930  1
  O2-  O200  1  0.54135929  0.08420841  0.93034689  1
  O2-  O201  1  0.53968064  0.57986951  0.26749371  1
  O2-  O202  1  0.54212284  0.58872824  0.60623907  1
  O2-  O203  1  0.53979128  0.58691665  0.93632562  1
  O2-  O204  1  0.17167109  0.20254542  0.26744482  1
  O2-  O205  1  0.16406526  0.20483845  0.60618128  1
  O2-  O206  1  0.16622697  0.19916425  0.93711369  1
  O2-  O207  1  0.16345437  0.71285047  0.26633571  1
  O2-  O208  1  0.16286408  0.70782717  0.60527208  1
  O2-  O209  1  0.16312475  0.71343194  0.92637578  1
  O2-  O210  1  0.66668566  0.21337017  0.26580959  1
  O2-  O211  1  0.66903683  0.21284626  0.59810001  1
  O2-  O212  1  0.66959198  0.21145198  0.93125019  1
  O2-  O213  1  0.67345068  0.69955576  0.26468818  1
  O2-  O214  1  0.66508824  0.70691229  0.60917347  1
  O2-  O215  1  0.67025739  0.69600825  0.94112680  1
  O2-  O216  1  0.08639145  0.45909367  0.06135047  1
  O2-  O217  1  0.08880191  0.45760122  0.39296150  1
  O2-  O218  1  0.08747353  0.46283641  0.73735216  1
  O2-  O219  1  0.08878131  0.95083933  0.06308835  1
  O2-  O220  1  0.08609203  0.95626102  0.40425133  1
  O2-  O221  1  0.08566170  0.95815634  0.74053163  1
  O2-  O222  1  0.57967563  0.45834756  0.06622460  1
  O2-  O223  1  0.57658442  0.45152874  0.40181186  1
  O2-  O224  1  0.57785873  0.45506349  0.73398593  1
  O2-  O225  1  0.57940022  0.95184703  0.06008994  1
  O2-  O226  1  0.58095122  0.95413299  0.39069651  1
  O2-  O227  1  0.57429338  0.95255117  0.72801169  1
  O2-  O228  1  0.20352991  0.33452065  0.06238615  1
  O2-  O229  1  0.20607754  0.33574147  0.39380793  1
  O2-  O230  1  0.20703784  0.33144798  0.73597179  1
  O2-  O231  1  0.21245811  0.83429518  0.05970104  1
  O2-  O232  1  0.21461566  0.83280029  0.40184678  1
  O2-  O233  1  0.21210356  0.83175143  0.73774121  1
  O2-  O234  1  0.71412080  0.33607086  0.06655535  1
  O2-  O235  1  0.71332404  0.33428565  0.40265291  1
  O2-  O236  1  0.71195592  0.33390805  0.73539415  1
  O2-  O237  1  0.69851521  0.83165859  0.06280142  1
  O2-  O238  1  0.69744691  0.83296927  0.38954041  1
  O2-  O239  1  0.70582273  0.83417708  0.73733643  1
  O2-  O240  1  0.44401129  0.41927862  0.27542314  1
  O2-  O241  1  0.44395114  0.42064642  0.60744854  1
  O2-  O242  1  0.44408024  0.42552093  0.93601205  1
  O2-  O243  1  0.45141428  0.91903943  0.26518088  1
  O2-  O244  1  0.44590605  0.91392238  0.60435201  1
  O2-  O245  1  0.45495402  0.91659539  0.92783561  1
  O2-  O246  1  0.96227071  0.41462328  0.26283803  1
  O2-  O247  1  0.96532641  0.41213291  0.60499675  1
  O2-  O248  1  0.96408516  0.41272116  0.92608887  1
  O2-  O249  1  0.96201992  0.91404653  0.26995751  1
  O2-  O250  1  0.96209279  0.91348827  0.60645012  1
  O2-  O251  1  0.95971579  0.91590775  0.93390855  1
  O2-  O252  1  0.33365848  0.29528414  0.26929075  1
  O2-  O253  1  0.33186520  0.29450146  0.60298849  1
  O2-  O254  1  0.32820656  0.29010529  0.93162931  1
  O2-  O255  1  0.33397599  0.78495339  0.26558629  1
  O2-  O256  1  0.33628029  0.78580349  0.60415317  1
  O2-  O257  1  0.33706917  0.78286853  0.92797475  1
  O2-  O258  1  0.83263906  0.29028292  0.26581602  1
  O2-  O259  1  0.83927053  0.29662312  0.60345973  1
  O2-  O260  1  0.83533312  0.28684815  0.92894040  1
  O2-  O261  1  0.83281636  0.80874663  0.27056869  1
  O2-  O262  1  0.83619465  0.79920153  0.60723361  1
  O2-  O263  1  0.83130430  0.80494391  0.93851733  1
  O2-  O264  1  0.41381843  0.04136405  0.06059844  1
  O2-  O265  1  0.41757761  0.04591569  0.39580882  1
  O2-  O266  1  0.41475764  0.04561173  0.72988324  1
  O2-  O267  1  0.41025931  0.54975736  0.06492331  1
  O2-  O268  1  0.41073878  0.54694984  0.39799507  1
  O2-  O269  1  0.41603545  0.55304242  0.73104533  1
  O2-  O270  1  0.91627049  0.03801878  0.06955990  1
  O2-  O271  1  0.91644293  0.03989358  0.40082379  1
  O2-  O272  1  0.91654786  0.04079637  0.73766466  1
  O2-  O273  1  0.91863186  0.54144300  0.05805647  1
  O2-  O274  1  0.92080069  0.53926270  0.39916841  1
  O2-  O275  1  0.92013914  0.54232803  0.73515979  1
  O2-  O276  1  0.29356626  0.16124918  0.06371070  1
  O2-  O277  1  0.30047184  0.16680219  0.39781508  1
  O2-  O278  1  0.29499551  0.16443185  0.73193046  1
  O2-  O279  1  0.28329988  0.66216216  0.06315023  1
  O2-  O280  1  0.28724577  0.66054899  0.39750282  1
  O2-  O281  1  0.28992783  0.66275826  0.73370462  1
  O2-  O282  1  0.78821942  0.16657878  0.06834563  1
  O2-  O283  1  0.78882479  0.16597139  0.40055151  1
  O2-  O284  1  0.79462523  0.17154303  0.73284316  1
  O2-  O285  1  0.80867882  0.66992492  0.05955319  1
  O2-  O286  1  0.80521933  0.67554852  0.39373271  1
  O2-  O287  1  0.79896513  0.67171544  0.73597427  1
