# generated using pymatgen
data_Ca2Al2SiO7
_symmetry_space_group_name_H-M   'P 1'
_cell_length_a   15.45689503
_cell_length_b   15.45786594
_cell_length_c   15.28297764
_cell_angle_alpha   89.99358737
_cell_angle_beta   90.00025197
_cell_angle_gamma   90.00542298
_symmetry_Int_Tables_number   1
_chemical_formula_structural   Ca2Al2SiO7
_chemical_formula_sum   'Ca48 Al48 Si24 O168'
_cell_volume   3651.57115133
_cell_formula_units_Z   24
loop_
 _symmetry_equiv_pos_site_id
 _symmetry_equiv_pos_as_xyz
  1  'x, y, z'
loop_
 _atom_type_symbol
 _atom_type_oxidation_number
  Ca2+  2.0
  Al0+  0.0
  Si0+  0.0
  O2-  -2.0
loop_
 _atom_site_type_symbol
 _atom_site_label
 _atom_site_symmetry_multiplicity
 _atom_site_fract_x
 _atom_site_fract_y
 _atom_site_fract_z
 _atom_site_occupancy
  Ca2+  Ca0  1  0.15758271  0.08049983  0.17007093  1
  Ca2+  Ca1  1  0.17137931  0.08638928  0.50475087  1
  Ca2+  Ca2  1  0.16930984  0.08089436  0.83999165  1
  Ca2+  Ca3  1  0.17275291  0.57419746  0.17972067  1
  Ca2+  Ca4  1  0.17263053  0.58841453  0.50355934  1
  Ca2+  Ca5  1  0.17059302  0.58736475  0.83316561  1
  Ca2+  Ca6  1  0.67506425  0.08255369  0.17362863  1
  Ca2+  Ca7  1  0.67529736  0.08078672  0.51205732  1
  Ca2+  Ca8  1  0.66751484  0.08553006  0.82786620  1
  Ca2+  Ca9  1  0.67499653  0.57453108  0.17498753  1
  Ca2+  Ca10  1  0.66270262  0.57542445  0.50459779  1
  Ca2+  Ca11  1  0.66974107  0.57412545  0.83955250  1
  Ca2+  Ca12  1  0.08243286  0.32396815  0.15950168  1
  Ca2+  Ca13  1  0.07680381  0.32987216  0.49291582  1
  Ca2+  Ca14  1  0.06716939  0.33387650  0.82934134  1
  Ca2+  Ca15  1  0.08486786  0.82703229  0.16360754  1
  Ca2+  Ca16  1  0.08513720  0.82181904  0.49673178  1
  Ca2+  Ca17  1  0.08454833  0.82986639  0.83005299  1
  Ca2+  Ca18  1  0.58131522  0.34174467  0.16269786  1
  Ca2+  Ca19  1  0.58929158  0.33395280  0.50028970  1
  Ca2+  Ca20  1  0.58331993  0.33532550  0.82689790  1
  Ca2+  Ca21  1  0.57765931  0.82429442  0.16225804  1
  Ca2+  Ca22  1  0.58935044  0.82167717  0.49789033  1
  Ca2+  Ca23  1  0.58132336  0.82883273  0.82426634  1
  Ca2+  Ca24  1  0.32931198  0.41774224  0.17565411  1
  Ca2+  Ca25  1  0.32504990  0.42633916  0.50077198  1
  Ca2+  Ca26  1  0.33829481  0.42330870  0.83618880  1
  Ca2+  Ca27  1  0.32974788  0.91318416  0.16385608  1
  Ca2+  Ca28  1  0.33203814  0.92318201  0.50793742  1
  Ca2+  Ca29  1  0.33150840  0.92154191  0.83918116  1
  Ca2+  Ca30  1  0.82714953  0.42004641  0.16918457  1
  Ca2+  Ca31  1  0.82564266  0.41851252  0.50352533  1
  Ca2+  Ca32  1  0.82560027  0.41348271  0.83870564  1
  Ca2+  Ca33  1  0.83570743  0.92505174  0.17277889  1
  Ca2+  Ca34  1  0.83147138  0.92947774  0.50632697  1
  Ca2+  Ca35  1  0.82785047  0.91946831  0.83259987  1
  Ca2+  Ca36  1  0.42085203  0.17776663  0.15812098  1
  Ca2+  Ca37  1  0.42405835  0.16164360  0.49956817  1
  Ca2+  Ca38  1  0.42030277  0.17349217  0.82632600  1
  Ca2+  Ca39  1  0.42286735  0.66268082  0.16546684  1
  Ca2+  Ca40  1  0.42532447  0.65508958  0.49779171  1
  Ca2+  Ca41  1  0.42052752  0.67174617  0.82517064  1
  Ca2+  Ca42  1  0.92364316  0.17222117  0.16148019  1
  Ca2+  Ca43  1  0.91168034  0.17075734  0.49585437  1
  Ca2+  Ca44  1  0.91330827  0.17705189  0.82812922  1
  Ca2+  Ca45  1  0.91968124  0.65389669  0.16636005  1
  Ca2+  Ca46  1  0.92559959  0.66315410  0.49264313  1
  Ca2+  Ca47  1  0.92192699  0.66224001  0.82632915  1
  Al0+  Al48  1  0.00195976  -0.00371097  0.00018511  1
  Al0+  Al49  1  0.00049174  -0.00017007  0.33581034  1
  Al0+  Al50  1  0.00011832  0.00099296  0.67119268  1
  Al0+  Al51  1  0.00217401  0.49844142  -0.00145578  1
  Al0+  Al52  1  -0.00177267  0.49783756  0.33419462  1
  Al0+  Al53  1  0.00029348  0.49890327  0.65645717  1
  Al0+  Al54  1  0.49910932  -0.00085202  -0.00154185  1
  Al0+  Al55  1  0.49927103  -0.00034508  0.32976464  1
  Al0+  Al56  1  0.49864681  0.00175918  0.67055199  1
  Al0+  Al57  1  0.50140833  0.50028031  -0.00095368  1
  Al0+  Al58  1  0.49910167  0.50004365  0.33504209  1
  Al0+  Al59  1  0.49762004  0.50106781  0.67128064  1
  Al0+  Al60  1  0.25366537  0.24969406  -0.00907674  1
  Al0+  Al61  1  0.25020271  0.24890180  0.33344124  1
  Al0+  Al62  1  0.24807355  0.25206308  0.67163414  1
  Al0+  Al63  1  0.25128075  0.75225795  0.00074551  1
  Al0+  Al64  1  0.24949612  0.75152151  0.33269861  1
  Al0+  Al65  1  0.25014912  0.75021886  0.66655685  1
  Al0+  Al66  1  0.75010167  0.24896552  0.00238711  1
  Al0+  Al67  1  0.75007852  0.24901175  0.33827302  1
  Al0+  Al68  1  0.74862911  0.25092842  0.66592375  1
  Al0+  Al69  1  0.75226177  0.75002037  0.00450865  1
  Al0+  Al70  1  0.74951881  0.75038245  0.32946490  1
  Al0+  Al71  1  0.75053258  0.75112675  0.66509233  1
  Al0+  Al72  1  0.07078475  0.68087424  0.65290396  1
  Al0+  Al73  1  0.82170034  0.57316641  0.35015654  1
  Al0+  Al74  1  0.42921654  0.81967270  0.98524912  1
  Al0+  Al75  1  0.92744301  0.31941494  0.65000170  1
  Al0+  Al76  1  0.57099099  0.67868041  0.65440523  1
  Al0+  Al77  1  0.56778413  0.18083386  0.65278095  1
  Al0+  Al78  1  0.67894913  0.92717799  0.68122748  1
  Al0+  Al79  1  0.43100864  0.32314511  0.98585581  1
  Al0+  Al80  1  0.32062850  0.07322470  0.68100088  1
  Al0+  Al81  1  0.82384827  0.57175724  0.01405369  1
  Al0+  Al82  1  0.31886325  0.57064691  0.68234377  1
  Al0+  Al83  1  0.57043262  0.67775080  0.31860947  1
  Al0+  Al84  1  0.67846744  0.42776591  0.01564351  1
  Al0+  Al85  1  0.67818493  0.42982685  0.35052614  1
  Al0+  Al86  1  0.92921091  0.32072636  0.98539710  1
  Al0+  Al87  1  0.07089286  0.67775982  0.31806848  1
  Al0+  Al88  1  0.07143365  0.17926960  0.32083075  1
  Al0+  Al89  1  0.67963671  0.43123422  0.68138538  1
  Al0+  Al90  1  0.31927263  0.57263029  0.34763438  1
  Al0+  Al91  1  0.82136864  0.06908866  0.34624740  1
  Al0+  Al92  1  0.82155354  0.07259011  0.68406878  1
  Al0+  Al93  1  0.17770704  0.42543248  0.34687413  1
  Al0+  Al94  1  0.07156752  0.17576529  0.98348483  1
  Al0+  Al95  1  0.17982709  0.92989821  0.01528460  1
  Si0+  Si96  1  0.92814332  0.82135942  0.98528505  1
  Si0+  Si97  1  0.18087136  0.42807933  0.01234338  1
  Si0+  Si98  1  0.82462495  0.57219961  0.68054410  1
  Si0+  Si99  1  0.32226945  0.07125399  0.34617648  1
  Si0+  Si100  1  0.17508799  0.42886249  0.68506744  1
  Si0+  Si101  1  0.57352311  0.67974691  0.98321951  1
  Si0+  Si102  1  0.42830803  0.82255955  0.65010082  1
  Si0+  Si103  1  0.67722920  0.92781888  0.01632254  1
  Si0+  Si104  1  0.07253933  0.17742817  0.65079480  1
  Si0+  Si105  1  0.07131935  0.67914963  0.98656432  1
  Si0+  Si106  1  0.92548386  0.32065624  0.31557271  1
  Si0+  Si107  1  0.57206877  0.17720829  0.31872997  1
  Si0+  Si108  1  0.57280355  0.17655813  0.98425418  1
  Si0+  Si109  1  0.92746690  0.82459918  0.64987628  1
  Si0+  Si110  1  0.17904202  0.92814122  0.68322274  1
  Si0+  Si111  1  0.17928290  0.92966048  0.34906970  1
  Si0+  Si112  1  0.42744271  0.82531403  0.31582630  1
  Si0+  Si113  1  0.42514950  0.32398375  0.64804543  1
  Si0+  Si114  1  0.32034571  0.57202048  0.01434119  1
  Si0+  Si115  1  0.82091648  0.06904878  0.01504905  1
  Si0+  Si116  1  0.43008758  0.31883077  0.32089248  1
  Si0+  Si117  1  0.92963356  0.82219367  0.31664917  1
  Si0+  Si118  1  0.32259919  0.07316337  0.01799188  1
  Si0+  Si119  1  0.67512752  0.92872726  0.34789814  1
  O2-  O120  1  0.25098725  0.00794754  0.06344474  1
  O2-  O121  1  0.25172742  0.00014107  0.38916350  1
  O2-  O122  1  0.24463482  -0.00034756  0.72703989  1
  O2-  O123  1  0.25251456  0.49793617  0.05596911  1
  O2-  O124  1  0.24237236  0.50471380  0.39637448  1
  O2-  O125  1  0.24446389  0.49651939  0.73049721  1
  O2-  O126  1  0.74799541  -0.00043313  0.05789686  1
  O2-  O127  1  0.74472059  -0.00396979  0.39168962  1
  O2-  O128  1  0.75042339  -0.00113041  0.73334438  1
  O2-  O129  1  0.75107612  0.50021555  0.06337160  1
  O2-  O130  1  0.74842784  0.50329661  0.40078065  1
  O2-  O131  1  0.75401378  0.50706050  0.72659860  1
  O2-  O132  1  -0.00150813  0.25487191  0.27310243  1
  O2-  O133  1  0.00194912  0.24273077  0.60547888  1
  O2-  O134  1  -0.00069715  0.24716724  0.93375978  1
  O2-  O135  1  -0.00720303  0.74897080  0.27039151  1
  O2-  O136  1  -0.00503904  0.75459130  0.60620858  1
  O2-  O137  1  -0.00417892  0.74605963  0.94489033  1
  O2-  O138  1  0.50352858  0.25045006  0.27723840  1
  O2-  O139  1  0.49218261  0.25373623  0.60339146  1
  O2-  O140  1  0.50699458  0.24871828  0.94172909  1
  O2-  O141  1  0.49474649  0.75372457  0.27404657  1
  O2-  O142  1  0.49794159  0.75525686  0.60607659  1
  O2-  O143  1  0.50558492  0.74821123  0.93765337  1
  O2-  O144  1  0.06900157  0.17715810  0.09760782  1
  O2-  O145  1  0.07248072  0.17897409  0.43371687  1
  O2-  O146  1  0.07294502  0.17871366  0.75614308  1
  O2-  O147  1  0.07299057  0.68031803  0.09144555  1
  O2-  O148  1  0.07357605  0.68396874  0.43086254  1
  O2-  O149  1  0.07057702  0.68288988  0.76689550  1
  O2-  O150  1  0.57075281  0.17340062  0.09048902  1
  O2-  O151  1  0.56917704  0.17252008  0.42332677  1
  O2-  O152  1  0.56637087  0.18240427  0.76601249  1
  O2-  O153  1  0.57118988  0.68091609  0.08897419  1
  O2-  O154  1  0.56863843  0.67884532  0.43166273  1
  O2-  O155  1  0.56871655  0.67992191  0.76765380  1
  O2-  O156  1  0.18403550  0.42316625  0.23243351  1
  O2-  O157  1  0.17693079  0.42803338  0.57963263  1
  O2-  O158  1  0.17955108  0.43256213  0.90744364  1
  O2-  O159  1  0.17875157  0.92927034  0.24403915  1
  O2-  O160  1  0.18052873  0.92739557  0.57723942  1
  O2-  O161  1  0.18251418  0.92743337  0.90241830  1
  O2-  O162  1  0.67785977  0.42881338  0.23695299  1
  O2-  O163  1  0.67953822  0.43201118  0.56869116  1
  O2-  O164  1  0.67794776  0.42930251  0.90211297  1
  O2-  O165  1  0.67364036  0.93258545  0.24165564  1
  O2-  O166  1  0.68085390  0.92818612  0.56739486  1
  O2-  O167  1  0.67816775  0.92598057  0.91169812  1
  O2-  O168  1  0.42868891  0.32144078  0.09963818  1
  O2-  O169  1  0.42809064  0.31524021  0.42561081  1
  O2-  O170  1  0.42732547  0.32319876  0.75386930  1
  O2-  O171  1  0.43016414  0.81741636  0.09856621  1
  O2-  O172  1  0.42869025  0.83374514  0.42076896  1
  O2-  O173  1  0.42694111  0.82009542  0.75586884  1
  O2-  O174  1  0.93080709  0.31949927  0.09898973  1
  O2-  O175  1  0.92370711  0.31664640  0.42111790  1
  O2-  O176  1  0.92848341  0.32056387  0.76322353  1
  O2-  O177  1  0.92962248  0.82631042  0.09003802  1
  O2-  O178  1  0.93422841  0.82531862  0.42196040  1
  O2-  O179  1  0.92855393  0.82423088  0.75594624  1
  O2-  O180  1  0.32401944  0.07141684  0.24141681  1
  O2-  O181  1  0.31958996  0.07024605  0.56690039  1
  O2-  O182  1  0.32344164  0.07019542  0.91266828  1
  O2-  O183  1  0.32051455  0.56913899  0.23316685  1
  O2-  O184  1  0.31801985  0.57029550  0.56964415  1
  O2-  O185  1  0.31803388  0.57321730  0.90923977  1
  O2-  O186  1  0.82029972  0.06765080  0.23233334  1
  O2-  O187  1  0.82114230  0.07014697  0.57035677  1
  O2-  O188  1  0.81991586  0.06791222  0.91043975  1
  O2-  O189  1  0.82052770  0.56964637  0.23649726  1
  O2-  O190  1  0.82473289  0.57070305  0.57537331  1
  O2-  O191  1  0.82282697  0.57476062  0.90030429  1
  O2-  O192  1  0.03954137  0.08201787  0.26784388  1
  O2-  O193  1  0.05220213  0.08118893  0.60734498  1
  O2-  O194  1  0.04556039  0.07556276  0.93339950  1
  O2-  O195  1  0.04436808  0.57880398  0.26581535  1
  O2-  O196  1  0.04433025  0.58479981  0.59698131  1
  O2-  O197  1  0.04885876  0.58673141  0.93808372  1
  O2-  O198  1  0.54209976  0.08713481  0.26780656  1
  O2-  O199  1  0.53667319  0.08338751  0.59920331  1
  O2-  O200  1  0.54424218  0.08441533  0.93711531  1
  O2-  O201  1  0.53643105  0.58215496  0.26369517  1
  O2-  O202  1  0.53484571  0.58330015  0.60128034  1
  O2-  O203  1  0.54716502  0.58634791  0.93828571  1
  O2-  O204  1  0.16920935  0.20645015  0.26580862  1
  O2-  O205  1  0.16624615  0.20543948  0.60517002  1
  O2-  O206  1  0.17110274  0.20107106  0.93244367  1
  O2-  O207  1  0.16686900  0.71272681  0.26391483  1
  O2-  O208  1  0.16640817  0.71524217  0.59842420  1
  O2-  O209  1  0.16112821  0.71289877  0.93868411  1
  O2-  O210  1  0.66481134  0.20283325  0.27238402  1
  O2-  O211  1  0.66394491  0.21091668  0.59850759  1
  O2-  O212  1  0.66771996  0.19774720  0.94023924  1
  O2-  O213  1  0.66628473  0.70917031  0.26255719  1
  O2-  O214  1  0.66826797  0.70734229  0.60001544  1
  O2-  O215  1  0.66805027  0.70610341  0.94000344  1
  O2-  O216  1  0.08998857  0.45545647  0.06122600  1
  O2-  O217  1  0.07658694  0.44409708  0.39547282  1
  O2-  O218  1  0.08167100  0.45845450  0.72924115  1
  O2-  O219  1  0.08202350  0.95520784  0.07065091  1
  O2-  O220  1  0.08917832  0.95821797  0.39846207  1
  O2-  O221  1  0.08464345  0.94939659  0.72949071  1
  O2-  O222  1  0.57965417  0.45799543  0.06820748  1
  O2-  O223  1  0.57895436  0.45595619  0.40212688  1
  O2-  O224  1  0.58240001  0.46022628  0.73491067  1
  O2-  O225  1  0.58518798  0.95588085  0.06361847  1
  O2-  O226  1  0.58184337  0.95512983  0.39378929  1
  O2-  O227  1  0.58066814  0.95566506  0.73409648  1
  O2-  O228  1  0.20938582  0.33492652  0.05658492  1
  O2-  O229  1  0.21356014  0.33037281  0.40251307  1
  O2-  O230  1  0.19790765  0.33538999  0.73234858  1
  O2-  O231  1  0.21529209  0.83478006  0.07096435  1
  O2-  O232  1  0.20749372  0.83875010  0.39759352  1
  O2-  O233  1  0.20767053  0.83626752  0.73071974  1
  O2-  O234  1  0.70341736  0.32791396  0.06856380  1
  O2-  O235  1  0.70594029  0.33050035  0.40190589  1
  O2-  O236  1  0.71016110  0.33463175  0.73411686  1
  O2-  O237  1  0.70615669  0.83730864  0.06581810  1
  O2-  O238  1  0.69906956  0.83414126  0.39085423  1
  O2-  O239  1  0.70847821  0.82931185  0.73632122  1
  O2-  O240  1  0.45534874  0.41084511  0.27291116  1
  O2-  O241  1  0.45242103  0.41726582  0.60364268  1
  O2-  O242  1  0.45941531  0.42004124  0.93061706  1
  O2-  O243  1  0.45536422  0.91680829  0.26421884  1
  O2-  O244  1  0.45101348  0.91738565  0.60594440  1
  O2-  O245  1  0.45673398  0.91782920  0.93279538  1
  O2-  O246  1  0.94608003  0.41554022  0.27133162  1
  O2-  O247  1  0.95977280  0.41397993  0.59344228  1
  O2-  O248  1  0.96078934  0.41802456  0.93061367  1
  O2-  O249  1  0.96235457  0.91335334  0.26858056  1
  O2-  O250  1  0.95551476  0.91820720  0.60442801  1
  O2-  O251  1  0.96043189  0.90976094  0.93429526  1
  O2-  O252  1  0.34051582  0.28718436  0.27071645  1
  O2-  O253  1  0.32958160  0.29994558  0.60546437  1
  O2-  O254  1  0.33678665  0.29304508  0.92712962  1
  O2-  O255  1  0.33302486  0.80160184  0.27081078  1
  O2-  O256  1  0.33490067  0.79676033  0.60372603  1
  O2-  O257  1  0.33318268  0.78802672  0.93077303  1
  O2-  O258  1  0.83348531  0.28883443  0.26895600  1
  O2-  O259  1  0.83182453  0.28772542  0.59589340  1
  O2-  O260  1  0.82977813  0.29148259  0.93453286  1
  O2-  O261  1  0.83353447  0.80605612  0.27156785  1
  O2-  O262  1  0.83383278  0.80257847  0.60317767  1
  O2-  O263  1  0.83469501  0.79808871  0.93867797  1
  O2-  O264  1  0.41545240  0.04393894  0.06496122  1
  O2-  O265  1  0.41415705  0.04255367  0.39392260  1
  O2-  O266  1  0.41526294  0.04222744  0.73737231  1
  O2-  O267  1  0.41381680  0.54688395  0.05921518  1
  O2-  O268  1  0.41495622  0.53838646  0.40100859  1
  O2-  O269  1  0.41373454  0.53983957  0.73921070  1
  O2-  O270  1  0.91172451  0.03676141  0.06164271  1
  O2-  O271  1  0.91634404  0.03634779  0.40212894  1
  O2-  O272  1  0.92055715  0.04585453  0.73716377  1
  O2-  O273  1  0.92320995  0.54256704  0.06568997  1
  O2-  O274  1  0.92059286  0.54538691  0.40155246  1
  O2-  O275  1  0.91857015  0.54424813  0.72501380  1
  O2-  O276  1  0.30121937  0.16922930  0.06079278  1
  O2-  O277  1  0.29458771  0.16136912  0.39576599  1
  O2-  O278  1  0.29236159  0.17016638  0.73578018  1
  O2-  O279  1  0.29013987  0.66222189  0.06246873  1
  O2-  O280  1  0.29626418  0.67315756  0.39881595  1
  O2-  O281  1  0.28747510  0.66785766  0.73578246  1
  O2-  O282  1  0.79480535  0.16036151  0.06411676  1
  O2-  O283  1  0.79076457  0.16423883  0.40104624  1
  O2-  O284  1  0.78770794  0.16897609  0.73640206  1
  O2-  O285  1  0.79946466  0.67120986  0.06863701  1
  O2-  O286  1  0.79897419  0.67542621  0.39766988  1
  O2-  O287  1  0.80453719  0.66811821  0.72400779  1
