# generated using pymatgen
data_Ca2Al2SiO7
_symmetry_space_group_name_H-M   'P 1'
_cell_length_a   15.45701386
_cell_length_b   15.45653548
_cell_length_c   15.28229025
_cell_angle_alpha   90.00615017
_cell_angle_beta   89.98312134
_cell_angle_gamma   90.00640186
_symmetry_Int_Tables_number   1
_chemical_formula_structural   Ca2Al2SiO7
_chemical_formula_sum   'Ca48 Al48 Si24 O168'
_cell_volume   3651.12053990
_cell_formula_units_Z   24
loop_
 _symmetry_equiv_pos_site_id
 _symmetry_equiv_pos_as_xyz
  1  'x, y, z'
loop_
 _atom_type_symbol
 _atom_type_oxidation_number
  Ca2+  2.0
  Al0+  0.0
  Si0+  0.0
  O2-  -2.0
loop_
 _atom_site_type_symbol
 _atom_site_label
 _atom_site_symmetry_multiplicity
 _atom_site_fract_x
 _atom_site_fract_y
 _atom_site_fract_z
 _atom_site_occupancy
  Ca2+  Ca0  1  0.16510185  0.07279883  0.17500573  1
  Ca2+  Ca1  1  0.16768385  0.08034188  0.49355899  1
  Ca2+  Ca2  1  0.17105370  0.07509656  0.84009768  1
  Ca2+  Ca3  1  0.17505435  0.59052875  0.16980439  1
  Ca2+  Ca4  1  0.17891221  0.58605411  0.50218738  1
  Ca2+  Ca5  1  0.17848882  0.59294641  0.83929251  1
  Ca2+  Ca6  1  0.67788759  0.07664749  0.16767211  1
  Ca2+  Ca7  1  0.67858517  0.08296198  0.50222961  1
  Ca2+  Ca8  1  0.67512540  0.07289327  0.84212420  1
  Ca2+  Ca9  1  0.66655164  0.57585261  0.17142541  1
  Ca2+  Ca10  1  0.66823847  0.58122183  0.49392390  1
  Ca2+  Ca11  1  0.66282103  0.57725174  0.84272838  1
  Ca2+  Ca12  1  0.07716092  0.32453465  0.16173401  1
  Ca2+  Ca13  1  0.08403819  0.32263668  0.49037830  1
  Ca2+  Ca14  1  0.07438096  0.33380602  0.83307327  1
  Ca2+  Ca15  1  0.07690588  0.83596442  0.16147809  1
  Ca2+  Ca16  1  0.07419282  0.83811660  0.49316306  1
  Ca2+  Ca17  1  0.07696435  0.83484751  0.83802336  1
  Ca2+  Ca18  1  0.58438943  0.33898252  0.16557739  1
  Ca2+  Ca19  1  0.57533218  0.33530935  0.49384552  1
  Ca2+  Ca20  1  0.58079486  0.33353326  0.83049928  1
  Ca2+  Ca21  1  0.57884009  0.82918354  0.15987138  1
  Ca2+  Ca22  1  0.56929237  0.83488637  0.49317271  1
  Ca2+  Ca23  1  0.58387478  0.82709526  0.83074742  1
  Ca2+  Ca24  1  0.33715994  0.42899639  0.17360376  1
  Ca2+  Ca25  1  0.34248137  0.42536675  0.50254073  1
  Ca2+  Ca26  1  0.33751572  0.42730123  0.83689163  1
  Ca2+  Ca27  1  0.32022522  0.91676281  0.17736283  1
  Ca2+  Ca28  1  0.32890274  0.91130036  0.50109796  1
  Ca2+  Ca29  1  0.32814941  0.91013308  0.84034934  1
  Ca2+  Ca30  1  0.82520547  0.41997873  0.17359284  1
  Ca2+  Ca31  1  0.82962703  0.42180737  0.49941291  1
  Ca2+  Ca32  1  0.82622993  0.41621147  0.84584887  1
  Ca2+  Ca33  1  0.83784971  0.91981631  0.17145617  1
  Ca2+  Ca34  1  0.84343370  0.92439049  0.50240500  1
  Ca2+  Ca35  1  0.83805798  0.92362399  0.84072541  1
  Ca2+  Ca36  1  0.41086957  0.17307778  0.16708128  1
  Ca2+  Ca37  1  0.41217564  0.17802855  0.48782361  1
  Ca2+  Ca38  1  0.42098951  0.17366824  0.82452845  1
  Ca2+  Ca39  1  0.41741850  0.66650568  0.16235763  1
  Ca2+  Ca40  1  0.41061139  0.67304526  0.49512794  1
  Ca2+  Ca41  1  0.41945117  0.66632839  0.83160124  1
  Ca2+  Ca42  1  0.91594276  0.16408810  0.16302790  1
  Ca2+  Ca43  1  0.92057533  0.15955101  0.49140913  1
  Ca2+  Ca44  1  0.90853326  0.16647277  0.83493580  1
  Ca2+  Ca45  1  0.91958908  0.67539862  0.15762968  1
  Ca2+  Ca46  1  0.91456369  0.67754198  0.49013149  1
  Ca2+  Ca47  1  0.91936836  0.68053621  0.82930179  1
  Al0+  Al48  1  0.00311040  0.00149499  0.00206891  1
  Al0+  Al49  1  0.00102539  -0.00068550  0.33251800  1
  Al0+  Al50  1  0.00128517  0.00058752  0.66955604  1
  Al0+  Al51  1  0.00265368  0.49853358  -0.00975172  1
  Al0+  Al52  1  0.00007395  0.50008533  0.33780563  1
  Al0+  Al53  1  0.00058199  0.49963544  0.66593978  1
  Al0+  Al54  1  0.50120424  0.00274067  0.00244830  1
  Al0+  Al55  1  0.49979447  0.00249809  0.33076569  1
  Al0+  Al56  1  0.50177048  -0.00032939  0.66291904  1
  Al0+  Al57  1  0.49963261  0.50185819  0.00370491  1
  Al0+  Al58  1  0.49975943  0.49938276  0.33812955  1
  Al0+  Al59  1  0.50059781  0.49963000  0.66710145  1
  Al0+  Al60  1  0.24918452  0.25289650  -0.00375969  1
  Al0+  Al61  1  0.24914302  0.24923666  0.32449294  1
  Al0+  Al62  1  0.24835540  0.25044429  0.66445465  1
  Al0+  Al63  1  0.24980441  0.75125780  0.00567918  1
  Al0+  Al64  1  0.24835439  0.75035658  0.33901294  1
  Al0+  Al65  1  0.25059834  0.74868551  0.66894665  1
  Al0+  Al66  1  0.74831777  0.24914944  0.00344767  1
  Al0+  Al67  1  0.74787267  0.24930718  0.34269058  1
  Al0+  Al68  1  0.75061806  0.24996872  0.66983483  1
  Al0+  Al69  1  0.74799996  0.74981356  -0.00729116  1
  Al0+  Al70  1  0.74791273  0.75005083  0.33293684  1
  Al0+  Al71  1  0.75040525  0.74954119  0.66072543  1
  Al0+  Al72  1  0.82022984  0.06762587  0.34724424  1
  Al0+  Al73  1  0.18206788  0.93093512  0.01389943  1
  Al0+  Al74  1  0.67681217  0.92464275  0.01450309  1
  Al0+  Al75  1  0.82055708  0.06853964  0.01612129  1
  Al0+  Al76  1  0.32018677  0.56952204  0.68257071  1
  Al0+  Al77  1  0.17936186  0.92910033  0.35110595  1
  Al0+  Al78  1  0.92868769  0.82267569  0.98491741  1
  Al0+  Al79  1  0.92868030  0.81973555  0.31916558  1
  Al0+  Al80  1  0.67975129  0.43018508  0.01331847  1
  Al0+  Al81  1  0.82310898  0.57339302  0.34665007  1
  Al0+  Al82  1  0.31876040  0.56915938  0.01458876  1
  Al0+  Al83  1  0.92716031  0.31926679  0.98816840  1
  Al0+  Al84  1  0.31957982  0.56994580  0.34812144  1
  Al0+  Al85  1  0.42987461  0.31974077  0.65320572  1
  Al0+  Al86  1  0.67904187  0.42876822  0.35096848  1
  Al0+  Al87  1  0.42674369  0.82213831  0.31882379  1
  Al0+  Al88  1  0.32182610  0.07260027  0.34700694  1
  Al0+  Al89  1  0.56987874  0.67854368  0.98745929  1
  Al0+  Al90  1  0.43054440  0.32143905  0.31722671  1
  Al0+  Al91  1  0.82159672  0.06916522  0.68221487  1
  Al0+  Al92  1  0.42874573  0.82033883  0.65416092  1
  Al0+  Al93  1  0.06899409  0.17941694  0.31828788  1
  Al0+  Al94  1  0.07392988  0.67849884  0.98527803  1
  Al0+  Al95  1  0.93105852  0.82125126  0.65165577  1
  Si0+  Si96  1  0.06959522  0.17975404  0.65188130  1
  Si0+  Si97  1  0.56962259  0.67879431  0.31655867  1
  Si0+  Si98  1  0.17579778  0.42567460  0.01659384  1
  Si0+  Si99  1  0.82503052  0.57224367  0.01123489  1
  Si0+  Si100  1  0.57353711  0.17819226  0.64943467  1
  Si0+  Si101  1  0.42869436  0.82329358  0.98641826  1
  Si0+  Si102  1  0.17724916  0.42601310  0.34813800  1
  Si0+  Si103  1  0.68132076  0.43106618  0.68333658  1
  Si0+  Si104  1  0.32376420  0.07671831  0.01415616  1
  Si0+  Si105  1  0.18119239  0.93025862  0.68296781  1
  Si0+  Si106  1  0.57246933  0.67631041  0.64794308  1
  Si0+  Si107  1  0.32261770  0.07340388  0.67971603  1
  Si0+  Si108  1  0.92567257  0.32312233  0.31962435  1
  Si0+  Si109  1  0.07228796  0.67724724  0.64896839  1
  Si0+  Si110  1  0.67559055  0.92645423  0.35037298  1
  Si0+  Si111  1  0.42954319  0.32209096  0.98471023  1
  Si0+  Si112  1  0.57492706  0.17831021  0.31494135  1
  Si0+  Si113  1  0.07279730  0.17854542  0.98079423  1
  Si0+  Si114  1  0.07175143  0.67587639  0.31904967  1
  Si0+  Si115  1  0.92682576  0.32188953  0.65100677  1
  Si0+  Si116  1  0.82300231  0.57272838  0.68252724  1
  Si0+  Si117  1  0.67614547  0.92654486  0.68195444  1
  Si0+  Si118  1  0.17617257  0.42519187  0.68452618  1
  Si0+  Si119  1  0.57087438  0.17896654  0.98449451  1
  O2-  O120  1  0.25745747  0.00639418  0.05724977  1
  O2-  O121  1  0.25540334  -0.00224301  0.40097202  1
  O2-  O122  1  0.25705414  -0.00185698  0.72360978  1
  O2-  O123  1  0.24170949  0.49634652  0.06059613  1
  O2-  O124  1  0.24491274  0.49444890  0.39433130  1
  O2-  O125  1  0.24439357  0.49463526  0.72820760  1
  O2-  O126  1  0.75433745  -0.00950690  0.06472317  1
  O2-  O127  1  0.74678759  -0.00770820  0.39552570  1
  O2-  O128  1  0.74717910  -0.00708571  0.72607880  1
  O2-  O129  1  0.75700690  0.50354700  0.05671075  1
  O2-  O130  1  0.75350418  0.49969028  0.39902725  1
  O2-  O131  1  0.75288631  0.50129488  0.72605737  1
  O2-  O132  1  -0.00683617  0.25447043  0.27422984  1
  O2-  O133  1  -0.00143045  0.25143039  0.60989323  1
  O2-  O134  1  0.00192227  0.24568068  0.93754282  1
  O2-  O135  1  -0.00067368  0.74020819  0.27518951  1
  O2-  O136  1  0.00204613  0.74334710  0.60407690  1
  O2-  O137  1  -0.00145876  0.74742549  0.93523675  1
  O2-  O138  1  0.50445443  0.24573273  0.27054631  1
  O2-  O139  1  0.50105468  0.24249805  0.60513301  1
  O2-  O140  1  0.49683681  0.24760512  0.94212932  1
  O2-  O141  1  0.50200095  0.74828539  0.27224042  1
  O2-  O142  1  0.50479826  0.74725244  0.60635002  1
  O2-  O143  1  0.49942998  0.75762614  0.94062712  1
  O2-  O144  1  0.07546794  0.18049662  0.08585629  1
  O2-  O145  1  0.06788200  0.18060393  0.43233917  1
  O2-  O146  1  0.07120662  0.18057108  0.75689446  1
  O2-  O147  1  0.07322685  0.67951806  0.09873409  1
  O2-  O148  1  0.07175617  0.67664488  0.42502847  1
  O2-  O149  1  0.07187462  0.67844752  0.75440919  1
  O2-  O150  1  0.57091930  0.17925606  0.08906359  1
  O2-  O151  1  0.57551645  0.17994622  0.42093730  1
  O2-  O152  1  0.57281714  0.18002414  0.75545291  1
  O2-  O153  1  0.56551269  0.67394898  0.09997615  1
  O2-  O154  1  0.56904476  0.67994758  0.42262833  1
  O2-  O155  1  0.57251509  0.67449527  0.75366804  1
  O2-  O156  1  0.17641898  0.42779648  0.24272805  1
  O2-  O157  1  0.17469891  0.42308917  0.57916633  1
  O2-  O158  1  0.17987244  0.42041524  0.91098310  1
  O2-  O159  1  0.17842877  0.93030274  0.23783608  1
  O2-  O160  1  0.17918519  0.93193409  0.57838784  1
  O2-  O161  1  0.18405726  0.93235597  0.89961392  1
  O2-  O162  1  0.67964024  0.43036931  0.23735775  1
  O2-  O163  1  0.68211643  0.43073339  0.57877507  1
  O2-  O164  1  0.67861282  0.43029211  0.89932532  1
  O2-  O165  1  0.67596797  0.92683918  0.24506413  1
  O2-  O166  1  0.67308155  0.92921145  0.57661418  1
  O2-  O167  1  0.67213340  0.92995128  0.90056322  1
  O2-  O168  1  0.42940319  0.32153339  0.08940795  1
  O2-  O169  1  0.43167449  0.32134907  0.43072337  1
  O2-  O170  1  0.43309606  0.31902808  0.76693671  1
  O2-  O171  1  0.42883788  0.82124935  0.09168618  1
  O2-  O172  1  0.42816397  0.81906650  0.43253688  1
  O2-  O173  1  0.42850532  0.81940128  0.76743196  1
  O2-  O174  1  0.92830695  0.31869911  0.10097227  1
  O2-  O175  1  0.92879169  0.32239654  0.42586481  1
  O2-  O176  1  0.92593232  0.32193798  0.75610438  1
  O2-  O177  1  0.93052017  0.82214032  0.09824357  1
  O2-  O178  1  0.93193879  0.82094210  0.43284148  1
  O2-  O179  1  0.93333039  0.82223079  0.76440009  1
  O2-  O180  1  0.31757555  0.07261310  0.23333708  1
  O2-  O181  1  0.31939148  0.07657203  0.57543523  1
  O2-  O182  1  0.32299346  0.07812253  0.90761665  1
  O2-  O183  1  0.31970608  0.56933246  0.23512349  1
  O2-  O184  1  0.31928943  0.56874163  0.56969060  1
  O2-  O185  1  0.32082618  0.56702860  0.90108560  1
  O2-  O186  1  0.81939966  0.06852717  0.23481209  1
  O2-  O187  1  0.82199339  0.06942375  0.56917995  1
  O2-  O188  1  0.81679712  0.06990693  0.90200515  1
  O2-  O189  1  0.82313216  0.57191059  0.23302644  1
  O2-  O190  1  0.82258437  0.57079597  0.57766459  1
  O2-  O191  1  0.82187870  0.56868224  0.90497129  1
  O2-  O192  1  0.03694147  0.08411799  0.26430235  1
  O2-  O193  1  0.04071427  0.08854685  0.60487281  1
  O2-  O194  1  0.04907001  0.08517804  0.93410827  1
  O2-  O195  1  0.05244424  0.57995622  0.27442673  1
  O2-  O196  1  0.05058113  0.58170217  0.60425310  1
  O2-  O197  1  0.05528782  0.57846094  0.93017473  1
  O2-  O198  1  0.55267248  0.08441673  0.26848986  1
  O2-  O199  1  0.55428131  0.08318005  0.60433539  1
  O2-  O200  1  0.54457661  0.08735292  0.93437746  1
  O2-  O201  1  0.54223701  0.58494985  0.27310317  1
  O2-  O202  1  0.54461536  0.58365219  0.60188130  1
  O2-  O203  1  0.53351004  0.58363554  0.93094001  1
  O2-  O204  1  0.16322864  0.21012630  0.26043422  1
  O2-  O205  1  0.16084056  0.20741959  0.60279902  1
  O2-  O206  1  0.16560501  0.20674402  0.93195553  1
  O2-  O207  1  0.16428792  0.70513792  0.27389189  1
  O2-  O208  1  0.16571796  0.70492364  0.60435576  1
  O2-  O209  1  0.17100259  0.71401593  0.93198473  1
  O2-  O210  1  0.66790199  0.20792815  0.26980281  1
  O2-  O211  1  0.66592300  0.20942888  0.60379620  1
  O2-  O212  1  0.66042242  0.21050510  0.93510206  1
  O2-  O213  1  0.66359029  0.70187037  0.27044176  1
  O2-  O214  1  0.66636644  0.69902792  0.60087931  1
  O2-  O215  1  0.66601844  0.70203848  0.92817748  1
  O2-  O216  1  0.08009190  0.44681366  0.05945317  1
  O2-  O217  1  0.08368112  0.44777718  0.39714696  1
  O2-  O218  1  0.08144700  0.45001377  0.73011078  1
  O2-  O219  1  0.08693678  0.96318511  0.06819525  1
  O2-  O220  1  0.08349228  0.96469055  0.40468423  1
  O2-  O221  1  0.09236195  0.96430439  0.73219722  1
  O2-  O222  1  0.58481697  0.46296788  0.06801392  1
  O2-  O223  1  0.58300642  0.46160451  0.40620111  1
  O2-  O224  1  0.58959760  0.45943653  0.73073623  1
  O2-  O225  1  0.58054668  0.95940043  0.06912953  1
  O2-  O226  1  0.58321563  0.95637068  0.39698129  1
  O2-  O227  1  0.58341802  0.95393271  0.73022048  1
  O2-  O228  1  0.20360877  0.33271343  0.06358972  1
  O2-  O229  1  0.20394434  0.33221410  0.39248175  1
  O2-  O230  1  0.20171512  0.33163282  0.73159512  1
  O2-  O231  1  0.21174671  0.83625679  0.07037148  1
  O2-  O232  1  0.20419633  0.83099183  0.40628987  1
  O2-  O233  1  0.20671596  0.83767923  0.72966810  1
  O2-  O234  1  0.70741478  0.33373155  0.06742972  1
  O2-  O235  1  0.70431055  0.33136918  0.40765757  1
  O2-  O236  1  0.70810673  0.33865204  0.73078436  1
  O2-  O237  1  0.69589004  0.82252643  0.06272115  1
  O2-  O238  1  0.69589579  0.83181093  0.39610061  1
  O2-  O239  1  0.69925475  0.83047058  0.72417662  1
  O2-  O240  1  0.46360342  0.41833726  0.26526142  1
  O2-  O241  1  0.46437044  0.41543835  0.60029238  1
  O2-  O242  1  0.46245770  0.41197709  0.93732213  1
  O2-  O243  1  0.45457551  0.92016529  0.26656134  1
  O2-  O244  1  0.45601872  0.91820676  0.59959579  1
  O2-  O245  1  0.44898021  0.91943497  0.94189163  1
  O2-  O246  1  0.95076962  0.41726379  0.27452574  1
  O2-  O247  1  0.95337662  0.41446927  0.60401262  1
  O2-  O248  1  0.95708210  0.41386368  0.92813715  1
  O2-  O249  1  0.96405944  0.91438612  0.26591872  1
  O2-  O250  1  0.96683528  0.91768465  0.60003516  1
  O2-  O251  1  0.96370974  0.92025627  0.93252602  1
  O2-  O252  1  0.33455693  0.29210405  0.26128908  1
  O2-  O253  1  0.33141526  0.29279539  0.60103806  1
  O2-  O254  1  0.33663709  0.29851513  0.93609858  1
  O2-  O255  1  0.32906589  0.79005188  0.26850560  1
  O2-  O256  1  0.33219296  0.78797170  0.60081629  1
  O2-  O257  1  0.33634945  0.79397787  0.94037278  1
  O2-  O258  1  0.83052734  0.29803658  0.27810226  1
  O2-  O259  1  0.83490146  0.29421578  0.60430376  1
  O2-  O260  1  0.83068656  0.28730553  0.93279841  1
  O2-  O261  1  0.82946657  0.79438198  0.26804274  1
  O2-  O262  1  0.83290755  0.79457261  0.59823626  1
  O2-  O263  1  0.82970844  0.79868178  0.93017594  1
  O2-  O264  1  0.41835347  0.05723676  0.05935767  1
  O2-  O265  1  0.42353489  0.05392815  0.39711463  1
  O2-  O266  1  0.41739487  0.05132814  0.72453629  1
  O2-  O267  1  0.41301662  0.53440161  0.06952330  1
  O2-  O268  1  0.41499468  0.53878276  0.40349702  1
  O2-  O269  1  0.41746500  0.53718848  0.73525086  1
  O2-  O270  1  0.92204125  0.04909824  0.06468838  1
  O2-  O271  1  0.91647161  0.03645752  0.40133760  1
  O2-  O272  1  0.91855901  0.03996458  0.73669570  1
  O2-  O273  1  0.91999667  0.54756612  0.05381238  1
  O2-  O274  1  0.92110167  0.54717625  0.40341978  1
  O2-  O275  1  0.91594658  0.54627460  0.72840409  1
  O2-  O276  1  0.29628837  0.17056862  0.05870490  1
  O2-  O277  1  0.28733563  0.17069552  0.39822147  1
  O2-  O278  1  0.29023167  0.16330296  0.72960371  1
  O2-  O279  1  0.29086846  0.66586805  0.06857108  1
  O2-  O280  1  0.28716087  0.66476126  0.40444859  1
  O2-  O281  1  0.28919536  0.66611906  0.73737187  1
  O2-  O282  1  0.78557166  0.16461415  0.06887763  1
  O2-  O283  1  0.79050067  0.16357209  0.40396798  1
  O2-  O284  1  0.79054094  0.16691901  0.73492260  1
  O2-  O285  1  0.80005417  0.66650820  0.05412036  1
  O2-  O286  1  0.78973772  0.66990836  0.40218967  1
  O2-  O287  1  0.79502155  0.66558053  0.72764785  1
