# generated using pymatgen
data_Ca2Al2SiO7
_symmetry_space_group_name_H-M   'P 1'
_cell_length_a   15.46106899
_cell_length_b   15.46057433
_cell_length_c   15.28596134
_cell_angle_alpha   89.99545826
_cell_angle_beta   90.00135465
_cell_angle_gamma   89.96144260
_symmetry_Int_Tables_number   1
_chemical_formula_structural   Ca2Al2SiO7
_chemical_formula_sum   'Ca48 Al48 Si24 O168'
_cell_volume   3653.90959580
_cell_formula_units_Z   24
loop_
 _symmetry_equiv_pos_site_id
 _symmetry_equiv_pos_as_xyz
  1  'x, y, z'
loop_
 _atom_type_symbol
 _atom_type_oxidation_number
  Ca2+  2.0
  Al0+  0.0
  Si0+  0.0
  O2-  -2.0
loop_
 _atom_site_type_symbol
 _atom_site_label
 _atom_site_symmetry_multiplicity
 _atom_site_fract_x
 _atom_site_fract_y
 _atom_site_fract_z
 _atom_site_occupancy
  Ca2+  Ca0  1  0.17937222  0.08063847  0.17168058  1
  Ca2+  Ca1  1  0.16737302  0.08227766  0.50544702  1
  Ca2+  Ca2  1  0.16526073  0.07320580  0.84021717  1
  Ca2+  Ca3  1  0.16642676  0.58178587  0.17315444  1
  Ca2+  Ca4  1  0.16300586  0.58795639  0.50544101  1
  Ca2+  Ca5  1  0.16540089  0.58285172  0.83657340  1
  Ca2+  Ca6  1  0.67005861  0.09323511  0.17120034  1
  Ca2+  Ca7  1  0.66647957  0.08133034  0.50082345  1
  Ca2+  Ca8  1  0.67352775  0.08617710  0.84223156  1
  Ca2+  Ca9  1  0.65840746  0.57743260  0.17418278  1
  Ca2+  Ca10  1  0.66613521  0.58193663  0.50737686  1
  Ca2+  Ca11  1  0.66908046  0.58835272  0.83457899  1
  Ca2+  Ca12  1  0.07861808  0.32544032  0.16263991  1
  Ca2+  Ca13  1  0.07885955  0.32367368  0.49919357  1
  Ca2+  Ca14  1  0.07269370  0.32482554  0.82595266  1
  Ca2+  Ca15  1  0.08399441  0.83363400  0.16766517  1
  Ca2+  Ca16  1  0.07667753  0.82961094  0.49767653  1
  Ca2+  Ca17  1  0.08168256  0.83578152  0.82393098  1
  Ca2+  Ca18  1  0.58219557  0.32501054  0.16089788  1
  Ca2+  Ca19  1  0.58045490  0.33100581  0.49543438  1
  Ca2+  Ca20  1  0.57261818  0.32674109  0.83396616  1
  Ca2+  Ca21  1  0.57276976  0.82662764  0.16183869  1
  Ca2+  Ca22  1  0.58227261  0.82104467  0.49125437  1
  Ca2+  Ca23  1  0.57972669  0.82713434  0.83136138  1
  Ca2+  Ca24  1  0.33748688  0.41678839  0.16998401  1
  Ca2+  Ca25  1  0.33386608  0.41829851  0.50642712  1
  Ca2+  Ca26  1  0.33719162  0.41355165  0.83701702  1
  Ca2+  Ca27  1  0.33914904  0.92206146  0.17090607  1
  Ca2+  Ca28  1  0.33078636  0.92073731  0.50394173  1
  Ca2+  Ca29  1  0.32017083  0.91752106  0.84435394  1
  Ca2+  Ca30  1  0.82635412  0.41600418  0.17380984  1
  Ca2+  Ca31  1  0.82786825  0.42254883  0.50775514  1
  Ca2+  Ca32  1  0.84140459  0.42147483  0.83715727  1
  Ca2+  Ca33  1  0.83297935  0.92108640  0.16910039  1
  Ca2+  Ca34  1  0.83764148  0.91086212  0.50409190  1
  Ca2+  Ca35  1  0.83481377  0.92242681  0.83870696  1
  Ca2+  Ca36  1  0.42485234  0.16291385  0.15958153  1
  Ca2+  Ca37  1  0.41787751  0.17057637  0.49244676  1
  Ca2+  Ca38  1  0.40898377  0.17319498  0.83466360  1
  Ca2+  Ca39  1  0.42382217  0.67643251  0.16183912  1
  Ca2+  Ca40  1  0.42566783  0.67404004  0.49339362  1
  Ca2+  Ca41  1  0.42751777  0.67016246  0.83204092  1
  Ca2+  Ca42  1  0.91990648  0.16900785  0.15998321  1
  Ca2+  Ca43  1  0.93166888  0.16383612  0.49781501  1
  Ca2+  Ca44  1  0.91592733  0.17528237  0.82771404  1
  Ca2+  Ca45  1  0.91925238  0.67209774  0.16854416  1
  Ca2+  Ca46  1  0.92187631  0.67357058  0.49856879  1
  Ca2+  Ca47  1  0.92270312  0.67362523  0.81969227  1
  Al0+  Al48  1  -0.00056102  -0.00120418  0.01026592  1
  Al0+  Al49  1  0.00152845  0.00102338  0.32552033  1
  Al0+  Al50  1  -0.00005642  0.00082043  0.66463585  1
  Al0+  Al51  1  -0.00014581  0.50014581  0.00002895  1
  Al0+  Al52  1  -0.00095917  0.50047837  0.33228398  1
  Al0+  Al53  1  -0.00060705  0.49953631  0.66499192  1
  Al0+  Al54  1  0.50049072  -0.00287554  -0.00632556  1
  Al0+  Al55  1  0.50187313  0.00207895  0.33302138  1
  Al0+  Al56  1  0.49998743  0.00110708  0.67068775  1
  Al0+  Al57  1  0.50102815  0.49926243  -0.00619858  1
  Al0+  Al58  1  0.49861137  0.49934461  0.33784875  1
  Al0+  Al59  1  0.49994947  0.49881479  0.66164045  1
  Al0+  Al60  1  0.24824664  0.24844192  0.00104473  1
  Al0+  Al61  1  0.24868960  0.25008778  0.33451484  1
  Al0+  Al62  1  0.25085208  0.25199377  0.66040641  1
  Al0+  Al63  1  0.24987784  0.74693071  0.00194328  1
  Al0+  Al64  1  0.24878700  0.75065823  0.32842629  1
  Al0+  Al65  1  0.25149286  0.75059879  0.66950283  1
  Al0+  Al66  1  0.74995259  0.25269592  -0.00376239  1
  Al0+  Al67  1  0.74950364  0.25157325  0.33942004  1
  Al0+  Al68  1  0.74672513  0.25107827  0.66467806  1
  Al0+  Al69  1  0.75362613  0.75000971  -0.00121621  1
  Al0+  Al70  1  0.75160771  0.74983645  0.32533292  1
  Al0+  Al71  1  0.74956789  0.74862559  0.66519360  1
  Al0+  Al72  1  0.67816760  0.42953827  0.34829728  1
  Al0+  Al73  1  0.92859807  0.82233844  0.31536087  1
  Al0+  Al74  1  0.32266885  0.07062169  0.34876778  1
  Al0+  Al75  1  0.17973556  0.93033872  0.67839576  1
  Al0+  Al76  1  0.42646859  0.82112967  0.98282670  1
  Al0+  Al77  1  0.07285155  0.17948958  0.31675290  1
  Al0+  Al78  1  0.07411072  0.67889455  0.65439892  1
  Al0+  Al79  1  0.57246386  0.17682151  0.98512639  1
  Al0+  Al80  1  0.92875631  0.82224391  0.65411841  1
  Al0+  Al81  1  0.92571556  0.32279402  0.65047508  1
  Al0+  Al82  1  0.81780223  0.07303997  0.01348750  1
  Al0+  Al83  1  0.43005583  0.31941705  0.65134520  1
  Al0+  Al84  1  0.42689896  0.31946843  0.98685042  1
  Al0+  Al85  1  0.57019732  0.68086629  0.65235015  1
  Al0+  Al86  1  0.42937930  0.82288358  0.32030066  1
  Al0+  Al87  1  0.92917803  0.32153358  0.98793923  1
  Al0+  Al88  1  0.57097873  0.67624911  0.31891733  1
  Al0+  Al89  1  0.07094458  0.67764294  0.31721439  1
  Al0+  Al90  1  0.57162916  0.18117528  0.32159688  1
  Al0+  Al91  1  0.07006869  0.17886079  0.65359156  1
  Al0+  Al92  1  0.17823756  0.92555622  0.01848322  1
  Al0+  Al93  1  0.57299146  0.67861580  0.98404668  1
  Al0+  Al94  1  0.82015409  0.56951145  0.68067849  1
  Al0+  Al95  1  0.32179026  0.07085191  0.01489469  1
  Si0+  Si96  1  0.92833267  0.32055587  0.31802065  1
  Si0+  Si97  1  0.17774518  0.92819777  0.35174563  1
  Si0+  Si98  1  0.67568731  0.42754283  0.68691507  1
  Si0+  Si99  1  0.82363293  0.57215318  0.01651851  1
  Si0+  Si100  1  0.82282615  0.07146882  0.34940856  1
  Si0+  Si101  1  0.07007417  0.17675684  0.98498496  1
  Si0+  Si102  1  0.17933389  0.42840806  0.68171842  1
  Si0+  Si103  1  0.42799455  0.82356207  0.65116643  1
  Si0+  Si104  1  0.67947252  0.43221149  0.01357042  1
  Si0+  Si105  1  0.32223918  0.57023921  0.68207814  1
  Si0+  Si106  1  0.67914855  0.92547932  0.01607284  1
  Si0+  Si107  1  0.68106222  0.92875220  0.34674240  1
  Si0+  Si108  1  0.31929201  0.57171726  0.34891747  1
  Si0+  Si109  1  0.07024223  0.67760136  0.98533710  1
  Si0+  Si110  1  0.17730115  0.42932551  0.34944942  1
  Si0+  Si111  1  0.82236819  0.57306008  0.35030691  1
  Si0+  Si112  1  0.67822279  0.92792047  0.68098081  1
  Si0+  Si113  1  0.57201914  0.17552438  0.64899796  1
  Si0+  Si114  1  0.93138542  0.82173779  0.98465368  1
  Si0+  Si115  1  0.32264840  0.07439134  0.68347600  1
  Si0+  Si116  1  0.17711931  0.42924945  0.01471550  1
  Si0+  Si117  1  0.42697566  0.32175530  0.31815889  1
  Si0+  Si118  1  0.81985662  0.07146196  0.67952397  1
  Si0+  Si119  1  0.32232288  0.56777025  0.01475789  1
  O2-  O120  1  0.25354732  -0.00434496  0.06628272  1
  O2-  O121  1  0.24782940  -0.00421620  0.39574693  1
  O2-  O122  1  0.25445288  0.00486162  0.72600358  1
  O2-  O123  1  0.25210205  0.49582847  0.05764984  1
  O2-  O124  1  0.24718886  0.50167002  0.39173422  1
  O2-  O125  1  0.24819984  0.50173380  0.72440539  1
  O2-  O126  1  0.74035609  0.00094674  0.06103775  1
  O2-  O127  1  0.75422292  -0.00251318  0.39081377  1
  O2-  O128  1  0.74855796  0.00058536  0.72206979  1
  O2-  O129  1  0.74912024  0.50430268  0.05738277  1
  O2-  O130  1  0.75006213  0.50774546  0.39376278  1
  O2-  O131  1  0.74806936  0.49285261  0.73064846  1
  O2-  O132  1  -0.00389813  0.25285240  0.27151630  1
  O2-  O133  1  -0.00329315  0.24933112  0.60213910  1
  O2-  O134  1  0.00023340  0.24403496  0.94075449  1
  O2-  O135  1  0.00122980  0.75052693  0.26568155  1
  O2-  O136  1  0.00176026  0.75060224  0.60561569  1
  O2-  O137  1  0.00449566  0.75291492  0.94315934  1
  O2-  O138  1  0.49578463  0.25403908  0.27439025  1
  O2-  O139  1  0.50220192  0.24272276  0.60524730  1
  O2-  O140  1  0.49410462  0.24300090  0.93647041  1
  O2-  O141  1  0.49971964  0.74898415  0.27043520  1
  O2-  O142  1  0.49805181  0.75757039  0.60585361  1
  O2-  O143  1  0.50225011  0.75189899  0.93420762  1
  O2-  O144  1  0.06984984  0.18123876  0.09063891  1
  O2-  O145  1  0.07172333  0.18057491  0.42978738  1
  O2-  O146  1  0.06817053  0.17931684  0.76733738  1
  O2-  O147  1  0.06662403  0.67309122  0.09003645  1
  O2-  O148  1  0.06988129  0.67661620  0.43034388  1
  O2-  O149  1  0.07297916  0.67946667  0.76851832  1
  O2-  O150  1  0.57553451  0.18371687  0.09863215  1
  O2-  O151  1  0.57124564  0.18164032  0.43480401  1
  O2-  O152  1  0.57414904  0.17521451  0.75416159  1
  O2-  O153  1  0.56962207  0.67643648  0.09735118  1
  O2-  O154  1  0.56975868  0.67791980  0.43268197  1
  O2-  O155  1  0.56945596  0.68206574  0.76527567  1
  O2-  O156  1  0.17811426  0.42945027  0.24394121  1
  O2-  O157  1  0.18170171  0.42774160  0.57646448  1
  O2-  O158  1  0.17418271  0.43280907  0.90967453  1
  O2-  O159  1  0.17855771  0.92957046  0.24635573  1
  O2-  O160  1  0.18169500  0.93033226  0.56541977  1
  O2-  O161  1  0.17518040  0.92753809  0.90437749  1
  O2-  O162  1  0.68035773  0.42806698  0.23463737  1
  O2-  O163  1  0.67483719  0.42944808  0.58114406  1
  O2-  O164  1  0.67974905  0.43289598  0.90875854  1
  O2-  O165  1  0.68126291  0.93062106  0.24190844  1
  O2-  O166  1  0.67645634  0.92914530  0.57571456  1
  O2-  O167  1  0.68619040  0.92204208  0.91023933  1
  O2-  O168  1  0.43074408  0.32492985  0.10009718  1
  O2-  O169  1  0.42739496  0.32139240  0.42389218  1
  O2-  O170  1  0.42958082  0.31937715  0.76420280  1
  O2-  O171  1  0.42749833  0.81779310  0.09635051  1
  O2-  O172  1  0.43132112  0.82075918  0.43449786  1
  O2-  O173  1  0.42864643  0.82114028  0.75645599  1
  O2-  O174  1  0.93130596  0.32275207  0.10117159  1
  O2-  O175  1  0.93031858  0.31958825  0.42330283  1
  O2-  O176  1  0.92872597  0.32094814  0.76443415  1
  O2-  O177  1  0.92899289  0.81925632  0.08934100  1
  O2-  O178  1  0.92894162  0.82164419  0.42879151  1
  O2-  O179  1  0.92944328  0.82306678  0.76815917  1
  O2-  O180  1  0.32329508  0.07128295  0.23614696  1
  O2-  O181  1  0.32492339  0.07303541  0.57780369  1
  O2-  O182  1  0.31384484  0.07418364  0.90119120  1
  O2-  O183  1  0.32030560  0.56802639  0.24358931  1
  O2-  O184  1  0.32255343  0.56912397  0.57681332  1
  O2-  O185  1  0.32033816  0.56724492  0.90941092  1
  O2-  O186  1  0.82020066  0.07456632  0.24435160  1
  O2-  O187  1  0.81872276  0.07090654  0.57426997  1
  O2-  O188  1  0.81952805  0.07055421  0.89981510  1
  O2-  O189  1  0.82484834  0.56909963  0.24434033  1
  O2-  O190  1  0.81691729  0.57011625  0.56774442  1
  O2-  O191  1  0.82679666  0.57129527  0.91158611  1
  O2-  O192  1  0.04355700  0.08436510  0.26159177  1
  O2-  O193  1  0.04044263  0.08270087  0.59744481  1
  O2-  O194  1  0.04424022  0.08170141  0.94346800  1
  O2-  O195  1  0.04191305  0.57886789  0.26345227  1
  O2-  O196  1  0.04774435  0.58025127  0.60253403  1
  O2-  O197  1  0.03838704  0.58779162  0.93628769  1
  O2-  O198  1  0.54549111  0.08442712  0.26744162  1
  O2-  O199  1  0.54837528  0.08063198  0.60402718  1
  O2-  O200  1  0.55668568  0.07562113  0.93410747  1
  O2-  O201  1  0.53929912  0.57783920  0.26807142  1
  O2-  O202  1  0.53796882  0.58495118  0.59926346  1
  O2-  O203  1  0.54221873  0.58207493  0.92901728  1
  O2-  O204  1  0.16774195  0.21480024  0.26291698  1
  O2-  O205  1  0.16684673  0.20920116  0.59910518  1
  O2-  O206  1  0.16221940  0.20415542  0.93838553  1
  O2-  O207  1  0.16956902  0.70253778  0.26322927  1
  O2-  O208  1  0.17319765  0.70531397  0.60202228  1
  O2-  O209  1  0.16466079  0.69723675  0.94079175  1
  O2-  O210  1  0.66864434  0.21379473  0.26941950  1
  O2-  O211  1  0.66461452  0.20180743  0.60150347  1
  O2-  O212  1  0.66702678  0.21363434  0.92922735  1
  O2-  O213  1  0.66956669  0.70049141  0.26624494  1
  O2-  O214  1  0.66597377  0.71078637  0.59790730  1
  O2-  O215  1  0.67326462  0.70588498  0.93368524  1
  O2-  O216  1  0.08807406  0.46261270  0.06525167  1
  O2-  O217  1  0.08487354  0.45598971  0.39647668  1
  O2-  O218  1  0.08692864  0.45335949  0.72924585  1
  O2-  O219  1  0.08127184  0.95485140  0.07373932  1
  O2-  O220  1  0.08335466  0.95689277  0.39470904  1
  O2-  O221  1  0.08245853  0.96116349  0.73273235  1
  O2-  O222  1  0.58718102  0.45921155  0.06118071  1
  O2-  O223  1  0.58051946  0.45630583  0.40354161  1
  O2-  O224  1  0.58281492  0.45792207  0.73181452  1
  O2-  O225  1  0.58173982  0.94115804  0.05615505  1
  O2-  O226  1  0.59140903  0.95898519  0.39693193  1
  O2-  O227  1  0.58657872  0.95449439  0.73067314  1
  O2-  O228  1  0.19997314  0.33623928  0.06166150  1
  O2-  O229  1  0.20633038  0.33864455  0.39807609  1
  O2-  O230  1  0.21051093  0.33754998  0.72947204  1
  O2-  O231  1  0.20196180  0.82426373  0.06840699  1
  O2-  O232  1  0.20095036  0.83256473  0.39515293  1
  O2-  O233  1  0.20976610  0.83375391  0.73457365  1
  O2-  O234  1  0.70935927  0.34117189  0.06117929  1
  O2-  O235  1  0.71145570  0.33520631  0.40638980  1
  O2-  O236  1  0.69609883  0.33136835  0.73023266  1
  O2-  O237  1  0.71299702  0.83503545  0.06484808  1
  O2-  O238  1  0.70812084  0.83541902  0.39266511  1
  O2-  O239  1  0.70697949  0.83731128  0.72933291  1
  O2-  O240  1  0.45121477  0.41624610  0.27425254  1
  O2-  O241  1  0.46137467  0.41484384  0.59568551  1
  O2-  O242  1  0.45933615  0.41530762  0.93063978  1
  O2-  O243  1  0.46202162  0.91919983  0.26717810  1
  O2-  O244  1  0.45120896  0.91915242  0.60826816  1
  O2-  O245  1  0.44987417  0.91933293  0.92797429  1
  O2-  O246  1  0.95285884  0.41434401  0.27216742  1
  O2-  O247  1  0.95626225  0.41949896  0.59722509  1
  O2-  O248  1  0.96434854  0.41671251  0.93335554  1
  O2-  O249  1  0.95519022  0.92045182  0.26168203  1
  O2-  O250  1  0.95480923  0.91985608  0.59972531  1
  O2-  O251  1  0.95712263  0.91536863  0.94030089  1
  O2-  O252  1  0.33282536  0.29896932  0.27321722  1
  O2-  O253  1  0.33356330  0.29375211  0.59502351  1
  O2-  O254  1  0.32626074  0.29654211  0.93426915  1
  O2-  O255  1  0.33108706  0.79680721  0.26765924  1
  O2-  O256  1  0.33589438  0.79519941  0.60491099  1
  O2-  O257  1  0.32891679  0.78630731  0.93116961  1
  O2-  O258  1  0.83454107  0.29387695  0.27389617  1
  O2-  O259  1  0.82548221  0.29829640  0.60043841  1
  O2-  O260  1  0.83334236  0.29544489  0.93178893  1
  O2-  O261  1  0.83170574  0.79408124  0.25894519  1
  O2-  O262  1  0.83124812  0.79300392  0.60068046  1
  O2-  O263  1  0.84067146  0.79281407  0.93614362  1
  O2-  O264  1  0.42415156  0.04644608  0.06227251  1
  O2-  O265  1  0.42015631  0.04177960  0.40340840  1
  O2-  O266  1  0.41703756  0.05187295  0.73031486  1
  O2-  O267  1  0.41432675  0.53932603  0.06144508  1
  O2-  O268  1  0.40947491  0.54251109  0.39930033  1
  O2-  O269  1  0.41256309  0.53723222  0.72946121  1
  O2-  O270  1  0.91238340  0.04063817  0.07033790  1
  O2-  O271  1  0.91617635  0.04418797  0.39390839  1
  O2-  O272  1  0.91120008  0.04468771  0.72768287  1
  O2-  O273  1  0.91345975  0.53985412  0.06583606  1
  O2-  O274  1  0.91489824  0.54376157  0.39725972  1
  O2-  O275  1  0.91826327  0.54088569  0.73491953  1
  O2-  O276  1  0.29202617  0.16951647  0.06891452  1
  O2-  O277  1  0.29016784  0.16816423  0.40155465  1
  O2-  O278  1  0.29590232  0.16908127  0.72641522  1
  O2-  O279  1  0.29316112  0.65792992  0.06391916  1
  O2-  O280  1  0.29270342  0.66439883  0.39512713  1
  O2-  O281  1  0.29795913  0.66225548  0.73076377  1
  O2-  O282  1  0.78973086  0.17127345  0.06677345  1
  O2-  O283  1  0.79275729  0.16126763  0.39935137  1
  O2-  O284  1  0.79120018  0.16368578  0.72676318  1
  O2-  O285  1  0.79998040  0.66539651  0.06297265  1
  O2-  O286  1  0.80084233  0.66923957  0.39221551  1
  O2-  O287  1  0.78806747  0.66627992  0.73535042  1
