# generated using pymatgen
data_Ca2Al2SiO7
_symmetry_space_group_name_H-M   'P 1'
_cell_length_a   15.46958603
_cell_length_b   15.47284459
_cell_length_c   15.29336162
_cell_angle_alpha   89.99630477
_cell_angle_beta   90.00687084
_cell_angle_gamma   90.03828739
_symmetry_Int_Tables_number   1
_chemical_formula_structural   Ca2Al2SiO7
_chemical_formula_sum   'Ca48 Al48 Si24 O168'
_cell_volume   3660.59525529
_cell_formula_units_Z   24
loop_
 _symmetry_equiv_pos_site_id
 _symmetry_equiv_pos_as_xyz
  1  'x, y, z'
loop_
 _atom_type_symbol
 _atom_type_oxidation_number
  Ca2+  2.0
  Al0+  0.0
  Si0+  0.0
  O2-  -2.0
loop_
 _atom_site_type_symbol
 _atom_site_label
 _atom_site_symmetry_multiplicity
 _atom_site_fract_x
 _atom_site_fract_y
 _atom_site_fract_z
 _atom_site_occupancy
  Ca2+  Ca0  1  0.17884291  0.08746569  0.16358552  1
  Ca2+  Ca1  1  0.18104255  0.09106969  0.50455918  1
  Ca2+  Ca2  1  0.17382374  0.08883856  0.84164705  1
  Ca2+  Ca3  1  0.17548676  0.57019937  0.17431302  1
  Ca2+  Ca4  1  0.17418717  0.57191677  0.50045542  1
  Ca2+  Ca5  1  0.16530111  0.56829194  0.83813781  1
  Ca2+  Ca6  1  0.67279790  0.09189432  0.17442557  1
  Ca2+  Ca7  1  0.66662789  0.07550618  0.50546674  1
  Ca2+  Ca8  1  0.67709735  0.08785425  0.84058751  1
  Ca2+  Ca9  1  0.65494209  0.57778492  0.16254217  1
  Ca2+  Ca10  1  0.66953574  0.57500546  0.50986301  1
  Ca2+  Ca11  1  0.66520190  0.57444236  0.83707095  1
  Ca2+  Ca12  1  0.08476546  0.33076614  0.15937543  1
  Ca2+  Ca13  1  0.08523659  0.33344517  0.49965420  1
  Ca2+  Ca14  1  0.08927834  0.32360668  0.82903233  1
  Ca2+  Ca15  1  0.08467600  0.83606012  0.15819068  1
  Ca2+  Ca16  1  0.08101391  0.83052541  0.49381800  1
  Ca2+  Ca17  1  0.08433696  0.83632360  0.82976676  1
  Ca2+  Ca18  1  0.57257497  0.32519681  0.15808427  1
  Ca2+  Ca19  1  0.57927888  0.32605449  0.49044252  1
  Ca2+  Ca20  1  0.58223789  0.33168345  0.83534039  1
  Ca2+  Ca21  1  0.58104387  0.83081539  0.16602437  1
  Ca2+  Ca22  1  0.58406499  0.83570152  0.49228192  1
  Ca2+  Ca23  1  0.59091617  0.82874124  0.83008484  1
  Ca2+  Ca24  1  0.32790147  0.40854654  0.17224708  1
  Ca2+  Ca25  1  0.32466266  0.40750064  0.49955176  1
  Ca2+  Ca26  1  0.32384035  0.40916129  0.84100700  1
  Ca2+  Ca27  1  0.33717995  0.92736252  0.17055688  1
  Ca2+  Ca28  1  0.34364279  0.92981177  0.49990974  1
  Ca2+  Ca29  1  0.32772242  0.93261212  0.83967809  1
  Ca2+  Ca30  1  0.82230880  0.41173244  0.16615173  1
  Ca2+  Ca31  1  0.82477895  0.42151215  0.50919023  1
  Ca2+  Ca32  1  0.82020955  0.41501445  0.83489953  1
  Ca2+  Ca33  1  0.82535122  0.93036372  0.17149191  1
  Ca2+  Ca34  1  0.82124249  0.92650598  0.50228144  1
  Ca2+  Ca35  1  0.83000545  0.92750015  0.83390393  1
  Ca2+  Ca36  1  0.42244746  0.16968220  0.16251877  1
  Ca2+  Ca37  1  0.42147876  0.16740063  0.48938394  1
  Ca2+  Ca38  1  0.41114866  0.17048838  0.83387527  1
  Ca2+  Ca39  1  0.41293731  0.67413198  0.16276128  1
  Ca2+  Ca40  1  0.41375654  0.67615530  0.49001169  1
  Ca2+  Ca41  1  0.42223746  0.66799116  0.83340139  1
  Ca2+  Ca42  1  0.92150205  0.16030004  0.15874637  1
  Ca2+  Ca43  1  0.92221773  0.15557044  0.49957915  1
  Ca2+  Ca44  1  0.92757779  0.15675487  0.82930534  1
  Ca2+  Ca45  1  0.91868533  0.67143198  0.16055258  1
  Ca2+  Ca46  1  0.91409296  0.66462754  0.49659158  1
  Ca2+  Ca47  1  0.91416361  0.66721912  0.82602053  1
  Al0+  Al48  1  -0.00179225  -0.00057016  0.00204138  1
  Al0+  Al49  1  -0.00087204  -0.00183968  0.33441598  1
  Al0+  Al50  1  -0.00017622  -0.00281114  0.65995354  1
  Al0+  Al51  1  -0.00076375  0.50137225  0.00297531  1
  Al0+  Al52  1  0.00095995  0.49898705  0.33484726  1
  Al0+  Al53  1  0.00156348  0.49962258  0.67194520  1
  Al0+  Al54  1  0.50134805  -0.00097973  -0.00127151  1
  Al0+  Al55  1  0.50129930  -0.00234466  0.33092296  1
  Al0+  Al56  1  0.49855600  -0.00054714  0.67629540  1
  Al0+  Al57  1  0.49932986  0.50244673  -0.00523716  1
  Al0+  Al58  1  0.49914090  0.50097343  0.33504241  1
  Al0+  Al59  1  0.49854628  0.50148329  0.66714923  1
  Al0+  Al60  1  0.24886268  0.24923810  0.00190050  1
  Al0+  Al61  1  0.24775304  0.24797965  0.33786876  1
  Al0+  Al62  1  0.24952914  0.24975529  0.66868878  1
  Al0+  Al63  1  0.24775314  0.74932987  -0.00204905  1
  Al0+  Al64  1  0.24985665  0.74748925  0.33073798  1
  Al0+  Al65  1  0.25063947  0.74945268  0.66369562  1
  Al0+  Al66  1  0.74938355  0.25313985  0.00557087  1
  Al0+  Al67  1  0.75529168  0.25200427  0.33629624  1
  Al0+  Al68  1  0.75109096  0.25027020  0.67222571  1
  Al0+  Al69  1  0.75113499  0.75135001  -0.00494162  1
  Al0+  Al70  1  0.75177119  0.75147200  0.33325802  1
  Al0+  Al71  1  0.75076736  0.75004450  0.66971876  1
  Al0+  Al72  1  0.57375881  0.17775866  0.98457893  1
  Al0+  Al73  1  0.81859426  0.07133829  0.01384138  1
  Al0+  Al74  1  0.42882841  0.82039275  0.31954036  1
  Al0+  Al75  1  0.32319914  0.07130609  0.01702251  1
  Al0+  Al76  1  0.42829010  0.31964072  0.98457025  1
  Al0+  Al77  1  0.57384236  0.17873815  0.32149214  1
  Al0+  Al78  1  0.67519291  0.42776871  0.68181225  1
  Al0+  Al79  1  0.82293209  0.07074716  0.68240113  1
  Al0+  Al80  1  0.32332427  0.57226549  0.34815032  1
  Al0+  Al81  1  0.31971152  0.07109012  0.68049007  1
  Al0+  Al82  1  0.17895452  0.42761698  0.34992923  1
  Al0+  Al83  1  0.06747464  0.18030107  0.98792977  1
  Al0+  Al84  1  0.42740214  0.32090478  0.32032198  1
  Al0+  Al85  1  0.18197933  0.43005719  0.68212678  1
  Al0+  Al86  1  0.57009027  0.68181794  0.98492510  1
  Al0+  Al87  1  0.67755953  0.92975909  0.68341693  1
  Al0+  Al88  1  0.67732804  0.43145221  0.01566493  1
  Al0+  Al89  1  0.32026721  0.06893136  0.34612885  1
  Al0+  Al90  1  0.82331312  0.07409326  0.34988808  1
  Al0+  Al91  1  0.82102965  0.57068935  0.68074748  1
  Al0+  Al92  1  0.07080130  0.17872261  0.65136933  1
  Al0+  Al93  1  0.17913636  0.42880943  0.01438464  1
  Al0+  Al94  1  0.67940410  0.92933278  0.34639846  1
  Al0+  Al95  1  0.17817281  0.92868905  0.01299063  1
  Si0+  Si96  1  0.17800122  0.92554552  0.67864735  1
  Si0+  Si97  1  0.42870622  0.32097537  0.65214647  1
  Si0+  Si98  1  0.57122940  0.68004238  0.65048512  1
  Si0+  Si99  1  0.92818916  0.32307344  0.65076842  1
  Si0+  Si100  1  0.42911290  0.82149658  0.65196250  1
  Si0+  Si101  1  0.92698048  0.32565317  0.98335779  1
  Si0+  Si102  1  0.92954477  0.81977217  0.31600746  1
  Si0+  Si103  1  0.57529374  0.67756303  0.31834729  1
  Si0+  Si104  1  0.06929375  0.17773407  0.31847812  1
  Si0+  Si105  1  0.82141549  0.57107994  0.34519540  1
  Si0+  Si106  1  0.06997870  0.67773116  0.31687998  1
  Si0+  Si107  1  0.32176112  0.57251111  0.01503011  1
  Si0+  Si108  1  0.17750003  0.92586995  0.34908064  1
  Si0+  Si109  1  0.07181207  0.67686035  0.64983317  1
  Si0+  Si110  1  0.82115172  0.57430028  0.01746013  1
  Si0+  Si111  1  0.93049077  0.82015263  0.98264106  1
  Si0+  Si112  1  0.92847282  0.81872952  0.64792431  1
  Si0+  Si113  1  0.57160300  0.17850112  0.65463194  1
  Si0+  Si114  1  0.32161765  0.57583775  0.68460944  1
  Si0+  Si115  1  0.67877594  0.42973536  0.34716138  1
  Si0+  Si116  1  0.42470465  0.82283568  0.98066386  1
  Si0+  Si117  1  0.93076286  0.32452813  0.31845208  1
  Si0+  Si118  1  0.07068519  0.67750586  0.98326269  1
  Si0+  Si119  1  0.67887229  0.92544003  0.01648761  1
  O2-  O120  1  0.25283190  -0.00428197  0.06468630  1
  O2-  O121  1  0.24644348  -0.00695879  0.39420558  1
  O2-  O122  1  0.24192659  -0.00259493  0.72294147  1
  O2-  O123  1  0.25650782  0.50115643  0.05956668  1
  O2-  O124  1  0.25611547  0.49568494  0.39820820  1
  O2-  O125  1  0.25685481  0.50430359  0.72901431  1
  O2-  O126  1  0.73761872  0.00283371  0.06000356  1
  O2-  O127  1  0.74501294  0.00719732  0.39649986  1
  O2-  O128  1  0.74650583  0.00433615  0.73320584  1
  O2-  O129  1  0.75285279  0.50640263  0.06273655  1
  O2-  O130  1  0.74773220  0.50386819  0.38782669  1
  O2-  O131  1  0.74883694  0.49959531  0.73025125  1
  O2-  O132  1  -0.00224414  0.24911251  0.27777696  1
  O2-  O133  1  -0.00655915  0.25172614  0.60475831  1
  O2-  O134  1  -0.00591101  0.25576088  0.93940634  1
  O2-  O135  1  0.00206313  0.75082350  0.27292590  1
  O2-  O136  1  0.00007890  0.74696045  0.60631614  1
  O2-  O137  1  0.00169749  0.74949242  0.93959265  1
  O2-  O138  1  0.50119266  0.25032815  0.27159094  1
  O2-  O139  1  0.50335888  0.25253513  0.61186094  1
  O2-  O140  1  0.49884060  0.24644610  0.93327983  1
  O2-  O141  1  0.50332658  0.74357375  0.27562432  1
  O2-  O142  1  0.50098763  0.75141716  0.60843130  1
  O2-  O143  1  0.49719982  0.75770867  0.93643974  1
  O2-  O144  1  0.06620241  0.18105935  0.10138380  1
  O2-  O145  1  0.06916289  0.17745277  0.42371827  1
  O2-  O146  1  0.07143361  0.17937902  0.76425465  1
  O2-  O147  1  0.06807227  0.67709572  0.08840665  1
  O2-  O148  1  0.06667287  0.67791978  0.42225674  1
  O2-  O149  1  0.07257728  0.67928011  0.75481875  1
  O2-  O150  1  0.57543889  0.18192415  0.09804063  1
  O2-  O151  1  0.57279158  0.18057608  0.43612047  1
  O2-  O152  1  0.57066078  0.17899012  0.75919429  1
  O2-  O153  1  0.56961962  0.68360508  0.09819132  1
  O2-  O154  1  0.57940734  0.67921332  0.42405714  1
  O2-  O155  1  0.57016504  0.68013218  0.75535553  1
  O2-  O156  1  0.17503539  0.43039025  0.23672149  1
  O2-  O157  1  0.18234104  0.43120537  0.56925555  1
  O2-  O158  1  0.17834018  0.43126597  0.90123141  1
  O2-  O159  1  0.17569841  0.92697720  0.24389798  1
  O2-  O160  1  0.18048761  0.92156054  0.57312984  1
  O2-  O161  1  0.17830638  0.92855864  0.89896353  1
  O2-  O162  1  0.67994576  0.43041171  0.24236133  1
  O2-  O163  1  0.67547396  0.43039326  0.56732355  1
  O2-  O164  1  0.67925945  0.43325250  0.90301505  1
  O2-  O165  1  0.68459559  0.92204549  0.23341497  1
  O2-  O166  1  0.67753094  0.92884688  0.56985687  1
  O2-  O167  1  0.68602664  0.92091957  0.91124849  1
  O2-  O168  1  0.42900084  0.32045938  0.09803617  1
  O2-  O169  1  0.43005049  0.31897895  0.43477195  1
  O2-  O170  1  0.42661660  0.32060433  0.75684504  1
  O2-  O171  1  0.42236448  0.81930478  0.08613408  1
  O2-  O172  1  0.42950661  0.81961184  0.43318007  1
  O2-  O173  1  0.42639769  0.81775636  0.75657330  1
  O2-  O174  1  0.92911023  0.32726104  0.08945377  1
  O2-  O175  1  0.93119100  0.33119602  0.42314877  1
  O2-  O176  1  0.93055518  0.32569382  0.75588184  1
  O2-  O177  1  0.93046486  0.81695469  0.08794200  1
  O2-  O178  1  0.92987826  0.81653027  0.42111693  1
  O2-  O179  1  0.93055281  0.81905293  0.75301430  1
  O2-  O180  1  0.31845520  0.06986136  0.23389707  1
  O2-  O181  1  0.32246117  0.06996491  0.56718083  1
  O2-  O182  1  0.31822779  0.07167386  0.90323349  1
  O2-  O183  1  0.31793574  0.57681685  0.23496507  1
  O2-  O184  1  0.31939062  0.57978980  0.57939492  1
  O2-  O185  1  0.31802508  0.57459598  0.90918544  1
  O2-  O186  1  0.82639935  0.06990703  0.23640864  1
  O2-  O187  1  0.82229142  0.06679491  0.56914486  1
  O2-  O188  1  0.82282051  0.06684050  0.90112088  1
  O2-  O189  1  0.82414438  0.57078018  0.24042542  1
  O2-  O190  1  0.81899514  0.57023127  0.56620415  1
  O2-  O191  1  0.82173336  0.57446749  0.91228191  1
  O2-  O192  1  0.04135822  0.08544238  0.27201829  1
  O2-  O193  1  0.04349555  0.08101237  0.59626504  1
  O2-  O194  1  0.03599225  0.08317790  0.93454080  1
  O2-  O195  1  0.03782768  0.58735799  0.26930718  1
  O2-  O196  1  0.04382918  0.58502988  0.60273480  1
  O2-  O197  1  0.03988841  0.58665901  0.93528060  1
  O2-  O198  1  0.54934436  0.07985808  0.26931623  1
  O2-  O199  1  0.53992456  0.08616888  0.60984182  1
  O2-  O200  1  0.55479567  0.07553813  0.93515327  1
  O2-  O201  1  0.55237170  0.58304223  0.27365136  1
  O2-  O202  1  0.54361268  0.58788528  0.60279594  1
  O2-  O203  1  0.53842925  0.58725824  0.92760437  1
  O2-  O204  1  0.16088612  0.20605407  0.27219597  1
  O2-  O205  1  0.16683307  0.21384016  0.59777281  1
  O2-  O206  1  0.16388975  0.21099864  0.93455399  1
  O2-  O207  1  0.16157870  0.70273257  0.26889716  1
  O2-  O208  1  0.16304058  0.70617579  0.60109833  1
  O2-  O209  1  0.16236158  0.70239350  0.93421624  1
  O2-  O210  1  0.67397980  0.20855834  0.27229012  1
  O2-  O211  1  0.66515727  0.20286632  0.60843785  1
  O2-  O212  1  0.67161875  0.21262660  0.93312731  1
  O2-  O213  1  0.66768887  0.70543582  0.27004759  1
  O2-  O214  1  0.66421438  0.70647927  0.60438110  1
  O2-  O215  1  0.66765109  0.71095491  0.93040844  1
  O2-  O216  1  0.08284820  0.46245512  0.06771331  1
  O2-  O217  1  0.08251029  0.46346463  0.40370805  1
  O2-  O218  1  0.08633374  0.46146270  0.73626472  1
  O2-  O219  1  0.08043805  0.95635939  0.06706197  1
  O2-  O220  1  0.08372152  0.95057946  0.39538883  1
  O2-  O221  1  0.08218185  0.94538879  0.72100244  1
  O2-  O222  1  0.58129643  0.46696720  0.06748728  1
  O2-  O223  1  0.58705704  0.45437815  0.39558855  1
  O2-  O224  1  0.57778072  0.45926809  0.73434566  1
  O2-  O225  1  0.58076474  0.93765727  0.05587232  1
  O2-  O226  1  0.57980738  0.95046090  0.39895808  1
  O2-  O227  1  0.57891157  0.95042188  0.73767682  1
  O2-  O228  1  0.20726918  0.33276719  0.06861048  1
  O2-  O229  1  0.20275615  0.32901054  0.40398214  1
  O2-  O230  1  0.21323703  0.33425107  0.73544728  1
  O2-  O231  1  0.19997644  0.82697537  0.06313459  1
  O2-  O232  1  0.19941161  0.83069735  0.39299688  1
  O2-  O233  1  0.20528787  0.83294602  0.72653184  1
  O2-  O234  1  0.70984464  0.33748492  0.07281781  1
  O2-  O235  1  0.71136196  0.34091168  0.39693283  1
  O2-  O236  1  0.70363664  0.33072129  0.73589275  1
  O2-  O237  1  0.71478652  0.83554495  0.06395643  1
  O2-  O238  1  0.71498161  0.83270701  0.40155588  1
  O2-  O239  1  0.71084721  0.83234010  0.73480992  1
  O2-  O240  1  0.45189142  0.42177026  0.27037765  1
  O2-  O241  1  0.45143263  0.41528530  0.60627250  1
  O2-  O242  1  0.45472093  0.41903396  0.93199234  1
  O2-  O243  1  0.46071446  0.91441513  0.26241884  1
  O2-  O244  1  0.45671005  0.91457029  0.60695220  1
  O2-  O245  1  0.44649448  0.91754718  0.93645763  1
  O2-  O246  1  0.96133868  0.41415688  0.26758508  1
  O2-  O247  1  0.95775350  0.41627545  0.60406119  1
  O2-  O248  1  0.95222844  0.41981796  0.93802431  1
  O2-  O249  1  0.95684284  0.91173553  0.26895854  1
  O2-  O250  1  0.95693012  0.90829236  0.59675055  1
  O2-  O251  1  0.95938535  0.91091188  0.93480928  1
  O2-  O252  1  0.32765413  0.29181657  0.27101170  1
  O2-  O253  1  0.33849378  0.28909196  0.60432097  1
  O2-  O254  1  0.32965749  0.29009302  0.93206763  1
  O2-  O255  1  0.33208317  0.78958446  0.26473408  1
  O2-  O256  1  0.33801384  0.79268340  0.60253599  1
  O2-  O257  1  0.33275926  0.79223919  0.93286931  1
  O2-  O258  1  0.83794442  0.30094810  0.27103492  1
  O2-  O259  1  0.83229840  0.30213420  0.60625026  1
  O2-  O260  1  0.83223048  0.30224131  0.94058760  1
  O2-  O261  1  0.83968199  0.78866674  0.26680663  1
  O2-  O262  1  0.83711948  0.78846829  0.60061894  1
  O2-  O263  1  0.84038492  0.79111330  0.93296805  1
  O2-  O264  1  0.42328192  0.04429328  0.06723636  1
  O2-  O265  1  0.41711691  0.03753730  0.39899022  1
  O2-  O266  1  0.41271264  0.03850762  0.73850508  1
  O2-  O267  1  0.41693267  0.55329286  0.05840310  1
  O2-  O268  1  0.42404843  0.55379550  0.40102223  1
  O2-  O269  1  0.41672730  0.55387039  0.72783860  1
  O2-  O270  1  0.91208053  0.03295113  0.06876643  1
  O2-  O271  1  0.91869428  0.03541696  0.40321445  1
  O2-  O272  1  0.92083627  0.03410402  0.73201081  1
  O2-  O273  1  0.91483301  0.55012922  0.06420784  1
  O2-  O274  1  0.91159107  0.54133166  0.39457821  1
  O2-  O275  1  0.91996586  0.54674839  0.73359471  1
  O2-  O276  1  0.28898166  0.16720139  0.07004273  1
  O2-  O277  1  0.28735111  0.16323728  0.40314786  1
  O2-  O278  1  0.28805807  0.16626849  0.73471285  1
  O2-  O279  1  0.29167636  0.66475703  0.06111343  1
  O2-  O280  1  0.28729911  0.66839309  0.40292876  1
  O2-  O281  1  0.29285271  0.66802790  0.73199130  1
  O2-  O282  1  0.79653239  0.16992041  0.06744794  1
  O2-  O283  1  0.80737642  0.17571656  0.40083067  1
  O2-  O284  1  0.80339663  0.17122278  0.73322608  1
  O2-  O285  1  0.79599614  0.66866897  0.06232143  1
  O2-  O286  1  0.79774115  0.66369798  0.39276485  1
  O2-  O287  1  0.79433037  0.66865542  0.73400223  1
