# generated using pymatgen
data_Ca2Al2SiO7
_symmetry_space_group_name_H-M   'P 1'
_cell_length_a   15.46065760
_cell_length_b   15.45924138
_cell_length_c   15.28447672
_cell_angle_alpha   89.99941216
_cell_angle_beta   90.00837881
_cell_angle_gamma   90.01611509
_symmetry_Int_Tables_number   1
_chemical_formula_structural   Ca2Al2SiO7
_chemical_formula_sum   'Ca48 Al48 Si24 O168'
_cell_volume   3653.14317283
_cell_formula_units_Z   24
loop_
 _symmetry_equiv_pos_site_id
 _symmetry_equiv_pos_as_xyz
  1  'x, y, z'
loop_
 _atom_type_symbol
 _atom_type_oxidation_number
  Ca2+  2.0
  Al0+  0.0
  Si0+  0.0
  O2-  -2.0
loop_
 _atom_site_type_symbol
 _atom_site_label
 _atom_site_symmetry_multiplicity
 _atom_site_fract_x
 _atom_site_fract_y
 _atom_site_fract_z
 _atom_site_occupancy
  Ca2+  Ca0  1  0.16897409  0.07291470  0.17404118  1
  Ca2+  Ca1  1  0.16721693  0.07646153  0.51249042  1
  Ca2+  Ca2  1  0.16926725  0.08199898  0.83064256  1
  Ca2+  Ca3  1  0.17416758  0.58019079  0.17782961  1
  Ca2+  Ca4  1  0.16709741  0.57501484  0.50464622  1
  Ca2+  Ca5  1  0.15686811  0.58032838  0.82989519  1
  Ca2+  Ca6  1  0.66289347  0.07630952  0.16698948  1
  Ca2+  Ca7  1  0.65974463  0.07982871  0.50264068  1
  Ca2+  Ca8  1  0.67089596  0.08180966  0.84306063  1
  Ca2+  Ca9  1  0.67987768  0.58406516  0.17024380  1
  Ca2+  Ca10  1  0.67738504  0.58011703  0.51194286  1
  Ca2+  Ca11  1  0.67173141  0.57919315  0.83641914  1
  Ca2+  Ca12  1  0.07645092  0.34121735  0.16834238  1
  Ca2+  Ca13  1  0.08473895  0.33437376  0.49487548  1
  Ca2+  Ca14  1  0.08130410  0.32779692  0.82229780  1
  Ca2+  Ca15  1  0.07807035  0.83189674  0.15929690  1
  Ca2+  Ca16  1  0.08106025  0.83510323  0.50111727  1
  Ca2+  Ca17  1  0.06867360  0.82947972  0.82108217  1
  Ca2+  Ca18  1  0.59128370  0.32281856  0.16065914  1
  Ca2+  Ca19  1  0.59230864  0.32184710  0.49682176  1
  Ca2+  Ca20  1  0.59316758  0.32672594  0.82747084  1
  Ca2+  Ca21  1  0.58094665  0.83798917  0.15962776  1
  Ca2+  Ca22  1  0.58595274  0.82703367  0.49716144  1
  Ca2+  Ca23  1  0.58174713  0.83275406  0.82927344  1
  Ca2+  Ca24  1  0.32743873  0.42441078  0.17528864  1
  Ca2+  Ca25  1  0.32378938  0.41601913  0.50435384  1
  Ca2+  Ca26  1  0.32664398  0.41385663  0.83144106  1
  Ca2+  Ca27  1  0.32991851  0.91391309  0.17344393  1
  Ca2+  Ca28  1  0.32018171  0.92268815  0.50731971  1
  Ca2+  Ca29  1  0.33180735  0.91763060  0.83232774  1
  Ca2+  Ca30  1  0.83209741  0.42466064  0.17020817  1
  Ca2+  Ca31  1  0.83494194  0.42606311  0.50605101  1
  Ca2+  Ca32  1  0.82421063  0.42792225  0.83716843  1
  Ca2+  Ca33  1  0.82440603  0.91837782  0.16642856  1
  Ca2+  Ca34  1  0.82931561  0.91576964  0.50389901  1
  Ca2+  Ca35  1  0.83179051  0.91855267  0.84204433  1
  Ca2+  Ca36  1  0.43017126  0.16435074  0.16209011  1
  Ca2+  Ca37  1  0.42408331  0.16241317  0.49962471  1
  Ca2+  Ca38  1  0.42922716  0.16402447  0.82535314  1
  Ca2+  Ca39  1  0.41491200  0.67300579  0.15938936  1
  Ca2+  Ca40  1  0.42296421  0.65962314  0.49741071  1
  Ca2+  Ca41  1  0.42420592  0.67363541  0.82758105  1
  Ca2+  Ca42  1  0.91379723  0.17091652  0.16372496  1
  Ca2+  Ca43  1  0.92326516  0.17646012  0.49597487  1
  Ca2+  Ca44  1  0.91954770  0.16507112  0.82683052  1
  Ca2+  Ca45  1  0.91323605  0.66857355  0.16176657  1
  Ca2+  Ca46  1  0.91667632  0.66527321  0.50143123  1
  Ca2+  Ca47  1  0.91004944  0.67517522  0.82576198  1
  Al0+  Al48  1  0.00086224  -0.00038185  0.00088970  1
  Al0+  Al49  1  -0.00224043  -0.00011023  0.33530328  1
  Al0+  Al50  1  -0.00107308  0.00049961  0.66125970  1
  Al0+  Al51  1  -0.00004105  0.49841387  0.00253209  1
  Al0+  Al52  1  0.00070375  0.50112719  0.33483380  1
  Al0+  Al53  1  -0.00078199  0.50319022  0.67304667  1
  Al0+  Al54  1  0.49868242  0.00119489  -0.00572500  1
  Al0+  Al55  1  0.50037845  -0.00219816  0.33321241  1
  Al0+  Al56  1  0.49862927  0.00061671  0.66525369  1
  Al0+  Al57  1  0.49701686  0.49810819  0.00346451  1
  Al0+  Al58  1  0.50291328  0.49854497  0.33320130  1
  Al0+  Al59  1  0.49865099  0.49868150  0.66615425  1
  Al0+  Al60  1  0.25107603  0.24914170  0.00312007  1
  Al0+  Al61  1  0.25199755  0.24869345  0.33297025  1
  Al0+  Al62  1  0.25180400  0.24924192  0.67107525  1
  Al0+  Al63  1  0.25015055  0.74932912  -0.00661959  1
  Al0+  Al64  1  0.25065356  0.75021360  0.34162377  1
  Al0+  Al65  1  0.24763814  0.75066105  0.66734745  1
  Al0+  Al66  1  0.75268535  0.25043620  0.00161785  1
  Al0+  Al67  1  0.75288692  0.24889870  0.32280282  1
  Al0+  Al68  1  0.75035401  0.24920141  0.66363449  1
  Al0+  Al69  1  0.74939585  0.74992662  0.00363005  1
  Al0+  Al70  1  0.75021692  0.75084597  0.33998926  1
  Al0+  Al71  1  0.74801533  0.75170871  0.66184694  1
  Al0+  Al72  1  0.07226454  0.18077701  0.65415925  1
  Al0+  Al73  1  0.56897841  0.67856254  0.65353337  1
  Al0+  Al74  1  0.92860004  0.82017995  0.98881015  1
  Al0+  Al75  1  0.57128109  0.18218315  0.98473913  1
  Al0+  Al76  1  0.93232658  0.32256714  0.31880665  1
  Al0+  Al77  1  0.57224216  0.17935797  0.65230039  1
  Al0+  Al78  1  0.82025323  0.57096761  0.34918945  1
  Al0+  Al79  1  0.18009913  0.42874979  0.34761002  1
  Al0+  Al80  1  0.92697436  0.82213598  0.64903656  1
  Al0+  Al81  1  0.67683275  0.93017441  0.01286145  1
  Al0+  Al82  1  0.32465232  0.57196670  0.34856959  1
  Al0+  Al83  1  0.82480967  0.07138914  0.01496178  1
  Al0+  Al84  1  0.42775450  0.82160691  0.98554597  1
  Al0+  Al85  1  0.67875061  0.93116125  0.34852191  1
  Al0+  Al86  1  0.17667927  0.92955176  0.34655968  1
  Al0+  Al87  1  0.81979787  0.57345726  0.68301604  1
  Al0+  Al88  1  0.67686179  0.42801601  0.01619126  1
  Al0+  Al89  1  0.82097530  0.57146294  0.01612284  1
  Al0+  Al90  1  0.56977824  0.17790637  0.31726754  1
  Al0+  Al91  1  0.17588137  0.92833860  0.68459098  1
  Al0+  Al92  1  0.67801271  0.42665614  0.67951985  1
  Al0+  Al93  1  0.32165565  0.07043337  0.68325808  1
  Al0+  Al94  1  0.07101424  0.67785184  0.64990101  1
  Al0+  Al95  1  0.17920556  0.43015165  0.68129516  1
  Si0+  Si96  1  0.92894809  0.32239337  0.65233055  1
  Si0+  Si97  1  0.18039774  0.92827125  0.01359454  1
  Si0+  Si98  1  0.07140114  0.68153483  0.31905402  1
  Si0+  Si99  1  0.32331396  0.57301674  0.68517151  1
  Si0+  Si100  1  0.68003577  0.42487268  0.34869331  1
  Si0+  Si101  1  0.17945762  0.42719902  0.01549249  1
  Si0+  Si102  1  0.42744655  0.82251318  0.64790715  1
  Si0+  Si103  1  0.32257215  0.07032910  0.34817403  1
  Si0+  Si104  1  0.57362144  0.67795178  0.31807250  1
  Si0+  Si105  1  0.42711733  0.32304486  0.31539197  1
  Si0+  Si106  1  0.93108540  0.32179979  0.98333075  1
  Si0+  Si107  1  0.82028954  0.07107978  0.67852941  1
  Si0+  Si108  1  0.07341490  0.17587039  0.31623508  1
  Si0+  Si109  1  0.07221261  0.67657908  0.98467120  1
  Si0+  Si110  1  0.92729028  0.82205454  0.31667974  1
  Si0+  Si111  1  0.67818476  0.93013745  0.68067146  1
  Si0+  Si112  1  0.31914436  0.57225716  0.01300448  1
  Si0+  Si113  1  0.82144262  0.07395280  0.35132982  1
  Si0+  Si114  1  0.42744911  0.32165135  0.64962977  1
  Si0+  Si115  1  0.32068693  0.07082950  0.01615187  1
  Si0+  Si116  1  0.57086382  0.67644316  0.98595249  1
  Si0+  Si117  1  0.42514907  0.32268352  0.98273092  1
  Si0+  Si118  1  0.42977727  0.81737745  0.32012297  1
  Si0+  Si119  1  0.07300607  0.17887206  0.98641759  1
  O2-  O120  1  0.25184867  -0.00237285  0.05845751  1
  O2-  O121  1  0.24664466  0.00957477  0.39118109  1
  O2-  O122  1  0.24943481  -0.00102554  0.73458871  1
  O2-  O123  1  0.24859172  0.50089193  0.05573930  1
  O2-  O124  1  0.25517165  0.49727652  0.39735744  1
  O2-  O125  1  0.25162703  0.50698310  0.72962167  1
  O2-  O126  1  0.74985000  0.00120795  0.06362735  1
  O2-  O127  1  0.75161863  0.00702912  0.39613913  1
  O2-  O128  1  0.74932351  0.00083811  0.72168070  1
  O2-  O129  1  0.74749149  0.50111718  0.06681850  1
  O2-  O130  1  0.74519240  0.49579434  0.39377929  1
  O2-  O131  1  0.74637174  0.50140929  0.73016785  1
  O2-  O132  1  0.00846791  0.24775948  0.27133925  1
  O2-  O133  1  0.00197138  0.25887888  0.60696157  1
  O2-  O134  1  0.00133664  0.24874648  0.94319655  1
  O2-  O135  1  0.00104808  0.75280091  0.27537330  1
  O2-  O136  1  -0.00006927  0.75044705  0.59924754  1
  O2-  O137  1  0.00044668  0.74265830  0.94280320  1
  O2-  O138  1  0.49641145  0.25484697  0.27109163  1
  O2-  O139  1  0.49987336  0.25652121  0.60580692  1
  O2-  O140  1  0.49870645  0.25962354  0.93859928  1
  O2-  O141  1  0.49844225  0.74492759  0.27575700  1
  O2-  O142  1  0.49237073  0.75040906  0.60375104  1
  O2-  O143  1  0.50526015  0.74847860  0.94165839  1
  O2-  O144  1  0.07534133  0.18016141  0.09162680  1
  O2-  O145  1  0.07167836  0.17478947  0.42150674  1
  O2-  O146  1  0.06884938  0.18129305  0.76796251  1
  O2-  O147  1  0.07747579  0.67885082  0.09073706  1
  O2-  O148  1  0.07114151  0.68123782  0.42332999  1
  O2-  O149  1  0.06820177  0.67888643  0.76407042  1
  O2-  O150  1  0.56666365  0.18016357  0.09803902  1
  O2-  O151  1  0.56754480  0.17789356  0.43032809  1
  O2-  O152  1  0.57306296  0.17853473  0.76516230  1
  O2-  O153  1  0.56697183  0.67624406  0.09199367  1
  O2-  O154  1  0.57323330  0.67992390  0.42300579  1
  O2-  O155  1  0.56814184  0.68181849  0.76696319  1
  O2-  O156  1  0.18052435  0.43310923  0.23313306  1
  O2-  O157  1  0.18176420  0.42830536  0.56867582  1
  O2-  O158  1  0.17956210  0.42482754  0.91070843  1
  O2-  O159  1  0.17974875  0.92801584  0.23229647  1
  O2-  O160  1  0.17754710  0.93208248  0.57072688  1
  O2-  O161  1  0.18020662  0.93038344  0.90943708  1
  O2-  O162  1  0.68124807  0.42688234  0.24306946  1
  O2-  O163  1  0.68241027  0.42506934  0.56565079  1
  O2-  O164  1  0.67891163  0.42938945  0.90283514  1
  O2-  O165  1  0.67775979  0.93038132  0.23561297  1
  O2-  O166  1  0.67742051  0.93154447  0.57528926  1
  O2-  O167  1  0.67715529  0.93135919  0.89909591  1
  O2-  O168  1  0.41947919  0.31922494  0.08813761  1
  O2-  O169  1  0.42508048  0.32264387  0.42056046  1
  O2-  O170  1  0.42578679  0.32017444  0.75538361  1
  O2-  O171  1  0.42289893  0.81844975  0.09921448  1
  O2-  O172  1  0.43178917  0.81840491  0.42468965  1
  O2-  O173  1  0.43116737  0.82283490  0.75387289  1
  O2-  O174  1  0.93498994  0.32469021  0.08850011  1
  O2-  O175  1  0.93302229  0.32077944  0.43188351  1
  O2-  O176  1  0.92873443  0.31776946  0.75819925  1
  O2-  O177  1  0.93302535  0.82069660  0.10247164  1
  O2-  O178  1  0.92706468  0.82242839  0.42119948  1
  O2-  O179  1  0.92567402  0.82315399  0.76300313  1
  O2-  O180  1  0.32343945  0.06629546  0.24187741  1
  O2-  O181  1  0.32206282  0.06805856  0.56923264  1
  O2-  O182  1  0.31830464  0.07363150  0.91187133  1
  O2-  O183  1  0.32034839  0.57459694  0.23398238  1
  O2-  O184  1  0.32506287  0.56928955  0.57982978  1
  O2-  O185  1  0.31907731  0.57252843  0.90845555  1
  O2-  O186  1  0.82316627  0.07124925  0.24584638  1
  O2-  O187  1  0.81843846  0.07229138  0.57338824  1
  O2-  O188  1  0.82643367  0.07003688  0.90091140  1
  O2-  O189  1  0.81947933  0.57256431  0.23602632  1
  O2-  O190  1  0.81957932  0.57057227  0.56922877  1
  O2-  O191  1  0.82173878  0.57065049  0.90323057  1
  O2-  O192  1  0.04311527  0.08336700  0.26878151  1
  O2-  O193  1  0.03854068  0.08695295  0.59786899  1
  O2-  O194  1  0.04712449  0.08665180  0.93948268  1
  O2-  O195  1  0.04395532  0.59008200  0.27044604  1
  O2-  O196  1  0.04253260  0.57824579  0.59897690  1
  O2-  O197  1  0.04966887  0.58098001  0.94144792  1
  O2-  O198  1  0.53478608  0.08150199  0.26395258  1
  O2-  O199  1  0.53744305  0.08370732  0.59788395  1
  O2-  O200  1  0.53714477  0.08700984  0.93046802  1
  O2-  O201  1  0.55244784  0.58396836  0.27161088  1
  O2-  O202  1  0.54037604  0.58112128  0.59911825  1
  O2-  O203  1  0.54052572  0.58389248  0.94015806  1
  O2-  O204  1  0.16950339  0.19529305  0.27166146  1
  O2-  O205  1  0.17050123  0.20778506  0.60229666  1
  O2-  O206  1  0.16466891  0.20852166  0.93945534  1
  O2-  O207  1  0.16437420  0.71004681  0.27264466  1
  O2-  O208  1  0.17139821  0.70281154  0.59889260  1
  O2-  O209  1  0.16384013  0.70279491  0.93543117  1
  O2-  O210  1  0.66696948  0.20505509  0.26268147  1
  O2-  O211  1  0.66869444  0.20763636  0.59573660  1
  O2-  O212  1  0.67059687  0.20864473  0.93394227  1
  O2-  O213  1  0.66382719  0.71206806  0.27124876  1
  O2-  O214  1  0.66258068  0.71275110  0.59651367  1
  O2-  O215  1  0.66543776  0.69895267  0.94196973  1
  O2-  O216  1  0.08774297  0.45374466  0.06323630  1
  O2-  O217  1  0.08362544  0.46014620  0.40039204  1
  O2-  O218  1  0.08314735  0.45852439  0.73793462  1
  O2-  O219  1  0.09027274  0.95784122  0.06328671  1
  O2-  O220  1  0.07899438  0.95624245  0.39938368  1
  O2-  O221  1  0.07708966  0.96050230  0.73435905  1
  O2-  O222  1  0.57551161  0.44947912  0.06765547  1
  O2-  O223  1  0.58446344  0.44457145  0.39228460  1
  O2-  O224  1  0.57736961  0.44945174  0.73017027  1
  O2-  O225  1  0.57769388  0.96024760  0.06517737  1
  O2-  O226  1  0.58185315  0.96034365  0.40277999  1
  O2-  O227  1  0.58619814  0.95732022  0.72696971  1
  O2-  O228  1  0.20905578  0.33683398  0.06501816  1
  O2-  O229  1  0.20389904  0.32741173  0.39705152  1
  O2-  O230  1  0.21277256  0.33507992  0.73710649  1
  O2-  O231  1  0.20763387  0.83501225  0.05915745  1
  O2-  O232  1  0.21120459  0.83641755  0.40288193  1
  O2-  O233  1  0.20250241  0.82892955  0.73618038  1
  O2-  O234  1  0.70979177  0.33112581  0.06870052  1
  O2-  O235  1  0.70866143  0.33067660  0.39111188  1
  O2-  O236  1  0.71073274  0.32912736  0.73249253  1
  O2-  O237  1  0.70149067  0.83138985  0.06678319  1
  O2-  O238  1  0.71070597  0.83599235  0.40368691  1
  O2-  O239  1  0.70487470  0.83833218  0.72707120  1
  O2-  O240  1  0.45172011  0.41733742  0.26877095  1
  O2-  O241  1  0.44644937  0.41654080  0.60408140  1
  O2-  O242  1  0.44294121  0.41902829  0.93911942  1
  O2-  O243  1  0.45854040  0.90847048  0.27110206  1
  O2-  O244  1  0.45685995  0.91428535  0.60079621  1
  O2-  O245  1  0.45497703  0.91782315  0.93022789  1
  O2-  O246  1  0.96500918  0.41861929  0.26290722  1
  O2-  O247  1  0.95067591  0.41809222  0.61093021  1
  O2-  O248  1  0.96180249  0.41254186  0.93514801  1
  O2-  O249  1  0.95293651  0.91511062  0.27011468  1
  O2-  O250  1  0.95531655  0.91992708  0.59422957  1
  O2-  O251  1  0.96245580  0.91611595  0.93480266  1
  O2-  O252  1  0.33341896  0.29785414  0.26730831  1
  O2-  O253  1  0.33598367  0.29062566  0.60242885  1
  O2-  O254  1  0.33296370  0.29152291  0.93551049  1
  O2-  O255  1  0.33661005  0.79119463  0.27315081  1
  O2-  O256  1  0.33160331  0.80158650  0.60567729  1
  O2-  O257  1  0.33364584  0.78771432  0.92793221  1
  O2-  O258  1  0.83813308  0.29095232  0.26029721  1
  O2-  O259  1  0.83881214  0.29128090  0.60277982  1
  O2-  O260  1  0.83930075  0.29546766  0.93664495  1
  O2-  O261  1  0.83571132  0.79052028  0.27090577  1
  O2-  O262  1  0.82896297  0.79469472  0.59492872  1
  O2-  O263  1  0.83018972  0.79381010  0.93618308  1
  O2-  O264  1  0.41239787  0.04278685  0.06259547  1
  O2-  O265  1  0.41230797  0.03679239  0.39596850  1
  O2-  O266  1  0.41952068  0.03878992  0.73661462  1
  O2-  O267  1  0.40996113  0.54636885  0.06333345  1
  O2-  O268  1  0.42508581  0.54655155  0.39839713  1
  O2-  O269  1  0.41511452  0.54435885  0.73337902  1
  O2-  O270  1  0.92260540  0.04237331  0.07042457  1
  O2-  O271  1  0.91442609  0.04729762  0.39802497  1
  O2-  O272  1  0.91199151  0.04405316  0.72561068  1
  O2-  O273  1  0.91997726  0.54101130  0.06898422  1
  O2-  O274  1  0.91714259  0.54041105  0.40082597  1
  O2-  O275  1  0.91726927  0.54719513  0.73764745  1
  O2-  O276  1  0.29115160  0.16124454  0.06641733  1
  O2-  O277  1  0.30685808  0.16680153  0.39090338  1
  O2-  O278  1  0.29517116  0.16809606  0.73799738  1
  O2-  O279  1  0.29003843  0.66397427  0.06111456  1
  O2-  O280  1  0.29563012  0.66817171  0.40397743  1
  O2-  O281  1  0.30146046  0.66830204  0.72880806  1
  O2-  O282  1  0.80039153  0.17074608  0.06657069  1
  O2-  O283  1  0.79776899  0.16913298  0.39398563  1
  O2-  O284  1  0.79370187  0.16251118  0.72703345  1
  O2-  O285  1  0.79372179  0.66946676  0.07079132  1
  O2-  O286  1  0.78913727  0.66644589  0.40376724  1
  O2-  O287  1  0.78789971  0.67246786  0.73235545  1
