# generated using pymatgen
data_Ca2Al2SiO7
_symmetry_space_group_name_H-M   'P 1'
_cell_length_a   15.46292431
_cell_length_b   15.46288190
_cell_length_c   15.28787938
_cell_angle_alpha   90.00711388
_cell_angle_beta   89.99380181
_cell_angle_gamma   90.01334985
_symmetry_Int_Tables_number   1
_chemical_formula_structural   Ca2Al2SiO7
_chemical_formula_sum   'Ca48 Al48 Si24 O168'
_cell_volume   3655.35279320
_cell_formula_units_Z   24
loop_
 _symmetry_equiv_pos_site_id
 _symmetry_equiv_pos_as_xyz
  1  'x, y, z'
loop_
 _atom_type_symbol
 _atom_type_oxidation_number
  Ca2+  2.0
  Al0+  0.0
  Si0+  0.0
  O2-  -2.0
loop_
 _atom_site_type_symbol
 _atom_site_label
 _atom_site_symmetry_multiplicity
 _atom_site_fract_x
 _atom_site_fract_y
 _atom_site_fract_z
 _atom_site_occupancy
  Ca2+  Ca0  1  0.16655122  0.08467872  0.17093361  1
  Ca2+  Ca1  1  0.16410362  0.08230397  0.50989431  1
  Ca2+  Ca2  1  0.16764820  0.08593317  0.82978763  1
  Ca2+  Ca3  1  0.16882575  0.56965186  0.16735189  1
  Ca2+  Ca4  1  0.17051803  0.57449609  0.50525811  1
  Ca2+  Ca5  1  0.17976421  0.57505834  0.84070606  1
  Ca2+  Ca6  1  0.67257212  0.07693933  0.17101165  1
  Ca2+  Ca7  1  0.67646756  0.08549305  0.51024797  1
  Ca2+  Ca8  1  0.66345562  0.07889254  0.83244886  1
  Ca2+  Ca9  1  0.67034527  0.57699023  0.16525483  1
  Ca2+  Ca10  1  0.67144191  0.57553853  0.49784328  1
  Ca2+  Ca11  1  0.67008483  0.57729273  0.84497998  1
  Ca2+  Ca12  1  0.08451305  0.33449885  0.16657412  1
  Ca2+  Ca13  1  0.07483898  0.32379883  0.49293320  1
  Ca2+  Ca14  1  0.07809308  0.33149828  0.82516727  1
  Ca2+  Ca15  1  0.07314951  0.82714875  0.15751992  1
  Ca2+  Ca16  1  0.08601569  0.83395765  0.49786338  1
  Ca2+  Ca17  1  0.08000320  0.83373140  0.82980364  1
  Ca2+  Ca18  1  0.58226249  0.33968349  0.15948041  1
  Ca2+  Ca19  1  0.57990578  0.33158315  0.50076713  1
  Ca2+  Ca20  1  0.57497065  0.33461617  0.82681852  1
  Ca2+  Ca21  1  0.58150057  0.82580370  0.15092378  1
  Ca2+  Ca22  1  0.58581392  0.83541537  0.50017247  1
  Ca2+  Ca23  1  0.58595865  0.83178872  0.83430239  1
  Ca2+  Ca24  1  0.32648311  0.41491002  0.16476304  1
  Ca2+  Ca25  1  0.32784243  0.41630652  0.50710845  1
  Ca2+  Ca26  1  0.33583098  0.41999931  0.84192407  1
  Ca2+  Ca27  1  0.33616591  0.91549125  0.16708913  1
  Ca2+  Ca28  1  0.32438852  0.92634669  0.51370164  1
  Ca2+  Ca29  1  0.33313245  0.92240590  0.83427152  1
  Ca2+  Ca30  1  0.82471285  0.42403816  0.17583122  1
  Ca2+  Ca31  1  0.83456838  0.41032983  0.50010175  1
  Ca2+  Ca32  1  0.82828088  0.41788538  0.84260846  1
  Ca2+  Ca33  1  0.83042190  0.91765391  0.16757985  1
  Ca2+  Ca34  1  0.83058757  0.93304819  0.50871226  1
  Ca2+  Ca35  1  0.82474672  0.92249469  0.83754405  1
  Ca2+  Ca36  1  0.42161952  0.17520859  0.15821667  1
  Ca2+  Ca37  1  0.41863474  0.16531373  0.50365746  1
  Ca2+  Ca38  1  0.42028156  0.17838450  0.82390243  1
  Ca2+  Ca39  1  0.42335613  0.67067012  0.15202828  1
  Ca2+  Ca40  1  0.41473700  0.66584961  0.49925834  1
  Ca2+  Ca41  1  0.42002072  0.66150893  0.83152727  1
  Ca2+  Ca42  1  0.91796346  0.16970829  0.16997247  1
  Ca2+  Ca43  1  0.92113078  0.16895438  0.49445372  1
  Ca2+  Ca44  1  0.92049314  0.17361956  0.82073809  1
  Ca2+  Ca45  1  0.90838600  0.66742766  0.15832326  1
  Ca2+  Ca46  1  0.91459688  0.66879051  0.49471698  1
  Ca2+  Ca47  1  0.90789071  0.67321366  0.83389974  1
  Al0+  Al48  1  0.00151121  -0.00057650  -0.00385196  1
  Al0+  Al49  1  0.00036260  -0.00121821  0.33191321  1
  Al0+  Al50  1  -0.00248037  -0.00076697  0.67121185  1
  Al0+  Al51  1  0.00208975  0.49946162  0.00566981  1
  Al0+  Al52  1  0.00157072  0.50040355  0.33744590  1
  Al0+  Al53  1  0.00057458  0.50322566  0.66329256  1
  Al0+  Al54  1  0.50065201  -0.00023511  0.00183559  1
  Al0+  Al55  1  0.49850553  0.00055643  0.33199691  1
  Al0+  Al56  1  0.49836019  -0.00113943  0.66932760  1
  Al0+  Al57  1  0.50001617  0.50106151  -0.00023939  1
  Al0+  Al58  1  0.50110929  0.50186445  0.33555947  1
  Al0+  Al59  1  0.50161728  0.50191130  0.66292065  1
  Al0+  Al60  1  0.25183684  0.24807255  -0.00047070  1
  Al0+  Al61  1  0.25098071  0.24950035  0.33385391  1
  Al0+  Al62  1  0.24778451  0.25012140  0.66317366  1
  Al0+  Al63  1  0.24896612  0.75168829  0.00031171  1
  Al0+  Al64  1  0.24928900  0.75063718  0.33058977  1
  Al0+  Al65  1  0.25010316  0.74855322  0.67299664  1
  Al0+  Al66  1  0.75274387  0.24802182  0.00370955  1
  Al0+  Al67  1  0.74957487  0.24887537  0.33594745  1
  Al0+  Al68  1  0.74792022  0.25175605  0.66514998  1
  Al0+  Al69  1  0.74936084  0.75239783  -0.00256803  1
  Al0+  Al70  1  0.74799424  0.74846781  0.33569206  1
  Al0+  Al71  1  0.74933381  0.74969477  0.66613141  1
  Al0+  Al72  1  0.82160349  0.57215126  0.34943901  1
  Al0+  Al73  1  0.82122560  0.06850614  0.34639700  1
  Al0+  Al74  1  0.92809075  0.32200615  0.31559454  1
  Al0+  Al75  1  0.42642058  0.82366516  0.98263867  1
  Al0+  Al76  1  0.18042395  0.42742547  0.34956618  1
  Al0+  Al77  1  0.07208672  0.17780783  0.31629031  1
  Al0+  Al78  1  0.92908614  0.82055453  0.98502717  1
  Al0+  Al79  1  0.32231599  0.56884419  0.67975590  1
  Al0+  Al80  1  0.32195416  0.57262409  0.01546516  1
  Al0+  Al81  1  0.67887119  0.42625734  0.01284743  1
  Al0+  Al82  1  0.06892430  0.17731289  0.65232403  1
  Al0+  Al83  1  0.82129972  0.57131079  0.01248416  1
  Al0+  Al84  1  0.43091574  0.31988851  0.98806338  1
  Al0+  Al85  1  0.67756318  0.42792730  0.35078648  1
  Al0+  Al86  1  0.81957971  0.07479953  0.68311526  1
  Al0+  Al87  1  0.42844612  0.32365382  0.65046115  1
  Al0+  Al88  1  0.56930942  0.17702972  0.65191119  1
  Al0+  Al89  1  0.57003066  0.67962752  0.98332692  1
  Al0+  Al90  1  0.32021517  0.07375888  0.68278529  1
  Al0+  Al91  1  0.67845748  0.92732589  0.68201548  1
  Al0+  Al92  1  0.17714544  0.92802910  0.68293570  1
  Al0+  Al93  1  0.17992010  0.42540920  0.01426896  1
  Al0+  Al94  1  0.67964071  0.93176631  0.01421437  1
  Al0+  Al95  1  0.92774073  0.32467763  0.65262047  1
  Si0+  Si96  1  0.17712917  0.42913843  0.68180134  1
  Si0+  Si97  1  0.92771079  0.81913078  0.65047343  1
  Si0+  Si98  1  0.32058917  0.57355084  0.34923621  1
  Si0+  Si99  1  0.82239308  0.57169692  0.68103121  1
  Si0+  Si100  1  0.42724025  0.81935767  0.65145866  1
  Si0+  Si101  1  0.92897480  0.81905605  0.31983233  1
  Si0+  Si102  1  0.82650350  0.07160790  0.01823633  1
  Si0+  Si103  1  0.17712554  0.92963486  0.01672786  1
  Si0+  Si104  1  0.67971506  0.43086105  0.68092569  1
  Si0+  Si105  1  0.57248366  0.67968571  0.64820485  1
  Si0+  Si106  1  0.57086112  0.17722727  0.31772270  1
  Si0+  Si107  1  0.07294408  0.67888883  0.31806698  1
  Si0+  Si108  1  0.32225124  0.07049209  0.34745516  1
  Si0+  Si109  1  0.07202429  0.17882791  0.98446898  1
  Si0+  Si110  1  0.67587285  0.92819280  0.34908396  1
  Si0+  Si111  1  0.07188007  0.67604952  0.98282423  1
  Si0+  Si112  1  0.57495049  0.17730738  0.98579121  1
  Si0+  Si113  1  0.07285785  0.68125667  0.65109399  1
  Si0+  Si114  1  0.18040711  0.92853803  0.34577309  1
  Si0+  Si115  1  0.92990422  0.32128895  0.98771388  1
  Si0+  Si116  1  0.32056119  0.06958148  0.01617196  1
  Si0+  Si117  1  0.43036217  0.32160409  0.31835457  1
  Si0+  Si118  1  0.57039869  0.67990819  0.31763378  1
  Si0+  Si119  1  0.42838433  0.82134771  0.31951256  1
  O2-  O120  1  0.25131042  -0.00306010  0.05981278  1
  O2-  O121  1  0.24938087  0.00071362  0.38800050  1
  O2-  O122  1  0.24676516  0.00251000  0.73250095  1
  O2-  O123  1  0.25110393  0.49899187  0.06427692  1
  O2-  O124  1  0.25511789  0.50324824  0.39489386  1
  O2-  O125  1  0.25207197  0.49043894  0.72613476  1
  O2-  O126  1  0.75508067  0.00503096  0.06165802  1
  O2-  O127  1  0.74427322  -0.00397192  0.39317615  1
  O2-  O128  1  0.74648513  0.00306018  0.73167805  1
  O2-  O129  1  0.75193412  0.49734084  0.06253207  1
  O2-  O130  1  0.75492133  0.49549792  0.40036914  1
  O2-  O131  1  0.75612721  0.49656892  0.72190483  1
  O2-  O132  1  0.00192525  0.25100562  0.26516315  1
  O2-  O133  1  -0.00332824  0.24925599  0.60311925  1
  O2-  O134  1  0.00111715  0.25079124  0.94484178  1
  O2-  O135  1  -0.00411247  0.74426432  0.27693581  1
  O2-  O136  1  0.00213783  0.75212039  0.60708867  1
  O2-  O137  1  0.00096360  0.74257862  0.93832954  1
  O2-  O138  1  0.50372734  0.25242558  0.27604365  1
  O2-  O139  1  0.49686258  0.24808883  0.59991471  1
  O2-  O140  1  0.51117986  0.25071226  0.94282699  1
  O2-  O141  1  0.50002770  0.75221146  0.27689682  1
  O2-  O142  1  0.50062635  0.75129612  0.60721335  1
  O2-  O143  1  0.49520184  0.74890055  0.93245157  1
  O2-  O144  1  0.07235073  0.17637768  0.08946491  1
  O2-  O145  1  0.07176761  0.17441695  0.42898407  1
  O2-  O146  1  0.06842929  0.18061927  0.76657580  1
  O2-  O147  1  0.07229288  0.67958285  0.08887661  1
  O2-  O148  1  0.07871001  0.68503707  0.42310189  1
  O2-  O149  1  0.07130344  0.68037658  0.75573129  1
  O2-  O150  1  0.57167365  0.17524445  0.09205131  1
  O2-  O151  1  0.56634818  0.17142239  0.42202518  1
  O2-  O152  1  0.56905191  0.18074207  0.76563426  1
  O2-  O153  1  0.57023429  0.68244527  0.09763697  1
  O2-  O154  1  0.56972950  0.68102138  0.42309335  1
  O2-  O155  1  0.57436252  0.67771889  0.75246550  1
  O2-  O156  1  0.18404077  0.42812357  0.23664468  1
  O2-  O157  1  0.17633462  0.43420416  0.57619324  1
  O2-  O158  1  0.17927903  0.42530894  0.90070469  1
  O2-  O159  1  0.18243355  0.92604583  0.24069315  1
  O2-  O160  1  0.18072030  0.92495657  0.56831424  1
  O2-  O161  1  0.17384919  0.93251399  0.91240070  1
  O2-  O162  1  0.67356192  0.43267476  0.23763623  1
  O2-  O163  1  0.67705043  0.43408256  0.57595495  1
  O2-  O164  1  0.68180596  0.42534904  0.89887963  1
  O2-  O165  1  0.67501293  0.92864917  0.24354240  1
  O2-  O166  1  0.68358088  0.92418902  0.56776592  1
  O2-  O167  1  0.67983316  0.93381643  0.90183538  1
  O2-  O168  1  0.42878395  0.31505032  0.10185730  1
  O2-  O169  1  0.42980033  0.32031851  0.42312532  1
  O2-  O170  1  0.43264632  0.32622106  0.76392538  1
  O2-  O171  1  0.42998138  0.82397135  0.09750372  1
  O2-  O172  1  0.42660245  0.82126658  0.42456778  1
  O2-  O173  1  0.42547704  0.81706360  0.75566855  1
  O2-  O174  1  0.92884554  0.31952276  0.09228277  1
  O2-  O175  1  0.93011784  0.31852401  0.42888526  1
  O2-  O176  1  0.93104166  0.32773181  0.76707918  1
  O2-  O177  1  0.93222595  0.82221264  0.09895127  1
  O2-  O178  1  0.93208605  0.81984752  0.42499665  1
  O2-  O179  1  0.92594416  0.81527364  0.75522065  1
  O2-  O180  1  0.32517506  0.06753686  0.24212046  1
  O2-  O181  1  0.32093710  0.06810865  0.56839948  1
  O2-  O182  1  0.31835966  0.07128407  0.91186641  1
  O2-  O183  1  0.31880370  0.57643149  0.24428233  1
  O2-  O184  1  0.31843726  0.57146679  0.56603911  1
  O2-  O185  1  0.31995814  0.57047668  0.90184297  1
  O2-  O186  1  0.82046723  0.06381639  0.23306345  1
  O2-  O187  1  0.82070441  0.07070528  0.56921695  1
  O2-  O188  1  0.82839688  0.07219706  0.91325841  1
  O2-  O189  1  0.81579955  0.57743379  0.23660736  1
  O2-  O190  1  0.82026266  0.57511134  0.57615537  1
  O2-  O191  1  0.82096571  0.56831406  0.89831005  1
  O2-  O192  1  0.04297432  0.07832275  0.26306779  1
  O2-  O193  1  0.04249497  0.07667372  0.60158851  1
  O2-  O194  1  0.04435125  0.08760062  0.93651428  1
  O2-  O195  1  0.05218795  0.58510045  0.27338409  1
  O2-  O196  1  0.04436080  0.59089295  0.60095129  1
  O2-  O197  1  0.05033801  0.58098106  0.93835109  1
  O2-  O198  1  0.53807889  0.08711576  0.26741740  1
  O2-  O199  1  0.54252241  0.07730104  0.59903105  1
  O2-  O200  1  0.54315717  0.08629736  0.93964311  1
  O2-  O201  1  0.54174734  0.58849686  0.27049579  1
  O2-  O202  1  0.54295089  0.58997345  0.59768578  1
  O2-  O203  1  0.54463141  0.58056273  0.93064484  1
  O2-  O204  1  0.17263519  0.20436242  0.26495244  1
  O2-  O205  1  0.16778110  0.20215160  0.59891468  1
  O2-  O206  1  0.16390123  0.20564458  0.93746920  1
  O2-  O207  1  0.16124304  0.71356261  0.26687855  1
  O2-  O208  1  0.16435447  0.70975651  0.60273685  1
  O2-  O209  1  0.16392327  0.70609348  0.93668853  1
  O2-  O210  1  0.66400603  0.19928485  0.27157725  1
  O2-  O211  1  0.66674631  0.20777312  0.59848899  1
  O2-  O212  1  0.67122248  0.19532143  0.94251724  1
  O2-  O213  1  0.66218675  0.70753371  0.27040112  1
  O2-  O214  1  0.66328328  0.70965913  0.59892027  1
  O2-  O215  1  0.66708212  0.71120281  0.92987679  1
  O2-  O216  1  0.08315833  0.45458113  0.07034232  1
  O2-  O217  1  0.08489947  0.45905524  0.40370219  1
  O2-  O218  1  0.08616574  0.46328527  0.72872119  1
  O2-  O219  1  0.08706450  0.96152116  0.06607312  1
  O2-  O220  1  0.08808530  0.95304112  0.39292689  1
  O2-  O221  1  0.07781376  0.95101169  0.73521805  1
  O2-  O222  1  0.58125096  0.45582885  0.06558584  1
  O2-  O223  1  0.58119570  0.46381228  0.40530949  1
  O2-  O224  1  0.59022968  0.46557701  0.72788797  1
  O2-  O225  1  0.58331144  0.96152622  0.07063866  1
  O2-  O226  1  0.58144637  0.95361007  0.39419842  1
  O2-  O227  1  0.57805834  0.94863331  0.73202616  1
  O2-  O228  1  0.21126297  0.32799536  0.06846677  1
  O2-  O229  1  0.21278042  0.33109512  0.40284187  1
  O2-  O230  1  0.19385523  0.33287391  0.72360208  1
  O2-  O231  1  0.20017984  0.83690438  0.06459750  1
  O2-  O232  1  0.20979004  0.83752197  0.39468609  1
  O2-  O233  1  0.20770527  0.83111254  0.73691546  1
  O2-  O234  1  0.70506793  0.32747717  0.06712249  1
  O2-  O235  1  0.69889571  0.32727747  0.40105031  1
  O2-  O236  1  0.70037850  0.33800919  0.72780954  1
  O2-  O237  1  0.71144432  0.83556157  0.06789867  1
  O2-  O238  1  0.69952782  0.83418204  0.39417190  1
  O2-  O239  1  0.71181532  0.82994291  0.73449170  1
  O2-  O240  1  0.45583278  0.41528691  0.27329233  1
  O2-  O241  1  0.46152784  0.42036220  0.59512385  1
  O2-  O242  1  0.45547539  0.41772009  0.93552138  1
  O2-  O243  1  0.45343101  0.91394799  0.27159266  1
  O2-  O244  1  0.45213538  0.91166870  0.60350522  1
  O2-  O245  1  0.45759193  0.92210187  0.93208320  1
  O2-  O246  1  0.95551991  0.42322328  0.26756968  1
  O2-  O247  1  0.95739314  0.42281091  0.59841630  1
  O2-  O248  1  0.95674952  0.41379594  0.94124960  1
  O2-  O249  1  0.96086474  0.90808539  0.27000423  1
  O2-  O250  1  0.95299889  0.91215569  0.60509150  1
  O2-  O251  1  0.96425104  0.91547293  0.93045579  1
  O2-  O252  1  0.34005182  0.29015244  0.27056283  1
  O2-  O253  1  0.32852505  0.29886849  0.59950464  1
  O2-  O254  1  0.33641454  0.28363413  0.93325798  1
  O2-  O255  1  0.33686373  0.79394816  0.27047140  1
  O2-  O256  1  0.33632826  0.78760971  0.60314835  1
  O2-  O257  1  0.32446110  0.80338481  0.93439041  1
  O2-  O258  1  0.82834438  0.29189388  0.26522110  1
  O2-  O259  1  0.82754076  0.30171304  0.60239933  1
  O2-  O260  1  0.83824626  0.29274447  0.93961610  1
  O2-  O261  1  0.83490122  0.79480799  0.27464313  1
  O2-  O262  1  0.83828690  0.78643672  0.60089029  1
  O2-  O263  1  0.83327494  0.79259723  0.92947722  1
  O2-  O264  1  0.41218830  0.04343302  0.06529235  1
  O2-  O265  1  0.41256008  0.03978655  0.39652602  1
  O2-  O266  1  0.41724555  0.04287201  0.73582170  1
  O2-  O267  1  0.42022984  0.54607976  0.06826119  1
  O2-  O268  1  0.41531891  0.55143260  0.39403900  1
  O2-  O269  1  0.42142061  0.54372931  0.73063617  1
  O2-  O270  1  0.91894306  0.04142991  0.06432246  1
  O2-  O271  1  0.91696967  0.03365450  0.39999906  1
  O2-  O272  1  0.91648130  0.04381421  0.73648664  1
  O2-  O273  1  0.92060720  0.54848569  0.06577678  1
  O2-  O274  1  0.92328168  0.55471739  0.39947923  1
  O2-  O275  1  0.91667608  0.55150497  0.72649386  1
  O2-  O276  1  0.28985389  0.15936435  0.06598629  1
  O2-  O277  1  0.29796761  0.16249155  0.39413826  1
  O2-  O278  1  0.29318902  0.17322224  0.73437255  1
  O2-  O279  1  0.29320435  0.67203431  0.06733671  1
  O2-  O280  1  0.29196428  0.66710314  0.39570810  1
  O2-  O281  1  0.28865379  0.66286315  0.73524979  1
  O2-  O282  1  0.80245203  0.16483820  0.06562976  1
  O2-  O283  1  0.79244111  0.16486653  0.39952926  1
  O2-  O284  1  0.79265178  0.17388144  0.73519257  1
  O2-  O285  1  0.79222635  0.67015600  0.06336588  1
  O2-  O286  1  0.78767639  0.66915194  0.40512472  1
  O2-  O287  1  0.78912042  0.66145915  0.72856229  1
