# generated using pymatgen
data_Ca2Al2SiO7
_symmetry_space_group_name_H-M   'P 1'
_cell_length_a   15.46363761
_cell_length_b   15.46288995
_cell_length_c   15.28740049
_cell_angle_alpha   90.00523006
_cell_angle_beta   90.00071560
_cell_angle_gamma   90.00749813
_symmetry_Int_Tables_number   1
_chemical_formula_structural   Ca2Al2SiO7
_chemical_formula_sum   'Ca48 Al48 Si24 O168'
_cell_volume   3655.40891200
_cell_formula_units_Z   24
loop_
 _symmetry_equiv_pos_site_id
 _symmetry_equiv_pos_as_xyz
  1  'x, y, z'
loop_
 _atom_type_symbol
 _atom_type_oxidation_number
  Ca2+  2.0
  Al0+  0.0
  Si0+  0.0
  O2-  -2.0
loop_
 _atom_site_type_symbol
 _atom_site_label
 _atom_site_symmetry_multiplicity
 _atom_site_fract_x
 _atom_site_fract_y
 _atom_site_fract_z
 _atom_site_occupancy
  Ca2+  Ca0  1  0.17176382  0.08002008  0.18242311  1
  Ca2+  Ca1  1  0.16410962  0.07964113  0.50125625  1
  Ca2+  Ca2  1  0.15554245  0.07772665  0.82991439  1
  Ca2+  Ca3  1  0.16563318  0.57310117  0.17258956  1
  Ca2+  Ca4  1  0.16584159  0.57963597  0.50020338  1
  Ca2+  Ca5  1  0.17836774  0.58015896  0.84082412  1
  Ca2+  Ca6  1  0.67235871  0.08282782  0.17762123  1
  Ca2+  Ca7  1  0.67136867  0.07493707  0.50107285  1
  Ca2+  Ca8  1  0.65909213  0.08064630  0.83538989  1
  Ca2+  Ca9  1  0.67597492  0.57348393  0.17944095  1
  Ca2+  Ca10  1  0.67813480  0.57900500  0.49910958  1
  Ca2+  Ca11  1  0.67508225  0.58282327  0.83313470  1
  Ca2+  Ca12  1  0.07710545  0.33724620  0.16856564  1
  Ca2+  Ca13  1  0.08320402  0.32325606  0.48812462  1
  Ca2+  Ca14  1  0.08259105  0.33283804  0.83212383  1
  Ca2+  Ca15  1  0.08215330  0.83165348  0.17301766  1
  Ca2+  Ca16  1  0.07649439  0.83123363  0.48948757  1
  Ca2+  Ca17  1  0.07613141  0.83341036  0.82165882  1
  Ca2+  Ca18  1  0.58088135  0.33099892  0.16561422  1
  Ca2+  Ca19  1  0.57746424  0.33202861  0.49209610  1
  Ca2+  Ca20  1  0.58484160  0.31936552  0.82728228  1
  Ca2+  Ca21  1  0.57893464  0.83900393  0.17078344  1
  Ca2+  Ca22  1  0.58114592  0.83777084  0.49199516  1
  Ca2+  Ca23  1  0.58072764  0.83261942  0.82495093  1
  Ca2+  Ca24  1  0.32358620  0.41523205  0.17550835  1
  Ca2+  Ca25  1  0.32891989  0.41649832  0.50048680  1
  Ca2+  Ca26  1  0.32799896  0.42640874  0.84053711  1
  Ca2+  Ca27  1  0.32985778  0.92415473  0.18022425  1
  Ca2+  Ca28  1  0.32123355  0.91584921  0.49636350  1
  Ca2+  Ca29  1  0.32387382  0.91711270  0.83333325  1
  Ca2+  Ca30  1  0.83187816  0.41389919  0.18004870  1
  Ca2+  Ca31  1  0.84318660  0.42779571  0.49631606  1
  Ca2+  Ca32  1  0.83988818  0.42113247  0.83678611  1
  Ca2+  Ca33  1  0.82752187  0.92409573  0.18201504  1
  Ca2+  Ca34  1  0.83054299  0.91453965  0.50259141  1
  Ca2+  Ca35  1  0.82884735  0.91566695  0.83058974  1
  Ca2+  Ca36  1  0.41695057  0.17218471  0.16955963  1
  Ca2+  Ca37  1  0.42165447  0.16568335  0.49121742  1
  Ca2+  Ca38  1  0.42797373  0.16498580  0.82780339  1
  Ca2+  Ca39  1  0.41095282  0.67247016  0.16706918  1
  Ca2+  Ca40  1  0.41557406  0.67189353  0.49106550  1
  Ca2+  Ca41  1  0.41416878  0.66201071  0.82809715  1
  Ca2+  Ca42  1  0.91692938  0.17399283  0.16932345  1
  Ca2+  Ca43  1  0.92748315  0.16695456  0.48985750  1
  Ca2+  Ca44  1  0.92175985  0.17717272  0.82639399  1
  Ca2+  Ca45  1  0.92179021  0.66370188  0.17355331  1
  Ca2+  Ca46  1  0.91505498  0.67419418  0.49046527  1
  Ca2+  Ca47  1  0.91753974  0.67232775  0.82315294  1
  Al0+  Al48  1  -0.00331416  -0.00021284  0.00038788  1
  Al0+  Al49  1  0.00011454  -0.00135481  0.33070705  1
  Al0+  Al50  1  -0.00211632  0.00094061  0.66500584  1
  Al0+  Al51  1  0.00197080  0.50210942  -0.00264089  1
  Al0+  Al52  1  0.00183677  0.50004021  0.33500118  1
  Al0+  Al53  1  0.00090402  0.50123493  0.67313813  1
  Al0+  Al54  1  0.49761207  -0.00228984  -0.00462397  1
  Al0+  Al55  1  0.49962318  -0.00020091  0.33514425  1
  Al0+  Al56  1  0.49982463  -0.00083324  0.66638834  1
  Al0+  Al57  1  0.50202076  0.50277018  0.00183232  1
  Al0+  Al58  1  0.50042877  0.49950255  0.33125237  1
  Al0+  Al59  1  0.50158812  0.49952474  0.67165088  1
  Al0+  Al60  1  0.24968244  0.24892628  0.00055091  1
  Al0+  Al61  1  0.25299324  0.25047400  0.33385486  1
  Al0+  Al62  1  0.25123244  0.25006665  0.66643203  1
  Al0+  Al63  1  0.24959543  0.75131669  0.00189616  1
  Al0+  Al64  1  0.25110164  0.75064127  0.32634985  1
  Al0+  Al65  1  0.24952533  0.75057883  0.67538541  1
  Al0+  Al66  1  0.75136874  0.24986674  -0.01037499  1
  Al0+  Al67  1  0.74963257  0.24819559  0.34046597  1
  Al0+  Al68  1  0.74977314  0.24991711  0.66026412  1
  Al0+  Al69  1  0.74816858  0.75082835  0.00040252  1
  Al0+  Al70  1  0.74903454  0.74857439  0.33385127  1
  Al0+  Al71  1  0.74822871  0.74999203  0.67215689  1
  Al0+  Al72  1  0.92615289  0.82121954  0.31767417  1
  Al0+  Al73  1  0.67885935  0.92852742  0.34697392  1
  Al0+  Al74  1  0.17969404  0.42910486  0.34804127  1
  Al0+  Al75  1  0.07094831  0.18067768  0.65312341  1
  Al0+  Al76  1  0.17869706  0.92714990  0.34650244  1
  Al0+  Al77  1  0.43043718  0.82122474  0.32032807  1
  Al0+  Al78  1  0.93082164  0.32179165  0.98584633  1
  Al0+  Al79  1  0.07300796  0.17761762  0.31804845  1
  Al0+  Al80  1  0.42962377  0.32286869  0.32005881  1
  Al0+  Al81  1  0.17912341  0.42844620  0.01669354  1
  Al0+  Al82  1  0.92763533  0.81897801  0.65358303  1
  Al0+  Al83  1  0.82331019  0.07173092  0.34881365  1
  Al0+  Al84  1  0.82258133  0.56950048  0.34699169  1
  Al0+  Al85  1  0.32354622  0.57273448  0.01843065  1
  Al0+  Al86  1  0.67849454  0.93093468  0.68218641  1
  Al0+  Al87  1  0.32128459  0.57064867  0.67861730  1
  Al0+  Al88  1  0.56930283  0.17975208  0.98727794  1
  Al0+  Al89  1  0.67627863  0.42630883  0.34792928  1
  Al0+  Al90  1  0.17744972  0.93101323  0.68009098  1
  Al0+  Al91  1  0.32112895  0.07254792  0.34832627  1
  Al0+  Al92  1  0.82067268  0.57010159  0.68171370  1
  Al0+  Al93  1  0.07246946  0.67822810  0.31863166  1
  Al0+  Al94  1  0.92911716  0.32012943  0.32128437  1
  Al0+  Al95  1  0.57088581  0.17666220  0.64925040  1
  Si0+  Si96  1  0.42716831  0.81932799  0.65257615  1
  Si0+  Si97  1  0.42878697  0.81938629  0.98209848  1
  Si0+  Si98  1  0.57133133  0.17810460  0.31825601  1
  Si0+  Si99  1  0.32206137  0.57225890  0.34817838  1
  Si0+  Si100  1  0.07370496  0.67851713  0.65256724  1
  Si0+  Si101  1  0.82086752  0.57278228  0.01444428  1
  Si0+  Si102  1  0.43016552  0.32292332  0.65145699  1
  Si0+  Si103  1  0.17617405  0.93082609  0.01471165  1
  Si0+  Si104  1  0.68226546  0.42752776  0.01217034  1
  Si0+  Si105  1  0.32188743  0.07277865  0.68453993  1
  Si0+  Si106  1  0.32237936  0.06860392  0.01304592  1
  Si0+  Si107  1  0.92890981  0.32564920  0.64904180  1
  Si0+  Si108  1  0.07062710  0.68166871  0.98300360  1
  Si0+  Si109  1  0.57191515  0.67688525  0.31588448  1
  Si0+  Si110  1  0.42693266  0.32389145  0.98322389  1
  Si0+  Si111  1  0.57032523  0.67817706  0.65264750  1
  Si0+  Si112  1  0.57303252  0.67947317  0.98328340  1
  Si0+  Si113  1  0.82153333  0.07340266  0.68520187  1
  Si0+  Si114  1  0.81892405  0.07177097  0.01287372  1
  Si0+  Si115  1  0.67810248  0.42700750  0.68521636  1
  Si0+  Si116  1  0.07272359  0.17506162  0.98358805  1
  Si0+  Si117  1  0.17886912  0.42610647  0.68424085  1
  Si0+  Si118  1  0.67724290  0.92931531  0.01454332  1
  Si0+  Si119  1  0.92692832  0.82184061  0.98397770  1
  O2-  O120  1  0.24419572  0.00541045  0.05428047  1
  O2-  O121  1  0.24571289  0.00343757  0.39675646  1
  O2-  O122  1  0.24999240  0.00733445  0.72966555  1
  O2-  O123  1  0.25497620  0.49701147  0.06642852  1
  O2-  O124  1  0.25400636  0.50471195  0.39401163  1
  O2-  O125  1  0.24689670  0.49652785  0.72687632  1
  O2-  O126  1  0.74691319  0.00153000  0.05491216  1
  O2-  O127  1  0.75458340  -0.00445812  0.39737458  1
  O2-  O128  1  0.75022919  0.00759216  0.73153984  1
  O2-  O129  1  0.75307102  0.49828384  0.05499672  1
  O2-  O130  1  0.75165575  0.49564255  0.39628380  1
  O2-  O131  1  0.75044722  0.49171559  0.73054780  1
  O2-  O132  1  -0.00007776  0.24870453  0.26820026  1
  O2-  O133  1  -0.00170450  0.25717109  0.60746336  1
  O2-  O134  1  0.00793484  0.24832788  0.94043877  1
  O2-  O135  1  -0.00037085  0.75008010  0.26791718  1
  O2-  O136  1  0.00295590  0.74452253  0.60899418  1
  O2-  O137  1  -0.00111700  0.75220748  0.94056821  1
  O2-  O138  1  0.50589588  0.24953155  0.27342340  1
  O2-  O139  1  0.49596537  0.25239110  0.60633355  1
  O2-  O140  1  0.49516181  0.25475214  0.93836683  1
  O2-  O141  1  0.50461617  0.74700168  0.27124426  1
  O2-  O142  1  0.49705831  0.74688110  0.61138841  1
  O2-  O143  1  0.49778042  0.74610992  0.94004431  1
  O2-  O144  1  0.07105298  0.16913944  0.08787928  1
  O2-  O145  1  0.07288467  0.18020247  0.43178566  1
  O2-  O146  1  0.06797919  0.18216218  0.76729880  1
  O2-  O147  1  0.06989608  0.68156641  0.08730935  1
  O2-  O148  1  0.07355267  0.67922227  0.43245351  1
  O2-  O149  1  0.07283285  0.68106571  0.75904462  1
  O2-  O150  1  0.57018672  0.18021019  0.09966747  1
  O2-  O151  1  0.56762986  0.17689792  0.42358944  1
  O2-  O152  1  0.56816282  0.17760656  0.76343133  1
  O2-  O153  1  0.57852353  0.68247592  0.08724802  1
  O2-  O154  1  0.56947536  0.67534460  0.42172051  1
  O2-  O155  1  0.56970420  0.67972622  0.75858382  1
  O2-  O156  1  0.18017858  0.42998289  0.23506350  1
  O2-  O157  1  0.17898949  0.42542849  0.57923346  1
  O2-  O158  1  0.18007085  0.43156476  0.90233669  1
  O2-  O159  1  0.18373928  0.92763256  0.23198092  1
  O2-  O160  1  0.18000564  0.92730799  0.56847010  1
  O2-  O161  1  0.17603478  0.93043378  0.90909313  1
  O2-  O162  1  0.67655956  0.42866208  0.23311412  1
  O2-  O163  1  0.67300005  0.43120946  0.58070807  1
  O2-  O164  1  0.68329747  0.42931627  0.90685305  1
  O2-  O165  1  0.67716259  0.93316311  0.23224079  1
  O2-  O166  1  0.67780171  0.92912511  0.57036968  1
  O2-  O167  1  0.67750037  0.92808753  0.90932036  1
  O2-  O168  1  0.42822453  0.32234132  0.08829137  1
  O2-  O169  1  0.43099821  0.32382625  0.43320760  1
  O2-  O170  1  0.43236643  0.32249619  0.75771123  1
  O2-  O171  1  0.43087922  0.82251330  0.08660405  1
  O2-  O172  1  0.42954577  0.81763009  0.43368084  1
  O2-  O173  1  0.42834543  0.81875603  0.75853808  1
  O2-  O174  1  0.92542620  0.31974675  0.09776825  1
  O2-  O175  1  0.93335728  0.32102859  0.43466790  1
  O2-  O176  1  0.93000559  0.32505560  0.75562548  1
  O2-  O177  1  0.92568264  0.82280390  0.08794317  1
  O2-  O178  1  0.92530424  0.81795744  0.43128437  1
  O2-  O179  1  0.92918504  0.81741951  0.76811174  1
  O2-  O180  1  0.32312968  0.06984215  0.23358139  1
  O2-  O181  1  0.32304043  0.07180664  0.57988678  1
  O2-  O182  1  0.32610282  0.06421619  0.90782883  1
  O2-  O183  1  0.32172086  0.57042384  0.24270904  1
  O2-  O184  1  0.32154942  0.57178194  0.56613537  1
  O2-  O185  1  0.32105889  0.57268495  0.90423777  1
  O2-  O186  1  0.81790225  0.07359669  0.23385103  1
  O2-  O187  1  0.82179468  0.07067285  0.58057414  1
  O2-  O188  1  0.82024650  0.06950119  0.90778632  1
  O2-  O189  1  0.81980769  0.56857787  0.23254598  1
  O2-  O190  1  0.81941723  0.57104074  0.56978920  1
  O2-  O191  1  0.81777163  0.57481033  0.90899486  1
  O2-  O192  1  0.04750266  0.07896632  0.26481108  1
  O2-  O193  1  0.03923241  0.08452326  0.60073614  1
  O2-  O194  1  0.04030651  0.08331338  0.93493037  1
  O2-  O195  1  0.04119820  0.58131396  0.26393379  1
  O2-  O196  1  0.05146184  0.58259884  0.61085962  1
  O2-  O197  1  0.04410359  0.59045548  0.93361822  1
  O2-  O198  1  0.54256897  0.08622468  0.27038281  1
  O2-  O199  1  0.53875805  0.07993934  0.59763836  1
  O2-  O200  1  0.53589771  0.08318649  0.93209011  1
  O2-  O201  1  0.54479249  0.58504429  0.26698463  1
  O2-  O202  1  0.54559707  0.58498947  0.60771276  1
  O2-  O203  1  0.55010169  0.58609713  0.93532624  1
  O2-  O204  1  0.17155405  0.20700800  0.26668776  1
  O2-  O205  1  0.17003338  0.20641957  0.60229223  1
  O2-  O206  1  0.16827656  0.19522761  0.93788464  1
  O2-  O207  1  0.16884618  0.70706761  0.26134425  1
  O2-  O208  1  0.16737300  0.70556442  0.60901077  1
  O2-  O209  1  0.16283227  0.71146109  0.93614851  1
  O2-  O210  1  0.66592536  0.20114340  0.27386651  1
  O2-  O211  1  0.66825059  0.20466376  0.59702326  1
  O2-  O212  1  0.66424910  0.20930903  0.92840865  1
  O2-  O213  1  0.66484477  0.70126103  0.26853201  1
  O2-  O214  1  0.66084904  0.70912606  0.60665085  1
  O2-  O215  1  0.66266954  0.71241608  0.93245650  1
  O2-  O216  1  0.08111547  0.46254627  0.06707569  1
  O2-  O217  1  0.08486134  0.45987581  0.40368948  1
  O2-  O218  1  0.08563271  0.45093187  0.73187963  1
  O2-  O219  1  0.08263988  0.95384504  0.06039103  1
  O2-  O220  1  0.07846231  0.94803958  0.39588127  1
  O2-  O221  1  0.08087149  0.96232581  0.73600650  1
  O2-  O222  1  0.58992428  0.45464402  0.05837620  1
  O2-  O223  1  0.57967989  0.46014953  0.40166018  1
  O2-  O224  1  0.58719602  0.45609776  0.73607978  1
  O2-  O225  1  0.58362859  0.95497179  0.05883500  1
  O2-  O226  1  0.58228206  0.95932033  0.40093747  1
  O2-  O227  1  0.58074815  0.95988825  0.73739712  1
  O2-  O228  1  0.20128943  0.32672441  0.06547670  1
  O2-  O229  1  0.21421549  0.33455816  0.40209625  1
  O2-  O230  1  0.20640274  0.33361897  0.73261639  1
  O2-  O231  1  0.20737226  0.84015485  0.06058591  1
  O2-  O232  1  0.21388275  0.83031763  0.39837144  1
  O2-  O233  1  0.21057112  0.83681219  0.73949757  1
  O2-  O234  1  0.70984822  0.33487714  0.05696836  1
  O2-  O235  1  0.69714626  0.32777375  0.40125469  1
  O2-  O236  1  0.70163407  0.33109076  0.72800554  1
  O2-  O237  1  0.70569363  0.83780910  0.06156157  1
  O2-  O238  1  0.69906687  0.82781335  0.39724154  1
  O2-  O239  1  0.70988538  0.83522866  0.73931383  1
  O2-  O240  1  0.45891036  0.41858454  0.26298677  1
  O2-  O241  1  0.45853136  0.41605628  0.60633544  1
  O2-  O242  1  0.45359063  0.41856997  0.93902826  1
  O2-  O243  1  0.46289848  0.91687244  0.26409249  1
  O2-  O244  1  0.45579664  0.91061554  0.60686278  1
  O2-  O245  1  0.45909286  0.90901308  0.93117909  1
  O2-  O246  1  0.95738832  0.41834182  0.26819686  1
  O2-  O247  1  0.95456658  0.42066977  0.60689364  1
  O2-  O248  1  0.96050408  0.41929481  0.93077155  1
  O2-  O249  1  0.95343273  0.91888540  0.26267549  1
  O2-  O250  1  0.95550465  0.91653052  0.60287789  1
  O2-  O251  1  0.95366819  0.91417675  0.93576784  1
  O2-  O252  1  0.33590764  0.28889202  0.26313042  1
  O2-  O253  1  0.33503294  0.30127134  0.60789720  1
  O2-  O254  1  0.33302158  0.29878804  0.93678324  1
  O2-  O255  1  0.33675765  0.79042147  0.26099237  1
  O2-  O256  1  0.33471622  0.79117077  0.60790809  1
  O2-  O257  1  0.33546348  0.79383566  0.93539606  1
  O2-  O258  1  0.82861364  0.29239185  0.27088597  1
  O2-  O259  1  0.83440992  0.30330207  0.60538575  1
  O2-  O260  1  0.83698335  0.28945664  0.92576915  1
  O2-  O261  1  0.82768005  0.79199710  0.26372314  1
  O2-  O262  1  0.83018099  0.78710436  0.60363201  1
  O2-  O263  1  0.83474734  0.79238035  0.93672003  1
  O2-  O264  1  0.41082554  0.03284427  0.06178872  1
  O2-  O265  1  0.41716774  0.03936849  0.40171858  1
  O2-  O266  1  0.41338788  0.04086736  0.73216865  1
  O2-  O267  1  0.42590981  0.55353094  0.06687624  1
  O2-  O268  1  0.41600665  0.54782136  0.39324295  1
  O2-  O269  1  0.41775804  0.54073123  0.73566601  1
  O2-  O270  1  0.90993835  0.04300692  0.06102606  1
  O2-  O271  1  0.92266024  0.04624043  0.39893299  1
  O2-  O272  1  0.91331271  0.04462098  0.73380486  1
  O2-  O273  1  0.91501989  0.54994044  0.05704372  1
  O2-  O274  1  0.91992049  0.54342407  0.40189572  1
  O2-  O275  1  0.91832026  0.54409824  0.73864711  1
  O2-  O276  1  0.30368756  0.16377025  0.05669195  1
  O2-  O277  1  0.29879133  0.17114572  0.40172479  1
  O2-  O278  1  0.30114251  0.16780259  0.73094032  1
  O2-  O279  1  0.29223724  0.67178264  0.06817926  1
  O2-  O280  1  0.29714787  0.66652421  0.39193724  1
  O2-  O281  1  0.29157799  0.66560829  0.73793408  1
  O2-  O282  1  0.79065876  0.16435395  0.05736261  1
  O2-  O283  1  0.79352776  0.16692222  0.40588106  1
  O2-  O284  1  0.79819847  0.16947188  0.72838117  1
  O2-  O285  1  0.78867799  0.66322569  0.06157039  1
  O2-  O286  1  0.79021032  0.66621308  0.39989892  1
  O2-  O287  1  0.78405343  0.66365696  0.73935147  1
