# generated using pymatgen
data_Ca2Al2SiO7
_symmetry_space_group_name_H-M   'P 1'
_cell_length_a   15.45357904
_cell_length_b   15.45288608
_cell_length_c   15.28034256
_cell_angle_alpha   89.98974736
_cell_angle_beta   90.00148658
_cell_angle_gamma   89.99349312
_symmetry_Int_Tables_number   1
_chemical_formula_structural   Ca2Al2SiO7
_chemical_formula_sum   'Ca48 Al48 Si24 O168'
_cell_volume   3648.98233992
_cell_formula_units_Z   24
loop_
 _symmetry_equiv_pos_site_id
 _symmetry_equiv_pos_as_xyz
  1  'x, y, z'
loop_
 _atom_type_symbol
 _atom_type_oxidation_number
  Ca2+  2.0
  Al0+  0.0
  Si0+  0.0
  O2-  -2.0
loop_
 _atom_site_type_symbol
 _atom_site_label
 _atom_site_symmetry_multiplicity
 _atom_site_fract_x
 _atom_site_fract_y
 _atom_site_fract_z
 _atom_site_occupancy
  Ca2+  Ca0  1  0.16645375  0.07500545  0.17093316  1
  Ca2+  Ca1  1  0.17732524  0.08563614  0.50189090  1
  Ca2+  Ca2  1  0.16366419  0.07742588  0.84389823  1
  Ca2+  Ca3  1  0.16909479  0.58936304  0.17534434  1
  Ca2+  Ca4  1  0.17291950  0.58435980  0.50096795  1
  Ca2+  Ca5  1  0.16178825  0.57901906  0.83675313  1
  Ca2+  Ca6  1  0.66632093  0.08252479  0.17066485  1
  Ca2+  Ca7  1  0.65322888  0.07199490  0.50208603  1
  Ca2+  Ca8  1  0.67001008  0.08172310  0.83884642  1
  Ca2+  Ca9  1  0.67776164  0.58619398  0.17309113  1
  Ca2+  Ca10  1  0.67454061  0.59249746  0.50538398  1
  Ca2+  Ca11  1  0.67772166  0.58156131  0.83940326  1
  Ca2+  Ca12  1  0.08190239  0.32476622  0.16133376  1
  Ca2+  Ca13  1  0.07862956  0.34380762  0.50175870  1
  Ca2+  Ca14  1  0.07846654  0.33008537  0.82685835  1
  Ca2+  Ca15  1  0.08098960  0.82297984  0.15577318  1
  Ca2+  Ca16  1  0.07339729  0.82701935  0.49431355  1
  Ca2+  Ca17  1  0.07055732  0.83315510  0.83511860  1
  Ca2+  Ca18  1  0.58150855  0.32858640  0.16186285  1
  Ca2+  Ca19  1  0.58096971  0.31959729  0.49037521  1
  Ca2+  Ca20  1  0.59732931  0.32220517  0.83211280  1
  Ca2+  Ca21  1  0.58217516  0.83452340  0.17337009  1
  Ca2+  Ca22  1  0.58667913  0.82648539  0.49266654  1
  Ca2+  Ca23  1  0.58900420  0.82758280  0.82432001  1
  Ca2+  Ca24  1  0.33207594  0.42038076  0.17593332  1
  Ca2+  Ca25  1  0.33176053  0.41818876  0.50068120  1
  Ca2+  Ca26  1  0.32724868  0.41616394  0.83368981  1
  Ca2+  Ca27  1  0.32985443  0.91845048  0.17487522  1
  Ca2+  Ca28  1  0.34180923  0.91984193  0.49707247  1
  Ca2+  Ca29  1  0.32453272  0.91765888  0.84069489  1
  Ca2+  Ca30  1  0.82781393  0.42566878  0.16831201  1
  Ca2+  Ca31  1  0.83621589  0.42940364  0.50662335  1
  Ca2+  Ca32  1  0.83385738  0.42725069  0.83961956  1
  Ca2+  Ca33  1  0.83219758  0.92045332  0.16799771  1
  Ca2+  Ca34  1  0.81997754  0.91201318  0.50552044  1
  Ca2+  Ca35  1  0.83225570  0.91640321  0.83843004  1
  Ca2+  Ca36  1  0.42563175  0.16447766  0.16827621  1
  Ca2+  Ca37  1  0.42349555  0.16938159  0.49006323  1
  Ca2+  Ca38  1  0.43023087  0.16726554  0.82930822  1
  Ca2+  Ca39  1  0.41859154  0.66726459  0.16829756  1
  Ca2+  Ca40  1  0.42922649  0.66930962  0.48800510  1
  Ca2+  Ca41  1  0.42641799  0.66899795  0.82768612  1
  Ca2+  Ca42  1  0.91950481  0.16411141  0.15569488  1
  Ca2+  Ca43  1  0.91555009  0.17705084  0.49954908  1
  Ca2+  Ca44  1  0.91709441  0.16952820  0.83147122  1
  Ca2+  Ca45  1  0.92255842  0.66718156  0.16104962  1
  Ca2+  Ca46  1  0.91484579  0.66770342  0.49532378  1
  Ca2+  Ca47  1  0.90911507  0.67454326  0.83015199  1
  Al0+  Al48  1  -0.00002252  -0.00184517  0.00140927  1
  Al0+  Al49  1  -0.00125179  0.00099073  0.33736541  1
  Al0+  Al50  1  0.00045264  0.00011062  0.65911354  1
  Al0+  Al51  1  0.00165096  0.49909837  0.00249866  1
  Al0+  Al52  1  -0.00161091  0.50011057  0.33211814  1
  Al0+  Al53  1  0.00164064  0.50002104  0.67237546  1
  Al0+  Al54  1  0.49896434  0.00121434  -0.00510455  1
  Al0+  Al55  1  0.49918338  -0.00043718  0.33284574  1
  Al0+  Al56  1  0.49944044  -0.00059366  0.67058934  1
  Al0+  Al57  1  0.49761931  0.49935746  0.00093920  1
  Al0+  Al58  1  0.50045639  0.49867067  0.33038080  1
  Al0+  Al59  1  0.50055767  0.49892184  0.66422739  1
  Al0+  Al60  1  0.25191732  0.25016884  -0.00421090  1
  Al0+  Al61  1  0.24867816  0.24866838  0.33484134  1
  Al0+  Al62  1  0.25132274  0.24998877  0.67266241  1
  Al0+  Al63  1  0.24906086  0.74981405  -0.00199912  1
  Al0+  Al64  1  0.24871591  0.74868655  0.33412056  1
  Al0+  Al65  1  0.24994603  0.75163602  0.66847023  1
  Al0+  Al66  1  0.74936176  0.24945484  0.00441645  1
  Al0+  Al67  1  0.75161324  0.25094925  0.32966321  1
  Al0+  Al68  1  0.75206632  0.24895246  0.65446437  1
  Al0+  Al69  1  0.74896253  0.75028272  0.00223763  1
  Al0+  Al70  1  0.75080256  0.75204343  0.33578979  1
  Al0+  Al71  1  0.75014632  0.75168331  0.66778574  1
  Al0+  Al72  1  0.57117663  0.17859883  0.65187933  1
  Al0+  Al73  1  0.57057801  0.67930866  0.65481416  1
  Al0+  Al74  1  0.93112146  0.32237056  0.65388591  1
  Al0+  Al75  1  0.57431837  0.67833228  0.31715694  1
  Al0+  Al76  1  0.32230984  0.57150978  0.34665870  1
  Al0+  Al77  1  0.18074841  0.43063951  0.68130420  1
  Al0+  Al78  1  0.92919457  0.82131154  0.65113635  1
  Al0+  Al79  1  0.92741650  0.81966097  0.98603658  1
  Al0+  Al80  1  0.81962359  0.57078411  0.68088645  1
  Al0+  Al81  1  0.67771962  0.42842806  0.01501651  1
  Al0+  Al82  1  0.42665395  0.32110002  0.31841494  1
  Al0+  Al83  1  0.67986014  0.93108941  0.68151208  1
  Al0+  Al84  1  0.82002685  0.06933375  0.01115595  1
  Al0+  Al85  1  0.57133061  0.17811306  0.31643144  1
  Al0+  Al86  1  0.82190711  0.57280868  0.01704988  1
  Al0+  Al87  1  0.07269942  0.67672143  0.98311893  1
  Al0+  Al88  1  0.68119584  0.93285323  0.34609399  1
  Al0+  Al89  1  0.06860003  0.67955323  0.32173879  1
  Al0+  Al90  1  0.07162709  0.17831019  0.98794757  1
  Al0+  Al91  1  0.31894656  0.06962306  0.34614461  1
  Al0+  Al92  1  0.17939834  0.92947246  0.01356054  1
  Al0+  Al93  1  0.57111707  0.18008474  0.98498472  1
  Al0+  Al94  1  0.42876239  0.82031268  0.31873779  1
  Al0+  Al95  1  0.81983904  0.56949093  0.34838418  1
  Si0+  Si96  1  0.42564437  0.32049200  0.65008890  1
  Si0+  Si97  1  0.07304872  0.67776067  0.65024464  1
  Si0+  Si98  1  0.42793646  0.32471487  0.98016595  1
  Si0+  Si99  1  0.67770159  0.42484549  0.67942326  1
  Si0+  Si100  1  0.42548559  0.82155666  0.65137779  1
  Si0+  Si101  1  0.82376851  0.07373143  0.68089619  1
  Si0+  Si102  1  0.56970605  0.67842511  0.98577040  1
  Si0+  Si103  1  0.07445759  0.17801062  0.64912295  1
  Si0+  Si104  1  0.82505445  0.07566351  0.35250717  1
  Si0+  Si105  1  0.93022190  0.32179667  0.31652233  1
  Si0+  Si106  1  0.92839364  0.32097418  0.98486717  1
  Si0+  Si107  1  0.32044480  0.07047042  0.68453518  1
  Si0+  Si108  1  0.92757479  0.82387460  0.31663483  1
  Si0+  Si109  1  0.17669735  0.92940930  0.68164236  1
  Si0+  Si110  1  0.67440281  0.92759591  0.01672513  1
  Si0+  Si111  1  0.17601044  0.92644216  0.35237045  1
  Si0+  Si112  1  0.17971449  0.42668403  0.01568726  1
  Si0+  Si113  1  0.17776191  0.42726968  0.34895593  1
  Si0+  Si114  1  0.31972425  0.57084628  0.01449149  1
  Si0+  Si115  1  0.42847280  0.82124034  0.98456148  1
  Si0+  Si116  1  0.07030310  0.17802850  0.31954852  1
  Si0+  Si117  1  0.32304857  0.07236461  0.01649120  1
  Si0+  Si118  1  0.32419268  0.57365161  0.68354570  1
  Si0+  Si119  1  0.67772345  0.42624768  0.35099941  1
  O2-  O120  1  0.25301242  0.00519760  0.06039703  1
  O2-  O121  1  0.24549888  -0.00522523  0.39635084  1
  O2-  O122  1  0.24752935  0.00046378  0.72492246  1
  O2-  O123  1  0.24755554  0.50074990  0.05688073  1
  O2-  O124  1  0.24875155  0.49446476  0.39190274  1
  O2-  O125  1  0.25489920  0.50594725  0.72883544  1
  O2-  O126  1  0.74436239  -0.00401484  0.05858598  1
  O2-  O127  1  0.75428640  0.00881256  0.39498305  1
  O2-  O128  1  0.75478782  0.00637869  0.72646062  1
  O2-  O129  1  0.74746067  0.50222878  0.06569119  1
  O2-  O130  1  0.74201623  0.49845119  0.39638079  1
  O2-  O131  1  0.74391322  0.49521263  0.72492235  1
  O2-  O132  1  -0.00278686  0.24594564  0.27610968  1
  O2-  O133  1  0.00681160  0.24806722  0.60566595  1
  O2-  O134  1  -0.00227240  0.25284595  0.94016130  1
  O2-  O135  1  -0.00215629  0.75679822  0.27367159  1
  O2-  O136  1  0.00368269  0.74536701  0.60581153  1
  O2-  O137  1  -0.00430794  0.74406897  0.93455331  1
  O2-  O138  1  0.50123395  0.25267431  0.26731172  1
  O2-  O139  1  0.49793520  0.25564060  0.60694091  1
  O2-  O140  1  0.49895250  0.25745235  0.93740885  1
  O2-  O141  1  0.49840793  0.74681383  0.26702241  1
  O2-  O142  1  0.49230212  0.75085805  0.60917233  1
  O2-  O143  1  0.50247580  0.75321657  0.94277960  1
  O2-  O144  1  0.07163471  0.18043325  0.10149041  1
  O2-  O145  1  0.07077862  0.17889327  0.42474532  1
  O2-  O146  1  0.07413105  0.17654774  0.75468361  1
  O2-  O147  1  0.07567200  0.67955978  0.09668139  1
  O2-  O148  1  0.06726051  0.67951589  0.43523034  1
  O2-  O149  1  0.07466277  0.67985956  0.75552056  1
  O2-  O150  1  0.56779674  0.17778536  0.09732904  1
  O2-  O151  1  0.56767921  0.17788938  0.43031717  1
  O2-  O152  1  0.57110800  0.17947066  0.76531221  1
  O2-  O153  1  0.56765174  0.67755257  0.09037804  1
  O2-  O154  1  0.57486839  0.68177429  0.43094995  1
  O2-  O155  1  0.56877050  0.68101356  0.76880639  1
  O2-  O156  1  0.17687651  0.42559509  0.24317979  1
  O2-  O157  1  0.18253153  0.43111937  0.56821073  1
  O2-  O158  1  0.18181232  0.42520576  0.91057619  1
  O2-  O159  1  0.17408804  0.92883690  0.24686638  1
  O2-  O160  1  0.17759093  0.92999332  0.57663486  1
  O2-  O161  1  0.18158681  0.93126075  0.89974505  1
  O2-  O162  1  0.68235632  0.42441200  0.24557558  1
  O2-  O163  1  0.67887614  0.42533827  0.57399981  1
  O2-  O164  1  0.68075468  0.42949424  0.90063761  1
  O2-  O165  1  0.68357448  0.93390810  0.23278035  1
  O2-  O166  1  0.67826910  0.93122528  0.56864372  1
  O2-  O167  1  0.67316587  0.92789160  0.91091836  1
  O2-  O168  1  0.42429330  0.32525295  0.08520643  1
  O2-  O169  1  0.42538617  0.31763257  0.43243341  1
  O2-  O170  1  0.42219400  0.31787313  0.75569158  1
  O2-  O171  1  0.42661919  0.82108359  0.08915190  1
  O2-  O172  1  0.43121835  0.81980256  0.43262563  1
  O2-  O173  1  0.42339013  0.82078738  0.75754039  1
  O2-  O174  1  0.93159203  0.31961950  0.09085550  1
  O2-  O175  1  0.93288071  0.32352524  0.42180077  1
  O2-  O176  1  0.93211363  0.31999660  0.76689049  1
  O2-  O177  1  0.93042678  0.82103828  0.09957505  1
  O2-  O178  1  0.92880735  0.82324892  0.42262349  1
  O2-  O179  1  0.93043419  0.82349529  0.76387575  1
  O2-  O180  1  0.31479031  0.06904013  0.23319603  1
  O2-  O181  1  0.32020803  0.07118359  0.57936324  1
  O2-  O182  1  0.32331018  0.06954666  0.91033089  1
  O2-  O183  1  0.31754654  0.57148338  0.23316410  1
  O2-  O184  1  0.32353597  0.57392626  0.57833695  1
  O2-  O185  1  0.32159137  0.56920992  0.90910598  1
  O2-  O186  1  0.82980665  0.07409511  0.24700610  1
  O2-  O187  1  0.82466994  0.07308176  0.57541874  1
  O2-  O188  1  0.81921568  0.07039622  0.89780182  1
  O2-  O189  1  0.82259016  0.56663073  0.23573622  1
  O2-  O190  1  0.82052437  0.56990594  0.56765280  1
  O2-  O191  1  0.81956237  0.57266363  0.90313402  1
  O2-  O192  1  0.04470569  0.08474323  0.27335865  1
  O2-  O193  1  0.04986129  0.08593756  0.59962272  1
  O2-  O194  1  0.04071389  0.08247169  0.93378048  1
  O2-  O195  1  0.03817625  0.58330529  0.26666851  1
  O2-  O196  1  0.04987914  0.58302351  0.60691812  1
  O2-  O197  1  0.05103616  0.57464422  0.93481429  1
  O2-  O198  1  0.53859954  0.08161510  0.26367261  1
  O2-  O199  1  0.53435025  0.08221436  0.60154368  1
  O2-  O200  1  0.53814848  0.08439653  0.92868808  1
  O2-  O201  1  0.55062125  0.57834684  0.26651902  1
  O2-  O202  1  0.54500416  0.58109826  0.60101349  1
  O2-  O203  1  0.53732060  0.58820463  0.93746758  1
  O2-  O204  1  0.16054896  0.20723793  0.27088543  1
  O2-  O205  1  0.16907274  0.20480995  0.60565194  1
  O2-  O206  1  0.16821545  0.20795307  0.93235568  1
  O2-  O207  1  0.16561483  0.70777733  0.26826622  1
  O2-  O208  1  0.16719559  0.70532901  0.60476073  1
  O2-  O209  1  0.16994839  0.70843478  0.92849445  1
  O2-  O210  1  0.67209827  0.20323022  0.26641611  1
  O2-  O211  1  0.66697880  0.20408454  0.59449981  1
  O2-  O212  1  0.66893892  0.21008910  0.93224997  1
  O2-  O213  1  0.67080702  0.71360483  0.26424469  1
  O2-  O214  1  0.66502531  0.71458419  0.60115157  1
  O2-  O215  1  0.66234195  0.70400902  0.93932327  1
  O2-  O216  1  0.08692160  0.44820836  0.06360085  1
  O2-  O217  1  0.08542462  0.45695096  0.39524229  1
  O2-  O218  1  0.08571068  0.45964957  0.73893639  1
  O2-  O219  1  0.08447034  0.95995505  0.06955220  1
  O2-  O220  1  0.08304089  0.95481179  0.39961430  1
  O2-  O221  1  0.08481407  0.95903652  0.72773579  1
  O2-  O222  1  0.57689209  0.45293245  0.06479280  1
  O2-  O223  1  0.58149260  0.44430149  0.39366465  1
  O2-  O224  1  0.58221344  0.44498735  0.72489555  1
  O2-  O225  1  0.58062520  0.95555055  0.06121039  1
  O2-  O226  1  0.58380805  0.96111398  0.40006538  1
  O2-  O227  1  0.58225476  0.95860888  0.73666322  1
  O2-  O228  1  0.21081995  0.33538983  0.06314954  1
  O2-  O229  1  0.20038263  0.33376575  0.39688710  1
  O2-  O230  1  0.21122821  0.33385009  0.73728481  1
  O2-  O231  1  0.21262300  0.83305096  0.06629900  1
  O2-  O232  1  0.20082715  0.83338258  0.39889438  1
  O2-  O233  1  0.20449003  0.83781727  0.73009674  1
  O2-  O234  1  0.70710428  0.33156855  0.07003611  1
  O2-  O235  1  0.70824027  0.33332795  0.39701337  1
  O2-  O236  1  0.70756364  0.33097072  0.72306653  1
  O2-  O237  1  0.69784465  0.83398014  0.06286582  1
  O2-  O238  1  0.71332351  0.83732187  0.40195477  1
  O2-  O239  1  0.71260703  0.83585147  0.73654508  1
  O2-  O240  1  0.45053791  0.42007851  0.26515832  1
  O2-  O241  1  0.44534472  0.41637331  0.60664732  1
  O2-  O242  1  0.44977139  0.41907639  0.93302506  1
  O2-  O243  1  0.45818653  0.91745130  0.26435142  1
  O2-  O244  1  0.45237858  0.91551635  0.60776535  1
  O2-  O245  1  0.45195516  0.91361759  0.93558046  1
  O2-  O246  1  0.96285474  0.41049550  0.26680763  1
  O2-  O247  1  0.96582595  0.41823980  0.59980493  1
  O2-  O248  1  0.95513777  0.41432452  0.93948275  1
  O2-  O249  1  0.95145838  0.91959772  0.27365569  1
  O2-  O250  1  0.96058751  0.91670054  0.59407671  1
  O2-  O251  1  0.96078706  0.91633765  0.93205846  1
  O2-  O252  1  0.32779954  0.29081801  0.26610908  1
  O2-  O253  1  0.33342112  0.29044252  0.60350191  1
  O2-  O254  1  0.33582578  0.29559931  0.93172317  1
  O2-  O255  1  0.32877648  0.79469601  0.26788613  1
  O2-  O256  1  0.33098615  0.80034725  0.60465914  1
  O2-  O257  1  0.33878342  0.78978559  0.93470256  1
  O2-  O258  1  0.83795162  0.29788752  0.26902753  1
  O2-  O259  1  0.83786518  0.29221567  0.59305831  1
  O2-  O260  1  0.83511306  0.29487554  0.93999876  1
  O2-  O261  1  0.83508926  0.79777908  0.27091446  1
  O2-  O262  1  0.83318024  0.78925824  0.59796838  1
  O2-  O263  1  0.82678023  0.79568629  0.93367270  1
  O2-  O264  1  0.41575373  0.04341706  0.06193563  1
  O2-  O265  1  0.41457477  0.03861099  0.40160445  1
  O2-  O266  1  0.41045022  0.04019776  0.73406099  1
  O2-  O267  1  0.41063755  0.54282985  0.06310497  1
  O2-  O268  1  0.42006519  0.54290236  0.39985140  1
  O2-  O269  1  0.41735817  0.54626340  0.73081545  1
  O2-  O270  1  0.91551845  0.03847991  0.06773017  1
  O2-  O271  1  0.91805370  0.05041739  0.40133524  1
  O2-  O272  1  0.91912225  0.04885077  0.72440046  1
  O2-  O273  1  0.92090186  0.54249451  0.06827909  1
  O2-  O274  1  0.91552619  0.53385832  0.40239206  1
  O2-  O275  1  0.91595760  0.54038480  0.73513245  1
  O2-  O276  1  0.30001758  0.16769124  0.05910651  1
  O2-  O277  1  0.28504683  0.16460594  0.40323661  1
  O2-  O278  1  0.29433808  0.16181899  0.73362503  1
  O2-  O279  1  0.29313027  0.66310813  0.06080681  1
  O2-  O280  1  0.28898236  0.66637708  0.40321743  1
  O2-  O281  1  0.29984775  0.66804185  0.72981999  1
  O2-  O282  1  0.79234179  0.16520125  0.06805095  1
  O2-  O283  1  0.80229633  0.17134058  0.39556276  1
  O2-  O284  1  0.79848600  0.16862073  0.72443790  1
  O2-  O285  1  0.79311397  0.67127095  0.06986198  1
  O2-  O286  1  0.79328977  0.66798369  0.40039838  1
  O2-  O287  1  0.78667319  0.66634397  0.73483011  1
