# generated using pymatgen
data_Ca2Al2SiO7
_symmetry_space_group_name_H-M   'P 1'
_cell_length_a   15.45450812
_cell_length_b   15.45466992
_cell_length_c   15.28032355
_cell_angle_alpha   89.99094196
_cell_angle_beta   90.00661907
_cell_angle_gamma   89.98909125
_symmetry_Int_Tables_number   1
_chemical_formula_structural   Ca2Al2SiO7
_chemical_formula_sum   'Ca48 Al48 Si24 O168'
_cell_volume   3649.61837735
_cell_formula_units_Z   24
loop_
 _symmetry_equiv_pos_site_id
 _symmetry_equiv_pos_as_xyz
  1  'x, y, z'
loop_
 _atom_type_symbol
 _atom_type_oxidation_number
  Ca2+  2.0
  Al0+  0.0
  Si0+  0.0
  O2-  -2.0
loop_
 _atom_site_type_symbol
 _atom_site_label
 _atom_site_symmetry_multiplicity
 _atom_site_fract_x
 _atom_site_fract_y
 _atom_site_fract_z
 _atom_site_occupancy
  Ca2+  Ca0  1  0.16954179  0.08655706  0.17432342  1
  Ca2+  Ca1  1  0.16692647  0.08059994  0.50686012  1
  Ca2+  Ca2  1  0.16016092  0.07998745  0.83616558  1
  Ca2+  Ca3  1  0.16734329  0.57934923  0.17207151  1
  Ca2+  Ca4  1  0.16410114  0.58341130  0.50778540  1
  Ca2+  Ca5  1  0.15891948  0.57132315  0.83622130  1
  Ca2+  Ca6  1  0.67269940  0.08633281  0.17455242  1
  Ca2+  Ca7  1  0.67695989  0.08389893  0.50792994  1
  Ca2+  Ca8  1  0.66775415  0.08426523  0.83336039  1
  Ca2+  Ca9  1  0.66055916  0.57725104  0.16643736  1
  Ca2+  Ca10  1  0.67705477  0.58215904  0.50814786  1
  Ca2+  Ca11  1  0.67123719  0.58133258  0.84134743  1
  Ca2+  Ca12  1  0.08119589  0.32319897  0.15820434  1
  Ca2+  Ca13  1  0.08560988  0.32472145  0.49919653  1
  Ca2+  Ca14  1  0.08766485  0.32661366  0.82842481  1
  Ca2+  Ca15  1  0.07220777  0.83237612  0.16584747  1
  Ca2+  Ca16  1  0.08224865  0.82548008  0.49538176  1
  Ca2+  Ca17  1  0.07894836  0.82918836  0.82556052  1
  Ca2+  Ca18  1  0.58554319  0.32318626  0.15912169  1
  Ca2+  Ca19  1  0.58594165  0.32066303  0.49625234  1
  Ca2+  Ca20  1  0.59179491  0.32427818  0.83218905  1
  Ca2+  Ca21  1  0.57524169  0.82524573  0.15509091  1
  Ca2+  Ca22  1  0.58035178  0.84112806  0.50300688  1
  Ca2+  Ca23  1  0.57218747  0.83775432  0.82831454  1
  Ca2+  Ca24  1  0.32778944  0.42228532  0.17200713  1
  Ca2+  Ca25  1  0.32654201  0.42479137  0.50478286  1
  Ca2+  Ca26  1  0.32049755  0.41217232  0.83845834  1
  Ca2+  Ca27  1  0.33332669  0.92087955  0.17163844  1
  Ca2+  Ca28  1  0.32824442  0.92094744  0.50691868  1
  Ca2+  Ca29  1  0.33042409  0.91026881  0.83274770  1
  Ca2+  Ca30  1  0.83004522  0.40893363  0.16303770  1
  Ca2+  Ca31  1  0.83611834  0.42406061  0.50662820  1
  Ca2+  Ca32  1  0.83465025  0.42239899  0.84021733  1
  Ca2+  Ca33  1  0.83625480  0.91919772  0.17353894  1
  Ca2+  Ca34  1  0.83203655  0.92526521  0.50716362  1
  Ca2+  Ca35  1  0.83284257  0.92189681  0.83507240  1
  Ca2+  Ca36  1  0.42777016  0.15942146  0.16369443  1
  Ca2+  Ca37  1  0.42812627  0.15989716  0.49531433  1
  Ca2+  Ca38  1  0.43032096  0.16438128  0.82804207  1
  Ca2+  Ca39  1  0.41813605  0.66934833  0.15953191  1
  Ca2+  Ca40  1  0.40986422  0.67402349  0.49707511  1
  Ca2+  Ca41  1  0.42071605  0.67476264  0.83072171  1
  Ca2+  Ca42  1  0.92758952  0.16584351  0.16083127  1
  Ca2+  Ca43  1  0.92570513  0.15523217  0.49716777  1
  Ca2+  Ca44  1  0.92366909  0.17294525  0.82951997  1
  Ca2+  Ca45  1  0.91800645  0.67875724  0.16445228  1
  Ca2+  Ca46  1  0.92623118  0.66919776  0.49511655  1
  Ca2+  Ca47  1  0.91688599  0.67048393  0.82714264  1
  Al0+  Al48  1  0.00046506  -0.00113010  -0.00562811  1
  Al0+  Al49  1  -0.00045907  -0.00021406  0.32969018  1
  Al0+  Al50  1  0.00017707  0.00091715  0.67193680  1
  Al0+  Al51  1  -0.00096982  0.50010275  0.00702148  1
  Al0+  Al52  1  -0.00147520  0.49923565  0.32857052  1
  Al0+  Al53  1  0.00003253  0.50023507  0.67120241  1
  Al0+  Al54  1  0.50036883  -0.00064323  -0.00661762  1
  Al0+  Al55  1  0.49948271  -0.00064230  0.33218320  1
  Al0+  Al56  1  0.50039525  0.00043077  0.66071738  1
  Al0+  Al57  1  0.50039284  0.49938680  0.00021691  1
  Al0+  Al58  1  0.49760836  0.49926319  0.34073131  1
  Al0+  Al59  1  0.50010325  0.50092159  0.66637233  1
  Al0+  Al60  1  0.25162940  0.24826934  0.00345504  1
  Al0+  Al61  1  0.25158060  0.25097479  0.33536637  1
  Al0+  Al62  1  0.25131727  0.25123552  0.66557136  1
  Al0+  Al63  1  0.24860425  0.75111587  -0.00076026  1
  Al0+  Al64  1  0.24960668  0.74873746  0.33170535  1
  Al0+  Al65  1  0.25079587  0.75122016  0.66331076  1
  Al0+  Al66  1  0.75284778  0.25070978  -0.00281700  1
  Al0+  Al67  1  0.74962330  0.24845622  0.33540919  1
  Al0+  Al68  1  0.75129912  0.25107204  0.66469586  1
  Al0+  Al69  1  0.75009591  0.75079142  -0.00532853  1
  Al0+  Al70  1  0.74761452  0.74837771  0.33044135  1
  Al0+  Al71  1  0.74791511  0.75126326  0.67455589  1
  Al0+  Al72  1  0.42741929  0.82135068  0.98462496  1
  Al0+  Al73  1  0.82105852  0.57090978  0.68005494  1
  Al0+  Al74  1  0.57052580  0.67620514  0.98480216  1
  Al0+  Al75  1  0.17994488  0.92892338  0.67968819  1
  Al0+  Al76  1  0.92723708  0.82087207  0.32068546  1
  Al0+  Al77  1  0.93016583  0.32184106  0.98514555  1
  Al0+  Al78  1  0.07253070  0.67708752  0.31693391  1
  Al0+  Al79  1  0.57034875  0.17910697  0.31904756  1
  Al0+  Al80  1  0.32219871  0.07144156  0.34706609  1
  Al0+  Al81  1  0.57149492  0.18123676  0.65076782  1
  Al0+  Al82  1  0.17810649  0.42703071  0.01655431  1
  Al0+  Al83  1  0.82126522  0.06980432  0.34531931  1
  Al0+  Al84  1  0.67997116  0.42879715  0.01383128  1
  Al0+  Al85  1  0.82272707  0.07302573  0.68468290  1
  Al0+  Al86  1  0.31971711  0.57148993  0.34779172  1
  Al0+  Al87  1  0.07125083  0.17832917  0.65210938  1
  Al0+  Al88  1  0.92881622  0.82139990  0.98387669  1
  Al0+  Al89  1  0.07403863  0.17953283  0.98429904  1
  Al0+  Al90  1  0.18108012  0.42964347  0.67992017  1
  Al0+  Al91  1  0.57214934  0.17989342  0.98647123  1
  Al0+  Al92  1  0.06868300  0.67873585  0.65510752  1
  Al0+  Al93  1  0.42973622  0.81935991  0.64955899  1
  Al0+  Al94  1  0.67727455  0.93111040  0.68334014  1
  Al0+  Al95  1  0.07220927  0.17996507  0.32111889  1
  Si0+  Si96  1  0.32226397  0.07209598  0.68307397  1
  Si0+  Si97  1  0.57326953  0.67681267  0.64873711  1
  Si0+  Si98  1  0.32036026  0.57234345  0.01545893  1
  Si0+  Si99  1  0.42681251  0.32431852  0.64898183  1
  Si0+  Si100  1  0.17582301  0.42860928  0.35071129  1
  Si0+  Si101  1  0.17763503  0.92878385  0.01607402  1
  Si0+  Si102  1  0.82154352  0.57504554  0.02048453  1
  Si0+  Si103  1  0.92931915  0.32249650  0.64958939  1
  Si0+  Si104  1  0.57034667  0.67597608  0.32003335  1
  Si0+  Si105  1  0.82101067  0.06953110  0.01539223  1
  Si0+  Si106  1  0.67700920  0.42842572  0.68222221  1
  Si0+  Si107  1  0.42949946  0.82021762  0.31847390  1
  Si0+  Si108  1  0.67752866  0.92955049  0.01522557  1
  Si0+  Si109  1  0.92596831  0.82244059  0.65131336  1
  Si0+  Si110  1  0.32322028  0.57383111  0.68492985  1
  Si0+  Si111  1  0.17816817  0.92917932  0.34857867  1
  Si0+  Si112  1  0.92668136  0.32306027  0.31714008  1
  Si0+  Si113  1  0.67704639  0.92532127  0.34743712  1
  Si0+  Si114  1  0.07111060  0.67828612  0.98414649  1
  Si0+  Si115  1  0.42953221  0.32397957  0.31716700  1
  Si0+  Si116  1  0.32300631  0.06906738  0.01413037  1
  Si0+  Si117  1  0.81982259  0.57196037  0.34674358  1
  Si0+  Si118  1  0.67872505  0.42836542  0.34917209  1
  Si0+  Si119  1  0.42816214  0.32236101  0.98516564  1
  O2-  O120  1  0.24940542  0.00018193  0.05672983  1
  O2-  O121  1  0.24487415  -0.00046375  0.39330966  1
  O2-  O122  1  0.25155290  0.00627622  0.72838361  1
  O2-  O123  1  0.25233050  0.50369912  0.06124684  1
  O2-  O124  1  0.24138807  0.50070865  0.39446824  1
  O2-  O125  1  0.25620295  0.50356725  0.72858873  1
  O2-  O126  1  0.74942243  -0.00107019  0.05880772  1
  O2-  O127  1  0.74723121  -0.00684352  0.39001288  1
  O2-  O128  1  0.75011180  0.00139039  0.73481458  1
  O2-  O129  1  0.75202247  0.50552080  0.06336088  1
  O2-  O130  1  0.75080205  0.49909756  0.38978825  1
  O2-  O131  1  0.74327848  0.49911221  0.72600195  1
  O2-  O132  1  -0.00289703  0.25482251  0.27546550  1
  O2-  O133  1  -0.00559295  0.25076874  0.60473685  1
  O2-  O134  1  0.00624505  0.25527101  0.93440527  1
  O2-  O135  1  -0.00050519  0.74929131  0.26953905  1
  O2-  O136  1  -0.00529823  0.75383868  0.60716766  1
  O2-  O137  1  0.00129468  0.74444362  0.93853785  1
  O2-  O138  1  0.49511850  0.25298891  0.27158981  1
  O2-  O139  1  0.49710322  0.25715737  0.60486467  1
  O2-  O140  1  0.49864843  0.25605080  0.94019950  1
  O2-  O141  1  0.49981149  0.74767841  0.27786555  1
  O2-  O142  1  0.50431323  0.74405765  0.60241195  1
  O2-  O143  1  0.49964858  0.74923550  0.93553619  1
  O2-  O144  1  0.07303462  0.17781168  0.09841406  1
  O2-  O145  1  0.07162267  0.18002727  0.43419376  1
  O2-  O146  1  0.07264700  0.18115772  0.76469557  1
  O2-  O147  1  0.07169736  0.68154698  0.08987798  1
  O2-  O148  1  0.07077013  0.67718861  0.43071941  1
  O2-  O149  1  0.06658230  0.67850114  0.76822377  1
  O2-  O150  1  0.57076980  0.17840005  0.09988489  1
  O2-  O151  1  0.57120818  0.18084437  0.43187713  1
  O2-  O152  1  0.57015706  0.18293061  0.76405962  1
  O2-  O153  1  0.56746999  0.67749922  0.09960307  1
  O2-  O154  1  0.57262788  0.67562573  0.42482301  1
  O2-  O155  1  0.57086432  0.67447086  0.75381613  1
  O2-  O156  1  0.17888525  0.42830750  0.24509268  1
  O2-  O157  1  0.18173993  0.43082664  0.56667369  1
  O2-  O158  1  0.18025779  0.42762778  0.90337314  1
  O2-  O159  1  0.18029006  0.92930238  0.24246197  1
  O2-  O160  1  0.18157383  0.92857461  0.56628443  1
  O2-  O161  1  0.17793416  0.92725220  0.91112915  1
  O2-  O162  1  0.67720346  0.42852937  0.24413525  1
  O2-  O163  1  0.67829809  0.42960724  0.57592729  1
  O2-  O164  1  0.68259960  0.42979956  0.90097199  1
  O2-  O165  1  0.67555917  0.92473863  0.24147543  1
  O2-  O166  1  0.67884002  0.93208506  0.56895754  1
  O2-  O167  1  0.67610613  0.93246171  0.91072116  1
  O2-  O168  1  0.42900790  0.32114695  0.09098352  1
  O2-  O169  1  0.43368884  0.32618882  0.42262457  1
  O2-  O170  1  0.42585391  0.32321432  0.75463409  1
  O2-  O171  1  0.42880673  0.82160693  0.09904900  1
  O2-  O172  1  0.43004483  0.82052508  0.42332918  1
  O2-  O173  1  0.42949745  0.81745404  0.76226221  1
  O2-  O174  1  0.92878067  0.31533328  0.09914344  1
  O2-  O175  1  0.92682614  0.32762280  0.42261040  1
  O2-  O176  1  0.93045445  0.32387354  0.75484086  1
  O2-  O177  1  0.93001590  0.82255348  0.09718854  1
  O2-  O178  1  0.92626511  0.81855714  0.43412913  1
  O2-  O179  1  0.92828519  0.82022067  0.75703908  1
  O2-  O180  1  0.32457041  0.06668960  0.23356563  1
  O2-  O181  1  0.32172593  0.06980822  0.57711950  1
  O2-  O182  1  0.32446603  0.06897515  0.90931539  1
  O2-  O183  1  0.32343262  0.56863484  0.23468641  1
  O2-  O184  1  0.32244030  0.57238661  0.57891453  1
  O2-  O185  1  0.31897514  0.57250259  0.91009117  1
  O2-  O186  1  0.81961846  0.07055585  0.23173358  1
  O2-  O187  1  0.82259542  0.07063040  0.57054704  1
  O2-  O188  1  0.81994630  0.06876822  0.91074196  1
  O2-  O189  1  0.81662709  0.57409517  0.24209284  1
  O2-  O190  1  0.82088360  0.56886280  0.56588445  1
  O2-  O191  1  0.82231764  0.57459085  0.91494786  1
  O2-  O192  1  0.04257911  0.08381939  0.26579464  1
  O2-  O193  1  0.04156656  0.08017769  0.60005049  1
  O2-  O194  1  0.04263659  0.08231654  0.93218358  1
  O2-  O195  1  0.04365378  0.57905399  0.26353565  1
  O2-  O196  1  0.03686971  0.58248572  0.60065551  1
  O2-  O197  1  0.04688002  0.58293293  0.94255945  1
  O2-  O198  1  0.53985395  0.08200087  0.26516090  1
  O2-  O199  1  0.53898328  0.08608595  0.59578721  1
  O2-  O200  1  0.53911564  0.08540968  0.93101882  1
  O2-  O201  1  0.54026779  0.58397736  0.27410987  1
  O2-  O202  1  0.55037125  0.58208235  0.60228206  1
  O2-  O203  1  0.54321473  0.57797091  0.93125548  1
  O2-  O204  1  0.16998232  0.20958684  0.26788259  1
  O2-  O205  1  0.16853948  0.21017940  0.59931369  1
  O2-  O206  1  0.17473891  0.20320429  0.93422412  1
  O2-  O207  1  0.17073650  0.70553841  0.26330005  1
  O2-  O208  1  0.16556812  0.70819020  0.60121974  1
  O2-  O209  1  0.16398560  0.70457811  0.93796318  1
  O2-  O210  1  0.66693658  0.21190137  0.26606502  1
  O2-  O211  1  0.66820228  0.21279076  0.59648591  1
  O2-  O212  1  0.66771498  0.21108640  0.93257985  1
  O2-  O213  1  0.66108610  0.70149621  0.26953423  1
  O2-  O214  1  0.66731178  0.70438530  0.60395276  1
  O2-  O215  1  0.66944334  0.70184501  0.93380648  1
  O2-  O216  1  0.08180680  0.45643400  0.07221535  1
  O2-  O217  1  0.07997369  0.45050403  0.39385571  1
  O2-  O218  1  0.08563073  0.46066955  0.73523607  1
  O2-  O219  1  0.08592611  0.95789013  0.06339941  1
  O2-  O220  1  0.08401724  0.95246291  0.39343274  1
  O2-  O221  1  0.08369878  0.95609826  0.73536871  1
  O2-  O222  1  0.58196469  0.45668920  0.06870903  1
  O2-  O223  1  0.58837839  0.45686385  0.39877007  1
  O2-  O224  1  0.58197481  0.44981539  0.72733838  1
  O2-  O225  1  0.58519039  0.95773086  0.06240356  1
  O2-  O226  1  0.58417442  0.95258592  0.39368778  1
  O2-  O227  1  0.57843217  0.96240191  0.73390634  1
  O2-  O228  1  0.21178560  0.33104526  0.07119678  1
  O2-  O229  1  0.20541906  0.33666166  0.39792934  1
  O2-  O230  1  0.21359845  0.33346392  0.73460834  1
  O2-  O231  1  0.20536494  0.83719893  0.06475837  1
  O2-  O232  1  0.20612114  0.83567957  0.39332679  1
  O2-  O233  1  0.21408704  0.83328304  0.73411779  1
  O2-  O234  1  0.71402975  0.33263550  0.06896591  1
  O2-  O235  1  0.70734189  0.33745980  0.39780200  1
  O2-  O236  1  0.70450891  0.33561740  0.72749818  1
  O2-  O237  1  0.70379404  0.83600914  0.06054611  1
  O2-  O238  1  0.69889735  0.83066377  0.39377827  1
  O2-  O239  1  0.69957599  0.83172330  0.73675471  1
  O2-  O240  1  0.45792913  0.41696469  0.27064334  1
  O2-  O241  1  0.45062099  0.41916065  0.60337651  1
  O2-  O242  1  0.44921266  0.41635347  0.93906584  1
  O2-  O243  1  0.45826118  0.91073162  0.26926652  1
  O2-  O244  1  0.46076979  0.91550984  0.59461541  1
  O2-  O245  1  0.45727961  0.91761373  0.92921269  1
  O2-  O246  1  0.94843479  0.41612194  0.26788330  1
  O2-  O247  1  0.95935905  0.41474829  0.60286184  1
  O2-  O248  1  0.95107969  0.42444242  0.93849298  1
  O2-  O249  1  0.95700200  0.91732631  0.26430190  1
  O2-  O250  1  0.95214852  0.91664391  0.60792071  1
  O2-  O251  1  0.96212034  0.91553403  0.92826842  1
  O2-  O252  1  0.33440639  0.30237123  0.27331861  1
  O2-  O253  1  0.33462152  0.29836425  0.60044218  1
  O2-  O254  1  0.33591493  0.29319761  0.93890023  1
  O2-  O255  1  0.33774938  0.79358606  0.27068255  1
  O2-  O256  1  0.33424740  0.78816537  0.59346695  1
  O2-  O257  1  0.32843066  0.79383233  0.93266332  1
  O2-  O258  1  0.83309527  0.29566442  0.27228829  1
  O2-  O259  1  0.83437077  0.30276255  0.60339508  1
  O2-  O260  1  0.83421088  0.29112707  0.92967742  1
  O2-  O261  1  0.82897326  0.79132529  0.26575801  1
  O2-  O262  1  0.83094984  0.79779168  0.60835331  1
  O2-  O263  1  0.83190746  0.79437682  0.92994762  1
  O2-  O264  1  0.41409538  0.03723976  0.06225350  1
  O2-  O265  1  0.41754597  0.03644444  0.40161720  1
  O2-  O266  1  0.41503368  0.04270423  0.72779179  1
  O2-  O267  1  0.41433821  0.54727720  0.06161414  1
  O2-  O268  1  0.41445741  0.53927480  0.40627974  1
  O2-  O269  1  0.41827929  0.55019697  0.72921864  1
  O2-  O270  1  0.91350986  0.03926856  0.06096650  1
  O2-  O271  1  0.91802337  0.03889249  0.39914979  1
  O2-  O272  1  0.92002039  0.04498659  0.73915568  1
  O2-  O273  1  0.91422779  0.54989914  0.06884096  1
  O2-  O274  1  0.91264199  0.54447560  0.39271609  1
  O2-  O275  1  0.91468597  0.53755733  0.73722136  1
  O2-  O276  1  0.29956321  0.16101306  0.06361846  1
  O2-  O277  1  0.29814281  0.17006132  0.40011617  1
  O2-  O278  1  0.30193195  0.16745586  0.72694741  1
  O2-  O279  1  0.29419018  0.66613059  0.06253455  1
  O2-  O280  1  0.29231568  0.66949362  0.40109406  1
  O2-  O281  1  0.29697419  0.66718853  0.72916862  1
  O2-  O282  1  0.79358232  0.16163137  0.06179190  1
  O2-  O283  1  0.79017389  0.16571381  0.40104554  1
  O2-  O284  1  0.79423306  0.17301180  0.73395273  1
  O2-  O285  1  0.79404973  0.66913604  0.06544642  1
  O2-  O286  1  0.78919030  0.66211869  0.39610362  1
  O2-  O287  1  0.79253688  0.66680148  0.73572762  1
