# generated using pymatgen
data_Ca2Al2SiO7
_symmetry_space_group_name_H-M   'P 1'
_cell_length_a   15.46253820
_cell_length_b   15.46418677
_cell_length_c   15.28667596
_cell_angle_alpha   90.00857632
_cell_angle_beta   89.99893063
_cell_angle_gamma   90.01391135
_symmetry_Int_Tables_number   1
_chemical_formula_structural   Ca2Al2SiO7
_chemical_formula_sum   'Ca48 Al48 Si24 O168'
_cell_volume   3655.28221860
_cell_formula_units_Z   24
loop_
 _symmetry_equiv_pos_site_id
 _symmetry_equiv_pos_as_xyz
  1  'x, y, z'
loop_
 _atom_type_symbol
 _atom_type_oxidation_number
  Ca2+  2.0
  Al0+  0.0
  Si0+  0.0
  O2-  -2.0
loop_
 _atom_site_type_symbol
 _atom_site_label
 _atom_site_symmetry_multiplicity
 _atom_site_fract_x
 _atom_site_fract_y
 _atom_site_fract_z
 _atom_site_occupancy
  Ca2+  Ca0  1  0.17954362  0.07455474  0.16971932  1
  Ca2+  Ca1  1  0.17418946  0.07555597  0.50504332  1
  Ca2+  Ca2  1  0.17630375  0.07394315  0.83791038  1
  Ca2+  Ca3  1  0.16581928  0.57676090  0.16533947  1
  Ca2+  Ca4  1  0.17413215  0.57905287  0.50948983  1
  Ca2+  Ca5  1  0.17006256  0.57634656  0.83492194  1
  Ca2+  Ca6  1  0.66261400  0.07759942  0.16945720  1
  Ca2+  Ca7  1  0.67217420  0.07245512  0.50489786  1
  Ca2+  Ca8  1  0.67325251  0.09102164  0.83694365  1
  Ca2+  Ca9  1  0.66663389  0.58412115  0.16997870  1
  Ca2+  Ca10  1  0.66902471  0.58504496  0.50538463  1
  Ca2+  Ca11  1  0.66080368  0.57497287  0.83633701  1
  Ca2+  Ca12  1  0.07781168  0.33300791  0.15519749  1
  Ca2+  Ca13  1  0.08011848  0.33644177  0.49952623  1
  Ca2+  Ca14  1  0.07493432  0.34174989  0.82702562  1
  Ca2+  Ca15  1  0.08138031  0.84252013  0.16575617  1
  Ca2+  Ca16  1  0.07471877  0.84772327  0.49842977  1
  Ca2+  Ca17  1  0.08176613  0.84125834  0.82597883  1
  Ca2+  Ca18  1  0.57640683  0.32579573  0.15217664  1
  Ca2+  Ca19  1  0.58428988  0.33263273  0.50053240  1
  Ca2+  Ca20  1  0.58208807  0.33360987  0.83297037  1
  Ca2+  Ca21  1  0.58308071  0.82561667  0.15999585  1
  Ca2+  Ca22  1  0.58780876  0.82113940  0.49309695  1
  Ca2+  Ca23  1  0.57558256  0.82215657  0.83106456  1
  Ca2+  Ca24  1  0.33121659  0.40995055  0.16382732  1
  Ca2+  Ca25  1  0.32636559  0.42346734  0.51210047  1
  Ca2+  Ca26  1  0.32662185  0.41860736  0.83785799  1
  Ca2+  Ca27  1  0.33436026  0.92320338  0.17204153  1
  Ca2+  Ca28  1  0.32611796  0.92656094  0.50925797  1
  Ca2+  Ca29  1  0.32914127  0.92135408  0.84401664  1
  Ca2+  Ca30  1  0.82744127  0.42130062  0.16711905  1
  Ca2+  Ca31  1  0.82816935  0.42404046  0.50791126  1
  Ca2+  Ca32  1  0.82341261  0.40783186  0.83814136  1
  Ca2+  Ca33  1  0.82612059  0.91443354  0.17526439  1
  Ca2+  Ca34  1  0.83195104  0.91332899  0.50465588  1
  Ca2+  Ca35  1  0.83756635  0.92259686  0.83170356  1
  Ca2+  Ca36  1  0.41975517  0.16476971  0.15556929  1
  Ca2+  Ca37  1  0.40716002  0.16680129  0.49772523  1
  Ca2+  Ca38  1  0.41471450  0.16561157  0.83483529  1
  Ca2+  Ca39  1  0.42958471  0.67359431  0.15609739  1
  Ca2+  Ca40  1  0.42696081  0.66032767  0.49761196  1
  Ca2+  Ca41  1  0.42392437  0.66261883  0.82860226  1
  Ca2+  Ca42  1  0.92011698  0.17403505  0.15741318  1
  Ca2+  Ca43  1  0.91288386  0.16994267  0.50280956  1
  Ca2+  Ca44  1  0.91704080  0.17653437  0.82498097  1
  Ca2+  Ca45  1  0.91412672  0.67026656  0.16789797  1
  Ca2+  Ca46  1  0.91600671  0.67683293  0.49365043  1
  Ca2+  Ca47  1  0.92082641  0.67466696  0.82602941  1
  Al0+  Al48  1  0.00034745  0.00234499  0.00369749  1
  Al0+  Al49  1  0.00021226  0.00372003  0.32925619  1
  Al0+  Al50  1  -0.00119184  0.00311522  0.66874081  1
  Al0+  Al51  1  -0.00089818  0.50267826  -0.00000593  1
  Al0+  Al52  1  -0.00246447  0.50192140  0.33616903  1
  Al0+  Al53  1  -0.00218857  0.50286689  0.66283434  1
  Al0+  Al54  1  0.50329027  -0.00155561  -0.00562980  1
  Al0+  Al55  1  0.50147951  0.00028887  0.34361024  1
  Al0+  Al56  1  0.50166029  -0.00130735  0.66844067  1
  Al0+  Al57  1  0.50050525  0.49737216  -0.00106540  1
  Al0+  Al58  1  0.49953725  0.49759466  0.32735367  1
  Al0+  Al59  1  0.50080483  0.49823998  0.66755669  1
  Al0+  Al60  1  0.24948364  0.24784516  0.00396329  1
  Al0+  Al61  1  0.24772472  0.25006677  0.33557292  1
  Al0+  Al62  1  0.24845554  0.24882464  0.67212846  1
  Al0+  Al63  1  0.24762217  0.74885891  0.00225051  1
  Al0+  Al64  1  0.24826355  0.74811990  0.33666501  1
  Al0+  Al65  1  0.25100351  0.74961815  0.67264317  1
  Al0+  Al66  1  0.75059872  0.25190749  0.00012152  1
  Al0+  Al67  1  0.74826982  0.25090704  0.33129845  1
  Al0+  Al68  1  0.75009564  0.24996819  0.66628434  1
  Al0+  Al69  1  0.75224612  0.75030500  -0.00566420  1
  Al0+  Al70  1  0.75179350  0.74901048  0.33220646  1
  Al0+  Al71  1  0.75009587  0.74955639  0.66061766  1
  Al0+  Al72  1  0.32422648  0.06807702  0.01601559  1
  Al0+  Al73  1  0.17712796  0.92758171  0.34955848  1
  Al0+  Al74  1  0.93102038  0.32244081  0.98675741  1
  Al0+  Al75  1  0.57208973  0.17785083  0.98442222  1
  Al0+  Al76  1  0.92744849  0.32277054  0.65070301  1
  Al0+  Al77  1  0.42724733  0.82052571  0.98651533  1
  Al0+  Al78  1  0.81858643  0.06994842  0.67959879  1
  Al0+  Al79  1  0.67876477  0.42943270  0.01502352  1
  Al0+  Al80  1  0.32168036  0.07143613  0.34943274  1
  Al0+  Al81  1  0.93172061  0.82245870  0.65301211  1
  Al0+  Al82  1  0.57291843  0.67793756  0.98370463  1
  Al0+  Al83  1  0.32426834  0.07150344  0.68488385  1
  Al0+  Al84  1  0.17782808  0.42967804  0.01358922  1
  Al0+  Al85  1  0.42596595  0.31970925  0.98375472  1
  Al0+  Al86  1  0.68095515  0.92842158  0.34593837  1
  Al0+  Al87  1  0.32279187  0.57074602  0.68168850  1
  Al0+  Al88  1  0.17875335  0.92990358  0.68189205  1
  Al0+  Al89  1  0.68086744  0.42923597  0.67974786  1
  Al0+  Al90  1  0.56826386  0.67785357  0.65103887  1
  Al0+  Al91  1  0.17591174  0.42962205  0.68068086  1
  Al0+  Al92  1  0.93167095  0.82183906  0.31872445  1
  Al0+  Al93  1  0.57096136  0.67858190  0.31847499  1
  Al0+  Al94  1  0.81952896  0.56997133  0.34740504  1
  Al0+  Al95  1  0.17718848  0.92630855  0.01749974  1
  Si0+  Si96  1  0.07124378  0.18034588  0.64899926  1
  Si0+  Si97  1  0.82071137  0.07221618  0.01551292  1
  Si0+  Si98  1  0.07144290  0.18190599  0.31656361  1
  Si0+  Si99  1  0.57086573  0.17813760  0.32060714  1
  Si0+  Si100  1  0.68258242  0.92739856  0.01249269  1
  Si0+  Si101  1  0.17803191  0.42961044  0.34732369  1
  Si0+  Si102  1  0.07088186  0.17785357  0.98276470  1
  Si0+  Si103  1  0.57274222  0.17756883  0.64995816  1
  Si0+  Si104  1  0.07036001  0.67857929  0.98556300  1
  Si0+  Si105  1  0.32265737  0.57100340  0.01834142  1
  Si0+  Si106  1  0.82164250  0.57456827  0.01614074  1
  Si0+  Si107  1  0.82198128  0.07535213  0.34805169  1
  Si0+  Si108  1  0.82088637  0.57434989  0.68334238  1
  Si0+  Si109  1  0.42766673  0.82226975  0.32088691  1
  Si0+  Si110  1  0.07395458  0.67855070  0.64959040  1
  Si0+  Si111  1  0.42860465  0.31811296  0.65176447  1
  Si0+  Si112  1  0.42697997  0.82276566  0.64893129  1
  Si0+  Si113  1  0.67897322  0.92459530  0.68480800  1
  Si0+  Si114  1  0.42715221  0.31930174  0.31957345  1
  Si0+  Si115  1  0.07304499  0.67504207  0.31574409  1
  Si0+  Si116  1  0.92823120  0.32290554  0.31769229  1
  Si0+  Si117  1  0.93049505  0.82330244  0.98521330  1
  Si0+  Si118  1  0.67652998  0.42714170  0.34939124  1
  Si0+  Si119  1  0.32276158  0.56914125  0.34570568  1
  O2-  O120  1  0.25488536  -0.00685280  0.06575926  1
  O2-  O121  1  0.25280502  -0.00383795  0.39824889  1
  O2-  O122  1  0.25618149  -0.00496405  0.73245073  1
  O2-  O123  1  0.25535345  0.50029302  0.06312106  1
  O2-  O124  1  0.24947545  0.50025308  0.38835577  1
  O2-  O125  1  0.24807348  0.50096112  0.73046022  1
  O2-  O126  1  0.75084506  0.00026107  0.05708336  1
  O2-  O127  1  0.75706114  0.00295917  0.39125617  1
  O2-  O128  1  0.74446911  -0.00371263  0.72904507  1
  O2-  O129  1  0.75058329  0.50785410  0.05990907  1
  O2-  O130  1  0.74351148  0.49662528  0.39398509  1
  O2-  O131  1  0.75602192  0.50289480  0.72761311  1
  O2-  O132  1  -0.00114699  0.25223309  0.27485243  1
  O2-  O133  1  0.00541650  0.25189555  0.60291380  1
  O2-  O134  1  0.00712407  0.25074603  0.93817572  1
  O2-  O135  1  0.00922758  0.74920152  0.27227772  1
  O2-  O136  1  0.00895867  0.75078608  0.60537953  1
  O2-  O137  1  0.00534937  0.75597432  0.94466136  1
  O2-  O138  1  0.49712100  0.24650317  0.27927814  1
  O2-  O139  1  0.49645898  0.24394716  0.60787717  1
  O2-  O140  1  0.49840590  0.24786760  0.93403783  1
  O2-  O141  1  0.49571369  0.75391110  0.27444146  1
  O2-  O142  1  0.49437166  0.75313204  0.60333655  1
  O2-  O143  1  0.49541706  0.74496014  0.93567284  1
  O2-  O144  1  0.06556120  0.17824285  0.08902585  1
  O2-  O145  1  0.07291228  0.18449039  0.42154405  1
  O2-  O146  1  0.06817574  0.17958518  0.75411303  1
  O2-  O147  1  0.06652146  0.67379603  0.09066206  1
  O2-  O148  1  0.07103996  0.66763149  0.42049501  1
  O2-  O149  1  0.06953800  0.67565976  0.75525320  1
  O2-  O150  1  0.57330915  0.17836036  0.09903243  1
  O2-  O151  1  0.57516029  0.18131667  0.42551576  1
  O2-  O152  1  0.57613825  0.18073307  0.75424854  1
  O2-  O153  1  0.57518264  0.68234856  0.09779625  1
  O2-  O154  1  0.56869986  0.67606992  0.43158505  1
  O2-  O155  1  0.56862624  0.67841154  0.76363778  1
  O2-  O156  1  0.17752531  0.42862488  0.24239262  1
  O2-  O157  1  0.17921509  0.43068053  0.56589728  1
  O2-  O158  1  0.17420474  0.43520723  0.90150555  1
  O2-  O159  1  0.17843966  0.93146224  0.23640569  1
  O2-  O160  1  0.17779836  0.93443471  0.56827047  1
  O2-  O161  1  0.17243271  0.93132972  0.90456262  1
  O2-  O162  1  0.67833260  0.42472875  0.24419706  1
  O2-  O163  1  0.68103703  0.42961513  0.56597271  1
  O2-  O164  1  0.68216785  0.42784150  0.90217281  1
  O2-  O165  1  0.68084207  0.93103114  0.23231568  1
  O2-  O166  1  0.68120448  0.92530772  0.57875240  1
  O2-  O167  1  0.68741452  0.92517602  0.90784009  1
  O2-  O168  1  0.42853069  0.31801734  0.09851817  1
  O2-  O169  1  0.42712444  0.32156942  0.42487596  1
  O2-  O170  1  0.42969945  0.31965103  0.75599192  1
  O2-  O171  1  0.43201425  0.82015351  0.10101206  1
  O2-  O172  1  0.42931017  0.81946477  0.42631362  1
  O2-  O173  1  0.42995171  0.82264536  0.75416576  1
  O2-  O174  1  0.93147725  0.32013637  0.10083541  1
  O2-  O175  1  0.92835254  0.32220002  0.42256658  1
  O2-  O176  1  0.92673062  0.31955960  0.76350902  1
  O2-  O177  1  0.92715581  0.82217092  0.09019365  1
  O2-  O178  1  0.93133803  0.82051880  0.43157931  1
  O2-  O179  1  0.93140217  0.82050830  0.76664371  1
  O2-  O180  1  0.32281887  0.07398306  0.23639649  1
  O2-  O181  1  0.32086352  0.07251980  0.57093487  1
  O2-  O182  1  0.32142362  0.06758618  0.90305889  1
  O2-  O183  1  0.32322160  0.56680550  0.24102092  1
  O2-  O184  1  0.32309887  0.56628916  0.56687292  1
  O2-  O185  1  0.32020299  0.57121302  0.91320578  1
  O2-  O186  1  0.81919738  0.07870652  0.24223521  1
  O2-  O187  1  0.81631902  0.06991215  0.56613729  1
  O2-  O188  1  0.82211538  0.07120667  0.91059380  1
  O2-  O189  1  0.82135087  0.56695402  0.23420456  1
  O2-  O190  1  0.81868701  0.57415968  0.57740574  1
  O2-  O191  1  0.82356624  0.57687366  0.91086653  1
  O2-  O192  1  0.04424497  0.09141859  0.26690811  1
  O2-  O193  1  0.03922818  0.08938974  0.60115636  1
  O2-  O194  1  0.03877626  0.08642744  0.93616061  1
  O2-  O195  1  0.04009452  0.58385886  0.26674040  1
  O2-  O196  1  0.04485023  0.58736529  0.59964648  1
  O2-  O197  1  0.03570156  0.59105527  0.93431163  1
  O2-  O198  1  0.54614652  0.08439236  0.27556051  1
  O2-  O199  1  0.55181954  0.08266829  0.60457637  1
  O2-  O200  1  0.55176578  0.07880467  0.93029213  1
  O2-  O201  1  0.54046564  0.58149113  0.26410846  1
  O2-  O202  1  0.53774499  0.58063764  0.59649986  1
  O2-  O203  1  0.54797558  0.57774609  0.93481812  1
  O2-  O204  1  0.16202069  0.21267432  0.26789419  1
  O2-  O205  1  0.16579008  0.20427190  0.60304435  1
  O2-  O206  1  0.16638477  0.19740314  0.94108724  1
  O2-  O207  1  0.16894370  0.69392567  0.27098722  1
  O2-  O208  1  0.17034201  0.69781455  0.60655671  1
  O2-  O209  1  0.16407214  0.69788464  0.93942888  1
  O2-  O210  1  0.66151448  0.20704584  0.27020433  1
  O2-  O211  1  0.66129416  0.21124837  0.59944871  1
  O2-  O212  1  0.66988975  0.21033347  0.93263671  1
  O2-  O213  1  0.66750086  0.70943878  0.26552723  1
  O2-  O214  1  0.66493783  0.70972677  0.59680663  1
  O2-  O215  1  0.66987256  0.71010519  0.92974980  1
  O2-  O216  1  0.08262676  0.46565561  0.06939093  1
  O2-  O217  1  0.08632389  0.45723678  0.39453374  1
  O2-  O218  1  0.07666062  0.45936671  0.73052626  1
  O2-  O219  1  0.08019642  0.96209781  0.07139709  1
  O2-  O220  1  0.07912249  0.96373748  0.39919037  1
  O2-  O221  1  0.08187322  0.96351462  0.73439691  1
  O2-  O222  1  0.58068947  0.45460358  0.06902743  1
  O2-  O223  1  0.58122897  0.45025156  0.39316938  1
  O2-  O224  1  0.58474088  0.45888298  0.73309983  1
  O2-  O225  1  0.59045522  0.95291064  0.05920144  1
  O2-  O226  1  0.58737750  0.95889842  0.40536966  1
  O2-  O227  1  0.58434370  0.94669161  0.72852284  1
  O2-  O228  1  0.20361415  0.33197646  0.06829292  1
  O2-  O229  1  0.20520158  0.33860658  0.39606626  1
  O2-  O230  1  0.20114723  0.33122996  0.73250698  1
  O2-  O231  1  0.19455810  0.82426736  0.06779254  1
  O2-  O232  1  0.19518162  0.82531802  0.39918365  1
  O2-  O233  1  0.19697570  0.82844095  0.73170944  1
  O2-  O234  1  0.71449782  0.33448958  0.07068209  1
  O2-  O235  1  0.70389890  0.33384602  0.39602468  1
  O2-  O236  1  0.71176798  0.33318010  0.73314986  1
  O2-  O237  1  0.71466495  0.83715743  0.06142408  1
  O2-  O238  1  0.71298592  0.83289003  0.39995431  1
  O2-  O239  1  0.70920477  0.83241768  0.72998877  1
  O2-  O240  1  0.45524974  0.40910343  0.26861707  1
  O2-  O241  1  0.46024769  0.40810819  0.60222219  1
  O2-  O242  1  0.45334726  0.41850060  0.93264480  1
  O2-  O243  1  0.45483670  0.91725233  0.27836673  1
  O2-  O244  1  0.45390526  0.91668616  0.60296853  1
  O2-  O245  1  0.46059111  0.91527145  0.93054601  1
  O2-  O246  1  0.95680033  0.41477250  0.27118750  1
  O2-  O247  1  0.95416492  0.42082229  0.59649232  1
  O2-  O248  1  0.95818513  0.42019659  0.93414025  1
  O2-  O249  1  0.95602407  0.92071701  0.26444393  1
  O2-  O250  1  0.95883254  0.92065861  0.59963041  1
  O2-  O251  1  0.95520196  0.91700740  0.93988659  1
  O2-  O252  1  0.33390703  0.29429020  0.27331822  1
  O2-  O253  1  0.33514806  0.29278523  0.60462766  1
  O2-  O254  1  0.32610787  0.29342861  0.93334279  1
  O2-  O255  1  0.33295430  0.79785964  0.27629020  1
  O2-  O256  1  0.33175436  0.79896873  0.60536597  1
  O2-  O257  1  0.32586356  0.79753994  0.93761268  1
  O2-  O258  1  0.83574588  0.29505462  0.27071685  1
  O2-  O259  1  0.83280683  0.28648215  0.59515298  1
  O2-  O260  1  0.83589834  0.28795685  0.93416757  1
  O2-  O261  1  0.83660457  0.78694890  0.26374016  1
  O2-  O262  1  0.83601013  0.78971060  0.59804233  1
  O2-  O263  1  0.84153359  0.79265810  0.93441479  1
  O2-  O264  1  0.42554885  0.04220211  0.06558077  1
  O2-  O265  1  0.42053153  0.04964679  0.40432501  1
  O2-  O266  1  0.42601445  0.04969226  0.73301771  1
  O2-  O267  1  0.41663128  0.54622821  0.06388315  1
  O2-  O268  1  0.41337763  0.53696101  0.39357589  1
  O2-  O269  1  0.41865185  0.53734083  0.73463611  1
  O2-  O270  1  0.91173240  0.04508447  0.06486688  1
  O2-  O271  1  0.91725182  0.05501666  0.39115864  1
  O2-  O272  1  0.91396577  0.04084752  0.73563691  1
  O2-  O273  1  0.91343041  0.54625824  0.06440676  1
  O2-  O274  1  0.91517620  0.53888543  0.40362153  1
  O2-  O275  1  0.91629077  0.55359222  0.72633133  1
  O2-  O276  1  0.29366706  0.16598985  0.06957096  1
  O2-  O277  1  0.28754427  0.16931566  0.40231421  1
  O2-  O278  1  0.29305929  0.16868418  0.73698251  1
  O2-  O279  1  0.29410056  0.66317201  0.06590444  1
  O2-  O280  1  0.29849177  0.66088079  0.39450668  1
  O2-  O281  1  0.29946038  0.66922002  0.73532089  1
  O2-  O282  1  0.79251745  0.16301722  0.06429181  1
  O2-  O283  1  0.79220094  0.16751792  0.39568880  1
  O2-  O284  1  0.78703184  0.16579415  0.73380262  1
  O2-  O285  1  0.79691328  0.66883516  0.06255507  1
  O2-  O286  1  0.79062895  0.66637970  0.40120576  1
  O2-  O287  1  0.79314636  0.66719843  0.72923511  1
