# generated using pymatgen
data_Ca2Al2SiO7
_symmetry_space_group_name_H-M   'P 1'
_cell_length_a   15.46108054
_cell_length_b   15.45958150
_cell_length_c   15.28549266
_cell_angle_alpha   90.00991017
_cell_angle_beta   90.00540822
_cell_angle_gamma   89.99879372
_symmetry_Int_Tables_number   1
_chemical_formula_structural   Ca2Al2SiO7
_chemical_formula_sum   'Ca48 Al48 Si24 O168'
_cell_volume   3653.56642572
_cell_formula_units_Z   24
loop_
 _symmetry_equiv_pos_site_id
 _symmetry_equiv_pos_as_xyz
  1  'x, y, z'
loop_
 _atom_type_symbol
 _atom_type_oxidation_number
  Ca2+  2.0
  Al0+  0.0
  Si0+  0.0
  O2-  -2.0
loop_
 _atom_site_type_symbol
 _atom_site_label
 _atom_site_symmetry_multiplicity
 _atom_site_fract_x
 _atom_site_fract_y
 _atom_site_fract_z
 _atom_site_occupancy
  Ca2+  Ca0  1  0.17015347  0.08459125  0.16186930  1
  Ca2+  Ca1  1  0.16948897  0.07790299  0.50930742  1
  Ca2+  Ca2  1  0.16645178  0.08057504  0.83922718  1
  Ca2+  Ca3  1  0.18137787  0.57791187  0.17596223  1
  Ca2+  Ca4  1  0.17499660  0.57230797  0.50395995  1
  Ca2+  Ca5  1  0.17585492  0.57495612  0.83877253  1
  Ca2+  Ca6  1  0.66148125  0.07220354  0.17410371  1
  Ca2+  Ca7  1  0.65619996  0.07542933  0.50426327  1
  Ca2+  Ca8  1  0.65805100  0.07281774  0.83631011  1
  Ca2+  Ca9  1  0.66531146  0.58534175  0.17129183  1
  Ca2+  Ca10  1  0.66800821  0.58672409  0.50998882  1
  Ca2+  Ca11  1  0.66478068  0.58118055  0.82791095  1
  Ca2+  Ca12  1  0.08778182  0.33032274  0.16250432  1
  Ca2+  Ca13  1  0.09186717  0.33239188  0.49882720  1
  Ca2+  Ca14  1  0.09099097  0.32132079  0.82585036  1
  Ca2+  Ca15  1  0.07197433  0.84109747  0.15873128  1
  Ca2+  Ca16  1  0.07723964  0.83375174  0.49434747  1
  Ca2+  Ca17  1  0.07925415  0.84286793  0.83010592  1
  Ca2+  Ca18  1  0.57163547  0.32921057  0.16306732  1
  Ca2+  Ca19  1  0.57655122  0.33075947  0.49412748  1
  Ca2+  Ca20  1  0.57159981  0.32861620  0.82076179  1
  Ca2+  Ca21  1  0.58226016  0.83293287  0.16949545  1
  Ca2+  Ca22  1  0.58489094  0.82649106  0.49229637  1
  Ca2+  Ca23  1  0.58582001  0.83156446  0.82619599  1
  Ca2+  Ca24  1  0.33759374  0.42295212  0.17258051  1
  Ca2+  Ca25  1  0.33340029  0.41348063  0.50075197  1
  Ca2+  Ca26  1  0.33708872  0.41561370  0.83682712  1
  Ca2+  Ca27  1  0.33421594  0.92225717  0.17156447  1
  Ca2+  Ca28  1  0.33306858  0.91657460  0.50588904  1
  Ca2+  Ca29  1  0.32143292  0.92610486  0.84322451  1
  Ca2+  Ca30  1  0.83105671  0.41864935  0.17312983  1
  Ca2+  Ca31  1  0.82315308  0.42619302  0.51274030  1
  Ca2+  Ca32  1  0.82737726  0.41948397  0.83055935  1
  Ca2+  Ca33  1  0.82549120  0.90945629  0.16996468  1
  Ca2+  Ca34  1  0.82212762  0.91319148  0.50234888  1
  Ca2+  Ca35  1  0.82214098  0.91477088  0.83816657  1
  Ca2+  Ca36  1  0.41275729  0.17674670  0.16273207  1
  Ca2+  Ca37  1  0.42720627  0.17654332  0.49786380  1
  Ca2+  Ca38  1  0.41385859  0.17534637  0.82728876  1
  Ca2+  Ca39  1  0.41609958  0.66549861  0.16729656  1
  Ca2+  Ca40  1  0.42770183  0.66967469  0.49118457  1
  Ca2+  Ca41  1  0.42026408  0.66751619  0.82865073  1
  Ca2+  Ca42  1  0.92472287  0.16684452  0.15995747  1
  Ca2+  Ca43  1  0.92479337  0.16360459  0.49978545  1
  Ca2+  Ca44  1  0.92967605  0.16220653  0.82961839  1
  Ca2+  Ca45  1  0.91891966  0.67875389  0.16311044  1
  Ca2+  Ca46  1  0.91544732  0.66985343  0.49493040  1
  Ca2+  Ca47  1  0.91463094  0.67167782  0.82967272  1
  Al0+  Al48  1  -0.00294689  0.00087811  -0.00554344  1
  Al0+  Al49  1  -0.00115169  0.00114621  0.32934546  1
  Al0+  Al50  1  -0.00155980  0.00017909  0.66390915  1
  Al0+  Al51  1  -0.00176611  0.50155069  -0.00012046  1
  Al0+  Al52  1  0.00085063  0.49921905  0.33580528  1
  Al0+  Al53  1  0.00181436  0.50143860  0.67575844  1
  Al0+  Al54  1  0.49863975  -0.00148568  0.00884745  1
  Al0+  Al55  1  0.50011378  -0.00201500  0.33304456  1
  Al0+  Al56  1  0.49737995  0.00162268  0.66935114  1
  Al0+  Al57  1  0.50075429  0.49950853  -0.00079759  1
  Al0+  Al58  1  0.50122824  0.49964186  0.32959978  1
  Al0+  Al59  1  0.50069899  0.50228038  0.66234316  1
  Al0+  Al60  1  0.24931875  0.24968984  -0.00458833  1
  Al0+  Al61  1  0.25068265  0.24784109  0.33352044  1
  Al0+  Al62  1  0.24996889  0.24964096  0.66018287  1
  Al0+  Al63  1  0.24896509  0.74825038  0.00699590  1
  Al0+  Al64  1  0.25056073  0.74850517  0.33532221  1
  Al0+  Al65  1  0.24663168  0.74957423  0.67067966  1
  Al0+  Al66  1  0.74902588  0.24969268  -0.00009433  1
  Al0+  Al67  1  0.75351970  0.24827497  0.33008666  1
  Al0+  Al68  1  0.75221796  0.24908235  0.66844451  1
  Al0+  Al69  1  0.75090533  0.74906656  -0.00066274  1
  Al0+  Al70  1  0.75096628  0.75093531  0.32912781  1
  Al0+  Al71  1  0.75041632  0.75199336  0.67115416  1
  Al0+  Al72  1  0.67670756  0.42723446  0.68049447  1
  Al0+  Al73  1  0.17697254  0.92814716  0.67875254  1
  Al0+  Al74  1  0.82156815  0.57296570  0.68251642  1
  Al0+  Al75  1  0.93130394  0.82044576  0.31997172  1
  Al0+  Al76  1  0.31991337  0.07249931  0.01601487  1
  Al0+  Al77  1  0.57199103  0.67901459  0.31748699  1
  Al0+  Al78  1  0.32458491  0.57179622  0.35131241  1
  Al0+  Al79  1  0.42896043  0.31912809  0.31634908  1
  Al0+  Al80  1  0.06852065  0.18232616  0.98584577  1
  Al0+  Al81  1  0.67922280  0.92754519  0.01590115  1
  Al0+  Al82  1  0.68029734  0.93000419  0.34828242  1
  Al0+  Al83  1  0.92956067  0.81930380  0.98320659  1
  Al0+  Al84  1  0.42969385  0.32227880  0.64985883  1
  Al0+  Al85  1  0.18155900  0.42777399  0.68182700  1
  Al0+  Al86  1  0.17962297  0.42750661  0.34838852  1
  Al0+  Al87  1  0.57090211  0.68323899  0.65488406  1
  Al0+  Al88  1  0.67804546  0.93190003  0.67958728  1
  Al0+  Al89  1  0.06925727  0.17941775  0.65068672  1
  Al0+  Al90  1  0.32296325  0.56998932  0.01381520  1
  Al0+  Al91  1  0.43107054  0.32065168  0.98505909  1
  Al0+  Al92  1  0.57407913  0.17637692  0.65358399  1
  Al0+  Al93  1  0.57415744  0.17760926  0.31737966  1
  Al0+  Al94  1  0.17582447  0.92958214  0.01588564  1
  Al0+  Al95  1  0.42611904  0.82095825  0.31866224  1
  Si0+  Si96  1  0.57041807  0.68007980  0.98380844  1
  Si0+  Si97  1  0.07200192  0.67707983  0.65205273  1
  Si0+  Si98  1  0.32071628  0.06974838  0.35006033  1
  Si0+  Si99  1  0.17747095  0.42824411  0.01476588  1
  Si0+  Si100  1  0.82438835  0.07330401  0.35061285  1
  Si0+  Si101  1  0.68107127  0.42664934  0.34561881  1
  Si0+  Si102  1  0.31980520  0.07119664  0.68214434  1
  Si0+  Si103  1  0.82409217  0.07202862  0.68327361  1
  Si0+  Si104  1  0.07098709  0.17868816  0.31753518  1
  Si0+  Si105  1  0.82027592  0.57053276  0.34635801  1
  Si0+  Si106  1  0.07181263  0.67581456  0.31768857  1
  Si0+  Si107  1  0.32242246  0.57261383  0.68330755  1
  Si0+  Si108  1  0.82100604  0.57045056  0.01721554  1
  Si0+  Si109  1  0.92425405  0.32561946  0.98223547  1
  Si0+  Si110  1  0.67958379  0.42890749  0.01544793  1
  Si0+  Si111  1  0.92896972  0.32511921  0.65066563  1
  Si0+  Si112  1  0.93015897  0.32258752  0.31961943  1
  Si0+  Si113  1  0.07330681  0.67685230  0.98259275  1
  Si0+  Si114  1  0.57232346  0.17551272  0.98427512  1
  Si0+  Si115  1  0.42681161  0.82191412  0.98583918  1
  Si0+  Si116  1  0.42446284  0.82209194  0.65447607  1
  Si0+  Si117  1  0.92988443  0.81965074  0.65092796  1
  Si0+  Si118  1  0.17604271  0.92983755  0.34702402  1
  Si0+  Si119  1  0.82058605  0.07288691  0.01620097  1
  O2-  O120  1  0.25031737  -0.00204584  0.06728769  1
  O2-  O121  1  0.25107752  -0.00440757  0.39068269  1
  O2-  O122  1  0.25206664  0.00124354  0.72563744  1
  O2-  O123  1  0.24553042  0.49685404  0.05890251  1
  O2-  O124  1  0.25300449  0.49777369  0.39889269  1
  O2-  O125  1  0.25818916  0.50011920  0.72833160  1
  O2-  O126  1  0.75062848  0.00645232  0.06135811  1
  O2-  O127  1  0.75238549  0.00810750  0.39415760  1
  O2-  O128  1  0.74835239  0.01078762  0.72666973  1
  O2-  O129  1  0.75375141  0.49618288  0.05945562  1
  O2-  O130  1  0.74882368  0.50063303  0.38812297  1
  O2-  O131  1  0.74951047  0.49944826  0.73083433  1
  O2-  O132  1  0.00215092  0.25284592  0.27714096  1
  O2-  O133  1  -0.00350081  0.25639853  0.60388709  1
  O2-  O134  1  -0.00531431  0.25858817  0.93927244  1
  O2-  O135  1  0.00868755  0.74901834  0.27225661  1
  O2-  O136  1  0.00071385  0.74806935  0.60936349  1
  O2-  O137  1  0.00821457  0.74845025  0.93665100  1
  O2-  O138  1  0.50163342  0.24784598  0.26582883  1
  O2-  O139  1  0.50816451  0.25425175  0.60399271  1
  O2-  O140  1  0.50361676  0.24331668  0.93965235  1
  O2-  O141  1  0.49692279  0.74789354  0.26752692  1
  O2-  O142  1  0.49539291  0.75689046  0.60919558  1
  O2-  O143  1  0.49904978  0.75186053  0.94315292  1
  O2-  O144  1  0.06676264  0.18445674  0.09958150  1
  O2-  O145  1  0.06866169  0.17519846  0.42246428  1
  O2-  O146  1  0.06751675  0.17843147  0.76356467  1
  O2-  O147  1  0.06833549  0.67338998  0.08807047  1
  O2-  O148  1  0.06740035  0.67494624  0.42351370  1
  O2-  O149  1  0.07317383  0.67801640  0.75686432  1
  O2-  O150  1  0.57476104  0.17934583  0.08962804  1
  O2-  O151  1  0.57364632  0.18090125  0.43079264  1
  O2-  O152  1  0.56784996  0.17409351  0.76735247  1
  O2-  O153  1  0.57167431  0.67893298  0.08863593  1
  O2-  O154  1  0.57600219  0.68223071  0.43096295  1
  O2-  O155  1  0.56972550  0.68450645  0.76861676  1
  O2-  O156  1  0.17565706  0.42983185  0.23459964  1
  O2-  O157  1  0.18027185  0.43070871  0.56912687  1
  O2-  O158  1  0.17767077  0.42962076  0.90924064  1
  O2-  O159  1  0.17276189  0.93467052  0.24238924  1
  O2-  O160  1  0.17733448  0.92902925  0.56499099  1
  O2-  O161  1  0.17744615  0.93237963  0.90215418  1
  O2-  O162  1  0.68608512  0.42660442  0.23994300  1
  O2-  O163  1  0.67984280  0.42968690  0.56651146  1
  O2-  O164  1  0.67997862  0.43063983  0.91072817  1
  O2-  O165  1  0.68470316  0.92873873  0.23519762  1
  O2-  O166  1  0.68153513  0.92893194  0.56680791  1
  O2-  O167  1  0.68019811  0.92708684  0.90249362  1
  O2-  O168  1  0.43301623  0.32224026  0.09783391  1
  O2-  O169  1  0.42943490  0.31744558  0.42952120  1
  O2-  O170  1  0.42825545  0.31950333  0.76386030  1
  O2-  O171  1  0.42753115  0.82132858  0.09056372  1
  O2-  O172  1  0.42712254  0.82194074  0.43271074  1
  O2-  O173  1  0.42375722  0.82006983  0.76036751  1
  O2-  O174  1  0.92355659  0.32593049  0.08831048  1
  O2-  O175  1  0.92808356  0.32322376  0.42411530  1
  O2-  O176  1  0.93038953  0.32357913  0.75632064  1
  O2-  O177  1  0.92883810  0.81609491  0.09647693  1
  O2-  O178  1  0.93181549  0.81868280  0.43340583  1
  O2-  O179  1  0.93027434  0.81969522  0.75597666  1
  O2-  O180  1  0.31731384  0.07215162  0.24514204  1
  O2-  O181  1  0.31939490  0.06877648  0.57619956  1
  O2-  O182  1  0.31898888  0.07169680  0.90231717  1
  O2-  O183  1  0.32156613  0.57000453  0.23739607  1
  O2-  O184  1  0.31877839  0.57666067  0.57833287  1
  O2-  O185  1  0.32360550  0.56926349  0.90050261  1
  O2-  O186  1  0.82865742  0.07324753  0.24522154  1
  O2-  O187  1  0.83055817  0.06674374  0.57796745  1
  O2-  O188  1  0.82020159  0.07282119  0.91074880  1
  O2-  O189  1  0.82194667  0.56785023  0.24083347  1
  O2-  O190  1  0.82146140  0.57368582  0.56829735  1
  O2-  O191  1  0.82055235  0.57141466  0.91254568  1
  O2-  O192  1  0.03913041  0.08963377  0.26729579  1
  O2-  O193  1  0.03496921  0.08383548  0.59526100  1
  O2-  O194  1  0.03560789  0.08706941  0.93055505  1
  O2-  O195  1  0.04054401  0.58451237  0.26969129  1
  O2-  O196  1  0.04314283  0.58535583  0.60524892  1
  O2-  O197  1  0.04311001  0.58441813  0.93511522  1
  O2-  O198  1  0.54618564  0.07831181  0.26794005  1
  O2-  O199  1  0.53806144  0.08018686  0.59907975  1
  O2-  O200  1  0.54714817  0.07988689  0.94261221  1
  O2-  O201  1  0.54909514  0.57953879  0.26413298  1
  O2-  O202  1  0.54454352  0.58668533  0.59983366  1
  O2-  O203  1  0.54202728  0.58846947  0.93652602  1
  O2-  O204  1  0.16276978  0.20445414  0.27036298  1
  O2-  O205  1  0.16529365  0.20741472  0.59522228  1
  O2-  O206  1  0.16418129  0.21114734  0.92975010  1
  O2-  O207  1  0.16731892  0.69589195  0.27503627  1
  O2-  O208  1  0.16284688  0.70609954  0.60302817  1
  O2-  O209  1  0.16909115  0.69749849  0.93926925  1
  O2-  O210  1  0.67396160  0.20374049  0.26451860  1
  O2-  O211  1  0.67704460  0.19328248  0.60541618  1
  O2-  O212  1  0.66668628  0.20021898  0.93859959  1
  O2-  O213  1  0.66910376  0.70982117  0.26216804  1
  O2-  O214  1  0.66824396  0.71436860  0.60230475  1
  O2-  O215  1  0.66237000  0.70783846  0.93706867  1
  O2-  O216  1  0.08200826  0.45182224  0.05944143  1
  O2-  O217  1  0.08073055  0.45650222  0.40207204  1
  O2-  O218  1  0.08648800  0.45895650  0.73812565  1
  O2-  O219  1  0.07701190  0.96245104  0.06588347  1
  O2-  O220  1  0.08574737  0.96276662  0.39541600  1
  O2-  O221  1  0.08068579  0.96139732  0.73116726  1
  O2-  O222  1  0.59030325  0.46170063  0.06385090  1
  O2-  O223  1  0.58794497  0.45042540  0.38986033  1
  O2-  O224  1  0.57931915  0.45935283  0.73370712  1
  O2-  O225  1  0.58219754  0.95314743  0.07077769  1
  O2-  O226  1  0.58190447  0.95563448  0.40118034  1
  O2-  O227  1  0.57993024  0.95750671  0.73438445  1
  O2-  O228  1  0.20221965  0.33447259  0.05934730  1
  O2-  O229  1  0.20529045  0.32738993  0.39953570  1
  O2-  O230  1  0.21020618  0.32909317  0.73230934  1
  O2-  O231  1  0.19665684  0.82879797  0.06648353  1
  O2-  O232  1  0.19591975  0.83507176  0.39161179  1
  O2-  O233  1  0.20246870  0.83126348  0.73482927  1
  O2-  O234  1  0.70445862  0.33593745  0.06274091  1
  O2-  O235  1  0.71291403  0.33617800  0.39287282  1
  O2-  O236  1  0.70542310  0.32892943  0.73483217  1
  O2-  O237  1  0.71559670  0.83182355  0.06815158  1
  O2-  O238  1  0.71731052  0.83382143  0.40010892  1
  O2-  O239  1  0.71410409  0.83831642  0.73598973  1
  O2-  O240  1  0.45781259  0.41752197  0.26425913  1
  O2-  O241  1  0.45293262  0.42214415  0.59854355  1
  O2-  O242  1  0.46550253  0.41621394  0.93082515  1
  O2-  O243  1  0.45567860  0.91849835  0.26519211  1
  O2-  O244  1  0.44623498  0.91707906  0.61057715  1
  O2-  O245  1  0.45411174  0.91472834  0.93996825  1
  O2-  O246  1  0.95660143  0.41431174  0.26997731  1
  O2-  O247  1  0.95503003  0.41988750  0.60734081  1
  O2-  O248  1  0.94662005  0.42059581  0.93768562  1
  O2-  O249  1  0.95942260  0.91748845  0.26488186  1
  O2-  O250  1  0.95815765  0.91032639  0.60218397  1
  O2-  O251  1  0.95458541  0.91703556  0.92930938  1
  O2-  O252  1  0.33025537  0.28836223  0.26423217  1
  O2-  O253  1  0.33405634  0.28844176  0.59524972  1
  O2-  O254  1  0.33349443  0.29269478  0.93221603  1
  O2-  O255  1  0.32603612  0.79642967  0.26614510  1
  O2-  O256  1  0.33100063  0.79544731  0.60801602  1
  O2-  O257  1  0.33428014  0.79315892  0.93996011  1
  O2-  O258  1  0.84048156  0.29413180  0.26785070  1
  O2-  O259  1  0.83471837  0.30149155  0.60505968  1
  O2-  O260  1  0.83089320  0.29865882  0.93613358  1
  O2-  O261  1  0.83785845  0.78538404  0.26359433  1
  O2-  O262  1  0.83842794  0.79043314  0.60431758  1
  O2-  O263  1  0.83436928  0.78273164  0.92940589  1
  O2-  O264  1  0.41771407  0.04667174  0.07113234  1
  O2-  O265  1  0.41251870  0.04283788  0.39714328  1
  O2-  O266  1  0.41224832  0.04806403  0.73113863  1
  O2-  O267  1  0.41903531  0.53739262  0.06781069  1
  O2-  O268  1  0.42483863  0.54482884  0.40074284  1
  O2-  O269  1  0.41762043  0.55163990  0.72714701  1
  O2-  O270  1  0.91357428  0.04536971  0.06204504  1
  O2-  O271  1  0.91668224  0.04295749  0.39809715  1
  O2-  O272  1  0.91350186  0.03699412  0.73263803  1
  O2-  O273  1  0.91375790  0.54613001  0.06544708  1
  O2-  O274  1  0.91150533  0.54266736  0.39474986  1
  O2-  O275  1  0.91890515  0.54633561  0.73862529  1
  O2-  O276  1  0.28587550  0.17001351  0.06848042  1
  O2-  O277  1  0.28894514  0.15941316  0.39865182  1
  O2-  O278  1  0.29081297  0.16403043  0.72635676  1
  O2-  O279  1  0.29425671  0.66584384  0.07006693  1
  O2-  O280  1  0.29520971  0.67037993  0.40433103  1
  O2-  O281  1  0.29163030  0.66389654  0.73234633  1
  O2-  O282  1  0.80008844  0.16838478  0.06246260  1
  O2-  O283  1  0.80468518  0.16873493  0.39589219  1
  O2-  O284  1  0.81085217  0.16853065  0.72738929  1
  O2-  O285  1  0.78890132  0.66037823  0.06527263  1
  O2-  O286  1  0.79338649  0.66254369  0.39276444  1
  O2-  O287  1  0.79087703  0.66943549  0.73784621  1
