# generated using pymatgen
data_Ca2Al2SiO7
_symmetry_space_group_name_H-M   'P 1'
_cell_length_a   15.46394309
_cell_length_b   15.46492933
_cell_length_c   15.28856648
_cell_angle_alpha   89.98928461
_cell_angle_beta   90.00466339
_cell_angle_gamma   90.02661737
_symmetry_Int_Tables_number   1
_chemical_formula_structural   Ca2Al2SiO7
_chemical_formula_sum   'Ca48 Al48 Si24 O168'
_cell_volume   3656.24166003
_cell_formula_units_Z   24
loop_
 _symmetry_equiv_pos_site_id
 _symmetry_equiv_pos_as_xyz
  1  'x, y, z'
loop_
 _atom_type_symbol
 _atom_type_oxidation_number
  Ca2+  2.0
  Al0+  0.0
  Si0+  0.0
  O2-  -2.0
loop_
 _atom_site_type_symbol
 _atom_site_label
 _atom_site_symmetry_multiplicity
 _atom_site_fract_x
 _atom_site_fract_y
 _atom_site_fract_z
 _atom_site_occupancy
  Ca2+  Ca0  1  0.17352983  0.06946516  0.17554078  1
  Ca2+  Ca1  1  0.17511969  0.08702938  0.50198404  1
  Ca2+  Ca2  1  0.17841751  0.07656511  0.84138137  1
  Ca2+  Ca3  1  0.15942767  0.58234323  0.17473897  1
  Ca2+  Ca4  1  0.16289569  0.57380510  0.50407316  1
  Ca2+  Ca5  1  0.16392144  0.58118554  0.83328242  1
  Ca2+  Ca6  1  0.67311922  0.07635365  0.18026703  1
  Ca2+  Ca7  1  0.66945674  0.07812407  0.50475876  1
  Ca2+  Ca8  1  0.66763947  0.07919332  0.82938289  1
  Ca2+  Ca9  1  0.67161056  0.58261539  0.17677896  1
  Ca2+  Ca10  1  0.67786797  0.57999881  0.50296530  1
  Ca2+  Ca11  1  0.67212907  0.59259560  0.83553239  1
  Ca2+  Ca12  1  0.08906714  0.32666278  0.17090632  1
  Ca2+  Ca13  1  0.08678273  0.33102186  0.49170140  1
  Ca2+  Ca14  1  0.08466360  0.33238147  0.82759063  1
  Ca2+  Ca15  1  0.08474673  0.82687842  0.15889498  1
  Ca2+  Ca16  1  0.07696974  0.82987902  0.49082217  1
  Ca2+  Ca17  1  0.07459621  0.83825392  0.83087512  1
  Ca2+  Ca18  1  0.58762042  0.32802002  0.16778522  1
  Ca2+  Ca19  1  0.58523474  0.32179239  0.49195932  1
  Ca2+  Ca20  1  0.57880313  0.32367083  0.82366768  1
  Ca2+  Ca21  1  0.57963159  0.83205772  0.16085263  1
  Ca2+  Ca22  1  0.58524507  0.84092907  0.49755252  1
  Ca2+  Ca23  1  0.57958813  0.83484270  0.83181279  1
  Ca2+  Ca24  1  0.32732482  0.42219788  0.17354915  1
  Ca2+  Ca25  1  0.32162774  0.42104422  0.50513793  1
  Ca2+  Ca26  1  0.33066194  0.42198915  0.83039480  1
  Ca2+  Ca27  1  0.32803852  0.91903325  0.16949700  1
  Ca2+  Ca28  1  0.32608626  0.92547228  0.49954056  1
  Ca2+  Ca29  1  0.33350786  0.92531111  0.84230889  1
  Ca2+  Ca30  1  0.82712984  0.42631903  0.17783895  1
  Ca2+  Ca31  1  0.83418051  0.42741321  0.49970469  1
  Ca2+  Ca32  1  0.83376040  0.42526224  0.83374156  1
  Ca2+  Ca33  1  0.82786336  0.91511791  0.17417514  1
  Ca2+  Ca34  1  0.82553446  0.92475256  0.50633364  1
  Ca2+  Ca35  1  0.83404375  0.91267614  0.83174395  1
  Ca2+  Ca36  1  0.41782775  0.15842649  0.16845966  1
  Ca2+  Ca37  1  0.42488487  0.15580548  0.49501431  1
  Ca2+  Ca38  1  0.41892746  0.15968713  0.82457613  1
  Ca2+  Ca39  1  0.42474313  0.67583356  0.15560205  1
  Ca2+  Ca40  1  0.41513758  0.66650062  0.49606788  1
  Ca2+  Ca41  1  0.41818067  0.67106095  0.82986774  1
  Ca2+  Ca42  1  0.92422892  0.15801427  0.16974746  1
  Ca2+  Ca43  1  0.91901791  0.16340899  0.49118631  1
  Ca2+  Ca44  1  0.91744165  0.16704544  0.82465379  1
  Ca2+  Ca45  1  0.92430258  0.67156083  0.16221542  1
  Ca2+  Ca46  1  0.91539805  0.66821711  0.49570237  1
  Ca2+  Ca47  1  0.91949364  0.67838963  0.82878263  1
  Al0+  Al48  1  0.00214635  0.00143371  -0.00145805  1
  Al0+  Al49  1  -0.00066926  -0.00109776  0.33345160  1
  Al0+  Al50  1  -0.00156985  0.00067176  0.66355808  1
  Al0+  Al51  1  -0.00146762  0.49926883  -0.00206938  1
  Al0+  Al52  1  0.00005109  0.50052722  0.33604150  1
  Al0+  Al53  1  -0.00192830  0.49923651  0.67509557  1
  Al0+  Al54  1  0.50349630  0.00074778  0.00022883  1
  Al0+  Al55  1  0.49943709  0.00009549  0.33337317  1
  Al0+  Al56  1  0.50036377  -0.00141118  0.66918303  1
  Al0+  Al57  1  0.50053362  0.49605556  -0.00418117  1
  Al0+  Al58  1  0.50001742  0.49885261  0.33554797  1
  Al0+  Al59  1  0.49805702  0.49929106  0.66746238  1
  Al0+  Al60  1  0.25188782  0.25186392  0.00324440  1
  Al0+  Al61  1  0.25098691  0.25174019  0.33443549  1
  Al0+  Al62  1  0.25003255  0.25069693  0.67443952  1
  Al0+  Al63  1  0.25155923  0.74843865  -0.00583426  1
  Al0+  Al64  1  0.25000526  0.75129142  0.33187604  1
  Al0+  Al65  1  0.24953120  0.74859284  0.66785688  1
  Al0+  Al66  1  0.75023522  0.25089779  -0.00066148  1
  Al0+  Al67  1  0.74952915  0.25131926  0.33289043  1
  Al0+  Al68  1  0.75007561  0.24982954  0.66483985  1
  Al0+  Al69  1  0.75247732  0.75023570  -0.00421613  1
  Al0+  Al70  1  0.74917277  0.75009882  0.34007735  1
  Al0+  Al71  1  0.74907966  0.75038443  0.66946052  1
  Al0+  Al72  1  0.82219312  0.07249966  0.68234160  1
  Al0+  Al73  1  0.31939954  0.07082087  0.34837112  1
  Al0+  Al74  1  0.43065497  0.82240158  0.98404787  1
  Al0+  Al75  1  0.56928799  0.17877039  0.65166025  1
  Al0+  Al76  1  0.67787096  0.92888635  0.34719948  1
  Al0+  Al77  1  0.67620293  0.42819866  0.34839921  1
  Al0+  Al78  1  0.93072423  0.82339113  0.98513671  1
  Al0+  Al79  1  0.07268573  0.17790593  0.32003386  1
  Al0+  Al80  1  0.17843521  0.92716995  0.01421748  1
  Al0+  Al81  1  0.32387153  0.07203255  0.01700872  1
  Al0+  Al82  1  0.82260644  0.07171053  0.34614315  1
  Al0+  Al83  1  0.17984075  0.43057579  0.34501982  1
  Al0+  Al84  1  0.82135748  0.57135118  0.34743640  1
  Al0+  Al85  1  0.32221973  0.57303721  0.68252236  1
  Al0+  Al86  1  0.07225078  0.67590974  0.98350594  1
  Al0+  Al87  1  0.92827441  0.82141485  0.64931004  1
  Al0+  Al88  1  0.57168925  0.67673514  0.98550606  1
  Al0+  Al89  1  0.07033145  0.67917456  0.32172530  1
  Al0+  Al90  1  0.31982130  0.06842776  0.68008600  1
  Al0+  Al91  1  0.67917392  0.92938761  0.68480261  1
  Al0+  Al92  1  0.17845638  0.42939759  0.68347566  1
  Al0+  Al93  1  0.57101092  0.17895685  0.31842973  1
  Al0+  Al94  1  0.17752159  0.92549567  0.34814506  1
  Al0+  Al95  1  0.81901519  0.57093925  0.68341981  1
  Si0+  Si96  1  0.67752459  0.42765708  0.68360640  1
  Si0+  Si97  1  0.57226110  0.18065801  0.98475421  1
  Si0+  Si98  1  0.92897906  0.32233990  0.65157422  1
  Si0+  Si99  1  0.07160769  0.18075152  0.65324749  1
  Si0+  Si100  1  0.17618619  0.92725067  0.68180864  1
  Si0+  Si101  1  0.42624147  0.32215432  0.64861577  1
  Si0+  Si102  1  0.42768985  0.32084582  0.98318220  1
  Si0+  Si103  1  0.67882467  0.42703720  0.01422376  1
  Si0+  Si104  1  0.42918641  0.82076586  0.31894565  1
  Si0+  Si105  1  0.57005190  0.67778686  0.64992579  1
  Si0+  Si106  1  0.32295637  0.57368112  0.34652911  1
  Si0+  Si107  1  0.68231832  0.92916737  0.01491140  1
  Si0+  Si108  1  0.07236375  0.18140296  0.98519387  1
  Si0+  Si109  1  0.92883637  0.32263843  0.31661892  1
  Si0+  Si110  1  0.92800686  0.31978765  0.98496238  1
  Si0+  Si111  1  0.42845995  0.32364726  0.31547071  1
  Si0+  Si112  1  0.32354137  0.56940319  0.01424611  1
  Si0+  Si113  1  0.82126571  0.07476767  0.01450675  1
  Si0+  Si114  1  0.81946912  0.57055434  0.01520487  1
  Si0+  Si115  1  0.42804316  0.82063069  0.65004440  1
  Si0+  Si116  1  0.17765244  0.43071841  0.01706790  1
  Si0+  Si117  1  0.07039761  0.67701111  0.64964184  1
  Si0+  Si118  1  0.92614755  0.82124252  0.31776967  1
  Si0+  Si119  1  0.57090289  0.67784653  0.32137384  1
  O2-  O120  1  0.25243112  -0.00205340  0.06367812  1
  O2-  O121  1  0.24354982  0.00291916  0.39822681  1
  O2-  O122  1  0.24600866  -0.00608451  0.72726803  1
  O2-  O123  1  0.24651060  0.50494635  0.05761659  1
  O2-  O124  1  0.25231309  0.50731317  0.39032524  1
  O2-  O125  1  0.24889382  0.50283078  0.73351867  1
  O2-  O126  1  0.75488458  -0.00077905  0.05572145  1
  O2-  O127  1  0.74927374  0.00169053  0.39585281  1
  O2-  O128  1  0.75308513  -0.00036599  0.73515571  1
  O2-  O129  1  0.74463302  0.50281297  0.05618533  1
  O2-  O130  1  0.74868550  0.49958852  0.39705708  1
  O2-  O131  1  0.74202045  0.49830768  0.73118252  1
  O2-  O132  1  -0.00519758  0.25064247  0.27249763  1
  O2-  O133  1  -0.00078729  0.25037199  0.61071518  1
  O2-  O134  1  -0.00044743  0.25005026  0.94177684  1
  O2-  O135  1  -0.00236713  0.75517313  0.27395163  1
  O2-  O136  1  0.00448388  0.74722576  0.60418658  1
  O2-  O137  1  0.00510158  0.75321225  0.93509428  1
  O2-  O138  1  0.49704697  0.25471347  0.27078575  1
  O2-  O139  1  0.49447824  0.25360107  0.60459988  1
  O2-  O140  1  0.49570553  0.24598212  0.94285210  1
  O2-  O141  1  0.50050196  0.74856772  0.27845650  1
  O2-  O142  1  0.49725087  0.74716504  0.60769096  1
  O2-  O143  1  0.50019756  0.74788950  0.93338298  1
  O2-  O144  1  0.07146510  0.18304194  0.09018166  1
  O2-  O145  1  0.07406116  0.18270683  0.43317682  1
  O2-  O146  1  0.07087758  0.18290377  0.75886972  1
  O2-  O147  1  0.06647086  0.67124550  0.09716404  1
  O2-  O148  1  0.06950897  0.67795015  0.43465355  1
  O2-  O149  1  0.06878599  0.67739512  0.75515195  1
  O2-  O150  1  0.57604047  0.18368080  0.08953932  1
  O2-  O151  1  0.56860635  0.17858400  0.43115862  1
  O2-  O152  1  0.56790338  0.18140281  0.76574080  1
  O2-  O153  1  0.57117752  0.67648436  0.09978337  1
  O2-  O154  1  0.56862047  0.67640758  0.42635844  1
  O2-  O155  1  0.56894046  0.67772047  0.75502390  1
  O2-  O156  1  0.18154404  0.43154330  0.23136361  1
  O2-  O157  1  0.17849454  0.42902756  0.57005378  1
  O2-  O158  1  0.17820950  0.42803581  0.91232525  1
  O2-  O159  1  0.18204817  0.92270267  0.23473773  1
  O2-  O160  1  0.17784006  0.92834009  0.57637074  1
  O2-  O161  1  0.17612014  0.93414107  0.90044947  1
  O2-  O162  1  0.67681460  0.43202058  0.23378520  1
  O2-  O163  1  0.67969565  0.42897389  0.57849182  1
  O2-  O164  1  0.68238500  0.42249196  0.90941017  1
  O2-  O165  1  0.67882178  0.92708154  0.23274071  1
  O2-  O166  1  0.67798582  0.93168148  0.57163637  1
  O2-  O167  1  0.68055908  0.93066868  0.91021256  1
  O2-  O168  1  0.42841269  0.32627796  0.08782253  1
  O2-  O169  1  0.42855679  0.32692102  0.42052338  1
  O2-  O170  1  0.42820399  0.32162570  0.75484858  1
  O2-  O171  1  0.43450806  0.82084674  0.09815527  1
  O2-  O172  1  0.42812281  0.81902231  0.42421978  1
  O2-  O173  1  0.42974003  0.82104588  0.75496422  1
  O2-  O174  1  0.92608643  0.32032896  0.08960716  1
  O2-  O175  1  0.93148816  0.32486880  0.42223463  1
  O2-  O176  1  0.92938763  0.32161606  0.75740486  1
  O2-  O177  1  0.92584818  0.81993186  0.09865354  1
  O2-  O178  1  0.92529974  0.81844916  0.42316159  1
  O2-  O179  1  0.93101068  0.82045007  0.76250265  1
  O2-  O180  1  0.32036388  0.06712947  0.23495121  1
  O2-  O181  1  0.31875617  0.06865640  0.56748712  1
  O2-  O182  1  0.32168731  0.07333162  0.90307071  1
  O2-  O183  1  0.32554238  0.57168257  0.24065333  1
  O2-  O184  1  0.32263417  0.57135196  0.56871952  1
  O2-  O185  1  0.32663648  0.56348395  0.90975082  1
  O2-  O186  1  0.82112477  0.06853095  0.23143047  1
  O2-  O187  1  0.82189155  0.07371296  0.56953588  1
  O2-  O188  1  0.81745865  0.08082945  0.90988246  1
  O2-  O189  1  0.81933266  0.57124227  0.23316421  1
  O2-  O190  1  0.81950831  0.56797082  0.57076672  1
  O2-  O191  1  0.81939143  0.56785154  0.91015331  1
  O2-  O192  1  0.04224403  0.08117365  0.26446649  1
  O2-  O193  1  0.04704057  0.08888361  0.60550334  1
  O2-  O194  1  0.04698310  0.08995466  0.93685884  1
  O2-  O195  1  0.03841818  0.58277189  0.26703221  1
  O2-  O196  1  0.04074743  0.58253862  0.60740795  1
  O2-  O197  1  0.03787890  0.57886295  0.92956722  1
  O2-  O198  1  0.53879958  0.08263441  0.26346843  1
  O2-  O199  1  0.53725098  0.08165165  0.60010709  1
  O2-  O200  1  0.55022178  0.08739344  0.93847742  1
  O2-  O201  1  0.54415942  0.58592063  0.27276744  1
  O2-  O202  1  0.54374365  0.58475909  0.60354333  1
  O2-  O203  1  0.54590719  0.57718995  0.93264550  1
  O2-  O204  1  0.16740699  0.21409180  0.26470092  1
  O2-  O205  1  0.16350041  0.21145326  0.60778473  1
  O2-  O206  1  0.16363143  0.21322437  0.93856643  1
  O2-  O207  1  0.16835625  0.70618354  0.26705863  1
  O2-  O208  1  0.16643807  0.69745146  0.60610370  1
  O2-  O209  1  0.17365176  0.69330650  0.93332086  1
  O2-  O210  1  0.66769538  0.21009391  0.26300456  1
  O2-  O211  1  0.66641227  0.21039360  0.59941727  1
  O2-  O212  1  0.66152719  0.21509672  0.93558293  1
  O2-  O213  1  0.66312572  0.70562761  0.27451749  1
  O2-  O214  1  0.66161418  0.70671705  0.60374470  1
  O2-  O215  1  0.66952957  0.70620551  0.93313987  1
  O2-  O216  1  0.08400585  0.45472077  0.06264600  1
  O2-  O217  1  0.08397573  0.45865024  0.40025038  1
  O2-  O218  1  0.08066857  0.45552535  0.73896581  1
  O2-  O219  1  0.08040250  0.95850102  0.06764458  1
  O2-  O220  1  0.07698716  0.94715168  0.39689760  1
  O2-  O221  1  0.08349292  0.95584828  0.72687948  1
  O2-  O222  1  0.58462033  0.44837215  0.05938395  1
  O2-  O223  1  0.57858439  0.45543070  0.40268331  1
  O2-  O224  1  0.58201338  0.44853733  0.72760595  1
  O2-  O225  1  0.59153791  0.95852384  0.06295932  1
  O2-  O226  1  0.57992967  0.95672464  0.39966873  1
  O2-  O227  1  0.58224328  0.96120308  0.73878137  1
  O2-  O228  1  0.20945893  0.34029767  0.06487077  1
  O2-  O229  1  0.21225119  0.33614294  0.40060500  1
  O2-  O230  1  0.20889808  0.33314626  0.74038584  1
  O2-  O231  1  0.20394675  0.82576945  0.06248118  1
  O2-  O232  1  0.21157581  0.82984932  0.40354299  1
  O2-  O233  1  0.19863714  0.83259659  0.72620226  1
  O2-  O234  1  0.71250500  0.33797674  0.06417399  1
  O2-  O235  1  0.70402384  0.33026614  0.40002616  1
  O2-  O236  1  0.70663753  0.33545199  0.73050539  1
  O2-  O237  1  0.70899645  0.83640259  0.06128509  1
  O2-  O238  1  0.70321826  0.83134871  0.40223752  1
  O2-  O239  1  0.70431188  0.83021083  0.73685213  1
  O2-  O240  1  0.45506348  0.41714760  0.26713575  1
  O2-  O241  1  0.45027728  0.41646535  0.60323634  1
  O2-  O242  1  0.45962699  0.40922618  0.93121717  1
  O2-  O243  1  0.45867237  0.91086361  0.27007641  1
  O2-  O244  1  0.45946961  0.91094210  0.60251265  1
  O2-  O245  1  0.46353107  0.92026876  0.93132794  1
  O2-  O246  1  0.95880631  0.41437799  0.26852826  1
  O2-  O247  1  0.95873158  0.41416960  0.60567564  1
  O2-  O248  1  0.95578368  0.41100060  0.93629297  1
  O2-  O249  1  0.94647021  0.91584225  0.27211443  1
  O2-  O250  1  0.95701589  0.91906229  0.59614751  1
  O2-  O251  1  0.95551317  0.92329216  0.93156466  1
  O2-  O252  1  0.33544467  0.29803307  0.26801662  1
  O2-  O253  1  0.33116531  0.29682144  0.60627396  1
  O2-  O254  1  0.33457630  0.29691312  0.93606158  1
  O2-  O255  1  0.33879090  0.79256322  0.26910519  1
  O2-  O256  1  0.33519689  0.79450335  0.60309790  1
  O2-  O257  1  0.33221290  0.79731846  0.93053395  1
  O2-  O258  1  0.83404046  0.30229926  0.27049968  1
  O2-  O259  1  0.83680647  0.29781135  0.60423036  1
  O2-  O260  1  0.83696339  0.29146915  0.93533052  1
  O2-  O261  1  0.83274404  0.79166581  0.27186347  1
  O2-  O262  1  0.83045060  0.78890881  0.59930049  1
  O2-  O263  1  0.83402049  0.79162779  0.93030652  1
  O2-  O264  1  0.42431929  0.04569629  0.06673726  1
  O2-  O265  1  0.41594268  0.03700112  0.40054659  1
  O2-  O266  1  0.41524389  0.03667189  0.73460116  1
  O2-  O267  1  0.41340835  0.53477597  0.06259102  1
  O2-  O268  1  0.41466855  0.54615983  0.39494330  1
  O2-  O269  1  0.41991022  0.54201625  0.73664082  1
  O2-  O270  1  0.91586514  0.05227652  0.05765228  1
  O2-  O271  1  0.92070567  0.04595096  0.39934464  1
  O2-  O272  1  0.92204681  0.04634344  0.73430802  1
  O2-  O273  1  0.90967368  0.53685784  0.06196355  1
  O2-  O274  1  0.91719919  0.53979315  0.40239677  1
  O2-  O275  1  0.91266331  0.53647414  0.74016766  1
  O2-  O276  1  0.29593821  0.17171156  0.06788350  1
  O2-  O277  1  0.29655611  0.17090889  0.39920565  1
  O2-  O278  1  0.29138540  0.16493961  0.73540829  1
  O2-  O279  1  0.30452986  0.66428118  0.05804327  1
  O2-  O280  1  0.30050965  0.66728159  0.39211602  1
  O2-  O281  1  0.29644466  0.67186355  0.73584625  1
  O2-  O282  1  0.78923877  0.16460924  0.06371378  1
  O2-  O283  1  0.79939450  0.17215468  0.39522615  1
  O2-  O284  1  0.79328282  0.17175103  0.73495249  1
  O2-  O285  1  0.79490712  0.66336712  0.06139286  1
  O2-  O286  1  0.79160019  0.66711363  0.40316344  1
  O2-  O287  1  0.78748071  0.66646500  0.73759994  1
