# generated using pymatgen
data_Ca2Al2SiO7
_symmetry_space_group_name_H-M   'P 1'
_cell_length_a   15.46120611
_cell_length_b   15.46264336
_cell_length_c   15.28651979
_cell_angle_alpha   89.99032144
_cell_angle_beta   90.00313746
_cell_angle_gamma   89.97988376
_symmetry_Int_Tables_number   1
_chemical_formula_structural   Ca2Al2SiO7
_chemical_formula_sum   'Ca48 Al48 Si24 O168'
_cell_volume   3654.56506232
_cell_formula_units_Z   24
loop_
 _symmetry_equiv_pos_site_id
 _symmetry_equiv_pos_as_xyz
  1  'x, y, z'
loop_
 _atom_type_symbol
 _atom_type_oxidation_number
  Ca2+  2.0
  Al0+  0.0
  Si0+  0.0
  O2-  -2.0
loop_
 _atom_site_type_symbol
 _atom_site_label
 _atom_site_symmetry_multiplicity
 _atom_site_fract_x
 _atom_site_fract_y
 _atom_site_fract_z
 _atom_site_occupancy
  Ca2+  Ca0  1  0.16673285  0.08266428  0.17427838  1
  Ca2+  Ca1  1  0.16365484  0.07867420  0.51031643  1
  Ca2+  Ca2  1  0.16114247  0.07547636  0.83160487  1
  Ca2+  Ca3  1  0.16915785  0.59014337  0.16907479  1
  Ca2+  Ca4  1  0.16881212  0.58241865  0.51173467  1
  Ca2+  Ca5  1  0.17512797  0.59122984  0.83538613  1
  Ca2+  Ca6  1  0.67543035  0.08248393  0.17209763  1
  Ca2+  Ca7  1  0.67514355  0.08920123  0.50575980  1
  Ca2+  Ca8  1  0.67386989  0.07851053  0.83874247  1
  Ca2+  Ca9  1  0.66853499  0.57803776  0.16529324  1
  Ca2+  Ca10  1  0.66397871  0.58372814  0.50560018  1
  Ca2+  Ca11  1  0.67168988  0.58372885  0.84288143  1
  Ca2+  Ca12  1  0.08368901  0.32499507  0.16473090  1
  Ca2+  Ca13  1  0.09006439  0.32285154  0.49878053  1
  Ca2+  Ca14  1  0.08269460  0.32786778  0.82585826  1
  Ca2+  Ca15  1  0.07524378  0.82402195  0.16675433  1
  Ca2+  Ca16  1  0.07723978  0.82989153  0.50015869  1
  Ca2+  Ca17  1  0.07841355  0.82434435  0.82396136  1
  Ca2+  Ca18  1  0.57842942  0.33293076  0.16213835  1
  Ca2+  Ca19  1  0.57844124  0.32227521  0.49449130  1
  Ca2+  Ca20  1  0.58097935  0.33531438  0.82926017  1
  Ca2+  Ca21  1  0.57835521  0.84044773  0.16375926  1
  Ca2+  Ca22  1  0.57135647  0.83132777  0.49966457  1
  Ca2+  Ca23  1  0.58013027  0.82923133  0.82413748  1
  Ca2+  Ca24  1  0.34029101  0.41985460  0.16868521  1
  Ca2+  Ca25  1  0.32821310  0.42081818  0.50894945  1
  Ca2+  Ca26  1  0.33045959  0.42705737  0.83716140  1
  Ca2+  Ca27  1  0.33163784  0.91603744  0.17342159  1
  Ca2+  Ca28  1  0.32853074  0.91095147  0.50804316  1
  Ca2+  Ca29  1  0.32662868  0.90843069  0.83178903  1
  Ca2+  Ca30  1  0.83113117  0.42023082  0.16480942  1
  Ca2+  Ca31  1  0.83129666  0.41777465  0.50378915  1
  Ca2+  Ca32  1  0.82510731  0.42382545  0.84203887  1
  Ca2+  Ca33  1  0.83036705  0.92225143  0.17178641  1
  Ca2+  Ca34  1  0.84388432  0.92386461  0.50477741  1
  Ca2+  Ca35  1  0.83336173  0.92484794  0.83776471  1
  Ca2+  Ca36  1  0.42142973  0.17981106  0.16238341  1
  Ca2+  Ca37  1  0.42990019  0.16851216  0.49115057  1
  Ca2+  Ca38  1  0.42569556  0.17410473  0.82661589  1
  Ca2+  Ca39  1  0.41399986  0.67129537  0.16298334  1
  Ca2+  Ca40  1  0.41278310  0.67393298  0.50361962  1
  Ca2+  Ca41  1  0.42025076  0.66538283  0.82516636  1
  Ca2+  Ca42  1  0.91790711  0.15647207  0.16744042  1
  Ca2+  Ca43  1  0.92590644  0.15695713  0.49809298  1
  Ca2+  Ca44  1  0.91440193  0.16446044  0.82568510  1
  Ca2+  Ca45  1  0.92623445  0.66327204  0.15927164  1
  Ca2+  Ca46  1  0.92776754  0.67789972  0.49343590  1
  Ca2+  Ca47  1  0.92337321  0.66909683  0.82437233  1
  Al0+  Al48  1  0.00142708  -0.00273967  0.00409569  1
  Al0+  Al49  1  0.00052895  -0.00190087  0.32890886  1
  Al0+  Al50  1  0.00104728  0.00133778  0.67060950  1
  Al0+  Al51  1  0.00283563  0.49620365  -0.00192390  1
  Al0+  Al52  1  0.00159991  0.49830246  0.33173868  1
  Al0+  Al53  1  -0.00164251  0.49804805  0.66701881  1
  Al0+  Al54  1  0.49790100  0.00232067  0.00147173  1
  Al0+  Al55  1  0.50123532  0.00016971  0.32565126  1
  Al0+  Al56  1  0.50138132  0.00119964  0.65947900  1
  Al0+  Al57  1  0.49755249  0.50174325  0.00411325  1
  Al0+  Al58  1  0.49958226  0.50136710  0.33395550  1
  Al0+  Al59  1  0.49918304  0.49971637  0.66576192  1
  Al0+  Al60  1  0.25120507  0.25053275  -0.00642950  1
  Al0+  Al61  1  0.25074181  0.25042365  0.32597909  1
  Al0+  Al62  1  0.24949330  0.25053239  0.66857889  1
  Al0+  Al63  1  0.24852398  0.74953829  0.00177943  1
  Al0+  Al64  1  0.25046981  0.75000951  0.32765620  1
  Al0+  Al65  1  0.24967513  0.75009889  0.66951330  1
  Al0+  Al66  1  0.75111064  0.24884349  0.00774936  1
  Al0+  Al67  1  0.75134328  0.24991972  0.33533717  1
  Al0+  Al68  1  0.75005952  0.25073182  0.66758136  1
  Al0+  Al69  1  0.74992393  0.75233064  0.00878425  1
  Al0+  Al70  1  0.74846882  0.75085154  0.33235583  1
  Al0+  Al71  1  0.74872784  0.75170348  0.65796660  1
  Al0+  Al72  1  0.82451934  0.57156231  0.01361103  1
  Al0+  Al73  1  0.67551882  0.92915642  0.01487919  1
  Al0+  Al74  1  0.82048529  0.06846456  0.35066119  1
  Al0+  Al75  1  0.07072896  0.67668620  0.65291896  1
  Al0+  Al76  1  0.17616564  0.42637417  0.68254396  1
  Al0+  Al77  1  0.67756062  0.42990317  0.01502474  1
  Al0+  Al78  1  0.06996230  0.17893552  0.32020386  1
  Al0+  Al79  1  0.57450849  0.17932660  0.31552825  1
  Al0+  Al80  1  0.43029928  0.32355897  0.98268826  1
  Al0+  Al81  1  0.42980617  0.81948097  0.31851180  1
  Al0+  Al82  1  0.31827749  0.57099437  0.01628407  1
  Al0+  Al83  1  0.18022018  0.93026786  0.68009803  1
  Al0+  Al84  1  0.92761795  0.82134082  0.31651000  1
  Al0+  Al85  1  0.92844694  0.82277303  0.65355594  1
  Al0+  Al86  1  0.42801374  0.82134472  0.65430337  1
  Al0+  Al87  1  0.57258786  0.18002348  0.65448752  1
  Al0+  Al88  1  0.07029032  0.18050846  0.65573071  1
  Al0+  Al89  1  0.07035775  0.67722600  0.31797419  1
  Al0+  Al90  1  0.82009565  0.06985020  0.68014370  1
  Al0+  Al91  1  0.42960701  0.32183179  0.31875634  1
  Al0+  Al92  1  0.31994582  0.57064904  0.68202107  1
  Al0+  Al93  1  0.07024618  0.67789323  0.98398744  1
  Al0+  Al94  1  0.57203793  0.67635869  0.65321760  1
  Al0+  Al95  1  0.82265744  0.06980984  0.01680411  1
  Si0+  Si96  1  0.42799314  0.82294647  0.98552894  1
  Si0+  Si97  1  0.31989743  0.57196406  0.34921895  1
  Si0+  Si98  1  0.17940741  0.42419411  0.01844260  1
  Si0+  Si99  1  0.32159797  0.07262549  0.34605186  1
  Si0+  Si100  1  0.67894222  0.43076068  0.35020894  1
  Si0+  Si101  1  0.18192534  0.92976109  0.34774556  1
  Si0+  Si102  1  0.81968451  0.57352368  0.67801248  1
  Si0+  Si103  1  0.92736428  0.82169709  0.98367945  1
  Si0+  Si104  1  0.67558306  0.92746264  0.68060202  1
  Si0+  Si105  1  0.92790968  0.32321496  0.31621190  1
  Si0+  Si106  1  0.92824061  0.31891665  0.98520369  1
  Si0+  Si107  1  0.31958886  0.07322804  0.01446239  1
  Si0+  Si108  1  0.67465836  0.92687983  0.35359124  1
  Si0+  Si109  1  0.67986037  0.42977392  0.67970294  1
  Si0+  Si110  1  0.57238134  0.67697640  0.31446916  1
  Si0+  Si111  1  0.57278904  0.17909464  0.98288729  1
  Si0+  Si112  1  0.42818893  0.32168930  0.65062546  1
  Si0+  Si113  1  0.57069719  0.68130759  0.98852169  1
  Si0+  Si114  1  0.92589648  0.32202349  0.65074860  1
  Si0+  Si115  1  0.17930339  0.42691272  0.34718318  1
  Si0+  Si116  1  0.32559248  0.07310180  0.68190239  1
  Si0+  Si117  1  0.18088719  0.92898708  0.01754172  1
  Si0+  Si118  1  0.07091042  0.17667186  0.98425144  1
  Si0+  Si119  1  0.82282532  0.57131416  0.34885789  1
  O2-  O120  1  0.25037104  0.00175808  0.05915555  1
  O2-  O121  1  0.25241343  0.00130753  0.39033037  1
  O2-  O122  1  0.25764981  0.00356002  0.72691725  1
  O2-  O123  1  0.24454058  0.49548011  0.06379397  1
  O2-  O124  1  0.24889052  0.49969447  0.38899065  1
  O2-  O125  1  0.24520418  0.50123976  0.73249762  1
  O2-  O126  1  0.74867515  -0.00051857  0.06558068  1
  O2-  O127  1  0.74505396  -0.00591489  0.39768090  1
  O2-  O128  1  0.74565081  -0.00559660  0.72529240  1
  O2-  O129  1  0.75108944  0.50109241  0.06497912  1
  O2-  O130  1  0.75020730  0.50196325  0.39235031  1
  O2-  O131  1  0.74685048  0.50466102  0.72117218  1
  O2-  O132  1  -0.00557025  0.25205506  0.27231659  1
  O2-  O133  1  -0.00182106  0.25669611  0.60748794  1
  O2-  O134  1  -0.00303901  0.24512333  0.94367680  1
  O2-  O135  1  -0.00654184  0.74338397  0.26704471  1
  O2-  O136  1  -0.00150907  0.74847972  0.60397036  1
  O2-  O137  1  -0.00986205  0.74779194  0.93934593  1
  O2-  O138  1  0.50229893  0.25172958  0.26688008  1
  O2-  O139  1  0.49407527  0.25037352  0.60708610  1
  O2-  O140  1  0.50807962  0.25108627  0.93737556  1
  O2-  O141  1  0.50636011  0.74797240  0.27006881  1
  O2-  O142  1  0.49918629  0.74827557  0.60464311  1
  O2-  O143  1  0.50341024  0.75580745  0.94585476  1
  O2-  O144  1  0.07287981  0.17800705  0.08952280  1
  O2-  O145  1  0.07199731  0.17963076  0.43297886  1
  O2-  O146  1  0.06697896  0.17959987  0.76913172  1
  O2-  O147  1  0.07148920  0.68172478  0.09709466  1
  O2-  O148  1  0.07184162  0.67691463  0.43107903  1
  O2-  O149  1  0.06835312  0.67877120  0.76663346  1
  O2-  O150  1  0.56896093  0.17890362  0.08813851  1
  O2-  O151  1  0.57332302  0.18184244  0.42951802  1
  O2-  O152  1  0.57301175  0.18315888  0.76769698  1
  O2-  O153  1  0.56751946  0.68036928  0.09361656  1
  O2-  O154  1  0.57043449  0.67444784  0.41982432  1
  O2-  O155  1  0.57433545  0.67637519  0.76726964  1
  O2-  O156  1  0.17912980  0.42562330  0.24217696  1
  O2-  O157  1  0.18049568  0.42393515  0.56834292  1
  O2-  O158  1  0.18109685  0.42106835  0.91340106  1
  O2-  O159  1  0.18436252  0.93107373  0.24209329  1
  O2-  O160  1  0.18001639  0.93240689  0.56666233  1
  O2-  O161  1  0.18047575  0.92933802  0.91251099  1
  O2-  O162  1  0.67854192  0.43228869  0.24542618  1
  O2-  O163  1  0.68222957  0.42846215  0.57431979  1
  O2-  O164  1  0.67929664  0.43187548  0.90079784  1
  O2-  O165  1  0.67409798  0.92889058  0.24795455  1
  O2-  O166  1  0.67279002  0.92913031  0.57544181  1
  O2-  O167  1  0.67326501  0.92993307  0.90105185  1
  O2-  O168  1  0.42954089  0.32035358  0.09560168  1
  O2-  O169  1  0.42996978  0.31993996  0.43245973  1
  O2-  O170  1  0.43176221  0.32257854  0.75629021  1
  O2-  O171  1  0.42688913  0.82173217  0.09080087  1
  O2-  O172  1  0.42644765  0.81695572  0.43098032  1
  O2-  O173  1  0.43109854  0.82162623  0.76834794  1
  O2-  O174  1  0.93072486  0.32079870  0.09029413  1
  O2-  O175  1  0.92934277  0.32698806  0.42165137  1
  O2-  O176  1  0.92195560  0.32022971  0.75641159  1
  O2-  O177  1  0.93193096  0.82360848  0.08898281  1
  O2-  O178  1  0.93345783  0.82217772  0.42989229  1
  O2-  O179  1  0.92778956  0.82065420  0.76750184  1
  O2-  O180  1  0.31762920  0.07156512  0.24050305  1
  O2-  O181  1  0.32408545  0.07374871  0.57608019  1
  O2-  O182  1  0.31912047  0.07235408  0.90949433  1
  O2-  O183  1  0.31995318  0.57226101  0.24401379  1
  O2-  O184  1  0.32070241  0.56814799  0.56788591  1
  O2-  O185  1  0.31913247  0.57262207  0.90384059  1
  O2-  O186  1  0.82024256  0.06656412  0.23780621  1
  O2-  O187  1  0.82061973  0.07054318  0.56722867  1
  O2-  O188  1  0.82333077  0.06918271  0.90299503  1
  O2-  O189  1  0.82302902  0.56795764  0.24401139  1
  O2-  O190  1  0.81922649  0.56980332  0.57269810  1
  O2-  O191  1  0.82158102  0.57035016  0.89944941  1
  O2-  O192  1  0.04151520  0.08315124  0.26400454  1
  O2-  O193  1  0.03824014  0.08516624  0.60133629  1
  O2-  O194  1  0.04589187  0.08274956  0.93983267  1
  O2-  O195  1  0.04672819  0.57704434  0.26553001  1
  O2-  O196  1  0.04350899  0.57743236  0.60099096  1
  O2-  O197  1  0.04794036  0.57768611  0.93369784  1
  O2-  O198  1  0.54655409  0.08161019  0.26248719  1
  O2-  O199  1  0.54651269  0.08433598  0.59738835  1
  O2-  O200  1  0.54103244  0.08710605  0.93636789  1
  O2-  O201  1  0.54326267  0.58468150  0.26798502  1
  O2-  O202  1  0.54380992  0.57845361  0.59822618  1
  O2-  O203  1  0.54001207  0.59074985  0.94113970  1
  O2-  O204  1  0.16481077  0.21068830  0.26269519  1
  O2-  O205  1  0.16846999  0.20700355  0.60172650  1
  O2-  O206  1  0.16139497  0.20601674  0.93578493  1
  O2-  O207  1  0.16615600  0.71154051  0.26350342  1
  O2-  O208  1  0.16937465  0.70526274  0.60273033  1
  O2-  O209  1  0.16560122  0.71637713  0.93228202  1
  O2-  O210  1  0.67291730  0.20969275  0.26469232  1
  O2-  O211  1  0.66650013  0.21658765  0.59912199  1
  O2-  O212  1  0.66935446  0.20017041  0.94157391  1
  O2-  O213  1  0.66736663  0.69792486  0.26997515  1
  O2-  O214  1  0.66800971  0.70365340  0.59506985  1
  O2-  O215  1  0.66487061  0.70486649  0.94352859  1
  O2-  O216  1  0.08413609  0.44495760  0.06266063  1
  O2-  O217  1  0.08627340  0.45045068  0.39439680  1
  O2-  O218  1  0.07454088  0.44717564  0.73299787  1
  O2-  O219  1  0.08977482  0.95621070  0.06620134  1
  O2-  O220  1  0.08986157  0.95784223  0.39288285  1
  O2-  O221  1  0.08692972  0.96507569  0.73825428  1
  O2-  O222  1  0.58133170  0.46147439  0.06992159  1
  O2-  O223  1  0.58742275  0.45977931  0.39838694  1
  O2-  O224  1  0.58658973  0.45260153  0.72567897  1
  O2-  O225  1  0.57667308  0.95859021  0.06822376  1
  O2-  O226  1  0.57988031  0.95398610  0.39697499  1
  O2-  O227  1  0.58265868  0.95501991  0.72769059  1
  O2-  O228  1  0.20838393  0.33090921  0.06446981  1
  O2-  O229  1  0.20990731  0.33528252  0.39409082  1
  O2-  O230  1  0.20602096  0.32869962  0.73747928  1
  O2-  O231  1  0.21207898  0.83928968  0.06628386  1
  O2-  O232  1  0.21212288  0.83789043  0.39328912  1
  O2-  O233  1  0.20984318  0.83482604  0.73695818  1
  O2-  O234  1  0.70562288  0.33220361  0.06900938  1
  O2-  O235  1  0.70778467  0.33941528  0.39805096  1
  O2-  O236  1  0.71166811  0.34086749  0.73012230  1
  O2-  O237  1  0.69958403  0.83141752  0.07154258  1
  O2-  O238  1  0.69540955  0.83060249  0.39668262  1
  O2-  O239  1  0.69908586  0.83216746  0.72468265  1
  O2-  O240  1  0.45788551  0.42115141  0.26756048  1
  O2-  O241  1  0.45630491  0.41336616  0.60288674  1
  O2-  O242  1  0.45959608  0.42166415  0.93139964  1
  O2-  O243  1  0.45610306  0.91661663  0.26289770  1
  O2-  O244  1  0.45454844  0.91880051  0.59821446  1
  O2-  O245  1  0.44909829  0.91703763  0.93988680  1
  O2-  O246  1  0.95622512  0.41456550  0.26708548  1
  O2-  O247  1  0.94667144  0.41625852  0.60412653  1
  O2-  O248  1  0.95740062  0.40892584  0.93493135  1
  O2-  O249  1  0.96379027  0.91547906  0.26066728  1
  O2-  O250  1  0.96322914  0.91930489  0.60178509  1
  O2-  O251  1  0.96067708  0.91339608  0.93745231  1
  O2-  O252  1  0.33307785  0.29311180  0.26216569  1
  O2-  O253  1  0.33345030  0.29907181  0.60687993  1
  O2-  O254  1  0.33492182  0.28920046  0.92815092  1
  O2-  O255  1  0.33523730  0.78700475  0.26126746  1
  O2-  O256  1  0.33013478  0.79302492  0.60104873  1
  O2-  O257  1  0.33731045  0.79070209  0.93941181  1
  O2-  O258  1  0.83358295  0.30024165  0.27175860  1
  O2-  O259  1  0.83440353  0.29403097  0.60188375  1
  O2-  O260  1  0.83499062  0.29342692  0.93916416  1
  O2-  O261  1  0.82566423  0.80092259  0.26830392  1
  O2-  O262  1  0.83050548  0.79990896  0.59790690  1
  O2-  O263  1  0.83009611  0.80400741  0.94264570  1
  O2-  O264  1  0.41109317  0.04754566  0.06310058  1
  O2-  O265  1  0.41533649  0.04652072  0.38988868  1
  O2-  O266  1  0.41990643  0.04884397  0.72738135  1
  O2-  O267  1  0.41436626  0.54186513  0.07172033  1
  O2-  O268  1  0.41244080  0.54559268  0.39603428  1
  O2-  O269  1  0.41875215  0.53951765  0.73451054  1
  O2-  O270  1  0.92129408  0.03977482  0.06972329  1
  O2-  O271  1  0.91960646  0.03629649  0.40043014  1
  O2-  O272  1  0.91573607  0.04041912  0.73622785  1
  O2-  O273  1  0.92175471  0.53720877  0.06624324  1
  O2-  O274  1  0.91410104  0.54062555  0.39617098  1
  O2-  O275  1  0.91011660  0.54419033  0.72682223  1
  O2-  O276  1  0.28947048  0.16455832  0.06151703  1
  O2-  O277  1  0.29375521  0.16485767  0.39203950  1
  O2-  O278  1  0.29981556  0.16601392  0.72908810  1
  O2-  O279  1  0.28599189  0.66743468  0.07111356  1
  O2-  O280  1  0.29020662  0.66386389  0.39501367  1
  O2-  O281  1  0.29580075  0.66955158  0.73579553  1
  O2-  O282  1  0.79899448  0.16864675  0.07083181  1
  O2-  O283  1  0.79402816  0.16808903  0.40213334  1
  O2-  O284  1  0.78856653  0.16705368  0.73366474  1
  O2-  O285  1  0.79925099  0.66955479  0.06803017  1
  O2-  O286  1  0.79616534  0.66417910  0.39457431  1
  O2-  O287  1  0.79364576  0.66630117  0.72393499  1
