# generated using pymatgen
data_Ca2Al2SiO7
_symmetry_space_group_name_H-M   'P 1'
_cell_length_a   15.45468105
_cell_length_b   15.45546817
_cell_length_c   15.28129651
_cell_angle_alpha   90.00374396
_cell_angle_beta   90.00187058
_cell_angle_gamma   89.99853085
_symmetry_Int_Tables_number   1
_chemical_formula_structural   Ca2Al2SiO7
_chemical_formula_sum   'Ca48 Al48 Si24 O168'
_cell_volume   3650.08025321
_cell_formula_units_Z   24
loop_
 _symmetry_equiv_pos_site_id
 _symmetry_equiv_pos_as_xyz
  1  'x, y, z'
loop_
 _atom_type_symbol
 _atom_type_oxidation_number
  Ca2+  2.0
  Al0+  0.0
  Si0+  0.0
  O2-  -2.0
loop_
 _atom_site_type_symbol
 _atom_site_label
 _atom_site_symmetry_multiplicity
 _atom_site_fract_x
 _atom_site_fract_y
 _atom_site_fract_z
 _atom_site_occupancy
  Ca2+  Ca0  1  0.17036511  0.08721017  0.16949483  1
  Ca2+  Ca1  1  0.16942227  0.08678486  0.50350426  1
  Ca2+  Ca2  1  0.16222023  0.08771928  0.83820100  1
  Ca2+  Ca3  1  0.17426863  0.58828656  0.16611334  1
  Ca2+  Ca4  1  0.16919799  0.58109497  0.50779470  1
  Ca2+  Ca5  1  0.16466577  0.57455063  0.84089959  1
  Ca2+  Ca6  1  0.67158162  0.07910341  0.16956437  1
  Ca2+  Ca7  1  0.67423293  0.07079178  0.50909007  1
  Ca2+  Ca8  1  0.68038682  0.08569065  0.83721088  1
  Ca2+  Ca9  1  0.66281329  0.57210274  0.17430593  1
  Ca2+  Ca10  1  0.66655356  0.57664847  0.50152466  1
  Ca2+  Ca11  1  0.66709184  0.57122898  0.83626880  1
  Ca2+  Ca12  1  0.07850650  0.33069366  0.16050026  1
  Ca2+  Ca13  1  0.07254360  0.33428427  0.50052720  1
  Ca2+  Ca14  1  0.08380900  0.32729313  0.82230427  1
  Ca2+  Ca15  1  0.07194970  0.83119950  0.15819890  1
  Ca2+  Ca16  1  0.07658264  0.82703089  0.49660520  1
  Ca2+  Ca17  1  0.08101298  0.82066879  0.83152209  1
  Ca2+  Ca18  1  0.58542003  0.33096893  0.15922636  1
  Ca2+  Ca19  1  0.58039586  0.34073948  0.49714941  1
  Ca2+  Ca20  1  0.58274863  0.33407863  0.82881406  1
  Ca2+  Ca21  1  0.58845793  0.82658691  0.16745189  1
  Ca2+  Ca22  1  0.58627487  0.83144570  0.49416577  1
  Ca2+  Ca23  1  0.57711021  0.83396079  0.82519270  1
  Ca2+  Ca24  1  0.32519909  0.42636079  0.16815186  1
  Ca2+  Ca25  1  0.32925590  0.42264479  0.50765248  1
  Ca2+  Ca26  1  0.32187594  0.41639384  0.83840288  1
  Ca2+  Ca27  1  0.32980418  0.92502134  0.17394683  1
  Ca2+  Ca28  1  0.33860441  0.92380405  0.50431107  1
  Ca2+  Ca29  1  0.33311591  0.91497521  0.83473548  1
  Ca2+  Ca30  1  0.82272949  0.41089408  0.17152614  1
  Ca2+  Ca31  1  0.82581534  0.40668490  0.50548805  1
  Ca2+  Ca32  1  0.82403699  0.40632588  0.83496111  1
  Ca2+  Ca33  1  0.83722917  0.92026619  0.17195789  1
  Ca2+  Ca34  1  0.82542732  0.91491979  0.50712347  1
  Ca2+  Ca35  1  0.83877246  0.92758098  0.83704288  1
  Ca2+  Ca36  1  0.42417319  0.16519727  0.16074406  1
  Ca2+  Ca37  1  0.41463385  0.17429775  0.49754796  1
  Ca2+  Ca38  1  0.42619414  0.17407060  0.82663687  1
  Ca2+  Ca39  1  0.41857374  0.65685645  0.16611733  1
  Ca2+  Ca40  1  0.42160157  0.67114664  0.49427363  1
  Ca2+  Ca41  1  0.41343947  0.66974810  0.82804367  1
  Ca2+  Ca42  1  0.91749035  0.17075801  0.15928812  1
  Ca2+  Ca43  1  0.91375237  0.17331036  0.50201249  1
  Ca2+  Ca44  1  0.92299412  0.16737135  0.82733073  1
  Ca2+  Ca45  1  0.91610708  0.68153700  0.15931273  1
  Ca2+  Ca46  1  0.92235016  0.66707907  0.49459713  1
  Ca2+  Ca47  1  0.92691192  0.66500842  0.83064371  1
  Al0+  Al48  1  -0.00066045  0.00228370  -0.00183049  1
  Al0+  Al49  1  0.00200962  0.00085219  0.33141062  1
  Al0+  Al50  1  0.00226555  -0.00124004  0.66552880  1
  Al0+  Al51  1  -0.00329705  0.50076921  0.00257865  1
  Al0+  Al52  1  -0.00048297  0.49856489  0.32539112  1
  Al0+  Al53  1  0.00087637  0.49930473  0.66157451  1
  Al0+  Al54  1  0.50204217  0.00025255  -0.00479096  1
  Al0+  Al55  1  0.49987554  0.00064402  0.34097960  1
  Al0+  Al56  1  0.49950502  -0.00004964  0.66681296  1
  Al0+  Al57  1  0.49898169  0.49992462  0.00575474  1
  Al0+  Al58  1  0.49787209  0.50045445  0.33681212  1
  Al0+  Al59  1  0.50078171  0.50141284  0.66715222  1
  Al0+  Al60  1  0.25056899  0.25158687  0.00212566  1
  Al0+  Al61  1  0.25047213  0.25115896  0.33645415  1
  Al0+  Al62  1  0.25211341  0.25068985  0.66227534  1
  Al0+  Al63  1  0.24954506  0.75119162  0.00244377  1
  Al0+  Al64  1  0.25089462  0.75140335  0.33754631  1
  Al0+  Al65  1  0.25161399  0.75259219  0.65664823  1
  Al0+  Al66  1  0.74970086  0.24656819  0.00514720  1
  Al0+  Al67  1  0.74916467  0.24856831  0.33389483  1
  Al0+  Al68  1  0.75007798  0.24723016  0.67116454  1
  Al0+  Al69  1  0.74677432  0.75112171  -0.00792152  1
  Al0+  Al70  1  0.74957074  0.74806878  0.32800154  1
  Al0+  Al71  1  0.74892310  0.74826993  0.67311777  1
  Al0+  Al72  1  0.67721477  0.92643556  0.68406228  1
  Al0+  Al73  1  0.17481119  0.42665547  0.01554895  1
  Al0+  Al74  1  0.68092471  0.42961324  0.01465473  1
  Al0+  Al75  1  0.82265766  0.06890924  0.68246545  1
  Al0+  Al76  1  0.56844721  0.67880655  0.31927324  1
  Al0+  Al77  1  0.68180274  0.92735925  0.34533070  1
  Al0+  Al78  1  0.82168401  0.06809105  0.01622975  1
  Al0+  Al79  1  0.07162458  0.67877727  0.98582831  1
  Al0+  Al80  1  0.32103011  0.07173977  0.34748671  1
  Al0+  Al81  1  0.57200184  0.17825804  0.98623527  1
  Al0+  Al82  1  0.92722228  0.31995123  0.65306407  1
  Al0+  Al83  1  0.92936727  0.82029109  0.32112843  1
  Al0+  Al84  1  0.67892064  0.42965844  0.68020540  1
  Al0+  Al85  1  0.43082831  0.32226890  0.65329361  1
  Al0+  Al86  1  0.07234908  0.18260160  0.98765901  1
  Al0+  Al87  1  0.31945253  0.57124374  0.35020412  1
  Al0+  Al88  1  0.92671349  0.31948540  0.31751515  1
  Al0+  Al89  1  0.92672700  0.82302049  0.98241622  1
  Al0+  Al90  1  0.17950047  0.42964331  0.67821368  1
  Al0+  Al91  1  0.31901031  0.57275172  0.01409564  1
  Al0+  Al92  1  0.68005964  0.42779531  0.34773370  1
  Al0+  Al93  1  0.07100699  0.67813857  0.65198017  1
  Al0+  Al94  1  0.43053291  0.82183707  0.65152657  1
  Al0+  Al95  1  0.07287141  0.17677662  0.65013130  1
  Si0+  Si96  1  0.67548263  0.92732829  0.01682174  1
  Si0+  Si97  1  0.56898791  0.17806086  0.32012281  1
  Si0+  Si98  1  0.42934534  0.82189664  0.98724380  1
  Si0+  Si99  1  0.32043388  0.07218575  0.68339864  1
  Si0+  Si100  1  0.82056105  0.57583777  0.01679286  1
  Si0+  Si101  1  0.92774253  0.82062214  0.65126305  1
  Si0+  Si102  1  0.07346192  0.17968312  0.31599454  1
  Si0+  Si103  1  0.57331570  0.67772009  0.65031610  1
  Si0+  Si104  1  0.42979720  0.32265753  0.98484060  1
  Si0+  Si105  1  0.32348341  0.07106781  0.01198237  1
  Si0+  Si106  1  0.56892456  0.67621934  0.98423699  1
  Si0+  Si107  1  0.32083342  0.57418214  0.68163327  1
  Si0+  Si108  1  0.42841586  0.32165651  0.31720225  1
  Si0+  Si109  1  0.17980447  0.93046926  0.01373577  1
  Si0+  Si110  1  0.92640554  0.32185190  0.98500780  1
  Si0+  Si111  1  0.07455419  0.67784455  0.31565496  1
  Si0+  Si112  1  0.17596074  0.42841179  0.35136408  1
  Si0+  Si113  1  0.82240873  0.57126018  0.34722360  1
  Si0+  Si114  1  0.57213867  0.17870848  0.64883758  1
  Si0+  Si115  1  0.82415031  0.07157528  0.35029027  1
  Si0+  Si116  1  0.18086769  0.92810974  0.68150284  1
  Si0+  Si117  1  0.42820238  0.82429184  0.31606544  1
  Si0+  Si118  1  0.17693394  0.92908758  0.35099850  1
  Si0+  Si119  1  0.82405859  0.57220505  0.68308090  1
  O2-  O120  1  0.25018917  0.00298138  0.05519545  1
  O2-  O121  1  0.24666183  -0.00298030  0.39473066  1
  O2-  O122  1  0.24861050  0.00188195  0.72555150  1
  O2-  O123  1  0.24442513  0.50262274  0.06376695  1
  O2-  O124  1  0.24117219  0.50036090  0.39577621  1
  O2-  O125  1  0.25270754  0.50572708  0.72592151  1
  O2-  O126  1  0.74876774  -0.00954268  0.06156772  1
  O2-  O127  1  0.75910243  -0.00128543  0.39279628  1
  O2-  O128  1  0.75117115  -0.00377301  0.73335761  1
  O2-  O129  1  0.75448586  0.50509473  0.06204517  1
  O2-  O130  1  0.75818120  0.49945292  0.39334826  1
  O2-  O131  1  0.75660532  0.50147665  0.72662871  1
  O2-  O132  1  0.00266994  0.24547494  0.27152288  1
  O2-  O133  1  -0.00049053  0.24812058  0.60198709  1
  O2-  O134  1  0.00220907  0.26118804  0.94125425  1
  O2-  O135  1  0.00526074  0.74688863  0.27339641  1
  O2-  O136  1  -0.00672848  0.74999139  0.60550993  1
  O2-  O137  1  -0.00335092  0.74747300  0.93488468  1
  O2-  O138  1  0.49984267  0.25045451  0.27577859  1
  O2-  O139  1  0.50707392  0.25030799  0.60352439  1
  O2-  O140  1  0.49857587  0.25441583  0.94024946  1
  O2-  O141  1  0.49392905  0.75390944  0.27036077  1
  O2-  O142  1  0.50822290  0.75004712  0.60645665  1
  O2-  O143  1  0.49796854  0.74872592  0.94472512  1
  O2-  O144  1  0.07212155  0.18090183  0.10101551  1
  O2-  O145  1  0.07483348  0.17998374  0.42109613  1
  O2-  O146  1  0.07389362  0.17868289  0.76383754  1
  O2-  O147  1  0.07350141  0.68585020  0.09940773  1
  O2-  O148  1  0.07348387  0.67829629  0.42144430  1
  O2-  O149  1  0.07250314  0.67972663  0.76480110  1
  O2-  O150  1  0.56821465  0.17613320  0.10000619  1
  O2-  O151  1  0.56717628  0.17855185  0.42494492  1
  O2-  O152  1  0.56900119  0.17915130  0.75462427  1
  O2-  O153  1  0.56955485  0.67575310  0.08942611  1
  O2-  O154  1  0.56824869  0.67986116  0.43216193  1
  O2-  O155  1  0.56973284  0.67533617  0.75617040  1
  O2-  O156  1  0.17855728  0.42622448  0.24582551  1
  O2-  O157  1  0.18095531  0.43188677  0.56495947  1
  O2-  O158  1  0.17928969  0.42397471  0.90190973  1
  O2-  O159  1  0.17747738  0.92993444  0.24499144  1
  O2-  O160  1  0.18296923  0.92779252  0.57638375  1
  O2-  O161  1  0.18311945  0.92818880  0.90859966  1
  O2-  O162  1  0.67912642  0.42771215  0.23447243  1
  O2-  O163  1  0.67796282  0.43279103  0.56708399  1
  O2-  O164  1  0.67973930  0.43079298  0.90154165  1
  O2-  O165  1  0.68041558  0.93052587  0.23212767  1
  O2-  O166  1  0.67936455  0.92656186  0.56990216  1
  O2-  O167  1  0.67098786  0.93045822  0.91189955  1
  O2-  O168  1  0.43053029  0.32052462  0.09091171  1
  O2-  O169  1  0.42855595  0.32089779  0.42237579  1
  O2-  O170  1  0.43051873  0.31949463  0.76653457  1
  O2-  O171  1  0.43067418  0.82654635  0.09206860  1
  O2-  O172  1  0.43062083  0.82446376  0.42141404  1
  O2-  O173  1  0.42755557  0.81886219  0.76540345  1
  O2-  O174  1  0.92486486  0.31662101  0.09093404  1
  O2-  O175  1  0.92575751  0.31792981  0.43017704  1
  O2-  O176  1  0.92769683  0.31954418  0.76664544  1
  O2-  O177  1  0.92904547  0.82305089  0.09660185  1
  O2-  O178  1  0.93048428  0.81748042  0.43437122  1
  O2-  O179  1  0.93164703  0.82062318  0.75655051  1
  O2-  O180  1  0.32102088  0.07033598  0.23350122  1
  O2-  O181  1  0.32085031  0.07070303  0.57816731  1
  O2-  O182  1  0.32444805  0.06859076  0.90701926  1
  O2-  O183  1  0.31914596  0.56863447  0.23714276  1
  O2-  O184  1  0.32018254  0.57269234  0.57588565  1
  O2-  O185  1  0.32061136  0.57321589  0.90054368  1
  O2-  O186  1  0.82287187  0.07185232  0.24451218  1
  O2-  O187  1  0.82029381  0.06719132  0.56831469  1
  O2-  O188  1  0.82210029  0.06961721  0.90374640  1
  O2-  O189  1  0.81844843  0.57217397  0.24170343  1
  O2-  O190  1  0.82189582  0.57649796  0.57745010  1
  O2-  O191  1  0.81840124  0.57575499  0.91115222  1
  O2-  O192  1  0.05277573  0.08425662  0.27094087  1
  O2-  O193  1  0.04806041  0.07689696  0.59746377  1
  O2-  O194  1  0.04141567  0.08625927  0.93407638  1
  O2-  O195  1  0.05213275  0.58400164  0.26934301  1
  O2-  O196  1  0.04227484  0.58290141  0.59486658  1
  O2-  O197  1  0.04502405  0.57843730  0.93528866  1
  O2-  O198  1  0.53777978  0.08697120  0.27253948  1
  O2-  O199  1  0.54179417  0.08626448  0.60326038  1
  O2-  O200  1  0.53888822  0.08391597  0.92930715  1
  O2-  O201  1  0.53440256  0.58248011  0.26544557  1
  O2-  O202  1  0.54427914  0.58628611  0.60214665  1
  O2-  O203  1  0.53898999  0.58510143  0.93674820  1
  O2-  O204  1  0.16718452  0.20759880  0.27002132  1
  O2-  O205  1  0.17099126  0.20561714  0.59723791  1
  O2-  O206  1  0.17173493  0.20633633  0.93474694  1
  O2-  O207  1  0.16868003  0.70589951  0.27174529  1
  O2-  O208  1  0.16473914  0.71366425  0.59512352  1
  O2-  O209  1  0.16937339  0.71181293  0.93309535  1
  O2-  O210  1  0.66137348  0.20317377  0.27277573  1
  O2-  O211  1  0.66702164  0.19943525  0.60509265  1
  O2-  O212  1  0.66862157  0.20932161  0.93385276  1
  O2-  O213  1  0.66410492  0.70814876  0.26246362  1
  O2-  O214  1  0.66873365  0.69942775  0.60608392  1
  O2-  O215  1  0.65942920  0.70211482  0.93381122  1
  O2-  O216  1  0.07450613  0.44974035  0.06719265  1
  O2-  O217  1  0.07984190  0.45127081  0.39326488  1
  O2-  O218  1  0.08187004  0.45797357  0.73067044  1
  O2-  O219  1  0.08874334  0.95907347  0.06132793  1
  O2-  O220  1  0.08432180  0.95600960  0.39869188  1
  O2-  O221  1  0.08834595  0.95111192  0.72888305  1
  O2-  O222  1  0.58422489  0.45988178  0.06900842  1
  O2-  O223  1  0.58396143  0.46141529  0.40030941  1
  O2-  O224  1  0.58340952  0.46357187  0.73579067  1
  O2-  O225  1  0.58354186  0.95799500  0.06460134  1
  O2-  O226  1  0.58628650  0.95933636  0.40065584  1
  O2-  O227  1  0.57786018  0.95622731  0.73479055  1
  O2-  O228  1  0.20936825  0.33061804  0.07189630  1
  O2-  O229  1  0.20543594  0.33633136  0.39781686  1
  O2-  O230  1  0.21377239  0.33322662  0.73069723  1
  O2-  O231  1  0.20962253  0.84131924  0.06494020  1
  O2-  O232  1  0.20075384  0.83544147  0.39745746  1
  O2-  O233  1  0.21459843  0.83760635  0.72841207  1
  O2-  O234  1  0.71089828  0.33307662  0.06921374  1
  O2-  O235  1  0.70727229  0.32993290  0.40114185  1
  O2-  O236  1  0.70566557  0.33195517  0.73377279  1
  O2-  O237  1  0.69506460  0.83023212  0.05817529  1
  O2-  O238  1  0.71002349  0.82935260  0.39783792  1
  O2-  O239  1  0.69871131  0.82616713  0.73660158  1
  O2-  O240  1  0.45662670  0.41299842  0.27037716  1
  O2-  O241  1  0.45966818  0.41973508  0.59942283  1
  O2-  O242  1  0.45558948  0.41624199  0.93957246  1
  O2-  O243  1  0.45517701  0.91843513  0.27131017  1
  O2-  O244  1  0.45764870  0.91989776  0.59815057  1
  O2-  O245  1  0.45839524  0.91151647  0.93563224  1
  O2-  O246  1  0.95400948  0.41657996  0.26179554  1
  O2-  O247  1  0.95358253  0.41796357  0.59796709  1
  O2-  O248  1  0.93933634  0.41951874  0.94398396  1
  O2-  O249  1  0.96016388  0.91770937  0.26728208  1
  O2-  O250  1  0.95629084  0.91240063  0.60371354  1
  O2-  O251  1  0.96130944  0.91942082  0.93069382  1
  O2-  O252  1  0.33652253  0.29257317  0.27043832  1
  O2-  O253  1  0.33720722  0.28840936  0.59578308  1
  O2-  O254  1  0.33656587  0.29561384  0.93946127  1
  O2-  O255  1  0.33212900  0.80239335  0.27290299  1
  O2-  O256  1  0.33655461  0.79188874  0.59239426  1
  O2-  O257  1  0.33688663  0.79635246  0.94008989  1
  O2-  O258  1  0.83023114  0.28641941  0.26356201  1
  O2-  O259  1  0.82874869  0.28866138  0.60037445  1
  O2-  O260  1  0.83548565  0.28770462  0.93937807  1
  O2-  O261  1  0.83474490  0.78897406  0.26375515  1
  O2-  O262  1  0.83178987  0.79665793  0.60940787  1
  O2-  O263  1  0.82674046  0.80019847  0.93026369  1
  O2-  O264  1  0.41383801  0.03902752  0.06048389  1
  O2-  O265  1  0.41538631  0.04089746  0.40547550  1
  O2-  O266  1  0.41177924  0.04267143  0.73075005  1
  O2-  O267  1  0.41566899  0.54115129  0.06961967  1
  O2-  O268  1  0.41418039  0.53726790  0.40499939  1
  O2-  O269  1  0.41515367  0.55059499  0.72663482  1
  O2-  O270  1  0.91896246  0.03941873  0.07104275  1
  O2-  O271  1  0.92003057  0.05126471  0.39348822  1
  O2-  O272  1  0.92254543  0.04090949  0.73364874  1
  O2-  O273  1  0.91508515  0.55628153  0.06319542  1
  O2-  O274  1  0.91888339  0.55026219  0.38955070  1
  O2-  O275  1  0.91833461  0.54785997  0.72737273  1
  O2-  O276  1  0.29945592  0.16308091  0.06056208  1
  O2-  O277  1  0.29092824  0.16825408  0.40224900  1
  O2-  O278  1  0.29459015  0.16423448  0.73024493  1
  O2-  O279  1  0.29398800  0.67181656  0.06976216  1
  O2-  O280  1  0.29535330  0.67065913  0.40250174  1
  O2-  O281  1  0.29527327  0.66938821  0.72399988  1
  O2-  O282  1  0.78691294  0.16220918  0.07279749  1
  O2-  O283  1  0.79230831  0.16255177  0.39703529  1
  O2-  O284  1  0.79265762  0.16577010  0.73756500  1
  O2-  O285  1  0.79113089  0.66981463  0.06074461  1
  O2-  O286  1  0.79325519  0.66306258  0.39469263  1
  O2-  O287  1  0.79735164  0.66362839  0.73350291  1
