# generated using pymatgen
data_Ca2Al2SiO7
_symmetry_space_group_name_H-M   'P 1'
_cell_length_a   15.46907432
_cell_length_b   15.47314756
_cell_length_c   15.29468833
_cell_angle_alpha   90.00010057
_cell_angle_beta   90.00653154
_cell_angle_gamma   90.01763273
_symmetry_Int_Tables_number   1
_chemical_formula_structural   Ca2Al2SiO7
_chemical_formula_sum   'Ca48 Al48 Si24 O168'
_cell_volume   3660.86405283
_cell_formula_units_Z   24
loop_
 _symmetry_equiv_pos_site_id
 _symmetry_equiv_pos_as_xyz
  1  'x, y, z'
loop_
 _atom_type_symbol
 _atom_type_oxidation_number
  Ca2+  2.0
  Al0+  0.0
  Si0+  0.0
  O2-  -2.0
loop_
 _atom_site_type_symbol
 _atom_site_label
 _atom_site_symmetry_multiplicity
 _atom_site_fract_x
 _atom_site_fract_y
 _atom_site_fract_z
 _atom_site_occupancy
  Ca2+  Ca0  1  0.16825890  0.07892819  0.16693758  1
  Ca2+  Ca1  1  0.17013360  0.07464106  0.51119357  1
  Ca2+  Ca2  1  0.17012234  0.08342381  0.84273993  1
  Ca2+  Ca3  1  0.17343215  0.56665051  0.17229444  1
  Ca2+  Ca4  1  0.16884475  0.57835604  0.50109997  1
  Ca2+  Ca5  1  0.16120370  0.57620295  0.83716553  1
  Ca2+  Ca6  1  0.67620491  0.09039905  0.16801847  1
  Ca2+  Ca7  1  0.67392874  0.08182010  0.51044337  1
  Ca2+  Ca8  1  0.67556322  0.09589406  0.83462569  1
  Ca2+  Ca9  1  0.66784799  0.58172033  0.16944968  1
  Ca2+  Ca10  1  0.66814260  0.57336227  0.50741097  1
  Ca2+  Ca11  1  0.66800648  0.57400016  0.83361846  1
  Ca2+  Ca12  1  0.08188041  0.32832249  0.15634950  1
  Ca2+  Ca13  1  0.08197545  0.32536700  0.49972760  1
  Ca2+  Ca14  1  0.07821247  0.32098029  0.83114620  1
  Ca2+  Ca15  1  0.09163221  0.83563067  0.16249079  1
  Ca2+  Ca16  1  0.09353557  0.83165125  0.49758800  1
  Ca2+  Ca17  1  0.09487838  0.82891144  0.82518768  1
  Ca2+  Ca18  1  0.56910336  0.32847739  0.15957806  1
  Ca2+  Ca19  1  0.58090969  0.32677519  0.49943888  1
  Ca2+  Ca20  1  0.57983242  0.32084343  0.83092931  1
  Ca2+  Ca21  1  0.57849037  0.83491239  0.15908274  1
  Ca2+  Ca22  1  0.58769360  0.83870075  0.49553744  1
  Ca2+  Ca23  1  0.57679092  0.84239557  0.82925556  1
  Ca2+  Ca24  1  0.32503653  0.40868080  0.17225150  1
  Ca2+  Ca25  1  0.33466416  0.41727977  0.49742458  1
  Ca2+  Ca26  1  0.32724621  0.41568579  0.84322923  1
  Ca2+  Ca27  1  0.32799055  0.92028766  0.16338811  1
  Ca2+  Ca28  1  0.32586604  0.92350874  0.50666931  1
  Ca2+  Ca29  1  0.32660132  0.92953307  0.83637891  1
  Ca2+  Ca30  1  0.83426741  0.41333842  0.16731117  1
  Ca2+  Ca31  1  0.82851704  0.41269116  0.51200311  1
  Ca2+  Ca32  1  0.83222566  0.40222957  0.83387825  1
  Ca2+  Ca33  1  0.82869579  0.93360823  0.17380784  1
  Ca2+  Ca34  1  0.82268261  0.92875417  0.50398377  1
  Ca2+  Ca35  1  0.83228970  0.93334828  0.83535884  1
  Ca2+  Ca36  1  0.41935990  0.17266844  0.15547707  1
  Ca2+  Ca37  1  0.42186556  0.16382174  0.49855256  1
  Ca2+  Ca38  1  0.42269964  0.15815574  0.82994827  1
  Ca2+  Ca39  1  0.41071116  0.67223170  0.16317058  1
  Ca2+  Ca40  1  0.41635041  0.66718836  0.49332556  1
  Ca2+  Ca41  1  0.41129606  0.67804002  0.83103871  1
  Ca2+  Ca42  1  0.92095196  0.16705052  0.15765523  1
  Ca2+  Ca43  1  0.91623033  0.16118624  0.50370206  1
  Ca2+  Ca44  1  0.92507149  0.16563467  0.82860931  1
  Ca2+  Ca45  1  0.91882963  0.67369144  0.16061161  1
  Ca2+  Ca46  1  0.92405206  0.66941640  0.49995731  1
  Ca2+  Ca47  1  0.92430550  0.67387952  0.82464315  1
  Al0+  Al48  1  -0.00285106  -0.00119218  0.00512714  1
  Al0+  Al49  1  -0.00101360  -0.00119641  0.34070170  1
  Al0+  Al50  1  -0.00291706  -0.00371392  0.66829070  1
  Al0+  Al51  1  -0.00047921  0.50240611  0.00162722  1
  Al0+  Al52  1  0.00187840  0.50037456  0.33563724  1
  Al0+  Al53  1  0.00066126  0.50320689  0.65753105  1
  Al0+  Al54  1  0.49928569  -0.00228394  -0.00481404  1
  Al0+  Al55  1  0.50059269  -0.00207863  0.33142264  1
  Al0+  Al56  1  0.49700403  -0.00022017  0.66512766  1
  Al0+  Al57  1  0.50202970  0.50151396  -0.00265577  1
  Al0+  Al58  1  0.50089059  0.50061724  0.33092432  1
  Al0+  Al59  1  0.50075897  0.50241461  0.67180957  1
  Al0+  Al60  1  0.24849227  0.25040155  0.00215384  1
  Al0+  Al61  1  0.24881667  0.24936826  0.33459310  1
  Al0+  Al62  1  0.24947947  0.25313942  0.66550867  1
  Al0+  Al63  1  0.25147573  0.74878642  -0.00182052  1
  Al0+  Al64  1  0.25187745  0.74755206  0.33708141  1
  Al0+  Al65  1  0.25194459  0.74935398  0.66257596  1
  Al0+  Al66  1  0.74688784  0.25254144  0.00246596  1
  Al0+  Al67  1  0.75154403  0.25133695  0.33624476  1
  Al0+  Al68  1  0.74647139  0.25072094  0.66678464  1
  Al0+  Al69  1  0.75135254  0.74850269  -0.00137551  1
  Al0+  Al70  1  0.75180567  0.74976014  0.33413138  1
  Al0+  Al71  1  0.74943743  0.74770617  0.66906517  1
  Al0+  Al72  1  0.17869380  0.42938274  0.01140887  1
  Al0+  Al73  1  0.17862303  0.92736880  0.01431550  1
  Al0+  Al74  1  0.06948288  0.17623451  0.98812502  1
  Al0+  Al75  1  0.42608060  0.32252073  0.98529875  1
  Al0+  Al76  1  0.31886538  0.07463960  0.68041568  1
  Al0+  Al77  1  0.67687290  0.92715029  0.68248207  1
  Al0+  Al78  1  0.17745027  0.42576247  0.35151105  1
  Al0+  Al79  1  0.18096417  0.92948727  0.34707342  1
  Al0+  Al80  1  0.81992850  0.07388383  0.35038782  1
  Al0+  Al81  1  0.81925424  0.07169356  0.68444992  1
  Al0+  Al82  1  0.07228451  0.68172210  0.65030494  1
  Al0+  Al83  1  0.32269721  0.07198428  0.01569072  1
  Al0+  Al84  1  0.67881011  0.42931973  0.68168241  1
  Al0+  Al85  1  0.17894834  0.92806188  0.68022188  1
  Al0+  Al86  1  0.67795511  0.92804335  0.34541031  1
  Al0+  Al87  1  0.92873925  0.32388138  0.98782682  1
  Al0+  Al88  1  0.81873601  0.07326227  0.01459178  1
  Al0+  Al89  1  0.32198442  0.56871429  0.34789146  1
  Al0+  Al90  1  0.07263785  0.17570732  0.65135372  1
  Al0+  Al91  1  0.92937933  0.31906939  0.65147127  1
  Al0+  Al92  1  0.42995940  0.31994583  0.32058466  1
  Al0+  Al93  1  0.56714677  0.17929637  0.65172105  1
  Al0+  Al94  1  0.56939858  0.17854602  0.98572000  1
  Al0+  Al95  1  0.42896025  0.81904845  0.98471182  1
  Si0+  Si96  1  0.07303520  0.67864242  0.31541432  1
  Si0+  Si97  1  0.42816564  0.82051107  0.31767699  1
  Si0+  Si98  1  0.57262677  0.67928181  0.31838517  1
  Si0+  Si99  1  0.68075129  0.43165995  0.34689651  1
  Si0+  Si100  1  0.82084109  0.57277509  0.01579985  1
  Si0+  Si101  1  0.32366024  0.57142640  0.01479440  1
  Si0+  Si102  1  0.17720943  0.43143569  0.68139321  1
  Si0+  Si103  1  0.93042985  0.81930957  0.31775364  1
  Si0+  Si104  1  0.57578179  0.67822048  0.98071051  1
  Si0+  Si105  1  0.82282712  0.57241816  0.34828514  1
  Si0+  Si106  1  0.92715029  0.82096857  0.98573468  1
  Si0+  Si107  1  0.57134455  0.67740156  0.65084733  1
  Si0+  Si108  1  0.82391244  0.57061895  0.68349310  1
  Si0+  Si109  1  0.42717972  0.32732594  0.65064819  1
  Si0+  Si110  1  0.92877126  0.32303290  0.31909467  1
  Si0+  Si111  1  0.06989892  0.68122665  0.98689146  1
  Si0+  Si112  1  0.32139307  0.57085329  0.68246904  1
  Si0+  Si113  1  0.43109370  0.81907674  0.64812401  1
  Si0+  Si114  1  0.57336125  0.17705139  0.31730289  1
  Si0+  Si115  1  0.32344112  0.07286283  0.34845364  1
  Si0+  Si116  1  0.67905357  0.92526228  0.01525590  1
  Si0+  Si117  1  0.67815820  0.43060897  0.01776236  1
  Si0+  Si118  1  0.92408860  0.82095322  0.64813667  1
  Si0+  Si119  1  0.06895758  0.17706999  0.31989987  1
  O2-  O120  1  0.24780837  0.00170598  0.06482866  1
  O2-  O121  1  0.25481954  0.00445538  0.39262917  1
  O2-  O122  1  0.23984223  0.00932319  0.72956984  1
  O2-  O123  1  0.26063209  0.49748654  0.05767649  1
  O2-  O124  1  0.25158381  0.49688361  0.40002086  1
  O2-  O125  1  0.25190297  0.49886791  0.72393991  1
  O2-  O126  1  0.74284097  -0.00205091  0.05966880  1
  O2-  O127  1  0.74231613  0.00556003  0.39620557  1
  O2-  O128  1  0.74607510  0.00004150  0.73409069  1
  O2-  O129  1  0.75108370  0.50105766  0.05890138  1
  O2-  O130  1  0.75549533  0.49836812  0.39016835  1
  O2-  O131  1  0.75942523  0.49868094  0.72813854  1
  O2-  O132  1  -0.00069817  0.25104406  0.27870198  1
  O2-  O133  1  -0.00089130  0.24618886  0.59951282  1
  O2-  O134  1  -0.00254062  0.24901653  0.93905407  1
  O2-  O135  1  0.00348979  0.75097372  0.27287558  1
  O2-  O136  1  -0.00046426  0.75871214  0.60391147  1
  O2-  O137  1  0.00438631  0.75658456  0.94396078  1
  O2-  O138  1  0.50120482  0.24206177  0.27371477  1
  O2-  O139  1  0.49078084  0.25372976  0.60659924  1
  O2-  O140  1  0.49288815  0.24617817  0.93547364  1
  O2-  O141  1  0.50374725  0.75244483  0.27692370  1
  O2-  O142  1  0.50640879  0.75200888  0.60609684  1
  O2-  O143  1  0.50650186  0.74628880  0.93762756  1
  O2-  O144  1  0.06741705  0.17644426  0.10254710  1
  O2-  O145  1  0.06834074  0.17695651  0.42461709  1
  O2-  O146  1  0.07438352  0.17906388  0.76447031  1
  O2-  O147  1  0.06693257  0.68021113  0.09213256  1
  O2-  O148  1  0.07140578  0.67856539  0.42024449  1
  O2-  O149  1  0.07083663  0.68022773  0.76398536  1
  O2-  O150  1  0.57199441  0.18339487  0.09996147  1
  O2-  O151  1  0.57375362  0.17887031  0.42279616  1
  O2-  O152  1  0.56802736  0.18096549  0.76415363  1
  O2-  O153  1  0.57892730  0.67868592  0.08673837  1
  O2-  O154  1  0.57331562  0.67707150  0.42326893  1
  O2-  O155  1  0.56800365  0.67444274  0.75552002  1
  O2-  O156  1  0.17477008  0.42844987  0.23791904  1
  O2-  O157  1  0.17771009  0.43336540  0.57644631  1
  O2-  O158  1  0.17493449  0.43621843  0.89834384  1
  O2-  O159  1  0.18219449  0.92912068  0.23426164  1
  O2-  O160  1  0.18669974  0.92511000  0.56653284  1
  O2-  O161  1  0.18135688  0.92303262  0.90159107  1
  O2-  O162  1  0.68183255  0.43460160  0.24180191  1
  O2-  O163  1  0.67750497  0.43400110  0.56777789  1
  O2-  O164  1  0.67700095  0.43253799  0.91309857  1
  O2-  O165  1  0.68150071  0.92354018  0.23199516  1
  O2-  O166  1  0.67995557  0.92714491  0.56870945  1
  O2-  O167  1  0.68453002  0.91918262  0.91054027  1
  O2-  O168  1  0.43089904  0.32468433  0.09927509  1
  O2-  O169  1  0.43544928  0.32204739  0.43360304  1
  O2-  O170  1  0.43010312  0.33291893  0.75553675  1
  O2-  O171  1  0.42942653  0.81521502  0.09848566  1
  O2-  O172  1  0.42748310  0.81831944  0.42255346  1
  O2-  O173  1  0.42924782  0.81465694  0.75294851  1
  O2-  O174  1  0.93146011  0.32520395  0.10222799  1
  O2-  O175  1  0.92678502  0.32581003  0.42349795  1
  O2-  O176  1  0.93355335  0.32110102  0.76459870  1
  O2-  O177  1  0.92276647  0.81566022  0.09099344  1
  O2-  O178  1  0.92915405  0.81431065  0.42218886  1
  O2-  O179  1  0.92017119  0.81513093  0.75371815  1
  O2-  O180  1  0.32392481  0.07225781  0.24317400  1
  O2-  O181  1  0.32190039  0.06899592  0.56613391  1
  O2-  O182  1  0.32267870  0.06917925  0.90266308  1
  O2-  O183  1  0.31958399  0.57081206  0.23446774  1
  O2-  O184  1  0.32353871  0.57072008  0.57758752  1
  O2-  O185  1  0.32066758  0.57407325  0.90901487  1
  O2-  O186  1  0.82071759  0.07386392  0.23649194  1
  O2-  O187  1  0.81665125  0.07062253  0.57087232  1
  O2-  O188  1  0.82021910  0.07250323  0.90243911  1
  O2-  O189  1  0.82128085  0.57438676  0.24293307  1
  O2-  O190  1  0.82067389  0.57183639  0.57741809  1
  O2-  O191  1  0.81997278  0.57716663  0.91144700  1
  O2-  O192  1  0.03865609  0.08531333  0.27360205  1
  O2-  O193  1  0.04542031  0.07507137  0.60123007  1
  O2-  O194  1  0.04091467  0.07728800  0.93663513  1
  O2-  O195  1  0.04229408  0.58702071  0.26874291  1
  O2-  O196  1  0.03829609  0.58842907  0.59157195  1
  O2-  O197  1  0.03581783  0.59252038  0.93777959  1
  O2-  O198  1  0.55316668  0.08158670  0.27244599  1
  O2-  O199  1  0.53662464  0.08274856  0.59629525  1
  O2-  O200  1  0.55025184  0.07816496  0.93422294  1
  O2-  O201  1  0.54337570  0.58944460  0.26749455  1
  O2-  O202  1  0.53826271  0.58779781  0.60138547  1
  O2-  O203  1  0.55107217  0.58463859  0.93509043  1
  O2-  O204  1  0.16179533  0.20252679  0.27345669  1
  O2-  O205  1  0.17043460  0.20796440  0.59726521  1
  O2-  O206  1  0.16769273  0.20471014  0.93681422  1
  O2-  O207  1  0.16571944  0.70552362  0.26969813  1
  O2-  O208  1  0.16929780  0.70981032  0.59501503  1
  O2-  O209  1  0.16281483  0.70270001  0.93925837  1
  O2-  O210  1  0.66622185  0.20848924  0.27230374  1
  O2-  O211  1  0.66203794  0.21415089  0.59700363  1
  O2-  O212  1  0.66502839  0.21616434  0.93346055  1
  O2-  O213  1  0.66566891  0.70408942  0.27057280  1
  O2-  O214  1  0.66578817  0.69778050  0.60488187  1
  O2-  O215  1  0.66936315  0.70239005  0.93391304  1
  O2-  O216  1  0.08532620  0.46888144  0.06777930  1
  O2-  O217  1  0.08039973  0.45946931  0.40442318  1
  O2-  O218  1  0.08709410  0.46720586  0.72608093  1
  O2-  O219  1  0.07837543  0.94901165  0.06710431  1
  O2-  O220  1  0.08393040  0.95562970  0.40137765  1
  O2-  O221  1  0.07473155  0.93684621  0.72534068  1
  O2-  O222  1  0.58786247  0.46322544  0.06645241  1
  O2-  O223  1  0.59148127  0.46508148  0.39448060  1
  O2-  O224  1  0.58629810  0.46897870  0.73744977  1
  O2-  O225  1  0.58281597  0.94478845  0.05694945  1
  O2-  O226  1  0.57618058  0.94599297  0.39548424  1
  O2-  O227  1  0.57611798  0.95151995  0.72996880  1
  O2-  O228  1  0.20252166  0.33293136  0.06794903  1
  O2-  O229  1  0.20436556  0.32729865  0.40391726  1
  O2-  O230  1  0.20086592  0.33895516  0.72793439  1
  O2-  O231  1  0.21136475  0.82881851  0.06722480  1
  O2-  O232  1  0.21205858  0.83246179  0.39937224  1
  O2-  O233  1  0.21740175  0.83135690  0.73131435  1
  O2-  O234  1  0.70462810  0.34081045  0.06876508  1
  O2-  O235  1  0.70473439  0.33938773  0.39426361  1
  O2-  O236  1  0.70521682  0.33316627  0.73614386  1
  O2-  O237  1  0.70813442  0.83228438  0.06267683  1
  O2-  O238  1  0.71099934  0.83070514  0.39937555  1
  O2-  O239  1  0.70199558  0.82639770  0.73290499  1
  O2-  O240  1  0.46442649  0.41569771  0.26588258  1
  O2-  O241  1  0.46013744  0.41926078  0.60384505  1
  O2-  O242  1  0.45800097  0.42100888  0.93336888  1
  O2-  O243  1  0.45177001  0.91283584  0.26890494  1
  O2-  O244  1  0.45441062  0.91109494  0.59990770  1
  O2-  O245  1  0.45739627  0.91428775  0.92840550  1
  O2-  O246  1  0.95500425  0.41615895  0.27209633  1
  O2-  O247  1  0.95618705  0.41858260  0.59802156  1
  O2-  O248  1  0.95525552  0.42325841  0.93547011  1
  O2-  O249  1  0.95647975  0.91260501  0.27273290  1
  O2-  O250  1  0.94122273  0.91620589  0.60399452  1
  O2-  O251  1  0.94765466  0.91450236  0.94117426  1
  O2-  O252  1  0.33077974  0.29339591  0.26934634  1
  O2-  O253  1  0.33164449  0.30931541  0.60597557  1
  O2-  O254  1  0.32490427  0.30349291  0.93647339  1
  O2-  O255  1  0.33865485  0.78611073  0.26951042  1
  O2-  O256  1  0.34255034  0.78424377  0.59877633  1
  O2-  O257  1  0.33495150  0.78235010  0.92881046  1
  O2-  O258  1  0.83569238  0.29763756  0.27159606  1
  O2-  O259  1  0.82871929  0.29506655  0.60078448  1
  O2-  O260  1  0.82759026  0.30081065  0.94050848  1
  O2-  O261  1  0.84035708  0.78660363  0.26870849  1
  O2-  O262  1  0.83390319  0.78520546  0.59996839  1
  O2-  O263  1  0.83970648  0.78460469  0.93559656  1
  O2-  O264  1  0.42099602  0.03887941  0.06776742  1
  O2-  O265  1  0.41740718  0.04602319  0.39324459  1
  O2-  O266  1  0.41408502  0.03671857  0.73260067  1
  O2-  O267  1  0.42055126  0.55513868  0.05797988  1
  O2-  O268  1  0.42207750  0.54318778  0.40010733  1
  O2-  O269  1  0.41311490  0.54745302  0.73172301  1
  O2-  O270  1  0.91295083  0.03909232  0.07149710  1
  O2-  O271  1  0.91497436  0.03829634  0.40441322  1
  O2-  O272  1  0.91753947  0.04098701  0.73631592  1
  O2-  O273  1  0.91203979  0.54721014  0.06569205  1
  O2-  O274  1  0.91559510  0.54897939  0.39474585  1
  O2-  O275  1  0.91987834  0.55074890  0.72614017  1
  O2-  O276  1  0.29704191  0.17096062  0.06845454  1
  O2-  O277  1  0.29940347  0.16583746  0.39508747  1
  O2-  O278  1  0.30282218  0.17716490  0.72923519  1
  O2-  O279  1  0.29157781  0.66189429  0.06295991  1
  O2-  O280  1  0.29289940  0.66571532  0.40309162  1
  O2-  O281  1  0.29044793  0.66186297  0.72888008  1
  O2-  O282  1  0.78687962  0.16937183  0.06997979  1
  O2-  O283  1  0.79648378  0.17360452  0.40279327  1
  O2-  O284  1  0.78964113  0.17031171  0.73467666  1
  O2-  O285  1  0.79041035  0.66291546  0.06684337  1
  O2-  O286  1  0.79187331  0.66180841  0.39760897  1
  O2-  O287  1  0.79387470  0.66166315  0.73171696  1
