# generated using pymatgen
data_Ca2Al2SiO7
_symmetry_space_group_name_H-M   'P 1'
_cell_length_a   15.46325197
_cell_length_b   15.46369796
_cell_length_c   15.28836253
_cell_angle_alpha   89.99690760
_cell_angle_beta   90.00688820
_cell_angle_gamma   89.97404585
_symmetry_Int_Tables_number   1
_chemical_formula_structural   Ca2Al2SiO7
_chemical_formula_sum   'Ca48 Al48 Si24 O168'
_cell_volume   3655.73843997
_cell_formula_units_Z   24
loop_
 _symmetry_equiv_pos_site_id
 _symmetry_equiv_pos_as_xyz
  1  'x, y, z'
loop_
 _atom_type_symbol
 _atom_type_oxidation_number
  Ca2+  2.0
  Al0+  0.0
  Si0+  0.0
  O2-  -2.0
loop_
 _atom_site_type_symbol
 _atom_site_label
 _atom_site_symmetry_multiplicity
 _atom_site_fract_x
 _atom_site_fract_y
 _atom_site_fract_z
 _atom_site_occupancy
  Ca2+  Ca0  1  0.17329234  0.08393965  0.16860766  1
  Ca2+  Ca1  1  0.16866018  0.08234932  0.50516812  1
  Ca2+  Ca2  1  0.16573883  0.07468343  0.84105789  1
  Ca2+  Ca3  1  0.16217027  0.57997970  0.17199406  1
  Ca2+  Ca4  1  0.16274961  0.57359604  0.50420680  1
  Ca2+  Ca5  1  0.16520115  0.58236989  0.84010919  1
  Ca2+  Ca6  1  0.67003239  0.07938792  0.17074412  1
  Ca2+  Ca7  1  0.67106479  0.07823371  0.51386336  1
  Ca2+  Ca8  1  0.66924216  0.08243137  0.83134572  1
  Ca2+  Ca9  1  0.66552716  0.58707684  0.16497219  1
  Ca2+  Ca10  1  0.66966888  0.58724306  0.50864368  1
  Ca2+  Ca11  1  0.67241263  0.58519771  0.84122702  1
  Ca2+  Ca12  1  0.08577947  0.32581840  0.16636986  1
  Ca2+  Ca13  1  0.07384355  0.32453756  0.49322113  1
  Ca2+  Ca14  1  0.07961624  0.31792002  0.82554473  1
  Ca2+  Ca15  1  0.07886269  0.83081550  0.15294495  1
  Ca2+  Ca16  1  0.08422294  0.83645159  0.50174491  1
  Ca2+  Ca17  1  0.08369538  0.83509907  0.83403159  1
  Ca2+  Ca18  1  0.58321214  0.33390471  0.16056354  1
  Ca2+  Ca19  1  0.58574575  0.32488597  0.50131906  1
  Ca2+  Ca20  1  0.58641479  0.33039530  0.83000312  1
  Ca2+  Ca21  1  0.57286212  0.82412021  0.16042646  1
  Ca2+  Ca22  1  0.57959213  0.82991115  0.49641378  1
  Ca2+  Ca23  1  0.57369553  0.83164878  0.82467909  1
  Ca2+  Ca24  1  0.32513652  0.42068152  0.17413336  1
  Ca2+  Ca25  1  0.32590323  0.41622759  0.50035214  1
  Ca2+  Ca26  1  0.33347919  0.41935849  0.83910360  1
  Ca2+  Ca27  1  0.33568263  0.92193218  0.16781699  1
  Ca2+  Ca28  1  0.33175876  0.91503289  0.50465493  1
  Ca2+  Ca29  1  0.32623622  0.91479376  0.83989572  1
  Ca2+  Ca30  1  0.83286319  0.42092558  0.16720240  1
  Ca2+  Ca31  1  0.83976442  0.41995977  0.50832767  1
  Ca2+  Ca32  1  0.83239908  0.42589372  0.83859261  1
  Ca2+  Ca33  1  0.83536319  0.91245985  0.16671920  1
  Ca2+  Ca34  1  0.82538393  0.92477833  0.51308958  1
  Ca2+  Ca35  1  0.82950796  0.91712102  0.83459775  1
  Ca2+  Ca36  1  0.41021772  0.16336298  0.16350830  1
  Ca2+  Ca37  1  0.42245461  0.15743163  0.49823225  1
  Ca2+  Ca38  1  0.42028806  0.16347938  0.83069508  1
  Ca2+  Ca39  1  0.42126765  0.67828014  0.15771824  1
  Ca2+  Ca40  1  0.42805082  0.67981105  0.49447997  1
  Ca2+  Ca41  1  0.42718299  0.67622894  0.82713278  1
  Ca2+  Ca42  1  0.93125909  0.17003470  0.16127037  1
  Ca2+  Ca43  1  0.92313952  0.17127076  0.49627603  1
  Ca2+  Ca44  1  0.92500079  0.16815983  0.82252783  1
  Ca2+  Ca45  1  0.92210657  0.67128265  0.15559688  1
  Ca2+  Ca46  1  0.91254440  0.66707341  0.49993274  1
  Ca2+  Ca47  1  0.91392106  0.66643332  0.83586135  1
  Al0+  Al48  1  0.00031095  -0.00008129  -0.00318623  1
  Al0+  Al49  1  0.00092321  0.00133119  0.33042866  1
  Al0+  Al50  1  0.00169791  -0.00114261  0.66909992  1
  Al0+  Al51  1  -0.00188290  0.49950540  0.00165387  1
  Al0+  Al52  1  -0.00210266  0.49949855  0.33508336  1
  Al0+  Al53  1  -0.00012072  0.49888190  0.66974588  1
  Al0+  Al54  1  0.50070812  0.00127278  0.00074886  1
  Al0+  Al55  1  0.50003021  -0.00124222  0.33306052  1
  Al0+  Al56  1  0.49834829  0.00111557  0.66281762  1
  Al0+  Al57  1  0.49911039  0.49873540  0.00135663  1
  Al0+  Al58  1  0.50218110  0.49827296  0.33292064  1
  Al0+  Al59  1  0.49923071  0.50126860  0.66187634  1
  Al0+  Al60  1  0.25081675  0.24975530  -0.00188616  1
  Al0+  Al61  1  0.25096849  0.24939358  0.34066418  1
  Al0+  Al62  1  0.24891302  0.25016453  0.66385538  1
  Al0+  Al63  1  0.24890565  0.74999285  -0.00237386  1
  Al0+  Al64  1  0.25115435  0.75101794  0.33144529  1
  Al0+  Al65  1  0.25038369  0.74893968  0.66544211  1
  Al0+  Al66  1  0.74967907  0.25063653  0.00540462  1
  Al0+  Al67  1  0.75101949  0.25203872  0.32947644  1
  Al0+  Al68  1  0.74910578  0.25179546  0.66280257  1
  Al0+  Al69  1  0.75124817  0.74978587  -0.00064348  1
  Al0+  Al70  1  0.74973596  0.74905563  0.33061807  1
  Al0+  Al71  1  0.75076695  0.74963754  0.67168886  1
  Al0+  Al72  1  0.42940789  0.82376945  0.98304240  1
  Al0+  Al73  1  0.07109794  0.67659560  0.98539756  1
  Al0+  Al74  1  0.67705774  0.92953200  0.68173280  1
  Al0+  Al75  1  0.67804219  0.42867610  0.01631546  1
  Al0+  Al76  1  0.32171616  0.07114603  0.01442060  1
  Al0+  Al77  1  0.82164332  0.57052426  0.68133374  1
  Al0+  Al78  1  0.92967444  0.32161128  0.65313697  1
  Al0+  Al79  1  0.82105402  0.07342016  0.68071225  1
  Al0+  Al80  1  0.17816504  0.92817307  0.01627175  1
  Al0+  Al81  1  0.42706679  0.82150116  0.65019241  1
  Al0+  Al82  1  0.07319568  0.17879408  0.31653260  1
  Al0+  Al83  1  0.18048359  0.92766687  0.68070660  1
  Al0+  Al84  1  0.92849089  0.82230477  0.98324091  1
  Al0+  Al85  1  0.56915214  0.18056190  0.65445236  1
  Al0+  Al86  1  0.07250667  0.18088142  0.98530910  1
  Al0+  Al87  1  0.17853852  0.43104940  0.34810982  1
  Al0+  Al88  1  0.42826107  0.82236130  0.31546091  1
  Al0+  Al89  1  0.56986516  0.67706861  0.98376262  1
  Al0+  Al90  1  0.57283254  0.67769196  0.31640780  1
  Al0+  Al91  1  0.32099219  0.06927747  0.34932495  1
  Al0+  Al92  1  0.82083199  0.57214401  0.01846872  1
  Al0+  Al93  1  0.57373971  0.67968920  0.65131185  1
  Al0+  Al94  1  0.07145739  0.17518466  0.64984143  1
  Al0+  Al95  1  0.92827132  0.32295813  0.31500272  1
  Si0+  Si96  1  0.32036636  0.57042051  0.01407214  1
  Si0+  Si97  1  0.92632678  0.32034642  0.98333435  1
  Si0+  Si98  1  0.57347512  0.17915464  0.98712964  1
  Si0+  Si99  1  0.67909379  0.92978254  0.01564402  1
  Si0+  Si100  1  0.82139391  0.07180992  0.01595415  1
  Si0+  Si101  1  0.81842996  0.57026072  0.34924241  1
  Si0+  Si102  1  0.57121739  0.17891652  0.31789632  1
  Si0+  Si103  1  0.68187641  0.92981498  0.34656196  1
  Si0+  Si104  1  0.42904394  0.32029762  0.98713551  1
  Si0+  Si105  1  0.17930721  0.42830831  0.01345462  1
  Si0+  Si106  1  0.07018643  0.67869416  0.32285575  1
  Si0+  Si107  1  0.32382347  0.57325970  0.35018740  1
  Si0+  Si108  1  0.32144008  0.07390151  0.68324311  1
  Si0+  Si109  1  0.17942756  0.42864163  0.68342265  1
  Si0+  Si110  1  0.17568903  0.92655578  0.34987637  1
  Si0+  Si111  1  0.92946552  0.82122990  0.32183448  1
  Si0+  Si112  1  0.92929839  0.82015955  0.65210901  1
  Si0+  Si113  1  0.42947036  0.32021876  0.31928831  1
  Si0+  Si114  1  0.42594579  0.32433803  0.64874261  1
  Si0+  Si115  1  0.67746731  0.42632941  0.35121398  1
  Si0+  Si116  1  0.67530978  0.42894677  0.68138024  1
  Si0+  Si117  1  0.82199643  0.07227005  0.34651833  1
  Si0+  Si118  1  0.07117961  0.67774774  0.65167023  1
  Si0+  Si119  1  0.32044202  0.56924482  0.68078434  1
  O2-  O120  1  0.25133769  -0.00114950  0.06634676  1
  O2-  O121  1  0.24546672  -0.00569857  0.39354808  1
  O2-  O122  1  0.25306666  0.00507529  0.72626529  1
  O2-  O123  1  0.24512591  0.50376002  0.05671695  1
  O2-  O124  1  0.25220333  0.50755099  0.39542308  1
  O2-  O125  1  0.25249972  0.49674877  0.72627617  1
  O2-  O126  1  0.75232020  -0.00118618  0.05902420  1
  O2-  O127  1  0.75179004  0.00130240  0.38948407  1
  O2-  O128  1  0.74889965  0.00202188  0.73203116  1
  O2-  O129  1  0.74732676  0.50164336  0.06897407  1
  O2-  O130  1  0.74703843  0.49954416  0.39168573  1
  O2-  O131  1  0.74340918  0.49791137  0.72483184  1
  O2-  O132  1  0.00084246  0.25092270  0.26657328  1
  O2-  O133  1  -0.00212767  0.24675764  0.60198715  1
  O2-  O134  1  -0.00470140  0.25289182  0.93894847  1
  O2-  O135  1  0.00506010  0.75470851  0.28120933  1
  O2-  O136  1  0.00006086  0.74862900  0.60913960  1
  O2-  O137  1  0.00072705  0.74944795  0.93455178  1
  O2-  O138  1  0.49987056  0.24936297  0.27546813  1
  O2-  O139  1  0.49342395  0.25379100  0.60586616  1
  O2-  O140  1  0.50154192  0.25023419  0.94666169  1
  O2-  O141  1  0.49666444  0.74568323  0.26796454  1
  O2-  O142  1  0.50436719  0.75414256  0.60159910  1
  O2-  O143  1  0.50170940  0.75197576  0.93369630  1
  O2-  O144  1  0.07411210  0.18445838  0.09836766  1
  O2-  O145  1  0.06960769  0.17754982  0.42966218  1
  O2-  O146  1  0.07295425  0.17857705  0.76351413  1
  O2-  O147  1  0.06972744  0.67541597  0.09992206  1
  O2-  O148  1  0.06742182  0.67697864  0.42823820  1
  O2-  O149  1  0.07253066  0.67611292  0.75602014  1
  O2-  O150  1  0.57467289  0.17949156  0.09260397  1
  O2-  O151  1  0.57201655  0.17999300  0.42280259  1
  O2-  O152  1  0.56829016  0.18316346  0.76782048  1
  O2-  O153  1  0.56497824  0.67788928  0.09747539  1
  O2-  O154  1  0.57603213  0.68144761  0.42973376  1
  O2-  O155  1  0.56998174  0.67644696  0.76418336  1
  O2-  O156  1  0.18116713  0.43338875  0.23453112  1
  O2-  O157  1  0.17923637  0.43120560  0.57824279  1
  O2-  O158  1  0.18383788  0.42729486  0.90824579  1
  O2-  O159  1  0.17228226  0.92533636  0.24505085  1
  O2-  O160  1  0.18138081  0.92596711  0.56708339  1
  O2-  O161  1  0.17894375  0.93012419  0.90275371  1
  O2-  O162  1  0.67628840  0.42359690  0.24667621  1
  O2-  O163  1  0.67453045  0.42959986  0.57542877  1
  O2-  O164  1  0.67936775  0.42451764  0.90299565  1
  O2-  O165  1  0.68425464  0.93139486  0.24118491  1
  O2-  O166  1  0.68086115  0.93058733  0.56710183  1
  O2-  O167  1  0.67734479  0.93380788  0.91108380  1
  O2-  O168  1  0.42698471  0.32073557  0.09234537  1
  O2-  O169  1  0.43179623  0.32142406  0.42424752  1
  O2-  O170  1  0.42534226  0.32671677  0.75449348  1
  O2-  O171  1  0.43185851  0.82322541  0.09678951  1
  O2-  O172  1  0.43041817  0.82267030  0.42879488  1
  O2-  O173  1  0.42539981  0.81789154  0.76329247  1
  O2-  O174  1  0.92700583  0.31819633  0.08902675  1
  O2-  O175  1  0.92812041  0.32291716  0.42830383  1
  O2-  O176  1  0.93399699  0.32327915  0.76662374  1
  O2-  O177  1  0.92990804  0.82135691  0.09821065  1
  O2-  O178  1  0.92665249  0.82011606  0.42702100  1
  O2-  O179  1  0.92927308  0.82002723  0.75640295  1
  O2-  O180  1  0.32150555  0.07016390  0.23665182  1
  O2-  O181  1  0.32059451  0.07422876  0.57747419  1
  O2-  O182  1  0.32175475  0.07450855  0.90129531  1
  O2-  O183  1  0.32239646  0.57029045  0.24439907  1
  O2-  O184  1  0.31687351  0.56672964  0.57563697  1
  O2-  O185  1  0.32211171  0.56498496  0.90887730  1
  O2-  O186  1  0.82042719  0.07020060  0.24112074  1
  O2-  O187  1  0.81916386  0.07017728  0.56618197  1
  O2-  O188  1  0.81788639  0.07540895  0.91142069  1
  O2-  O189  1  0.81943427  0.57139854  0.24486341  1
  O2-  O190  1  0.82331433  0.56949891  0.56735379  1
  O2-  O191  1  0.82194444  0.56791790  0.90514863  1
  O2-  O192  1  0.04342187  0.08053110  0.26300953  1
  O2-  O193  1  0.04513913  0.07605554  0.59780089  1
  O2-  O194  1  0.04232897  0.08426656  0.93367771  1
  O2-  O195  1  0.03802603  0.58943818  0.27401376  1
  O2-  O196  1  0.04198395  0.58624521  0.60418885  1
  O2-  O197  1  0.04316024  0.57726848  0.93281442  1
  O2-  O198  1  0.54470480  0.08703660  0.27063449  1
  O2-  O199  1  0.54006611  0.08532361  0.59668328  1
  O2-  O200  1  0.54617660  0.08852979  0.93879532  1
  O2-  O201  1  0.55018938  0.57584529  0.26834289  1
  O2-  O202  1  0.54227860  0.58200131  0.59686855  1
  O2-  O203  1  0.53900419  0.57833768  0.93280258  1
  O2-  O204  1  0.17253372  0.21077496  0.26804489  1
  O2-  O205  1  0.16951798  0.20701356  0.59785156  1
  O2-  O206  1  0.16731502  0.21542281  0.93023363  1
  O2-  O207  1  0.16438638  0.69805406  0.27695823  1
  O2-  O208  1  0.16189695  0.70491913  0.60200447  1
  O2-  O209  1  0.17023705  0.70018303  0.93238400  1
  O2-  O210  1  0.66246695  0.20698385  0.26945941  1
  O2-  O211  1  0.66398143  0.21168631  0.59657965  1
  O2-  O212  1  0.66449142  0.20842758  0.93947401  1
  O2-  O213  1  0.66969991  0.71078856  0.26229671  1
  O2-  O214  1  0.67384713  0.70573772  0.60040915  1
  O2-  O215  1  0.67106150  0.70054297  0.93746727  1
  O2-  O216  1  0.08625657  0.45059157  0.06025424  1
  O2-  O217  1  0.08250395  0.46362043  0.40293121  1
  O2-  O218  1  0.08998618  0.45973196  0.73217128  1
  O2-  O219  1  0.07865161  0.95720415  0.06751154  1
  O2-  O220  1  0.08177916  0.95306767  0.39672394  1
  O2-  O221  1  0.08313601  0.95428340  0.73430574  1
  O2-  O222  1  0.57776921  0.45358516  0.06918801  1
  O2-  O223  1  0.58446936  0.44984204  0.39890574  1
  O2-  O224  1  0.58021969  0.45183257  0.72643483  1
  O2-  O225  1  0.58972474  0.96185169  0.06562038  1
  O2-  O226  1  0.59028864  0.95773821  0.39310901  1
  O2-  O227  1  0.57822909  0.95963160  0.73223172  1
  O2-  O228  1  0.21436607  0.33987958  0.06251616  1
  O2-  O229  1  0.21256960  0.33688696  0.40418745  1
  O2-  O230  1  0.20658449  0.33607307  0.72963587  1
  O2-  O231  1  0.20251723  0.82726712  0.06699691  1
  O2-  O232  1  0.19966267  0.83170085  0.39575994  1
  O2-  O233  1  0.21079014  0.83011158  0.73346470  1
  O2-  O234  1  0.70664733  0.33050497  0.07226390  1
  O2-  O235  1  0.70689085  0.33426243  0.39827527  1
  O2-  O236  1  0.69980053  0.33511040  0.72658749  1
  O2-  O237  1  0.70611277  0.83803805  0.06318770  1
  O2-  O238  1  0.71160732  0.83828962  0.39333163  1
  O2-  O239  1  0.70697057  0.83261916  0.73518003  1
  O2-  O240  1  0.45638880  0.41175879  0.27054192  1
  O2-  O241  1  0.45225076  0.41616648  0.59949867  1
  O2-  O242  1  0.45564914  0.41117183  0.93762424  1
  O2-  O243  1  0.46256195  0.91916399  0.26282864  1
  O2-  O244  1  0.44979952  0.92151748  0.59902216  1
  O2-  O245  1  0.45880310  0.92271573  0.93198438  1
  O2-  O246  1  0.95798978  0.42182335  0.26370352  1
  O2-  O247  1  0.96395479  0.41862091  0.59914525  1
  O2-  O248  1  0.95072871  0.41485048  0.94037216  1
  O2-  O249  1  0.95166343  0.91383376  0.27364739  1
  O2-  O250  1  0.95808976  0.91094211  0.60326842  1
  O2-  O251  1  0.95432876  0.92064991  0.93009136  1
  O2-  O252  1  0.33732356  0.29310048  0.27319091  1
  O2-  O253  1  0.33219169  0.30036638  0.60255311  1
  O2-  O254  1  0.33937550  0.29255157  0.93570191  1
  O2-  O255  1  0.32788935  0.79749316  0.26413279  1
  O2-  O256  1  0.33136357  0.78517633  0.59536400  1
  O2-  O257  1  0.33051986  0.79466834  0.93367854  1
  O2-  O258  1  0.82949926  0.29523618  0.26208854  1
  O2-  O259  1  0.82975966  0.30060718  0.60037114  1
  O2-  O260  1  0.83232287  0.29375464  0.93933170  1
  O2-  O261  1  0.84025689  0.78963082  0.27189440  1
  O2-  O262  1  0.83810190  0.79188487  0.60378471  1
  O2-  O263  1  0.82984707  0.79537614  0.93138147  1
  O2-  O264  1  0.42190732  0.04712177  0.06785342  1
  O2-  O265  1  0.41926480  0.03900503  0.40199650  1
  O2-  O266  1  0.41605675  0.05081523  0.72734502  1
  O2-  O267  1  0.40876881  0.53684389  0.06434083  1
  O2-  O268  1  0.41621001  0.54249397  0.39602342  1
  O2-  O269  1  0.41272529  0.54182759  0.72749756  1
  O2-  O270  1  0.91325440  0.04429329  0.06288011  1
  O2-  O271  1  0.91400724  0.04478543  0.39327686  1
  O2-  O272  1  0.91886563  0.04359011  0.73249576  1
  O2-  O273  1  0.91940263  0.54119651  0.07204864  1
  O2-  O274  1  0.91015313  0.54329446  0.39767092  1
  O2-  O275  1  0.91740404  0.53783526  0.73631336  1
  O2-  O276  1  0.29226035  0.17062819  0.06720523  1
  O2-  O277  1  0.29487739  0.16628151  0.40499505  1
  O2-  O278  1  0.29851036  0.16930980  0.72786889  1
  O2-  O279  1  0.29613387  0.66283119  0.06085036  1
  O2-  O280  1  0.30089794  0.66800703  0.39466416  1
  O2-  O281  1  0.28992464  0.65937036  0.72836664  1
  O2-  O282  1  0.79076231  0.16132144  0.06684156  1
  O2-  O283  1  0.79320061  0.16462834  0.39164962  1
  O2-  O284  1  0.79175075  0.17223641  0.73218828  1
  O2-  O285  1  0.79625955  0.67237420  0.07057659  1
  O2-  O286  1  0.79110566  0.66300596  0.39655659  1
  O2-  O287  1  0.79571625  0.66734856  0.73569149  1
