# generated using pymatgen
data_Ca2Al2SiO7
_symmetry_space_group_name_H-M   'P 1'
_cell_length_a   15.45763922
_cell_length_b   15.45901865
_cell_length_c   15.28423993
_cell_angle_alpha   89.98049445
_cell_angle_beta   89.99626430
_cell_angle_gamma   89.99080512
_symmetry_Int_Tables_number   1
_chemical_formula_structural   Ca2Al2SiO7
_chemical_formula_sum   'Ca48 Al48 Si24 O168'
_cell_volume   3652.32068308
_cell_formula_units_Z   24
loop_
 _symmetry_equiv_pos_site_id
 _symmetry_equiv_pos_as_xyz
  1  'x, y, z'
loop_
 _atom_type_symbol
 _atom_type_oxidation_number
  Ca2+  2.0
  Al0+  0.0
  Si0+  0.0
  O2-  -2.0
loop_
 _atom_site_type_symbol
 _atom_site_label
 _atom_site_symmetry_multiplicity
 _atom_site_fract_x
 _atom_site_fract_y
 _atom_site_fract_z
 _atom_site_occupancy
  Ca2+  Ca0  1  0.17404620  0.08512353  0.17293461  1
  Ca2+  Ca1  1  0.17204437  0.09058977  0.50371581  1
  Ca2+  Ca2  1  0.17327607  0.09105374  0.84056437  1
  Ca2+  Ca3  1  0.17347885  0.59189661  0.17282559  1
  Ca2+  Ca4  1  0.16861282  0.58537806  0.49694280  1
  Ca2+  Ca5  1  0.17063733  0.58035517  0.84483437  1
  Ca2+  Ca6  1  0.66431828  0.07596827  0.17694763  1
  Ca2+  Ca7  1  0.66764853  0.08489530  0.50376393  1
  Ca2+  Ca8  1  0.67248724  0.09000487  0.83316917  1
  Ca2+  Ca9  1  0.67739430  0.58062536  0.17330033  1
  Ca2+  Ca10  1  0.67310835  0.57447202  0.49685763  1
  Ca2+  Ca11  1  0.67073643  0.58248757  0.84618397  1
  Ca2+  Ca12  1  0.07623632  0.32635712  0.16322012  1
  Ca2+  Ca13  1  0.07734878  0.32154456  0.49097943  1
  Ca2+  Ca14  1  0.08055690  0.32358258  0.83534123  1
  Ca2+  Ca15  1  0.08455569  0.82517466  0.16226877  1
  Ca2+  Ca16  1  0.08484205  0.83066971  0.49038288  1
  Ca2+  Ca17  1  0.08178852  0.82915427  0.83816204  1
  Ca2+  Ca18  1  0.57985562  0.33290677  0.16642261  1
  Ca2+  Ca19  1  0.58550721  0.32149399  0.49174187  1
  Ca2+  Ca20  1  0.57408154  0.33033706  0.83187027  1
  Ca2+  Ca21  1  0.57839063  0.82829253  0.15823503  1
  Ca2+  Ca22  1  0.58126144  0.83638061  0.49306800  1
  Ca2+  Ca23  1  0.57929466  0.82876213  0.83877307  1
  Ca2+  Ca24  1  0.33682862  0.42636023  0.16782612  1
  Ca2+  Ca25  1  0.33431918  0.42254597  0.49871800  1
  Ca2+  Ca26  1  0.33139435  0.41780312  0.84560518  1
  Ca2+  Ca27  1  0.33012970  0.92463020  0.17287807  1
  Ca2+  Ca28  1  0.32453692  0.92854785  0.49732272  1
  Ca2+  Ca29  1  0.33476855  0.92803823  0.84102755  1
  Ca2+  Ca30  1  0.83746622  0.42226513  0.17342096  1
  Ca2+  Ca31  1  0.83450323  0.41300595  0.49551992  1
  Ca2+  Ca32  1  0.83234792  0.42007380  0.84406307  1
  Ca2+  Ca33  1  0.82773332  0.91204367  0.17031302  1
  Ca2+  Ca34  1  0.82648079  0.92311357  0.50260560  1
  Ca2+  Ca35  1  0.83567169  0.92028197  0.83808161  1
  Ca2+  Ca36  1  0.41930608  0.16446357  0.16125727  1
  Ca2+  Ca37  1  0.42341569  0.15686988  0.49549482  1
  Ca2+  Ca38  1  0.41570374  0.16763435  0.82991588  1
  Ca2+  Ca39  1  0.41815190  0.67085043  0.15494021  1
  Ca2+  Ca40  1  0.41566436  0.66934609  0.49128419  1
  Ca2+  Ca41  1  0.41557780  0.66974664  0.83727729  1
  Ca2+  Ca42  1  0.92657896  0.17534550  0.16118926  1
  Ca2+  Ca43  1  0.92431801  0.16664715  0.49067255  1
  Ca2+  Ca44  1  0.92771521  0.16432875  0.82768783  1
  Ca2+  Ca45  1  0.92330269  0.66620436  0.15812513  1
  Ca2+  Ca46  1  0.92241211  0.66777052  0.48841920  1
  Ca2+  Ca47  1  0.91546301  0.66960402  0.83833583  1
  Al0+  Al48  1  0.00083040  -0.00132142  -0.00552391  1
  Al0+  Al49  1  -0.00069643  -0.00228247  0.33103089  1
  Al0+  Al50  1  -0.00073179  -0.00219420  0.66596224  1
  Al0+  Al51  1  0.00000193  0.49815766  -0.00355118  1
  Al0+  Al52  1  0.00270643  0.50135719  0.33107136  1
  Al0+  Al53  1  0.00045975  0.50068235  0.66743508  1
  Al0+  Al54  1  0.50118763  -0.00091028  -0.00121013  1
  Al0+  Al55  1  0.49906928  -0.00065303  0.33679348  1
  Al0+  Al56  1  0.49804598  -0.00211205  0.66769509  1
  Al0+  Al57  1  0.49996369  0.49775101  -0.00386436  1
  Al0+  Al58  1  0.50250717  0.50013574  0.34274440  1
  Al0+  Al59  1  0.50106662  0.50164098  0.66607334  1
  Al0+  Al60  1  0.25178386  0.25094632  -0.00078326  1
  Al0+  Al61  1  0.25248685  0.25332825  0.33449683  1
  Al0+  Al62  1  0.24884873  0.25313170  0.66611002  1
  Al0+  Al63  1  0.25020754  0.75188154  -0.00622767  1
  Al0+  Al64  1  0.25073414  0.75309851  0.33849751  1
  Al0+  Al65  1  0.25009361  0.75075123  0.66677627  1
  Al0+  Al66  1  0.75032115  0.24982002  -0.00081814  1
  Al0+  Al67  1  0.74816168  0.24979306  0.32744279  1
  Al0+  Al68  1  0.74798474  0.25092121  0.66910324  1
  Al0+  Al69  1  0.75002683  0.74924911  -0.00378087  1
  Al0+  Al70  1  0.74914662  0.74920106  0.34350638  1
  Al0+  Al71  1  0.74941362  0.74929032  0.66568487  1
  Al0+  Al72  1  0.32159848  0.07173263  0.01383245  1
  Al0+  Al73  1  0.67813770  0.92844896  0.34615770  1
  Al0+  Al74  1  0.43056393  0.31965998  0.98845199  1
  Al0+  Al75  1  0.92716667  0.32103755  0.98380450  1
  Al0+  Al76  1  0.31912776  0.07124866  0.68181630  1
  Al0+  Al77  1  0.82432996  0.57017048  0.34874819  1
  Al0+  Al78  1  0.56908615  0.17972191  0.65356171  1
  Al0+  Al79  1  0.92731972  0.82043133  0.98527908  1
  Al0+  Al80  1  0.07055976  0.17869136  0.65184475  1
  Al0+  Al81  1  0.17710851  0.93026847  0.34651904  1
  Al0+  Al82  1  0.07250914  0.67782455  0.98496167  1
  Al0+  Al83  1  0.56849300  0.17752667  0.31938173  1
  Al0+  Al84  1  0.57044879  0.67785624  0.98756800  1
  Al0+  Al85  1  0.82015013  0.07058679  0.67955540  1
  Al0+  Al86  1  0.32042344  0.57179735  0.01207543  1
  Al0+  Al87  1  0.07219386  0.68164323  0.32087690  1
  Al0+  Al88  1  0.67966583  0.42697748  0.34875733  1
  Al0+  Al89  1  0.32131567  0.57235478  0.34614537  1
  Al0+  Al90  1  0.07422187  0.17594383  0.31793660  1
  Al0+  Al91  1  0.07141796  0.17891032  0.98519328  1
  Al0+  Al92  1  0.31983397  0.07429547  0.34806691  1
  Al0+  Al93  1  0.82071806  0.57029085  0.01337563  1
  Al0+  Al94  1  0.92860322  0.32067884  0.31824640  1
  Al0+  Al95  1  0.42795035  0.82298368  0.98517663  1
  Si0+  Si96  1  0.68088537  0.92994701  0.01372780  1
  Si0+  Si97  1  0.82112074  0.57088254  0.68290346  1
  Si0+  Si98  1  0.42729925  0.32452887  0.64855813  1
  Si0+  Si99  1  0.17820271  0.42889936  0.35056002  1
  Si0+  Si100  1  0.92765083  0.32287726  0.65056381  1
  Si0+  Si101  1  0.67702245  0.42602801  0.01665133  1
  Si0+  Si102  1  0.17708840  0.92853957  0.01571868  1
  Si0+  Si103  1  0.42845798  0.81939453  0.64905293  1
  Si0+  Si104  1  0.57236265  0.17525814  0.98344625  1
  Si0+  Si105  1  0.17719794  0.92629601  0.68561763  1
  Si0+  Si106  1  0.17894779  0.43124205  0.68220443  1
  Si0+  Si107  1  0.43032393  0.81964248  0.31960246  1
  Si0+  Si108  1  0.07075329  0.67891553  0.65071373  1
  Si0+  Si109  1  0.17836518  0.42821368  0.01756781  1
  Si0+  Si110  1  0.92756626  0.81981237  0.64933228  1
  Si0+  Si111  1  0.67857874  0.42959301  0.68396262  1
  Si0+  Si112  1  0.42948405  0.32598809  0.31772287  1
  Si0+  Si113  1  0.67712372  0.92603279  0.68591953  1
  Si0+  Si114  1  0.32166918  0.57204423  0.68275535  1
  Si0+  Si115  1  0.82325827  0.07144133  0.01480168  1
  Si0+  Si116  1  0.82082644  0.07180605  0.34645476  1
  Si0+  Si117  1  0.92423128  0.82071787  0.31845535  1
  Si0+  Si118  1  0.57162573  0.67832797  0.32114202  1
  Si0+  Si119  1  0.57187589  0.67857606  0.64867402  1
  O2-  O120  1  0.24600880  -0.00258633  0.05885412  1
  O2-  O121  1  0.24024131  0.00983865  0.39768748  1
  O2-  O122  1  0.24147126  -0.00060358  0.72896551  1
  O2-  O123  1  0.24242850  0.50215567  0.06069384  1
  O2-  O124  1  0.24749991  0.49786914  0.39502056  1
  O2-  O125  1  0.25224273  0.50022432  0.72463171  1
  O2-  O126  1  0.75111092  0.00127100  0.05668565  1
  O2-  O127  1  0.75246860  0.00334511  0.39244601  1
  O2-  O128  1  0.74443568  -0.00322860  0.72872254  1
  O2-  O129  1  0.74778991  0.49344193  0.05889143  1
  O2-  O130  1  0.75538148  0.49525571  0.39964515  1
  O2-  O131  1  0.75025636  0.50019817  0.72566886  1
  O2-  O132  1  0.00069488  0.24763155  0.27022263  1
  O2-  O133  1  -0.00787216  0.25044611  0.60653061  1
  O2-  O134  1  -0.00396710  0.24670065  0.93341338  1
  O2-  O135  1  -0.00576378  0.75311210  0.27550266  1
  O2-  O136  1  -0.00014363  0.74962030  0.60802887  1
  O2-  O137  1  -0.00109298  0.74815880  0.93408935  1
  O2-  O138  1  0.49324123  0.25229787  0.27439197  1
  O2-  O139  1  0.49282838  0.25256174  0.60545171  1
  O2-  O140  1  0.50328143  0.24389596  0.94033900  1
  O2-  O141  1  0.50071253  0.74801804  0.27786814  1
  O2-  O142  1  0.50045533  0.74901232  0.60632399  1
  O2-  O143  1  0.49664755  0.74709912  0.93527698  1
  O2-  O144  1  0.07129176  0.18015240  0.09832143  1
  O2-  O145  1  0.07135212  0.17879708  0.43220246  1
  O2-  O146  1  0.07136946  0.18180561  0.76456258  1
  O2-  O147  1  0.07398127  0.68126954  0.09824861  1
  O2-  O148  1  0.07175068  0.68406264  0.43501395  1
  O2-  O149  1  0.07071246  0.67810809  0.75532425  1
  O2-  O150  1  0.57215675  0.17272487  0.08881709  1
  O2-  O151  1  0.56784900  0.17723326  0.43290213  1
  O2-  O152  1  0.56950556  0.18372395  0.76667343  1
  O2-  O153  1  0.57147575  0.68077434  0.10126687  1
  O2-  O154  1  0.56943739  0.68063258  0.42694557  1
  O2-  O155  1  0.57237461  0.67744774  0.75344970  1
  O2-  O156  1  0.17895340  0.42894228  0.24543794  1
  O2-  O157  1  0.17796129  0.43424148  0.57726294  1
  O2-  O158  1  0.18163188  0.42779155  0.91109984  1
  O2-  O159  1  0.18330898  0.92471002  0.23363229  1
  O2-  O160  1  0.17974705  0.92149882  0.58032245  1
  O2-  O161  1  0.17752962  0.92917158  0.90968916  1
  O2-  O162  1  0.67522197  0.43220550  0.23575189  1
  O2-  O163  1  0.67796639  0.43022353  0.57929687  1
  O2-  O164  1  0.67688191  0.42689674  0.91026755  1
  O2-  O165  1  0.67807134  0.92684023  0.23287780  1
  O2-  O166  1  0.67844093  0.92391442  0.58026541  1
  O2-  O167  1  0.68077563  0.93096704  0.90840496  1
  O2-  O168  1  0.43308032  0.32171933  0.10118695  1
  O2-  O169  1  0.43222419  0.32905182  0.42354913  1
  O2-  O170  1  0.42899685  0.32765012  0.75414451  1
  O2-  O171  1  0.43155161  0.82390538  0.09893563  1
  O2-  O172  1  0.43160963  0.81798509  0.42543114  1
  O2-  O173  1  0.42815364  0.81745561  0.75378348  1
  O2-  O174  1  0.92793137  0.31976142  0.09684829  1
  O2-  O175  1  0.92999655  0.31801237  0.43283423  1
  O2-  O176  1  0.93017048  0.32549932  0.75579148  1
  O2-  O177  1  0.92543164  0.81993953  0.09853195  1
  O2-  O178  1  0.92338399  0.81923596  0.42464612  1
  O2-  O179  1  0.92532980  0.81796177  0.75406772  1
  O2-  O180  1  0.32380220  0.06936015  0.23477106  1
  O2-  O181  1  0.31974162  0.06827214  0.56907265  1
  O2-  O182  1  0.32126051  0.07083914  0.90022016  1
  O2-  O183  1  0.32257858  0.57286713  0.23346202  1
  O2-  O184  1  0.32105971  0.57276212  0.57749007  1
  O2-  O185  1  0.31978691  0.56746706  0.89819503  1
  O2-  O186  1  0.81894553  0.06914844  0.24080285  1
  O2-  O187  1  0.81884162  0.06786457  0.56644076  1
  O2-  O188  1  0.82101440  0.07072876  0.90932213  1
  O2-  O189  1  0.82125197  0.57352833  0.23561672  1
  O2-  O190  1  0.82142346  0.57089903  0.57816021  1
  O2-  O191  1  0.81676937  0.56983693  0.89923142  1
  O2-  O192  1  0.04774393  0.07657146  0.26643922  1
  O2-  O193  1  0.04392836  0.07937248  0.60109739  1
  O2-  O194  1  0.04628035  0.08036174  0.93116128  1
  O2-  O195  1  0.04898422  0.58377192  0.26796249  1
  O2-  O196  1  0.04252502  0.58697360  0.60341894  1
  O2-  O197  1  0.04655697  0.57929013  0.93140248  1
  O2-  O198  1  0.53769412  0.08031417  0.26614062  1
  O2-  O199  1  0.54185781  0.08022684  0.60280304  1
  O2-  O200  1  0.54818315  0.08283708  0.93493210  1
  O2-  O201  1  0.54550099  0.58549767  0.27699163  1
  O2-  O202  1  0.54370679  0.58667300  0.60117019  1
  O2-  O203  1  0.54498723  0.58010610  0.93191351  1
  O2-  O204  1  0.17360148  0.20657128  0.26859360  1
  O2-  O205  1  0.16597492  0.21506155  0.59855984  1
  O2-  O206  1  0.16815723  0.21294327  0.93216755  1
  O2-  O207  1  0.16870985  0.71583977  0.26908012  1
  O2-  O208  1  0.16373552  0.70639692  0.60469892  1
  O2-  O209  1  0.16855083  0.70811249  0.92744764  1
  O2-  O210  1  0.66438071  0.20551219  0.26348238  1
  O2-  O211  1  0.66596070  0.21208118  0.60029493  1
  O2-  O212  1  0.66576549  0.20213033  0.93764628  1
  O2-  O213  1  0.66398140  0.70735677  0.27666755  1
  O2-  O214  1  0.66384147  0.70676209  0.60142989  1
  O2-  O215  1  0.66534350  0.71120720  0.93004193  1
  O2-  O216  1  0.08282502  0.44816859  0.06027283  1
  O2-  O217  1  0.08637030  0.45630489  0.39911451  1
  O2-  O218  1  0.08814726  0.46166894  0.73082927  1
  O2-  O219  1  0.08251021  0.95159558  0.06075161  1
  O2-  O220  1  0.07475523  0.94568421  0.39745856  1
  O2-  O221  1  0.08110306  0.94516802  0.72839998  1
  O2-  O222  1  0.58394045  0.45283835  0.06177472  1
  O2-  O223  1  0.58552819  0.46026470  0.40863643  1
  O2-  O224  1  0.58650425  0.46008411  0.73074289  1
  O2-  O225  1  0.58935664  0.95714076  0.06167069  1
  O2-  O226  1  0.58307788  0.95909586  0.40304925  1
  O2-  O227  1  0.58245165  0.94847750  0.73018329  1
  O2-  O228  1  0.21075040  0.33770609  0.06468744  1
  O2-  O229  1  0.20497479  0.33683812  0.39976668  1
  O2-  O230  1  0.20553669  0.33990228  0.73063761  1
  O2-  O231  1  0.20341423  0.83443618  0.05954198  1
  O2-  O232  1  0.21525426  0.83730067  0.40614803  1
  O2-  O233  1  0.20849659  0.83399064  0.73270978  1
  O2-  O234  1  0.69932486  0.33116636  0.06180507  1
  O2-  O235  1  0.70545944  0.32688131  0.40048991  1
  O2-  O236  1  0.70369454  0.33819814  0.73294863  1
  O2-  O237  1  0.70889916  0.83811573  0.06044552  1
  O2-  O238  1  0.70750391  0.83431494  0.40639671  1
  O2-  O239  1  0.70634852  0.83264704  0.73145403  1
  O2-  O240  1  0.46176459  0.41824841  0.27207484  1
  O2-  O241  1  0.45642938  0.41795492  0.60256984  1
  O2-  O242  1  0.46198283  0.41355065  0.92861123  1
  O2-  O243  1  0.45954863  0.91059082  0.27300358  1
  O2-  O244  1  0.45643926  0.91082476  0.60166451  1
  O2-  O245  1  0.46408396  0.91786990  0.92880390  1
  O2-  O246  1  0.95878873  0.41915465  0.26727647  1
  O2-  O247  1  0.95788611  0.41568535  0.60403213  1
  O2-  O248  1  0.95670306  0.41783738  0.92849559  1
  O2-  O249  1  0.94487667  0.91480041  0.27217927  1
  O2-  O250  1  0.95387285  0.91143318  0.60152182  1
  O2-  O251  1  0.95624530  0.91738137  0.92899159  1
  O2-  O252  1  0.33381241  0.30852733  0.27410078  1
  O2-  O253  1  0.33216600  0.30445152  0.60422503  1
  O2-  O254  1  0.33486039  0.29150822  0.93157251  1
  O2-  O255  1  0.33900093  0.79157940  0.27344723  1
  O2-  O256  1  0.33714015  0.78884794  0.60150908  1
  O2-  O257  1  0.33084331  0.79867931  0.92853091  1
  O2-  O258  1  0.83011919  0.29587424  0.26489395  1
  O2-  O259  1  0.83171626  0.30180691  0.60820098  1
  O2-  O260  1  0.82698873  0.29637084  0.93153361  1
  O2-  O261  1  0.83005499  0.79326989  0.27451688  1
  O2-  O262  1  0.83556265  0.79083267  0.60187580  1
  O2-  O263  1  0.83079093  0.79172667  0.92798809  1
  O2-  O264  1  0.41937189  0.04010637  0.06532306  1
  O2-  O265  1  0.41415544  0.03492643  0.40316328  1
  O2-  O266  1  0.41539625  0.03688280  0.73509430  1
  O2-  O267  1  0.41712642  0.53799633  0.06387521  1
  O2-  O268  1  0.41621101  0.54202830  0.40472506  1
  O2-  O269  1  0.41544028  0.54703828  0.72763216  1
  O2-  O270  1  0.91495741  0.04234219  0.06059809  1
  O2-  O271  1  0.91427411  0.04611460  0.39297761  1
  O2-  O272  1  0.91625839  0.03714809  0.73366265  1
  O2-  O273  1  0.91933345  0.54226876  0.06391805  1
  O2-  O274  1  0.92390387  0.54512073  0.40166368  1
  O2-  O275  1  0.91383499  0.54451072  0.72942472  1
  O2-  O276  1  0.29328010  0.16904655  0.06683130  1
  O2-  O277  1  0.30266365  0.17568662  0.40020041  1
  O2-  O278  1  0.29290377  0.17142592  0.73165996  1
  O2-  O279  1  0.29515660  0.67166389  0.06170823  1
  O2-  O280  1  0.28958130  0.66700686  0.40397341  1
  O2-  O281  1  0.29235617  0.66381866  0.72909783  1
  O2-  O282  1  0.79618175  0.16362292  0.06126931  1
  O2-  O283  1  0.79463889  0.16489819  0.39207366  1
  O2-  O284  1  0.78971868  0.16738607  0.73455967  1
  O2-  O285  1  0.78844815  0.66726410  0.06534108  1
  O2-  O286  1  0.79088797  0.66528948  0.40695960  1
  O2-  O287  1  0.79184202  0.66324035  0.72867088  1
