# generated using pymatgen
data_Ca2Al2SiO7
_symmetry_space_group_name_H-M   'P 1'
_cell_length_a   15.46448793
_cell_length_b   15.46509646
_cell_length_c   15.28888795
_cell_angle_alpha   89.99843179
_cell_angle_beta   89.99676549
_cell_angle_gamma   90.01711718
_symmetry_Int_Tables_number   1
_chemical_formula_structural   Ca2Al2SiO7
_chemical_formula_sum   'Ca48 Al48 Si24 O168'
_cell_volume   3656.48717838
_cell_formula_units_Z   24
loop_
 _symmetry_equiv_pos_site_id
 _symmetry_equiv_pos_as_xyz
  1  'x, y, z'
loop_
 _atom_type_symbol
 _atom_type_oxidation_number
  Ca2+  2.0
  Al0+  0.0
  Si0+  0.0
  O2-  -2.0
loop_
 _atom_site_type_symbol
 _atom_site_label
 _atom_site_symmetry_multiplicity
 _atom_site_fract_x
 _atom_site_fract_y
 _atom_site_fract_z
 _atom_site_occupancy
  Ca2+  Ca0  1  0.17327642  0.07941081  0.17488722  1
  Ca2+  Ca1  1  0.17976939  0.08961365  0.50655902  1
  Ca2+  Ca2  1  0.17083755  0.08854690  0.83004034  1
  Ca2+  Ca3  1  0.17524907  0.58297103  0.17157406  1
  Ca2+  Ca4  1  0.17597192  0.56948073  0.50318496  1
  Ca2+  Ca5  1  0.17447267  0.58457989  0.83453850  1
  Ca2+  Ca6  1  0.66755322  0.07829225  0.17246216  1
  Ca2+  Ca7  1  0.66700312  0.09320405  0.50208264  1
  Ca2+  Ca8  1  0.66110427  0.07754029  0.83816809  1
  Ca2+  Ca9  1  0.66488799  0.57226522  0.17169144  1
  Ca2+  Ca10  1  0.67093926  0.56872868  0.50577755  1
  Ca2+  Ca11  1  0.66707323  0.57132126  0.83913411  1
  Ca2+  Ca12  1  0.07583247  0.33965740  0.16201053  1
  Ca2+  Ca13  1  0.08325980  0.34104989  0.49936914  1
  Ca2+  Ca14  1  0.07212710  0.33623666  0.82312714  1
  Ca2+  Ca15  1  0.08008540  0.82472012  0.15902378  1
  Ca2+  Ca16  1  0.08141258  0.83009060  0.49701226  1
  Ca2+  Ca17  1  0.08537271  0.82510697  0.83142481  1
  Ca2+  Ca18  1  0.58457856  0.33466187  0.16774834  1
  Ca2+  Ca19  1  0.58356195  0.32857386  0.49319086  1
  Ca2+  Ca20  1  0.58858721  0.32946198  0.82628490  1
  Ca2+  Ca21  1  0.57903149  0.82327757  0.15514573  1
  Ca2+  Ca22  1  0.57757669  0.82897100  0.49908089  1
  Ca2+  Ca23  1  0.57723826  0.82777210  0.83158894  1
  Ca2+  Ca24  1  0.33101981  0.42880768  0.17831549  1
  Ca2+  Ca25  1  0.32911583  0.41843287  0.50703909  1
  Ca2+  Ca26  1  0.32978902  0.42708325  0.83709517  1
  Ca2+  Ca27  1  0.33747856  0.92065808  0.16940355  1
  Ca2+  Ca28  1  0.34068762  0.92820694  0.50558262  1
  Ca2+  Ca29  1  0.34557109  0.92067556  0.83369899  1
  Ca2+  Ca30  1  0.82326086  0.41729937  0.17092004  1
  Ca2+  Ca31  1  0.82526348  0.42065675  0.50618876  1
  Ca2+  Ca32  1  0.82620527  0.40925130  0.83386404  1
  Ca2+  Ca33  1  0.82540782  0.92075101  0.17255783  1
  Ca2+  Ca34  1  0.83265731  0.92605252  0.50155171  1
  Ca2+  Ca35  1  0.82403385  0.92018921  0.83979307  1
  Ca2+  Ca36  1  0.41582835  0.17451012  0.17174504  1
  Ca2+  Ca37  1  0.42437693  0.16940337  0.49173655  1
  Ca2+  Ca38  1  0.42306576  0.16875272  0.82241976  1
  Ca2+  Ca39  1  0.41779411  0.66784047  0.15391442  1
  Ca2+  Ca40  1  0.40439740  0.66978494  0.49859056  1
  Ca2+  Ca41  1  0.41441893  0.67200948  0.83112664  1
  Ca2+  Ca42  1  0.91382394  0.17255077  0.16214193  1
  Ca2+  Ca43  1  0.91995098  0.17407741  0.49788663  1
  Ca2+  Ca44  1  0.92111322  0.18017987  0.82408440  1
  Ca2+  Ca45  1  0.92404654  0.65615985  0.16179463  1
  Ca2+  Ca46  1  0.91065327  0.65953257  0.49634045  1
  Ca2+  Ca47  1  0.92113657  0.66054571  0.82827161  1
  Al0+  Al48  1  0.00258660  0.00080320  -0.00020088  1
  Al0+  Al49  1  -0.00238186  -0.00087760  0.33491234  1
  Al0+  Al50  1  0.00091852  -0.00020611  0.66418288  1
  Al0+  Al51  1  -0.00045706  0.49858721  -0.01099332  1
  Al0+  Al52  1  0.00135935  0.50037818  0.33693924  1
  Al0+  Al53  1  0.00026519  0.50141795  0.66646204  1
  Al0+  Al54  1  0.50143353  0.00013686  0.00414882  1
  Al0+  Al55  1  0.50011964  -0.00159626  0.33156234  1
  Al0+  Al56  1  0.50000120  -0.00103590  0.66214087  1
  Al0+  Al57  1  0.49992261  0.49941218  0.00415000  1
  Al0+  Al58  1  0.49985614  0.50182569  0.33835984  1
  Al0+  Al59  1  0.50170681  0.50111541  0.67482354  1
  Al0+  Al60  1  0.25049637  0.25012301  0.00111423  1
  Al0+  Al61  1  0.24980633  0.24787093  0.33413994  1
  Al0+  Al62  1  0.25053550  0.24920715  0.67475771  1
  Al0+  Al63  1  0.24890439  0.75283836  -0.00434376  1
  Al0+  Al64  1  0.24640666  0.75016140  0.33408893  1
  Al0+  Al65  1  0.24828662  0.75242272  0.66308878  1
  Al0+  Al66  1  0.75044382  0.25049529  0.00014722  1
  Al0+  Al67  1  0.75109329  0.24732066  0.33463385  1
  Al0+  Al68  1  0.75290118  0.24966900  0.66218368  1
  Al0+  Al69  1  0.75033427  0.74977156  0.00103868  1
  Al0+  Al70  1  0.74881274  0.75252762  0.33430012  1
  Al0+  Al71  1  0.74952839  0.75056169  0.66854698  1
  Al0+  Al72  1  0.07285024  0.17842911  0.65035140  1
  Al0+  Al73  1  0.57049892  0.17918203  0.65441154  1
  Al0+  Al74  1  0.68071470  0.42628782  0.68302140  1
  Al0+  Al75  1  0.57260110  0.17869815  0.31552612  1
  Al0+  Al76  1  0.57260087  0.67533555  0.98482851  1
  Al0+  Al77  1  0.42942920  0.81868697  0.65091247  1
  Al0+  Al78  1  0.17945922  0.42758141  0.34591010  1
  Al0+  Al79  1  0.92905555  0.31839277  0.98652076  1
  Al0+  Al80  1  0.42991794  0.82236749  0.98512134  1
  Al0+  Al81  1  0.32216211  0.06947305  0.68083878  1
  Al0+  Al82  1  0.42755337  0.32298486  0.31968561  1
  Al0+  Al83  1  0.06968410  0.67995156  0.98542220  1
  Al0+  Al84  1  0.82088398  0.07015154  0.34737788  1
  Al0+  Al85  1  0.82102479  0.57161694  0.34508692  1
  Al0+  Al86  1  0.67800449  0.42756842  0.34848644  1
  Al0+  Al87  1  0.32218333  0.57354669  0.34738383  1
  Al0+  Al88  1  0.32108271  0.06838453  0.34641502  1
  Al0+  Al89  1  0.82031758  0.57309731  0.68329432  1
  Al0+  Al90  1  0.67908666  0.92779934  0.01391743  1
  Al0+  Al91  1  0.93081768  0.32281739  0.64698890  1
  Al0+  Al92  1  0.31824142  0.57183892  0.01323739  1
  Al0+  Al93  1  0.32100139  0.57425133  0.68359506  1
  Al0+  Al94  1  0.17966951  0.42788425  0.68418765  1
  Al0+  Al95  1  0.67924479  0.42767485  0.01563797  1
  Si0+  Si96  1  0.67738857  0.92818265  0.35196864  1
  Si0+  Si97  1  0.42870472  0.32395572  0.65458457  1
  Si0+  Si98  1  0.82408646  0.57110390  0.01461657  1
  Si0+  Si99  1  0.57329711  0.67735060  0.64934233  1
  Si0+  Si100  1  0.17824742  0.92998375  0.01509155  1
  Si0+  Si101  1  0.93097031  0.32098689  0.31778120  1
  Si0+  Si102  1  0.07516655  0.17617436  0.98398779  1
  Si0+  Si103  1  0.92749363  0.82293965  0.31746362  1
  Si0+  Si104  1  0.42734854  0.81915972  0.31816558  1
  Si0+  Si105  1  0.32239842  0.07208877  0.01619880  1
  Si0+  Si106  1  0.82239001  0.07109638  0.01445719  1
  Si0+  Si107  1  0.56952293  0.18037547  0.98689542  1
  Si0+  Si108  1  0.06843279  0.67997129  0.31830385  1
  Si0+  Si109  1  0.67903888  0.93014015  0.68086615  1
  Si0+  Si110  1  0.92652653  0.82129533  0.65093736  1
  Si0+  Si111  1  0.07106358  0.17610799  0.31765955  1
  Si0+  Si112  1  0.92790133  0.82516467  0.98363516  1
  Si0+  Si113  1  0.57237431  0.68007527  0.31985529  1
  Si0+  Si114  1  0.17674050  0.42801180  0.01557957  1
  Si0+  Si115  1  0.07027656  0.68053976  0.64833203  1
  Si0+  Si116  1  0.82297714  0.06995612  0.68170537  1
  Si0+  Si117  1  0.42710918  0.32125557  0.98569825  1
  Si0+  Si118  1  0.17624802  0.92876161  0.68406480  1
  Si0+  Si119  1  0.17618366  0.92796927  0.34971656  1
  O2-  O120  1  0.24936543  0.00138597  0.05638855  1
  O2-  O121  1  0.24578378  -0.00528248  0.39375960  1
  O2-  O122  1  0.24561178  -0.00341682  0.72844043  1
  O2-  O123  1  0.24484633  0.49615071  0.06067841  1
  O2-  O124  1  0.25783108  0.49343127  0.39471462  1
  O2-  O125  1  0.25179152  0.49988600  0.73402383  1
  O2-  O126  1  0.75724593  -0.00035335  0.05953594  1
  O2-  O127  1  0.74266582  0.00005131  0.39587582  1
  O2-  O128  1  0.74932918  0.00179724  0.72392332  1
  O2-  O129  1  0.75173197  0.50681680  0.05899464  1
  O2-  O130  1  0.75012052  0.50047711  0.39633465  1
  O2-  O131  1  0.75140123  0.49932686  0.73415770  1
  O2-  O132  1  0.00251966  0.24959083  0.27517884  1
  O2-  O133  1  0.00581971  0.25302618  0.59740360  1
  O2-  O134  1  0.00625828  0.24487793  0.94202068  1
  O2-  O135  1  -0.00525828  0.74854102  0.27535256  1
  O2-  O136  1  -0.00527951  0.74831848  0.60755442  1
  O2-  O137  1  -0.00734050  0.75342266  0.93888305  1
  O2-  O138  1  0.50235539  0.25372523  0.26700563  1
  O2-  O139  1  0.49814554  0.25653369  0.60977394  1
  O2-  O140  1  0.49893170  0.25070994  0.94374795  1
  O2-  O141  1  0.49504884  0.74498518  0.27728594  1
  O2-  O142  1  0.49924734  0.73983479  0.60333360  1
  O2-  O143  1  0.50011574  0.74815330  0.93596608  1
  O2-  O144  1  0.07581484  0.17380499  0.08986185  1
  O2-  O145  1  0.06897336  0.17207528  0.42186963  1
  O2-  O146  1  0.06647327  0.17509899  0.76429060  1
  O2-  O147  1  0.06839564  0.68158736  0.09911941  1
  O2-  O148  1  0.06908858  0.68368854  0.42298440  1
  O2-  O149  1  0.07130630  0.68473182  0.75361506  1
  O2-  O150  1  0.56925014  0.17940612  0.09159511  1
  O2-  O151  1  0.56992018  0.17751641  0.42889694  1
  O2-  O152  1  0.56861857  0.17591868  0.76839025  1
  O2-  O153  1  0.57024072  0.67700473  0.09922900  1
  O2-  O154  1  0.57728025  0.68580077  0.42449445  1
  O2-  O155  1  0.57667562  0.68233526  0.75450288  1
  O2-  O156  1  0.17439136  0.43380547  0.23195142  1
  O2-  O157  1  0.18181164  0.42940534  0.57051127  1
  O2-  O158  1  0.17903293  0.42699306  0.91059605  1
  O2-  O159  1  0.17534616  0.92783407  0.24362468  1
  O2-  O160  1  0.17467407  0.92805759  0.57848789  1
  O2-  O161  1  0.17364963  0.93093437  0.91058945  1
  O2-  O162  1  0.68085023  0.42910232  0.23441813  1
  O2-  O163  1  0.68071220  0.42599119  0.56977668  1
  O2-  O164  1  0.68154209  0.42264769  0.90329707  1
  O2-  O165  1  0.68031801  0.92635630  0.24628774  1
  O2-  O166  1  0.68144965  0.92883185  0.57583561  1
  O2-  O167  1  0.67867253  0.93241939  0.90047324  1
  O2-  O168  1  0.42378254  0.31864080  0.09049617  1
  O2-  O169  1  0.42591474  0.31908939  0.43313661  1
  O2-  O170  1  0.43015485  0.32048199  0.76085887  1
  O2-  O171  1  0.43039571  0.82291911  0.09931858  1
  O2-  O172  1  0.42830996  0.82039263  0.42313797  1
  O2-  O173  1  0.43368800  0.82155349  0.76357732  1
  O2-  O174  1  0.92971421  0.31724916  0.10041354  1
  O2-  O175  1  0.93210036  0.32082430  0.42214412  1
  O2-  O176  1  0.92874725  0.31762484  0.76079928  1
  O2-  O177  1  0.93184525  0.82927654  0.08924347  1
  O2-  O178  1  0.92979104  0.82580011  0.42246669  1
  O2-  O179  1  0.92749168  0.82384917  0.75601099  1
  O2-  O180  1  0.31850148  0.06574051  0.23258853  1
  O2-  O181  1  0.32344265  0.06655041  0.56800339  1
  O2-  O182  1  0.32368460  0.07257466  0.91138227  1
  O2-  O183  1  0.31695128  0.57877708  0.23357738  1
  O2-  O184  1  0.31675508  0.57411898  0.57016177  1
  O2-  O185  1  0.31626528  0.57144528  0.90068603  1
  O2-  O186  1  0.82406156  0.06536127  0.23400398  1
  O2-  O187  1  0.82396991  0.06659940  0.57669750  1
  O2-  O188  1  0.82111232  0.06981343  0.90877136  1
  O2-  O189  1  0.82261740  0.56984367  0.23125160  1
  O2-  O190  1  0.81500118  0.57545611  0.56978927  1
  O2-  O191  1  0.82494861  0.56950516  0.90955422  1
  O2-  O192  1  0.03955510  0.08489250  0.26898647  1
  O2-  O193  1  0.04265307  0.07978412  0.59741892  1
  O2-  O194  1  0.05126097  0.08237073  0.93728935  1
  O2-  O195  1  0.04224845  0.58805269  0.27024346  1
  O2-  O196  1  0.04603275  0.58829854  0.60161870  1
  O2-  O197  1  0.04188090  0.58469764  0.92834170  1
  O2-  O198  1  0.54171126  0.07921555  0.26391877  1
  O2-  O199  1  0.53948731  0.08393483  0.59846008  1
  O2-  O200  1  0.54102928  0.08840166  0.94031439  1
  O2-  O201  1  0.55168405  0.58586228  0.27530521  1
  O2-  O202  1  0.55332661  0.58086449  0.60778274  1
  O2-  O203  1  0.54427847  0.57654662  0.93342048  1
  O2-  O204  1  0.16358006  0.19894498  0.26968958  1
  O2-  O205  1  0.17524870  0.20123783  0.60403645  1
  O2-  O206  1  0.16913933  0.20095455  0.93818625  1
  O2-  O207  1  0.15836211  0.71208333  0.26852779  1
  O2-  O208  1  0.15872336  0.71451978  0.59863393  1
  O2-  O209  1  0.16286899  0.71695826  0.92948458  1
  O2-  O210  1  0.67349159  0.20178468  0.26394047  1
  O2-  O211  1  0.66820741  0.20512893  0.60121704  1
  O2-  O212  1  0.66182156  0.20614882  0.93970658  1
  O2-  O213  1  0.66128752  0.71443449  0.26942504  1
  O2-  O214  1  0.66404489  0.71162004  0.60168927  1
  O2-  O215  1  0.67203481  0.70404352  0.93394984  1
  O2-  O216  1  0.08168725  0.45438969  0.05791456  1
  O2-  O217  1  0.08495968  0.46310353  0.40198927  1
  O2-  O218  1  0.08090262  0.45892908  0.73388961  1
  O2-  O219  1  0.08695945  0.95715254  0.06586354  1
  O2-  O220  1  0.08286093  0.95291249  0.39572816  1
  O2-  O221  1  0.08280101  0.95417055  0.73152708  1
  O2-  O222  1  0.58217352  0.45533084  0.07000801  1
  O2-  O223  1  0.58042393  0.45480584  0.40242126  1
  O2-  O224  1  0.58225158  0.45205606  0.73723509  1
  O2-  O225  1  0.58510285  0.96213667  0.07100927  1
  O2-  O226  1  0.58245454  0.94945240  0.39581509  1
  O2-  O227  1  0.58816931  0.95939755  0.72797380  1
  O2-  O228  1  0.20018712  0.33319826  0.06136903  1
  O2-  O229  1  0.19730484  0.32637488  0.39560210  1
  O2-  O230  1  0.20339695  0.32954296  0.73931326  1
  O2-  O231  1  0.20597114  0.83907480  0.06388868  1
  O2-  O232  1  0.19963679  0.83441663  0.39592665  1
  O2-  O233  1  0.20184923  0.83530902  0.72931298  1
  O2-  O234  1  0.71429200  0.33216356  0.07014876  1
  O2-  O235  1  0.70678502  0.32883215  0.39831238  1
  O2-  O236  1  0.71230769  0.32728177  0.73462117  1
  O2-  O237  1  0.70780775  0.83103952  0.06935942  1
  O2-  O238  1  0.70759289  0.83726937  0.40042112  1
  O2-  O239  1  0.70841316  0.83984377  0.72976320  1
  O2-  O240  1  0.45243985  0.42416533  0.26907124  1
  O2-  O241  1  0.45116429  0.41918347  0.61092166  1
  O2-  O242  1  0.45382536  0.41320436  0.94005295  1
  O2-  O243  1  0.45747041  0.90960557  0.26954775  1
  O2-  O244  1  0.46632402  0.91258727  0.59508163  1
  O2-  O245  1  0.46220151  0.92100405  0.93386099  1
  O2-  O246  1  0.96029879  0.41284113  0.27057736  1
  O2-  O247  1  0.95580770  0.42320042  0.59659706  1
  O2-  O248  1  0.95705749  0.41319440  0.92880095  1
  O2-  O249  1  0.95938221  0.91244866  0.26728451  1
  O2-  O250  1  0.95783263  0.91148984  0.60183492  1
  O2-  O251  1  0.95717499  0.91743853  0.93566029  1
  O2-  O252  1  0.33017152  0.28965781  0.26433457  1
  O2-  O253  1  0.33469529  0.29704508  0.61172011  1
  O2-  O254  1  0.33586132  0.29204244  0.93720852  1
  O2-  O255  1  0.33276712  0.79676388  0.27277385  1
  O2-  O256  1  0.33058512  0.79519634  0.59685278  1
  O2-  O257  1  0.33023151  0.80033307  0.93284506  1
  O2-  O258  1  0.83990474  0.29058747  0.27057574  1
  O2-  O259  1  0.83474235  0.28823062  0.59356751  1
  O2-  O260  1  0.83429412  0.28322722  0.93130596  1
  O2-  O261  1  0.83401442  0.80023836  0.27089430  1
  O2-  O262  1  0.83412935  0.79684261  0.60272497  1
  O2-  O263  1  0.83265687  0.80448992  0.93994036  1
  O2-  O264  1  0.41234724  0.04246317  0.06550353  1
  O2-  O265  1  0.41718966  0.03544320  0.39934578  1
  O2-  O266  1  0.41803103  0.03393066  0.73457051  1
  O2-  O267  1  0.41478229  0.54189298  0.06706926  1
  O2-  O268  1  0.42287076  0.55836815  0.39882311  1
  O2-  O269  1  0.42108310  0.55225303  0.73524468  1
  O2-  O270  1  0.91806252  0.04979132  0.05915302  1
  O2-  O271  1  0.91484194  0.03372266  0.40325814  1
  O2-  O272  1  0.91298752  0.03788311  0.72992879  1
  O2-  O273  1  0.91725007  0.54017446  0.05956669  1
  O2-  O274  1  0.91910970  0.54537144  0.39869308  1
  O2-  O275  1  0.92153761  0.55047546  0.73116019  1
  O2-  O276  1  0.29393129  0.16365004  0.06427378  1
  O2-  O277  1  0.29089808  0.16421930  0.39987147  1
  O2-  O278  1  0.29482022  0.16462745  0.73901270  1
  O2-  O279  1  0.28663625  0.67007430  0.06430849  1
  O2-  O280  1  0.28420633  0.66909936  0.40097523  1
  O2-  O281  1  0.28697162  0.67291407  0.73331901  1
  O2-  O282  1  0.79276449  0.16231944  0.06207075  1
  O2-  O283  1  0.79547156  0.16664358  0.40211072  1
  O2-  O284  1  0.79748567  0.16231801  0.72720777  1
  O2-  O285  1  0.80746660  0.66765406  0.05853558  1
  O2-  O286  1  0.79676849  0.67242244  0.39546418  1
  O2-  O287  1  0.79442795  0.67295497  0.73597364  1
