# generated using pymatgen
data_Ca2Al2SiO7
_symmetry_space_group_name_H-M   'P 1'
_cell_length_a   15.47248062
_cell_length_b   15.46926411
_cell_length_c   15.29334861
_cell_angle_alpha   89.99015297
_cell_angle_beta   89.99519222
_cell_angle_gamma   89.98672990
_symmetry_Int_Tables_number   1
_chemical_formula_structural   Ca2Al2SiO7
_chemical_formula_sum   'Ca48 Al48 Si24 O168'
_cell_volume   3660.43054065
_cell_formula_units_Z   24
loop_
 _symmetry_equiv_pos_site_id
 _symmetry_equiv_pos_as_xyz
  1  'x, y, z'
loop_
 _atom_type_symbol
 _atom_type_oxidation_number
  Ca2+  2.0
  Al0+  0.0
  Si0+  0.0
  O2-  -2.0
loop_
 _atom_site_type_symbol
 _atom_site_label
 _atom_site_symmetry_multiplicity
 _atom_site_fract_x
 _atom_site_fract_y
 _atom_site_fract_z
 _atom_site_occupancy
  Ca2+  Ca0  1  0.16457867  0.08256964  0.16906609  1
  Ca2+  Ca1  1  0.17580338  0.08963983  0.50917043  1
  Ca2+  Ca2  1  0.17048735  0.09422237  0.83705019  1
  Ca2+  Ca3  1  0.15618325  0.57528390  0.17186393  1
  Ca2+  Ca4  1  0.16123045  0.58016266  0.49759305  1
  Ca2+  Ca5  1  0.16157832  0.57811613  0.84452362  1
  Ca2+  Ca6  1  0.66578917  0.07924980  0.17067232  1
  Ca2+  Ca7  1  0.67759773  0.08137446  0.50550055  1
  Ca2+  Ca8  1  0.67270909  0.07457943  0.83735970  1
  Ca2+  Ca9  1  0.67760717  0.59263435  0.16710983  1
  Ca2+  Ca10  1  0.67807154  0.57837654  0.50829050  1
  Ca2+  Ca11  1  0.67604116  0.57980849  0.83724900  1
  Ca2+  Ca12  1  0.08647433  0.33201827  0.16108101  1
  Ca2+  Ca13  1  0.07914359  0.32993015  0.50189522  1
  Ca2+  Ca14  1  0.07915218  0.32840042  0.83086765  1
  Ca2+  Ca15  1  0.07048059  0.82066381  0.16069549  1
  Ca2+  Ca16  1  0.06846165  0.82745295  0.49265516  1
  Ca2+  Ca17  1  0.06717881  0.82919017  0.83007886  1
  Ca2+  Ca18  1  0.58584301  0.32064398  0.16318960  1
  Ca2+  Ca19  1  0.57932079  0.33186084  0.49039002  1
  Ca2+  Ca20  1  0.58835249  0.32914607  0.82786923  1
  Ca2+  Ca21  1  0.58083055  0.83028018  0.15304654  1
  Ca2+  Ca22  1  0.58766810  0.83721990  0.50126872  1
  Ca2+  Ca23  1  0.58993099  0.83350977  0.83561283  1
  Ca2+  Ca24  1  0.32118993  0.41127540  0.17226882  1
  Ca2+  Ca25  1  0.32692970  0.40843726  0.50059235  1
  Ca2+  Ca26  1  0.32444490  0.41844240  0.84124627  1
  Ca2+  Ca27  1  0.33251658  0.91285317  0.16801688  1
  Ca2+  Ca28  1  0.32841028  0.92454183  0.50922280  1
  Ca2+  Ca29  1  0.33272640  0.92080154  0.83808190  1
  Ca2+  Ca30  1  0.83731003  0.43237017  0.17100807  1
  Ca2+  Ca31  1  0.83371208  0.42717687  0.50911044  1
  Ca2+  Ca32  1  0.84156539  0.42686047  0.83407359  1
  Ca2+  Ca33  1  0.83459646  0.91826157  0.16911583  1
  Ca2+  Ca34  1  0.83586559  0.92476190  0.50671872  1
  Ca2+  Ca35  1  0.82814749  0.91265877  0.83620839  1
  Ca2+  Ca36  1  0.42822963  0.17059153  0.16439782  1
  Ca2+  Ca37  1  0.42531690  0.16920074  0.49310202  1
  Ca2+  Ca38  1  0.42397307  0.16165813  0.83139249  1
  Ca2+  Ca39  1  0.42515065  0.67355216  0.15576534  1
  Ca2+  Ca40  1  0.42084263  0.66851000  0.49557001  1
  Ca2+  Ca41  1  0.42217179  0.67143700  0.83393277  1
  Ca2+  Ca42  1  0.92013213  0.16761847  0.16022323  1
  Ca2+  Ca43  1  0.90908445  0.17022837  0.49853148  1
  Ca2+  Ca44  1  0.92771116  0.16876751  0.82096876  1
  Ca2+  Ca45  1  0.91533474  0.67225482  0.16020685  1
  Ca2+  Ca46  1  0.90930804  0.67551249  0.49461720  1
  Ca2+  Ca47  1  0.90544961  0.67397684  0.83330988  1
  Al0+  Al48  1  0.00261143  -0.00010650  -0.00694425  1
  Al0+  Al49  1  -0.00096553  -0.00113066  0.33406263  1
  Al0+  Al50  1  0.00449705  -0.00278025  0.66066575  1
  Al0+  Al51  1  0.00003473  0.49926893  0.00715195  1
  Al0+  Al52  1  0.00054929  0.49783682  0.34253993  1
  Al0+  Al53  1  0.00200154  0.49866868  0.66723892  1
  Al0+  Al54  1  0.50033302  0.00234708  -0.00248504  1
  Al0+  Al55  1  0.49891248  0.00038395  0.33090155  1
  Al0+  Al56  1  0.49786283  0.00040836  0.67252109  1
  Al0+  Al57  1  0.49912516  0.49933365  -0.00199153  1
  Al0+  Al58  1  0.49583271  0.50106238  0.32719734  1
  Al0+  Al59  1  0.49967326  0.50055178  0.66891592  1
  Al0+  Al60  1  0.25096108  0.25069865  0.00278163  1
  Al0+  Al61  1  0.24986042  0.25018300  0.33503634  1
  Al0+  Al62  1  0.25246783  0.25130901  0.66912669  1
  Al0+  Al63  1  0.25014648  0.75090089  -0.00573675  1
  Al0+  Al64  1  0.24847999  0.74803333  0.33182360  1
  Al0+  Al65  1  0.25204880  0.75078875  0.66550673  1
  Al0+  Al66  1  0.75077183  0.25109675  -0.00524477  1
  Al0+  Al67  1  0.75017340  0.24909209  0.33035884  1
  Al0+  Al68  1  0.75079247  0.24860712  0.66818949  1
  Al0+  Al69  1  0.74767243  0.75088949  0.00132195  1
  Al0+  Al70  1  0.74811431  0.75197121  0.33422383  1
  Al0+  Al71  1  0.74914947  0.74866006  0.66712587  1
  Al0+  Al72  1  0.42643309  0.32171459  0.31771782  1
  Al0+  Al73  1  0.82590170  0.07136383  0.68177228  1
  Al0+  Al74  1  0.92621048  0.82189002  0.31696299  1
  Al0+  Al75  1  0.57165935  0.67757369  0.98342850  1
  Al0+  Al76  1  0.57254464  0.17894399  0.31870051  1
  Al0+  Al77  1  0.67641713  0.42750085  0.67965252  1
  Al0+  Al78  1  0.82249243  0.56949399  0.68240136  1
  Al0+  Al79  1  0.92833441  0.32072067  0.65080123  1
  Al0+  Al80  1  0.81913326  0.57158541  0.34794062  1
  Al0+  Al81  1  0.31862660  0.07194615  0.68151152  1
  Al0+  Al82  1  0.17968723  0.42751188  0.35100665  1
  Al0+  Al83  1  0.68009896  0.93246703  0.01481463  1
  Al0+  Al84  1  0.07381329  0.17932876  0.65094964  1
  Al0+  Al85  1  0.82180994  0.07134565  0.34490300  1
  Al0+  Al86  1  0.81792880  0.56962021  0.01505084  1
  Al0+  Al87  1  0.92736932  0.81854168  0.65121762  1
  Al0+  Al88  1  0.07159665  0.17978199  0.98849986  1
  Al0+  Al89  1  0.67968255  0.92999686  0.68187970  1
  Al0+  Al90  1  0.06952676  0.67685315  0.31908670  1
  Al0+  Al91  1  0.18069799  0.43052537  0.01462169  1
  Al0+  Al92  1  0.57273456  0.18001591  0.98320367  1
  Al0+  Al93  1  0.06928926  0.67582638  0.98583358  1
  Al0+  Al94  1  0.42817586  0.82294826  0.98373669  1
  Al0+  Al95  1  0.92790440  0.82058930  0.98404579  1
  Si0+  Si96  1  0.42888022  0.82195264  0.64987366  1
  Si0+  Si97  1  0.32234404  0.57358593  0.35048453  1
  Si0+  Si98  1  0.07146506  0.17881986  0.31984827  1
  Si0+  Si99  1  0.18000478  0.92546314  0.68382703  1
  Si0+  Si100  1  0.32230817  0.57345030  0.68166219  1
  Si0+  Si101  1  0.82512632  0.07313900  0.01433552  1
  Si0+  Si102  1  0.18197408  0.43065253  0.68301221  1
  Si0+  Si103  1  0.92846860  0.32265455  0.98575187  1
  Si0+  Si104  1  0.07583126  0.67774084  0.64997343  1
  Si0+  Si105  1  0.17835792  0.92786147  0.01541066  1
  Si0+  Si106  1  0.17916826  0.92695674  0.34756317  1
  Si0+  Si107  1  0.42776154  0.82104809  0.32070688  1
  Si0+  Si108  1  0.92903353  0.32053154  0.31883151  1
  Si0+  Si109  1  0.32045222  0.07083397  0.01779679  1
  Si0+  Si110  1  0.67498067  0.92939048  0.34886527  1
  Si0+  Si111  1  0.32296467  0.57422214  0.01695398  1
  Si0+  Si112  1  0.42802959  0.32009861  0.98256113  1
  Si0+  Si113  1  0.57018825  0.17720119  0.65244208  1
  Si0+  Si114  1  0.57016864  0.67947403  0.31986151  1
  Si0+  Si115  1  0.31994911  0.06904928  0.34754419  1
  Si0+  Si116  1  0.67614489  0.42821123  0.34562098  1
  Si0+  Si117  1  0.67514958  0.42536889  0.01778365  1
  Si0+  Si118  1  0.43132344  0.32262166  0.65282926  1
  Si0+  Si119  1  0.56887378  0.67860065  0.65047912  1
  O2-  O120  1  0.25036212  -0.00169271  0.05921954  1
  O2-  O121  1  0.24926403  -0.00130215  0.39087189  1
  O2-  O122  1  0.24130122  0.00060736  0.72872515  1
  O2-  O123  1  0.25291674  0.50773599  0.06186952  1
  O2-  O124  1  0.25546869  0.50331625  0.39551195  1
  O2-  O125  1  0.24804723  0.50667060  0.72407202  1
  O2-  O126  1  0.75541973  0.00678145  0.06083265  1
  O2-  O127  1  0.74601686  -0.00335993  0.39012918  1
  O2-  O128  1  0.75494210  -0.00146963  0.73185939  1
  O2-  O129  1  0.74158240  0.49582614  0.06228394  1
  O2-  O130  1  0.74271464  0.49701723  0.39206998  1
  O2-  O131  1  0.75327072  0.49348647  0.73033053  1
  O2-  O132  1  -0.00046876  0.24833394  0.27721902  1
  O2-  O133  1  -0.00390785  0.24422582  0.59939012  1
  O2-  O134  1  -0.00716931  0.24947602  0.94280539  1
  O2-  O135  1  -0.00523146  0.74548166  0.26922198  1
  O2-  O136  1  0.00306124  0.74251252  0.60705786  1
  O2-  O137  1  -0.00248503  0.74592612  0.93400743  1
  O2-  O138  1  0.50256892  0.25371454  0.26911349  1
  O2-  O139  1  0.50516574  0.25460496  0.61077811  1
  O2-  O140  1  0.50067994  0.25751000  0.93628581  1
  O2-  O141  1  0.49946993  0.75151814  0.27904611  1
  O2-  O142  1  0.50038308  0.75217386  0.60690744  1
  O2-  O143  1  0.49951684  0.75030721  0.93384995  1
  O2-  O144  1  0.07168857  0.18008292  0.10237538  1
  O2-  O145  1  0.07462931  0.18025558  0.42436942  1
  O2-  O146  1  0.07735406  0.18687785  0.76426671  1
  O2-  O147  1  0.06737831  0.67682601  0.09925392  1
  O2-  O148  1  0.07247328  0.68162953  0.43278468  1
  O2-  O149  1  0.08208546  0.68042874  0.75495907  1
  O2-  O150  1  0.57001808  0.17951973  0.09634014  1
  O2-  O151  1  0.56962560  0.17763570  0.43258732  1
  O2-  O152  1  0.56520702  0.17651889  0.75732576  1
  O2-  O153  1  0.56950769  0.68062109  0.09795047  1
  O2-  O154  1  0.56825631  0.67883119  0.42524026  1
  O2-  O155  1  0.56505694  0.67679771  0.75483272  1
  O2-  O156  1  0.18130095  0.42475082  0.23824844  1
  O2-  O157  1  0.18506737  0.42857516  0.57796311  1
  O2-  O158  1  0.18383518  0.42915393  0.90124162  1
  O2-  O159  1  0.18201935  0.92846724  0.24238058  1
  O2-  O160  1  0.18712532  0.92185632  0.57798306  1
  O2-  O161  1  0.17913750  0.92903652  0.91067066  1
  O2-  O162  1  0.67898408  0.42832322  0.24017148  1
  O2-  O163  1  0.66970765  0.43382074  0.56578690  1
  O2-  O164  1  0.67576366  0.42493451  0.91253536  1
  O2-  O165  1  0.67036707  0.92980723  0.24364453  1
  O2-  O166  1  0.67627250  0.93317961  0.56770547  1
  O2-  O167  1  0.68028669  0.93353903  0.90228239  1
  O2-  O168  1  0.42613987  0.31588765  0.08786081  1
  O2-  O169  1  0.42700414  0.31824107  0.43199170  1
  O2-  O170  1  0.42933445  0.32302283  0.75768913  1
  O2-  O171  1  0.42863770  0.82157569  0.09837955  1
  O2-  O172  1  0.42756793  0.82168653  0.42602573  1
  O2-  O173  1  0.42547539  0.82013561  0.75409206  1
  O2-  O174  1  0.92931141  0.32223085  0.09193244  1
  O2-  O175  1  0.92845078  0.31976219  0.42352987  1
  O2-  O176  1  0.93484456  0.32455561  0.76423889  1
  O2-  O177  1  0.93030829  0.82249829  0.09747169  1
  O2-  O178  1  0.92818457  0.82247243  0.43058642  1
  O2-  O179  1  0.92705016  0.81691162  0.76389200  1
  O2-  O180  1  0.31995715  0.06749536  0.24249808  1
  O2-  O181  1  0.32083543  0.06988715  0.56767675  1
  O2-  O182  1  0.31871944  0.07275156  0.91277014  1
  O2-  O183  1  0.32317062  0.57707798  0.24563552  1
  O2-  O184  1  0.32436562  0.57317791  0.57656509  1
  O2-  O185  1  0.32339990  0.57105508  0.91090612  1
  O2-  O186  1  0.82335089  0.07167094  0.23175358  1
  O2-  O187  1  0.82025554  0.07129236  0.56775770  1
  O2-  O188  1  0.82497929  0.07227249  0.90928521  1
  O2-  O189  1  0.81796725  0.57148445  0.23481029  1
  O2-  O190  1  0.81859017  0.57062062  0.56846678  1
  O2-  O191  1  0.81891858  0.56684901  0.90242908  1
  O2-  O192  1  0.04603968  0.08622969  0.27310351  1
  O2-  O193  1  0.06121601  0.07652195  0.60199021  1
  O2-  O194  1  0.04904299  0.08316599  0.93208823  1
  O2-  O195  1  0.04569516  0.57482344  0.27306717  1
  O2-  O196  1  0.05506228  0.58184374  0.60740388  1
  O2-  O197  1  0.04350167  0.57571863  0.93578915  1
  O2-  O198  1  0.53836115  0.08207142  0.26493196  1
  O2-  O199  1  0.53322018  0.08841070  0.60493762  1
  O2-  O200  1  0.53625171  0.08628181  0.92914656  1
  O2-  O201  1  0.54318850  0.58906065  0.27006313  1
  O2-  O202  1  0.53570398  0.58874630  0.60172010  1
  O2-  O203  1  0.54353141  0.57856862  0.93128413  1
  O2-  O204  1  0.16277317  0.20718153  0.27187858  1
  O2-  O205  1  0.17123837  0.21620461  0.59832463  1
  O2-  O206  1  0.16750242  0.21452125  0.93582830  1
  O2-  O207  1  0.16810701  0.70632724  0.26608254  1
  O2-  O208  1  0.16852184  0.70641080  0.60160641  1
  O2-  O209  1  0.16883887  0.70147880  0.93456939  1
  O2-  O210  1  0.67016127  0.20554030  0.26296932  1
  O2-  O211  1  0.66430287  0.19688606  0.60743422  1
  O2-  O212  1  0.66993475  0.20714416  0.92889585  1
  O2-  O213  1  0.66077035  0.70828016  0.27197524  1
  O2-  O214  1  0.66016336  0.70534286  0.60236442  1
  O2-  O215  1  0.66838802  0.70785690  0.93074406  1
  O2-  O216  1  0.08452923  0.45674552  0.07154690  1
  O2-  O217  1  0.08476348  0.45655909  0.40868817  1
  O2-  O218  1  0.08937710  0.45354217  0.72975378  1
  O2-  O219  1  0.08766900  0.95872213  0.06344814  1
  O2-  O220  1  0.08762827  0.95407127  0.39462340  1
  O2-  O221  1  0.08383194  0.94233169  0.72536272  1
  O2-  O222  1  0.57952660  0.44702199  0.06192643  1
  O2-  O223  1  0.58003442  0.45195532  0.38794451  1
  O2-  O224  1  0.57994318  0.46013296  0.73565657  1
  O2-  O225  1  0.58236905  0.96430054  0.06755617  1
  O2-  O226  1  0.58146762  0.95573534  0.39651307  1
  O2-  O227  1  0.58153313  0.95914323  0.73458779  1
  O2-  O228  1  0.21532360  0.33492798  0.06996398  1
  O2-  O229  1  0.21378954  0.33164236  0.40596579  1
  O2-  O230  1  0.21667130  0.34198328  0.73163124  1
  O2-  O231  1  0.20740220  0.83609876  0.06289311  1
  O2-  O232  1  0.20925469  0.83633858  0.39581060  1
  O2-  O233  1  0.21428629  0.83532254  0.73186399  1
  O2-  O234  1  0.70339132  0.33162200  0.06299622  1
  O2-  O235  1  0.70104195  0.33423038  0.39081765  1
  O2-  O236  1  0.69617597  0.32646581  0.72900729  1
  O2-  O237  1  0.70649256  0.83481629  0.06857877  1
  O2-  O238  1  0.69739857  0.83537702  0.39526638  1
  O2-  O239  1  0.70322187  0.82955263  0.73150606  1
  O2-  O240  1  0.44462038  0.42238883  0.26550163  1
  O2-  O241  1  0.45469313  0.41531451  0.60431659  1
  O2-  O242  1  0.44542621  0.41629886  0.93910514  1
  O2-  O243  1  0.45234641  0.91300167  0.27240613  1
  O2-  O244  1  0.45638799  0.91451340  0.60339057  1
  O2-  O245  1  0.45506750  0.92155013  0.93222151  1
  O2-  O246  1  0.96010395  0.41190432  0.27345294  1
  O2-  O247  1  0.96278649  0.41811801  0.59713138  1
  O2-  O248  1  0.96163836  0.41333367  0.94000584  1
  O2-  O249  1  0.95972258  0.91922143  0.26445342  1
  O2-  O250  1  0.95982157  0.91435235  0.59602000  1
  O2-  O251  1  0.96009809  0.91710673  0.92983924  1
  O2-  O252  1  0.33033028  0.28612982  0.26457551  1
  O2-  O253  1  0.34100431  0.29082462  0.60514655  1
  O2-  O254  1  0.33660991  0.28875810  0.93542435  1
  O2-  O255  1  0.33689797  0.79266786  0.27231043  1
  O2-  O256  1  0.33854576  0.79213959  0.59958704  1
  O2-  O257  1  0.33037606  0.79656362  0.92886870  1
  O2-  O258  1  0.83791291  0.29501701  0.26945020  1
  O2-  O259  1  0.82759672  0.29755259  0.59876594  1
  O2-  O260  1  0.83412022  0.30534911  0.93898946  1
  O2-  O261  1  0.82563744  0.79796298  0.26682564  1
  O2-  O262  1  0.83057330  0.78761351  0.59698455  1
  O2-  O263  1  0.82923225  0.79236527  0.93379243  1
  O2-  O264  1  0.41228154  0.04351918  0.06460986  1
  O2-  O265  1  0.41158895  0.04072439  0.39556248  1
  O2-  O266  1  0.41230309  0.03731436  0.73761940  1
  O2-  O267  1  0.41658907  0.54754937  0.06299784  1
  O2-  O268  1  0.41700882  0.55001680  0.39677794  1
  O2-  O269  1  0.41145317  0.54199624  0.73113342  1
  O2-  O270  1  0.91935826  0.04633654  0.05948357  1
  O2-  O271  1  0.91839847  0.04225276  0.40054894  1
  O2-  O272  1  0.92808161  0.04698860  0.72789075  1
  O2-  O273  1  0.91297557  0.53626121  0.07103592  1
  O2-  O274  1  0.91395539  0.53936299  0.40328716  1
  O2-  O275  1  0.92279657  0.54459881  0.73352380  1
  O2-  O276  1  0.29039929  0.16123960  0.06647748  1
  O2-  O277  1  0.29169287  0.16013711  0.39551979  1
  O2-  O278  1  0.29169065  0.16900302  0.73685115  1
  O2-  O279  1  0.30147877  0.67004189  0.05992332  1
  O2-  O280  1  0.29518941  0.66643688  0.39933080  1
  O2-  O281  1  0.29925298  0.66683173  0.72789098  1
  O2-  O282  1  0.80173611  0.16899140  0.05764224  1
  O2-  O283  1  0.79047375  0.16828529  0.39892614  1
  O2-  O284  1  0.79938350  0.17011274  0.73398556  1
  O2-  O285  1  0.78632032  0.66603947  0.06894980  1
  O2-  O286  1  0.78652320  0.66845899  0.40080215  1
  O2-  O287  1  0.78726429  0.66553729  0.73412710  1
