# generated using pymatgen
data_Ca2Al2SiO7
_symmetry_space_group_name_H-M   'P 1'
_cell_length_a   15.46191619
_cell_length_b   15.46042667
_cell_length_c   15.28637239
_cell_angle_alpha   89.99997454
_cell_angle_beta   90.00417495
_cell_angle_gamma   89.99910558
_symmetry_Int_Tables_number   1
_chemical_formula_structural   Ca2Al2SiO7
_chemical_formula_sum   'Ca48 Al48 Si24 O168'
_cell_volume   3654.17400775
_cell_formula_units_Z   24
loop_
 _symmetry_equiv_pos_site_id
 _symmetry_equiv_pos_as_xyz
  1  'x, y, z'
loop_
 _atom_type_symbol
 _atom_type_oxidation_number
  Ca2+  2.0
  Al0+  0.0
  Si0+  0.0
  O2-  -2.0
loop_
 _atom_site_type_symbol
 _atom_site_label
 _atom_site_symmetry_multiplicity
 _atom_site_fract_x
 _atom_site_fract_y
 _atom_site_fract_z
 _atom_site_occupancy
  Ca2+  Ca0  1  0.17128266  0.08150574  0.17522783  1
  Ca2+  Ca1  1  0.16436335  0.07788002  0.50197086  1
  Ca2+  Ca2  1  0.15987419  0.07742949  0.83903840  1
  Ca2+  Ca3  1  0.15738765  0.57687378  0.17407243  1
  Ca2+  Ca4  1  0.16002734  0.57768448  0.49827675  1
  Ca2+  Ca5  1  0.16569160  0.58310554  0.84014049  1
  Ca2+  Ca6  1  0.67763101  0.08805789  0.17366085  1
  Ca2+  Ca7  1  0.67426323  0.07676065  0.50357734  1
  Ca2+  Ca8  1  0.66579114  0.07784516  0.83444495  1
  Ca2+  Ca9  1  0.67016836  0.57953592  0.16647019  1
  Ca2+  Ca10  1  0.67096640  0.58268137  0.50981759  1
  Ca2+  Ca11  1  0.68234042  0.57228588  0.83709795  1
  Ca2+  Ca12  1  0.08399239  0.32161267  0.15987075  1
  Ca2+  Ca13  1  0.08026891  0.32340945  0.49568746  1
  Ca2+  Ca14  1  0.07425973  0.32140986  0.82886226  1
  Ca2+  Ca15  1  0.09543206  0.82566551  0.16418958  1
  Ca2+  Ca16  1  0.08405421  0.83239724  0.49579572  1
  Ca2+  Ca17  1  0.08220417  0.83229978  0.82885182  1
  Ca2+  Ca18  1  0.57638888  0.33379427  0.15757275  1
  Ca2+  Ca19  1  0.57775305  0.34090779  0.50056897  1
  Ca2+  Ca20  1  0.57568327  0.34526813  0.83069765  1
  Ca2+  Ca21  1  0.57738183  0.83170212  0.16699848  1
  Ca2+  Ca22  1  0.58118125  0.82984720  0.48955837  1
  Ca2+  Ca23  1  0.58402033  0.83373674  0.82484031  1
  Ca2+  Ca24  1  0.32634636  0.41495963  0.17126623  1
  Ca2+  Ca25  1  0.32652828  0.41330673  0.50178549  1
  Ca2+  Ca26  1  0.33630403  0.41348002  0.83687845  1
  Ca2+  Ca27  1  0.32422874  0.92691745  0.17334934  1
  Ca2+  Ca28  1  0.32315338  0.91531816  0.50173076  1
  Ca2+  Ca29  1  0.31918154  0.92640892  0.84239023  1
  Ca2+  Ca30  1  0.83623331  0.41672603  0.16624260  1
  Ca2+  Ca31  1  0.82865952  0.42475422  0.51380110  1
  Ca2+  Ca32  1  0.83537275  0.41863173  0.84105972  1
  Ca2+  Ca33  1  0.83473357  0.92519691  0.17172616  1
  Ca2+  Ca34  1  0.83553835  0.92030763  0.50679788  1
  Ca2+  Ca35  1  0.83127586  0.91172265  0.83065204  1
  Ca2+  Ca36  1  0.41013853  0.16837791  0.15985111  1
  Ca2+  Ca37  1  0.41507854  0.16799191  0.49757677  1
  Ca2+  Ca38  1  0.41201227  0.17648265  0.83142790  1
  Ca2+  Ca39  1  0.41737122  0.67372384  0.16821107  1
  Ca2+  Ca40  1  0.42588713  0.67541633  0.48795542  1
  Ca2+  Ca41  1  0.42027738  0.66837478  0.82850623  1
  Ca2+  Ca42  1  0.92841132  0.16695120  0.16069695  1
  Ca2+  Ca43  1  0.92662744  0.16450279  0.49606972  1
  Ca2+  Ca44  1  0.92471113  0.17473774  0.82749078  1
  Ca2+  Ca45  1  0.92750253  0.66570740  0.16058677  1
  Ca2+  Ca46  1  0.91491387  0.67373935  0.49775217  1
  Ca2+  Ca47  1  0.91658685  0.66638426  0.83064895  1
  Al0+  Al48  1  -0.00225846  -0.00496194  0.00046926  1
  Al0+  Al49  1  0.00033847  0.00140770  0.33675695  1
  Al0+  Al50  1  0.00019447  -0.00245612  0.66412812  1
  Al0+  Al51  1  0.00082635  0.50191134  -0.00327097  1
  Al0+  Al52  1  -0.00268681  0.50089917  0.33684391  1
  Al0+  Al53  1  0.00281976  0.49902490  0.66830308  1
  Al0+  Al54  1  0.49780126  -0.00016785  0.00278318  1
  Al0+  Al55  1  0.50054728  0.00210784  0.33142498  1
  Al0+  Al56  1  0.49854114  0.00176058  0.67039583  1
  Al0+  Al57  1  0.50160318  0.50085266  0.00051449  1
  Al0+  Al58  1  0.49995624  0.50021824  0.32862041  1
  Al0+  Al59  1  0.50019252  0.50137402  0.66438657  1
  Al0+  Al60  1  0.25114710  0.25033953  -0.00634872  1
  Al0+  Al61  1  0.24861557  0.25065999  0.33854676  1
  Al0+  Al62  1  0.25192415  0.25080985  0.65848930  1
  Al0+  Al63  1  0.25175815  0.75039117  -0.00216377  1
  Al0+  Al64  1  0.25164517  0.74984625  0.32910199  1
  Al0+  Al65  1  0.25072624  0.75091120  0.67056871  1
  Al0+  Al66  1  0.74762413  0.24889340  0.00021140  1
  Al0+  Al67  1  0.74869595  0.25160476  0.34015122  1
  Al0+  Al68  1  0.74696796  0.24945373  0.66757024  1
  Al0+  Al69  1  0.75004876  0.74746167  0.00509026  1
  Al0+  Al70  1  0.74985326  0.74864682  0.32614377  1
  Al0+  Al71  1  0.75163969  0.74912130  0.67029669  1
  Al0+  Al72  1  0.31857649  0.07295373  0.01433040  1
  Al0+  Al73  1  0.57310963  0.67725787  0.31571097  1
  Al0+  Al74  1  0.42891062  0.82412729  0.31704723  1
  Al0+  Al75  1  0.17620626  0.92776251  0.01609976  1
  Al0+  Al76  1  0.06897209  0.67899297  0.32164114  1
  Al0+  Al77  1  0.43188107  0.32205610  0.65027334  1
  Al0+  Al78  1  0.07166066  0.17556230  0.98598288  1
  Al0+  Al79  1  0.43030599  0.32123629  0.98746722  1
  Al0+  Al80  1  0.82398533  0.56999349  0.68198235  1
  Al0+  Al81  1  0.32272202  0.07298658  0.35065731  1
  Al0+  Al82  1  0.17733617  0.42984476  0.34659307  1
  Al0+  Al83  1  0.67851556  0.92941553  0.67782332  1
  Al0+  Al84  1  0.92792731  0.32020006  0.98712827  1
  Al0+  Al85  1  0.18009393  0.92702211  0.34983920  1
  Al0+  Al86  1  0.17857162  0.92891577  0.68204916  1
  Al0+  Al87  1  0.67718285  0.42797666  0.68134718  1
  Al0+  Al88  1  0.92637928  0.32304599  0.65124771  1
  Al0+  Al89  1  0.07228669  0.68056599  0.98604345  1
  Al0+  Al90  1  0.82170853  0.07196453  0.34725094  1
  Al0+  Al91  1  0.82354651  0.56999598  0.01903859  1
  Al0+  Al92  1  0.06999987  0.17827941  0.64952611  1
  Al0+  Al93  1  0.92920125  0.81756482  0.65348321  1
  Al0+  Al94  1  0.07039908  0.17985274  0.31895981  1
  Al0+  Al95  1  0.67897568  0.42778331  0.01726504  1
  Si0+  Si96  1  0.81916843  0.06989754  0.01329533  1
  Si0+  Si97  1  0.67979183  0.92763518  0.34685792  1
  Si0+  Si98  1  0.32084807  0.57119832  0.68029669  1
  Si0+  Si99  1  0.18124510  0.42785935  0.68271730  1
  Si0+  Si100  1  0.67694027  0.43018854  0.34931706  1
  Si0+  Si101  1  0.42895340  0.32012121  0.31813331  1
  Si0+  Si102  1  0.43080600  0.82162982  0.98221575  1
  Si0+  Si103  1  0.92438211  0.82060454  0.98343462  1
  Si0+  Si104  1  0.92774898  0.82335696  0.31615383  1
  Si0+  Si105  1  0.57134773  0.17395262  0.64872466  1
  Si0+  Si106  1  0.32345406  0.57220799  0.01470654  1
  Si0+  Si107  1  0.57240123  0.17547182  0.98366817  1
  Si0+  Si108  1  0.18073294  0.43097659  0.01186200  1
  Si0+  Si109  1  0.67680093  0.92726127  0.01574838  1
  Si0+  Si110  1  0.82238452  0.07142087  0.68419770  1
  Si0+  Si111  1  0.07610868  0.67798480  0.65019995  1
  Si0+  Si112  1  0.81993048  0.57146391  0.34900997  1
  Si0+  Si113  1  0.56967520  0.68231930  0.65368198  1
  Si0+  Si114  1  0.57278446  0.18072261  0.31960612  1
  Si0+  Si115  1  0.92593054  0.32213827  0.31866735  1
  Si0+  Si116  1  0.32124502  0.07353911  0.68426703  1
  Si0+  Si117  1  0.42811018  0.82261735  0.65360457  1
  Si0+  Si118  1  0.32344779  0.57068084  0.34878305  1
  Si0+  Si119  1  0.57146072  0.68011883  0.98241844  1
  O2-  O120  1  0.24321513  0.00508470  0.06457524  1
  O2-  O121  1  0.25210947  -0.00061261  0.40014956  1
  O2-  O122  1  0.24991683  0.00751124  0.72747812  1
  O2-  O123  1  0.25100169  0.50247946  0.05556096  1
  O2-  O124  1  0.25180276  0.50586728  0.39372325  1
  O2-  O125  1  0.25026148  0.50127758  0.72473017  1
  O2-  O126  1  0.74705608  -0.00063487  0.05632320  1
  O2-  O127  1  0.74983104  -0.00672879  0.39247070  1
  O2-  O128  1  0.75132438  0.00408050  0.72787006  1
  O2-  O129  1  0.75385594  0.49542915  0.06925152  1
  O2-  O130  1  0.74659884  0.50254944  0.39042830  1
  O2-  O131  1  0.75821877  0.49055555  0.72995218  1
  O2-  O132  1  -0.00545306  0.25429472  0.27354642  1
  O2-  O133  1  -0.00397106  0.24953755  0.60029886  1
  O2-  O134  1  -0.00179670  0.24681985  0.93724973  1
  O2-  O135  1  -0.00111971  0.75698546  0.27290984  1
  O2-  O136  1  0.00441662  0.74345996  0.60669577  1
  O2-  O137  1  -0.00343906  0.75466268  0.94103513  1
  O2-  O138  1  0.49827166  0.24742965  0.27640628  1
  O2-  O139  1  0.50757161  0.24765437  0.60457781  1
  O2-  O140  1  0.50501247  0.24604688  0.94101618  1
  O2-  O141  1  0.50146649  0.75103353  0.26758391  1
  O2-  O142  1  0.50198175  0.75557256  0.61017276  1
  O2-  O143  1  0.50313982  0.75273276  0.93810852  1
  O2-  O144  1  0.07185208  0.17818074  0.09977020  1
  O2-  O145  1  0.06941797  0.18071419  0.43162307  1
  O2-  O146  1  0.06925280  0.17896611  0.76328424  1
  O2-  O147  1  0.07218059  0.67962911  0.09921856  1
  O2-  O148  1  0.06460844  0.67682964  0.43466535  1
  O2-  O149  1  0.07988601  0.68072636  0.75569587  1
  O2-  O150  1  0.57327427  0.17455995  0.08954972  1
  O2-  O151  1  0.57472925  0.18291253  0.42444548  1
  O2-  O152  1  0.56704223  0.16725026  0.75389023  1
  O2-  O153  1  0.56943518  0.68148008  0.08732328  1
  O2-  O154  1  0.57280963  0.67790509  0.43011120  1
  O2-  O155  1  0.56604707  0.68306495  0.75886867  1
  O2-  O156  1  0.17951130  0.42977723  0.23299046  1
  O2-  O157  1  0.18209303  0.42976991  0.57745167  1
  O2-  O158  1  0.18356624  0.43274188  0.90658480  1
  O2-  O159  1  0.18103224  0.92771394  0.23658884  1
  O2-  O160  1  0.18252006  0.92389814  0.56957696  1
  O2-  O161  1  0.17948347  0.92695390  0.90218303  1
  O2-  O162  1  0.67648962  0.42788030  0.24463845  1
  O2-  O163  1  0.67307444  0.43688188  0.56732595  1
  O2-  O164  1  0.67586321  0.43273383  0.90437033  1
  O2-  O165  1  0.68094627  0.93019834  0.24090761  1
  O2-  O166  1  0.67818168  0.92969551  0.56487383  1
  O2-  O167  1  0.67635083  0.92702889  0.91042707  1
  O2-  O168  1  0.43025930  0.32191748  0.10081040  1
  O2-  O169  1  0.43246466  0.32338082  0.42310745  1
  O2-  O170  1  0.43164392  0.32305185  0.76326664  1
  O2-  O171  1  0.43269896  0.82015355  0.08689213  1
  O2-  O172  1  0.43222347  0.82111817  0.43155027  1
  O2-  O173  1  0.42926909  0.81891123  0.75888417  1
  O2-  O174  1  0.93047697  0.31783493  0.10123590  1
  O2-  O175  1  0.92594729  0.32153496  0.42401100  1
  O2-  O176  1  0.93048851  0.32171201  0.76476112  1
  O2-  O177  1  0.91984418  0.82087011  0.08877310  1
  O2-  O178  1  0.92292390  0.81978279  0.42166727  1
  O2-  O179  1  0.92815869  0.81620420  0.76648938  1
  O2-  O180  1  0.32107454  0.07501917  0.23726048  1
  O2-  O181  1  0.32458413  0.07043947  0.57897238  1
  O2-  O182  1  0.32278040  0.07015322  0.90080509  1
  O2-  O183  1  0.32579942  0.56669169  0.24309853  1
  O2-  O184  1  0.32112144  0.57221661  0.57545829  1
  O2-  O185  1  0.32472113  0.57237821  0.90909649  1
  O2-  O186  1  0.81849557  0.07271466  0.23353827  1
  O2-  O187  1  0.82112712  0.06891696  0.57846433  1
  O2-  O188  1  0.81735732  0.06884658  0.90831096  1
  O2-  O189  1  0.82190132  0.56954242  0.24437994  1
  O2-  O190  1  0.81801558  0.57439943  0.56779539  1
  O2-  O191  1  0.82088599  0.57263595  0.90589289  1
  O2-  O192  1  0.03915805  0.08272682  0.26656367  1
  O2-  O193  1  0.04199116  0.07942548  0.59783651  1
  O2-  O194  1  0.04167467  0.07628823  0.93577224  1
  O2-  O195  1  0.03403284  0.58316443  0.26726110  1
  O2-  O196  1  0.05531413  0.58211432  0.60771092  1
  O2-  O197  1  0.04347554  0.58447939  0.93020578  1
  O2-  O198  1  0.55248287  0.08763203  0.27167289  1
  O2-  O199  1  0.54013870  0.08273510  0.59935925  1
  O2-  O200  1  0.54565164  0.08166407  0.93766161  1
  O2-  O201  1  0.54152467  0.58021674  0.26144999  1
  O2-  O202  1  0.53837418  0.59285359  0.60431558  1
  O2-  O203  1  0.53971686  0.58982137  0.93538732  1
  O2-  O204  1  0.16726092  0.21416121  0.26748032  1
  O2-  O205  1  0.16791767  0.20862364  0.59702399  1
  O2-  O206  1  0.16816632  0.20606418  0.93105262  1
  O2-  O207  1  0.16821044  0.70095082  0.26881823  1
  O2-  O208  1  0.16895535  0.70639895  0.60331546  1
  O2-  O209  1  0.16996771  0.70830021  0.93120093  1
  O2-  O210  1  0.66302481  0.21347466  0.27100358  1
  O2-  O211  1  0.66715375  0.19286434  0.60497626  1
  O2-  O212  1  0.66585884  0.19753591  0.93638878  1
  O2-  O213  1  0.67030563  0.70470808  0.25974770  1
  O2-  O214  1  0.66188717  0.70831128  0.60739183  1
  O2-  O215  1  0.66426222  0.70747833  0.93731590  1
  O2-  O216  1  0.08969317  0.45868491  0.05954931  1
  O2-  O217  1  0.08174337  0.46185025  0.40253077  1
  O2-  O218  1  0.08963120  0.45289787  0.73106495  1
  O2-  O219  1  0.07389716  0.94346019  0.06569434  1
  O2-  O220  1  0.08061733  0.95371161  0.40097720  1
  O2-  O221  1  0.08022480  0.95583294  0.73412504  1
  O2-  O222  1  0.58174188  0.46255167  0.07070916  1
  O2-  O223  1  0.58421654  0.45825108  0.39522248  1
  O2-  O224  1  0.58163202  0.46718379  0.73445591  1
  O2-  O225  1  0.58502930  0.95373381  0.06336759  1
  O2-  O226  1  0.58685642  0.95466692  0.39257995  1
  O2-  O227  1  0.58197875  0.95889169  0.73462171  1
  O2-  O228  1  0.21029072  0.33934828  0.05808587  1
  O2-  O229  1  0.21157430  0.33682243  0.40407324  1
  O2-  O230  1  0.21416737  0.33696949  0.72798914  1
  O2-  O231  1  0.21382083  0.83070156  0.06664762  1
  O2-  O232  1  0.20950354  0.82723525  0.40106495  1
  O2-  O233  1  0.21348151  0.83358269  0.73744580  1
  O2-  O234  1  0.69955467  0.32622940  0.06815116  1
  O2-  O235  1  0.70345920  0.33962965  0.39947994  1
  O2-  O236  1  0.68861249  0.32433598  0.72896648  1
  O2-  O237  1  0.70475424  0.83634288  0.06406208  1
  O2-  O238  1  0.70208836  0.83172742  0.38984171  1
  O2-  O239  1  0.70957767  0.83432687  0.73463477  1
  O2-  O240  1  0.45767296  0.41099663  0.26927634  1
  O2-  O241  1  0.46201363  0.41913031  0.59533746  1
  O2-  O242  1  0.46113272  0.41863309  0.93327697  1
  O2-  O243  1  0.45965214  0.92158050  0.26283733  1
  O2-  O244  1  0.45192377  0.91594554  0.60876216  1
  O2-  O245  1  0.45815100  0.91390840  0.93545404  1
  O2-  O246  1  0.95067991  0.41643721  0.27436202  1
  O2-  O247  1  0.95734910  0.42179666  0.59929039  1
  O2-  O248  1  0.95772730  0.41801375  0.93492077  1
  O2-  O249  1  0.94995969  0.91829941  0.27258174  1
  O2-  O250  1  0.95733026  0.91404783  0.59881829  1
  O2-  O251  1  0.94563899  0.91444410  0.93616551  1
  O2-  O252  1  0.33607907  0.29442960  0.27311497  1
  O2-  O253  1  0.33654905  0.29191616  0.59398067  1
  O2-  O254  1  0.33542945  0.29280998  0.92903970  1
  O2-  O255  1  0.33300388  0.79242636  0.26159469  1
  O2-  O256  1  0.33839186  0.78950950  0.60588477  1
  O2-  O257  1  0.34067045  0.79069687  0.93385788  1
  O2-  O258  1  0.83112081  0.29680331  0.27451121  1
  O2-  O259  1  0.82411181  0.30093405  0.60280431  1
  O2-  O260  1  0.82814940  0.29363109  0.93577957  1
  O2-  O261  1  0.83543889  0.79665814  0.26736256  1
  O2-  O262  1  0.83231580  0.78687725  0.59844766  1
  O2-  O263  1  0.83122601  0.79174217  0.93682734  1
  O2-  O264  1  0.41701876  0.04194435  0.06784445  1
  O2-  O265  1  0.42425945  0.04867426  0.40037617  1
  O2-  O266  1  0.41346703  0.04639855  0.73256574  1
  O2-  O267  1  0.41380056  0.54333398  0.06345380  1
  O2-  O268  1  0.41601307  0.54115713  0.39607928  1
  O2-  O269  1  0.41231278  0.54296728  0.72848320  1
  O2-  O270  1  0.90946406  0.03991321  0.06226691  1
  O2-  O271  1  0.91666497  0.04230864  0.40319235  1
  O2-  O272  1  0.91422589  0.04169201  0.73000793  1
  O2-  O273  1  0.92370100  0.54369013  0.06988468  1
  O2-  O274  1  0.90944711  0.54332956  0.39977278  1
  O2-  O275  1  0.92538234  0.54988104  0.73255434  1
  O2-  O276  1  0.29577323  0.17404537  0.06458986  1
  O2-  O277  1  0.29453068  0.17080887  0.40445679  1
  O2-  O278  1  0.29830015  0.16962529  0.72599639  1
  O2-  O279  1  0.29784385  0.66457550  0.06100982  1
  O2-  O280  1  0.30306953  0.66597730  0.39228082  1
  O2-  O281  1  0.29514373  0.66235969  0.73093447  1
  O2-  O282  1  0.79137152  0.16056994  0.06275690  1
  O2-  O283  1  0.78616811  0.16593332  0.40370212  1
  O2-  O284  1  0.79736652  0.16515271  0.72976587  1
  O2-  O285  1  0.79056633  0.66725916  0.07285779  1
  O2-  O286  1  0.79243420  0.66510418  0.39356554  1
  O2-  O287  1  0.78796410  0.66500956  0.73694622  1
