# generated using pymatgen
data_Ca2Al2SiO7
_symmetry_space_group_name_H-M   'P 1'
_cell_length_a   15.45497246
_cell_length_b   15.45612372
_cell_length_c   15.28268021
_cell_angle_alpha   90.00211705
_cell_angle_beta   89.99758035
_cell_angle_gamma   89.99788616
_symmetry_Int_Tables_number   1
_chemical_formula_structural   Ca2Al2SiO7
_chemical_formula_sum   'Ca48 Al48 Si24 O168'
_cell_volume   3650.63443129
_cell_formula_units_Z   24
loop_
 _symmetry_equiv_pos_site_id
 _symmetry_equiv_pos_as_xyz
  1  'x, y, z'
loop_
 _atom_type_symbol
 _atom_type_oxidation_number
  Ca2+  2.0
  Al0+  0.0
  Si0+  0.0
  O2-  -2.0
loop_
 _atom_site_type_symbol
 _atom_site_label
 _atom_site_symmetry_multiplicity
 _atom_site_fract_x
 _atom_site_fract_y
 _atom_site_fract_z
 _atom_site_occupancy
  Ca2+  Ca0  1  0.16909991  0.07258093  0.17455050  1
  Ca2+  Ca1  1  0.16923139  0.08388454  0.50155589  1
  Ca2+  Ca2  1  0.16714155  0.08106684  0.83716438  1
  Ca2+  Ca3  1  0.17349596  0.58453435  0.16497042  1
  Ca2+  Ca4  1  0.17217852  0.59099922  0.50206684  1
  Ca2+  Ca5  1  0.16426014  0.58012677  0.84693310  1
  Ca2+  Ca6  1  0.66758630  0.06986465  0.16937702  1
  Ca2+  Ca7  1  0.67350415  0.07516334  0.50473689  1
  Ca2+  Ca8  1  0.67570174  0.07765391  0.83853930  1
  Ca2+  Ca9  1  0.67076193  0.58532385  0.16775181  1
  Ca2+  Ca10  1  0.66733280  0.57600008  0.49971081  1
  Ca2+  Ca11  1  0.67488824  0.58592745  0.84469616  1
  Ca2+  Ca12  1  0.08700815  0.32682645  0.15953198  1
  Ca2+  Ca13  1  0.07944537  0.32022392  0.49806388  1
  Ca2+  Ca14  1  0.07306757  0.33562071  0.82817709  1
  Ca2+  Ca15  1  0.07644836  0.83551780  0.15858401  1
  Ca2+  Ca16  1  0.07973194  0.83457275  0.49263378  1
  Ca2+  Ca17  1  0.09046418  0.82245941  0.83651615  1
  Ca2+  Ca18  1  0.57898763  0.33479164  0.16123373  1
  Ca2+  Ca19  1  0.58455455  0.33020206  0.49273514  1
  Ca2+  Ca20  1  0.57348189  0.33680614  0.83420394  1
  Ca2+  Ca21  1  0.57308860  0.83564036  0.15777406  1
  Ca2+  Ca22  1  0.57720930  0.83626460  0.48989641  1
  Ca2+  Ca23  1  0.58369292  0.83131380  0.84063315  1
  Ca2+  Ca24  1  0.33508480  0.42744327  0.16513675  1
  Ca2+  Ca25  1  0.33126958  0.42473310  0.50079945  1
  Ca2+  Ca26  1  0.32347810  0.42218686  0.84751412  1
  Ca2+  Ca27  1  0.32318060  0.91066014  0.17354286  1
  Ca2+  Ca28  1  0.33049032  0.92552799  0.49946607  1
  Ca2+  Ca29  1  0.32859540  0.92161552  0.84204470  1
  Ca2+  Ca30  1  0.83448486  0.42400438  0.16698724  1
  Ca2+  Ca31  1  0.82948638  0.40989921  0.50296160  1
  Ca2+  Ca32  1  0.83970646  0.42001023  0.84322477  1
  Ca2+  Ca33  1  0.82346789  0.90200457  0.16971757  1
  Ca2+  Ca34  1  0.83227649  0.91718166  0.50043263  1
  Ca2+  Ca35  1  0.83433020  0.92033635  0.84245793  1
  Ca2+  Ca36  1  0.41506457  0.16952812  0.16206924  1
  Ca2+  Ca37  1  0.41146331  0.16292792  0.49420995  1
  Ca2+  Ca38  1  0.41208796  0.17074852  0.83176308  1
  Ca2+  Ca39  1  0.41766286  0.67265619  0.15801269  1
  Ca2+  Ca40  1  0.41660600  0.67481188  0.48930721  1
  Ca2+  Ca41  1  0.41375864  0.67190885  0.83839645  1
  Ca2+  Ca42  1  0.92335980  0.17230857  0.16236226  1
  Ca2+  Ca43  1  0.92713586  0.15927487  0.49783620  1
  Ca2+  Ca44  1  0.92150700  0.17541456  0.82439011  1
  Ca2+  Ca45  1  0.91992443  0.67565329  0.15611876  1
  Ca2+  Ca46  1  0.92656751  0.67227843  0.49488813  1
  Ca2+  Ca47  1  0.92677975  0.66673026  0.83514378  1
  Al0+  Al48  1  0.00074263  0.00230393  0.00023421  1
  Al0+  Al49  1  -0.00042473  -0.00025690  0.32648756  1
  Al0+  Al50  1  -0.00090354  -0.00097109  0.66892408  1
  Al0+  Al51  1  -0.00058939  0.49860365  0.00489882  1
  Al0+  Al52  1  0.00040087  0.49908166  0.33500573  1
  Al0+  Al53  1  -0.00077642  0.50116364  0.65486635  1
  Al0+  Al54  1  0.50272175  0.00081209  -0.00220402  1
  Al0+  Al55  1  0.50095742  0.00027244  0.33577477  1
  Al0+  Al56  1  0.49811616  0.00058246  0.67208945  1
  Al0+  Al57  1  0.50041689  0.49898555  -0.00632325  1
  Al0+  Al58  1  0.50072706  0.49935416  0.34300027  1
  Al0+  Al59  1  0.49996283  0.50124044  0.66626432  1
  Al0+  Al60  1  0.25138166  0.25028769  -0.00114011  1
  Al0+  Al61  1  0.24988752  0.25138228  0.33151927  1
  Al0+  Al62  1  0.24912502  0.25204956  0.66673630  1
  Al0+  Al63  1  0.25078095  0.75167376  -0.00040900  1
  Al0+  Al64  1  0.25028425  0.74990811  0.33894312  1
  Al0+  Al65  1  0.25174718  0.75138632  0.66216686  1
  Al0+  Al66  1  0.75085785  0.24903606  -0.00328473  1
  Al0+  Al67  1  0.74975885  0.25034484  0.33563540  1
  Al0+  Al68  1  0.74581550  0.24883060  0.66901117  1
  Al0+  Al69  1  0.74969230  0.75055600  0.00010143  1
  Al0+  Al70  1  0.75087658  0.74760250  0.33818878  1
  Al0+  Al71  1  0.74783913  0.74675677  0.66544627  1
  Al0+  Al72  1  0.32259157  0.57151034  0.01318758  1
  Al0+  Al73  1  0.82115847  0.57068799  0.01277344  1
  Al0+  Al74  1  0.68124208  0.92972537  0.01375157  1
  Al0+  Al75  1  0.07198056  0.17988230  0.31726879  1
  Al0+  Al76  1  0.92965360  0.32026179  0.98853715  1
  Al0+  Al77  1  0.42926723  0.32037217  0.98697162  1
  Al0+  Al78  1  0.07099461  0.67966003  0.98867626  1
  Al0+  Al79  1  0.92567613  0.32128053  0.65002456  1
  Al0+  Al80  1  0.92773746  0.82301160  0.98448974  1
  Al0+  Al81  1  0.82124639  0.06955892  0.68045281  1
  Al0+  Al82  1  0.07192478  0.68014660  0.65178059  1
  Al0+  Al83  1  0.42763793  0.82306312  0.98453887  1
  Al0+  Al84  1  0.07113157  0.17761823  0.65193329  1
  Al0+  Al85  1  0.32034485  0.07239391  0.34630772  1
  Al0+  Al86  1  0.17619999  0.92888691  0.34903138  1
  Al0+  Al87  1  0.31968636  0.07259075  0.68244205  1
  Al0+  Al88  1  0.17940408  0.93015686  0.01295034  1
  Al0+  Al89  1  0.67933617  0.92751805  0.34676054  1
  Al0+  Al90  1  0.17714439  0.42755037  0.01477298  1
  Al0+  Al91  1  0.31992432  0.57022361  0.34789211  1
  Al0+  Al92  1  0.43020778  0.82197224  0.32057495  1
  Al0+  Al93  1  0.92900910  0.81949949  0.31974966  1
  Al0+  Al94  1  0.68057379  0.42934646  0.34637987  1
  Al0+  Al95  1  0.57131764  0.67828914  0.98640831  1
  Si0+  Si96  1  0.43100556  0.82167820  0.65043282  1
  Si0+  Si97  1  0.17908282  0.43236808  0.67921059  1
  Si0+  Si98  1  0.82403059  0.57163570  0.35304145  1
  Si0+  Si99  1  0.17675693  0.42697683  0.35214775  1
  Si0+  Si100  1  0.32352161  0.07232744  0.01592743  1
  Si0+  Si101  1  0.56808268  0.17844583  0.65119675  1
  Si0+  Si102  1  0.32165302  0.57279227  0.68237041  1
  Si0+  Si103  1  0.43040070  0.32249063  0.31998250  1
  Si0+  Si104  1  0.92623950  0.32171225  0.31563419  1
  Si0+  Si105  1  0.82083655  0.07268384  0.34828187  1
  Si0+  Si106  1  0.67711119  0.92606909  0.68441383  1
  Si0+  Si107  1  0.57095068  0.67590529  0.31898262  1
  Si0+  Si108  1  0.67781349  0.42629033  0.01426454  1
  Si0+  Si109  1  0.92543074  0.82116659  0.65079680  1
  Si0+  Si110  1  0.07343135  0.67649389  0.31594322  1
  Si0+  Si111  1  0.57237066  0.17917138  0.31926871  1
  Si0+  Si112  1  0.17816081  0.92675602  0.68391662  1
  Si0+  Si113  1  0.82273737  0.07410899  0.01781245  1
  Si0+  Si114  1  0.82067192  0.56871909  0.68071822  1
  Si0+  Si115  1  0.07315688  0.17841713  0.98277022  1
  Si0+  Si116  1  0.67698275  0.42844683  0.68383594  1
  Si0+  Si117  1  0.57294454  0.17756348  0.98155775  1
  Si0+  Si118  1  0.42910403  0.32233101  0.64986405  1
  Si0+  Si119  1  0.57171275  0.67788450  0.64885887  1
  O2-  O120  1  0.25673866  0.00252781  0.05952660  1
  O2-  O121  1  0.24805560  0.00184213  0.39848796  1
  O2-  O122  1  0.24323535  -0.00053719  0.72759816  1
  O2-  O123  1  0.24960934  0.50028664  0.06304691  1
  O2-  O124  1  0.24214454  0.49910476  0.39661080  1
  O2-  O125  1  0.24808710  0.50453721  0.72312080  1
  O2-  O126  1  0.75841134  0.00138276  0.06181170  1
  O2-  O127  1  0.75513820  0.00102046  0.39315359  1
  O2-  O128  1  0.74994594  -0.00892517  0.72692908  1
  O2-  O129  1  0.74497391  0.49595577  0.05831641  1
  O2-  O130  1  0.75704658  0.50032058  0.39647103  1
  O2-  O131  1  0.75231829  0.49518283  0.72413941  1
  O2-  O132  1  -0.00198855  0.25659880  0.27199400  1
  O2-  O133  1  -0.00527609  0.24565790  0.60140878  1
  O2-  O134  1  0.00512348  0.24809592  0.93964124  1
  O2-  O135  1  0.00467558  0.74551214  0.27377640  1
  O2-  O136  1  -0.00240882  0.75608046  0.60656733  1
  O2-  O137  1  0.00088456  0.75199755  0.93511106  1
  O2-  O138  1  0.49909373  0.24874450  0.27850787  1
  O2-  O139  1  0.49766321  0.24933658  0.60681792  1
  O2-  O140  1  0.50304667  0.24563271  0.93796029  1
  O2-  O141  1  0.50534360  0.74683724  0.27533485  1
  O2-  O142  1  0.50246036  0.75074904  0.60774153  1
  O2-  O143  1  0.49834594  0.74890791  0.93467491  1
  O2-  O144  1  0.07220816  0.17903643  0.08844045  1
  O2-  O145  1  0.07074302  0.18059510  0.43054070  1
  O2-  O146  1  0.07177097  0.18180888  0.76526721  1
  O2-  O147  1  0.06985933  0.68032966  0.10195812  1
  O2-  O148  1  0.07078790  0.67686323  0.42228936  1
  O2-  O149  1  0.07184528  0.67683631  0.76428610  1
  O2-  O150  1  0.57384180  0.17766358  0.08735499  1
  O2-  O151  1  0.57389296  0.18082484  0.42480143  1
  O2-  O152  1  0.56763434  0.18023068  0.75599794  1
  O2-  O153  1  0.57094436  0.67802353  0.10002942  1
  O2-  O154  1  0.56854023  0.67576638  0.42555531  1
  O2-  O155  1  0.57397949  0.67550313  0.75315889  1
  O2-  O156  1  0.17805947  0.42587066  0.24710272  1
  O2-  O157  1  0.18357042  0.43211583  0.57402048  1
  O2-  O158  1  0.17733032  0.42806277  0.90025348  1
  O2-  O159  1  0.17746690  0.92933110  0.23566325  1
  O2-  O160  1  0.18056649  0.92477927  0.57847597  1
  O2-  O161  1  0.18045969  0.93261237  0.89927882  1
  O2-  O162  1  0.67932005  0.43005262  0.23372814  1
  O2-  O163  1  0.67386211  0.43029855  0.57855030  1
  O2-  O164  1  0.67926500  0.42598097  0.90824734  1
  O2-  O165  1  0.67841094  0.92938515  0.23418812  1
  O2-  O166  1  0.67512514  0.92771815  0.57851863  1
  O2-  O167  1  0.68129521  0.93368154  0.90024941  1
  O2-  O168  1  0.43264880  0.31959915  0.10043689  1
  O2-  O169  1  0.43264193  0.32299381  0.42571378  1
  O2-  O170  1  0.43134628  0.32405114  0.75461684  1
  O2-  O171  1  0.42923527  0.82370087  0.09799709  1
  O2-  O172  1  0.43318663  0.82099336  0.43469255  1
  O2-  O173  1  0.43030854  0.82005976  0.75505333  1
  O2-  O174  1  0.92709280  0.31704219  0.10155712  1
  O2-  O175  1  0.92454933  0.31896608  0.42122656  1
  O2-  O176  1  0.92898976  0.32411562  0.76348129  1
  O2-  O177  1  0.92756481  0.81946520  0.09803025  1
  O2-  O178  1  0.92871446  0.81754490  0.43372887  1
  O2-  O179  1  0.92176383  0.81838752  0.75568047  1
  O2-  O180  1  0.32083137  0.07410686  0.23318872  1
  O2-  O181  1  0.32296899  0.06992280  0.56977247  1
  O2-  O182  1  0.32115233  0.07304309  0.90984396  1
  O2-  O183  1  0.32405435  0.56764434  0.23572652  1
  O2-  O184  1  0.32330525  0.57072989  0.57701350  1
  O2-  O185  1  0.32100683  0.56849798  0.89880041  1
  O2-  O186  1  0.81616571  0.07799902  0.24321902  1
  O2-  O187  1  0.81804013  0.06771721  0.56698344  1
  O2-  O188  1  0.81926239  0.07596348  0.91199456  1
  O2-  O189  1  0.82321670  0.57227689  0.24784468  1
  O2-  O190  1  0.81657711  0.56974187  0.57557990  1
  O2-  O191  1  0.82130079  0.56819888  0.89894329  1
  O2-  O192  1  0.03992774  0.08496632  0.26180241  1
  O2-  O193  1  0.04531311  0.07722760  0.60068626  1
  O2-  O194  1  0.04606562  0.08623925  0.93536818  1
  O2-  O195  1  0.04897037  0.58120089  0.27290528  1
  O2-  O196  1  0.04014071  0.58664313  0.59211292  1
  O2-  O197  1  0.04039935  0.58102790  0.93707831  1
  O2-  O198  1  0.54552891  0.08781149  0.27152745  1
  O2-  O199  1  0.54077234  0.08564821  0.60506347  1
  O2-  O200  1  0.54802471  0.08542155  0.93278592  1
  O2-  O201  1  0.54346700  0.58203705  0.27555007  1
  O2-  O202  1  0.54104974  0.58644852  0.60072351  1
  O2-  O203  1  0.54762837  0.58001674  0.92994752  1
  O2-  O204  1  0.16824278  0.21205412  0.26313624  1
  O2-  O205  1  0.16844733  0.21165897  0.59848672  1
  O2-  O206  1  0.16755629  0.20133514  0.93770800  1
  O2-  O207  1  0.16852779  0.69984063  0.27422657  1
  O2-  O208  1  0.16914951  0.71005055  0.59721762  1
  O2-  O209  1  0.16879475  0.70684276  0.93351231  1
  O2-  O210  1  0.66262111  0.20995585  0.27077703  1
  O2-  O211  1  0.65922031  0.20673152  0.60264957  1
  O2-  O212  1  0.66523880  0.20500798  0.93350884  1
  O2-  O213  1  0.66720985  0.69657127  0.27807048  1
  O2-  O214  1  0.66378517  0.70248467  0.59939197  1
  O2-  O215  1  0.66762232  0.71049176  0.93072175  1
  O2-  O216  1  0.08042161  0.45305755  0.07098536  1
  O2-  O217  1  0.08144703  0.44779520  0.39768465  1
  O2-  O218  1  0.08494835  0.45952292  0.72172997  1
  O2-  O219  1  0.08314101  0.96246767  0.06702814  1
  O2-  O220  1  0.07670304  0.95805037  0.39990371  1
  O2-  O221  1  0.08276065  0.94591165  0.72812820  1
  O2-  O222  1  0.58349092  0.44992481  0.05853189  1
  O2-  O223  1  0.58692222  0.46059911  0.40716898  1
  O2-  O224  1  0.58619293  0.46168776  0.73098722  1
  O2-  O225  1  0.58515274  0.96452360  0.06718665  1
  O2-  O226  1  0.58548146  0.96248839  0.40363414  1
  O2-  O227  1  0.58574413  0.95655058  0.73160441  1
  O2-  O228  1  0.20947940  0.32973502  0.06701353  1
  O2-  O229  1  0.20826902  0.33585966  0.39975858  1
  O2-  O230  1  0.20772955  0.34156656  0.72739346  1
  O2-  O231  1  0.20784847  0.83358869  0.06678677  1
  O2-  O232  1  0.20394965  0.83105364  0.40349544  1
  O2-  O233  1  0.21113710  0.83463829  0.72966037  1
  O2-  O234  1  0.70307048  0.33236496  0.06000476  1
  O2-  O235  1  0.70925401  0.33244230  0.40309823  1
  O2-  O236  1  0.69615497  0.33464619  0.73017465  1
  O2-  O237  1  0.70765496  0.83290818  0.06807972  1
  O2-  O238  1  0.70762231  0.83084754  0.40309946  1
  O2-  O239  1  0.69829162  0.82970372  0.72662716  1
  O2-  O240  1  0.46424324  0.41298208  0.27431308  1
  O2-  O241  1  0.46034453  0.41380269  0.60219430  1
  O2-  O242  1  0.46059934  0.41405367  0.92743901  1
  O2-  O243  1  0.46154776  0.91844707  0.26762842  1
  O2-  O244  1  0.45987474  0.91429894  0.60506548  1
  O2-  O245  1  0.46001428  0.92041207  0.93035257  1
  O2-  O246  1  0.94820254  0.41801068  0.27367847  1
  O2-  O247  1  0.95558324  0.41723318  0.59285697  1
  O2-  O248  1  0.95913347  0.41687083  0.93466127  1
  O2-  O249  1  0.95302208  0.91652453  0.26459399  1
  O2-  O250  1  0.94810271  0.91589662  0.60615031  1
  O2-  O251  1  0.95382332  0.92337784  0.93443979  1
  O2-  O252  1  0.33817005  0.29922057  0.27277192  1
  O2-  O253  1  0.33665409  0.29746445  0.60303547  1
  O2-  O254  1  0.33354734  0.28984872  0.93008413  1
  O2-  O255  1  0.33224041  0.79036959  0.27117974  1
  O2-  O256  1  0.34021934  0.79360316  0.60127688  1
  O2-  O257  1  0.33050538  0.79540150  0.92895529  1
  O2-  O258  1  0.83311280  0.29387556  0.26972092  1
  O2-  O259  1  0.82349978  0.29666501  0.60247663  1
  O2-  O260  1  0.83329080  0.29077249  0.93219649  1
  O2-  O261  1  0.83164965  0.78521627  0.26860465  1
  O2-  O262  1  0.83247899  0.79198920  0.60327413  1
  O2-  O263  1  0.83001513  0.79435006  0.93158651  1
  O2-  O264  1  0.41939425  0.05165688  0.05837731  1
  O2-  O265  1  0.41898041  0.04472538  0.40044115  1
  O2-  O266  1  0.41580049  0.04109750  0.73793187  1
  O2-  O267  1  0.42091349  0.53893739  0.06411214  1
  O2-  O268  1  0.41392200  0.53589247  0.40689568  1
  O2-  O269  1  0.41344658  0.54250591  0.72827740  1
  O2-  O270  1  0.91817393  0.05520682  0.06133105  1
  O2-  O271  1  0.91502981  0.04676152  0.39164279  1
  O2-  O272  1  0.91845399  0.04398682  0.73582977  1
  O2-  O273  1  0.91410818  0.53778761  0.07128652  1
  O2-  O274  1  0.91834122  0.54749368  0.39918953  1
  O2-  O275  1  0.91472391  0.54311625  0.72390681  1
  O2-  O276  1  0.29846654  0.16604873  0.06130142  1
  O2-  O277  1  0.29426735  0.17225590  0.39923361  1
  O2-  O278  1  0.29247643  0.17156364  0.73448281  1
  O2-  O279  1  0.29710201  0.67032836  0.06482209  1
  O2-  O280  1  0.29128044  0.66579287  0.40573428  1
  O2-  O281  1  0.29763897  0.66680381  0.72602367  1
  O2-  O282  1  0.79109638  0.16570575  0.06504432  1
  O2-  O283  1  0.79229580  0.16398160  0.39793304  1
  O2-  O284  1  0.78516407  0.16500393  0.73470037  1
  O2-  O285  1  0.78919164  0.66604328  0.06746715  1
  O2-  O286  1  0.79522603  0.66239100  0.40336635  1
  O2-  O287  1  0.78957687  0.65975758  0.72793901  1
