# generated using pymatgen
data_Ca2Al2SiO7
_symmetry_space_group_name_H-M   'P 1'
_cell_length_a   15.46497636
_cell_length_b   15.46719068
_cell_length_c   15.29006404
_cell_angle_alpha   90.01278795
_cell_angle_beta   90.01462551
_cell_angle_gamma   89.97804347
_symmetry_Int_Tables_number   1
_chemical_formula_structural   Ca2Al2SiO7
_chemical_formula_sum   'Ca48 Al48 Si24 O168'
_cell_volume   3657.37883636
_cell_formula_units_Z   24
loop_
 _symmetry_equiv_pos_site_id
 _symmetry_equiv_pos_as_xyz
  1  'x, y, z'
loop_
 _atom_type_symbol
 _atom_type_oxidation_number
  Ca2+  2.0
  Al0+  0.0
  Si0+  0.0
  O2-  -2.0
loop_
 _atom_site_type_symbol
 _atom_site_label
 _atom_site_symmetry_multiplicity
 _atom_site_fract_x
 _atom_site_fract_y
 _atom_site_fract_z
 _atom_site_occupancy
  Ca2+  Ca0  1  0.16820267  0.07459506  0.17411117  1
  Ca2+  Ca1  1  0.17465073  0.07500773  0.51088097  1
  Ca2+  Ca2  1  0.16962515  0.08565972  0.83043546  1
  Ca2+  Ca3  1  0.15919643  0.57770401  0.16589835  1
  Ca2+  Ca4  1  0.16451016  0.57743660  0.51083133  1
  Ca2+  Ca5  1  0.15157515  0.57628906  0.83579965  1
  Ca2+  Ca6  1  0.67448287  0.08169153  0.16883822  1
  Ca2+  Ca7  1  0.66315253  0.07848892  0.50424816  1
  Ca2+  Ca8  1  0.66837858  0.07492919  0.83993430  1
  Ca2+  Ca9  1  0.66478839  0.58484950  0.16860627  1
  Ca2+  Ca10  1  0.66783308  0.57876380  0.50542912  1
  Ca2+  Ca11  1  0.66698431  0.58204068  0.84099562  1
  Ca2+  Ca12  1  0.07713455  0.33048311  0.15672872  1
  Ca2+  Ca13  1  0.08637664  0.32679258  0.50592353  1
  Ca2+  Ca14  1  0.07675736  0.33307377  0.82517600  1
  Ca2+  Ca15  1  0.07718512  0.83117105  0.15644221  1
  Ca2+  Ca16  1  0.08340643  0.84115891  0.49850745  1
  Ca2+  Ca17  1  0.07296223  0.83065725  0.82214665  1
  Ca2+  Ca18  1  0.58058688  0.32052354  0.16371265  1
  Ca2+  Ca19  1  0.57724199  0.31751725  0.49265146  1
  Ca2+  Ca20  1  0.58539028  0.31604621  0.82786549  1
  Ca2+  Ca21  1  0.58282719  0.83902675  0.16220763  1
  Ca2+  Ca22  1  0.57277247  0.84624361  0.49818569  1
  Ca2+  Ca23  1  0.58565691  0.83446151  0.82671401  1
  Ca2+  Ca24  1  0.33157114  0.41602587  0.17028233  1
  Ca2+  Ca25  1  0.33341023  0.41849284  0.50905182  1
  Ca2+  Ca26  1  0.31721247  0.41535184  0.83938892  1
  Ca2+  Ca27  1  0.32753987  0.91258060  0.17307142  1
  Ca2+  Ca28  1  0.32801144  0.91564148  0.50991760  1
  Ca2+  Ca29  1  0.33101035  0.91646680  0.82679504  1
  Ca2+  Ca30  1  0.83461855  0.41687273  0.16677783  1
  Ca2+  Ca31  1  0.83683988  0.41755706  0.50614453  1
  Ca2+  Ca32  1  0.84058221  0.41479758  0.83765349  1
  Ca2+  Ca33  1  0.82502693  0.92379315  0.17181549  1
  Ca2+  Ca34  1  0.82183976  0.92076043  0.50531704  1
  Ca2+  Ca35  1  0.82753442  0.91680758  0.84151341  1
  Ca2+  Ca36  1  0.43077844  0.16237213  0.16528812  1
  Ca2+  Ca37  1  0.42623405  0.15941308  0.49728352  1
  Ca2+  Ca38  1  0.42707233  0.15633016  0.82706595  1
  Ca2+  Ca39  1  0.42382343  0.67449023  0.16355017  1
  Ca2+  Ca40  1  0.41134222  0.68151906  0.49843237  1
  Ca2+  Ca41  1  0.42321821  0.67328163  0.83085153  1
  Ca2+  Ca42  1  0.91046926  0.16670563  0.16041197  1
  Ca2+  Ca43  1  0.91967116  0.16347285  0.50045647  1
  Ca2+  Ca44  1  0.91633019  0.17574008  0.82698393  1
  Ca2+  Ca45  1  0.92124340  0.67781668  0.15525506  1
  Ca2+  Ca46  1  0.92235043  0.67543202  0.50605933  1
  Ca2+  Ca47  1  0.92290629  0.68021006  0.83130014  1
  Al0+  Al48  1  0.00079391  0.00219154  -0.00039705  1
  Al0+  Al49  1  -0.00107231  0.00005188  0.33902243  1
  Al0+  Al50  1  -0.00125595  0.00203990  0.66231103  1
  Al0+  Al51  1  -0.00120812  0.49910307  0.00090700  1
  Al0+  Al52  1  0.00054629  0.49977716  0.33465213  1
  Al0+  Al53  1  -0.00118543  0.50196949  0.66283325  1
  Al0+  Al54  1  0.49829491  0.00006349  0.00031438  1
  Al0+  Al55  1  0.49970649  -0.00007637  0.32418982  1
  Al0+  Al56  1  0.50106747  -0.00190383  0.66719547  1
  Al0+  Al57  1  0.49747094  0.50122619  -0.00245476  1
  Al0+  Al58  1  0.49896195  0.50044361  0.33209822  1
  Al0+  Al59  1  0.50167848  0.49918045  0.67011461  1
  Al0+  Al60  1  0.24971665  0.25099693  0.00861950  1
  Al0+  Al61  1  0.24744595  0.24999252  0.32945014  1
  Al0+  Al62  1  0.24996335  0.25217401  0.67298554  1
  Al0+  Al63  1  0.25233372  0.74648919  -0.00291266  1
  Al0+  Al64  1  0.25043239  0.74606448  0.33145104  1
  Al0+  Al65  1  0.25195985  0.74841106  0.66585498  1
  Al0+  Al66  1  0.74864258  0.24996055  -0.00455797  1
  Al0+  Al67  1  0.75148069  0.25235272  0.33330367  1
  Al0+  Al68  1  0.74820520  0.25067188  0.65740471  1
  Al0+  Al69  1  0.74870930  0.74886049  -0.00214539  1
  Al0+  Al70  1  0.75197133  0.74954485  0.33915249  1
  Al0+  Al71  1  0.75217639  0.74762411  0.66601195  1
  Al0+  Al72  1  0.07168972  0.67914454  0.98625166  1
  Al0+  Al73  1  0.56878318  0.17942304  0.98436071  1
  Al0+  Al74  1  0.57258790  0.17834823  0.31551162  1
  Al0+  Al75  1  0.68103472  0.92924936  0.68065941  1
  Al0+  Al76  1  0.92936357  0.82465868  0.98692618  1
  Al0+  Al77  1  0.07382136  0.17902140  0.65173610  1
  Al0+  Al78  1  0.67773100  0.92898896  0.34934514  1
  Al0+  Al79  1  0.82198877  0.07290979  0.01224325  1
  Al0+  Al80  1  0.56895225  0.17783201  0.65250049  1
  Al0+  Al81  1  0.57068602  0.67907969  0.98739928  1
  Al0+  Al82  1  0.67843831  0.92721248  0.01486018  1
  Al0+  Al83  1  0.18068555  0.92665999  0.34482028  1
  Al0+  Al84  1  0.17658409  0.92767007  0.68224940  1
  Al0+  Al85  1  0.42859390  0.82022156  0.31903165  1
  Al0+  Al86  1  0.92721816  0.82428882  0.64953318  1
  Al0+  Al87  1  0.92951641  0.31854594  0.98815082  1
  Al0+  Al88  1  0.32182463  0.07073722  0.68084752  1
  Al0+  Al89  1  0.82076032  0.07423193  0.35072408  1
  Al0+  Al90  1  0.17800023  0.43105296  0.01639706  1
  Al0+  Al91  1  0.07105190  0.68121458  0.65125822  1
  Al0+  Al92  1  0.42659090  0.32276721  0.31851879  1
  Al0+  Al93  1  0.17973255  0.43165612  0.68069820  1
  Al0+  Al94  1  0.43216363  0.81846459  0.65418348  1
  Al0+  Al95  1  0.92916355  0.32108297  0.64961158  1
  Si0+  Si96  1  0.42612746  0.32215317  0.98293858  1
  Si0+  Si97  1  0.42724219  0.82283544  0.98185123  1
  Si0+  Si98  1  0.32067937  0.07249466  0.34687178  1
  Si0+  Si99  1  0.06939561  0.17778428  0.31774539  1
  Si0+  Si100  1  0.32126904  0.56867046  0.34889053  1
  Si0+  Si101  1  0.93117041  0.32337788  0.31715378  1
  Si0+  Si102  1  0.81922350  0.56944175  0.01529146  1
  Si0+  Si103  1  0.82085446  0.07513198  0.68240331  1
  Si0+  Si104  1  0.32085842  0.07108679  0.01729008  1
  Si0+  Si105  1  0.32532779  0.57287210  0.68567369  1
  Si0+  Si106  1  0.67645487  0.42852216  0.01430357  1
  Si0+  Si107  1  0.18015775  0.92702720  0.01236330  1
  Si0+  Si108  1  0.57383090  0.67468011  0.64955977  1
  Si0+  Si109  1  0.32431706  0.57222210  0.02005565  1
  Si0+  Si110  1  0.82029836  0.56908934  0.68376031  1
  Si0+  Si111  1  0.92927501  0.82094409  0.31879374  1
  Si0+  Si112  1  0.07587397  0.17756932  0.98518306  1
  Si0+  Si113  1  0.07008938  0.67716431  0.31779621  1
  Si0+  Si114  1  0.57419291  0.67796394  0.31924940  1
  Si0+  Si115  1  0.17748087  0.42859348  0.34940995  1
  Si0+  Si116  1  0.42833262  0.32351666  0.65392542  1
  Si0+  Si117  1  0.82341488  0.57076790  0.34955845  1
  Si0+  Si118  1  0.67866099  0.43109713  0.34752936  1
  Si0+  Si119  1  0.67880355  0.42786747  0.68219169  1
  O2-  O120  1  0.24955574  -0.00122711  0.05707028  1
  O2-  O121  1  0.25648483  0.00013499  0.39098613  1
  O2-  O122  1  0.24646900  0.00216237  0.73202183  1
  O2-  O123  1  0.25297874  0.50553851  0.06395545  1
  O2-  O124  1  0.25334443  0.49450582  0.39069502  1
  O2-  O125  1  0.25422806  0.50620963  0.72864991  1
  O2-  O126  1  0.75257874  -0.00163636  0.06288624  1
  O2-  O127  1  0.74585500  0.00464539  0.39942744  1
  O2-  O128  1  0.75820545  0.00143502  0.72697035  1
  O2-  O129  1  0.74628209  0.50034429  0.05825532  1
  O2-  O130  1  0.74988076  0.50166425  0.39074046  1
  O2-  O131  1  0.74919876  0.49816756  0.72604208  1
  O2-  O132  1  -0.00213043  0.24862552  0.27520447  1
  O2-  O133  1  -0.00057566  0.24794310  0.59939807  1
  O2-  O134  1  0.00395906  0.24372754  0.94306084  1
  O2-  O135  1  0.00235789  0.75145293  0.27643369  1
  O2-  O136  1  0.00727977  0.75977848  0.59938484  1
  O2-  O137  1  0.00645579  0.75736665  0.93789775  1
  O2-  O138  1  0.49756913  0.25009715  0.26821199  1
  O2-  O139  1  0.49237039  0.25208813  0.60800987  1
  O2-  O140  1  0.49271670  0.25306318  0.93730817  1
  O2-  O141  1  0.50993537  0.75062223  0.27512590  1
  O2-  O142  1  0.50631689  0.74356738  0.60540568  1
  O2-  O143  1  0.50085787  0.75755850  0.94077378  1
  O2-  O144  1  0.07770528  0.17895032  0.09140211  1
  O2-  O145  1  0.07250686  0.18046096  0.42205966  1
  O2-  O146  1  0.07360271  0.18307567  0.76545278  1
  O2-  O147  1  0.06823126  0.68021314  0.10091503  1
  O2-  O148  1  0.06848049  0.67292723  0.42217895  1
  O2-  O149  1  0.06419102  0.67848752  0.76426633  1
  O2-  O150  1  0.56907211  0.18204398  0.09721300  1
  O2-  O151  1  0.57043803  0.17989942  0.42910592  1
  O2-  O152  1  0.57031217  0.17944551  0.76555044  1
  O2-  O153  1  0.56790805  0.67557719  0.10061105  1
  O2-  O154  1  0.57201207  0.67235127  0.42439749  1
  O2-  O155  1  0.57263408  0.67229779  0.75512153  1
  O2-  O156  1  0.17326620  0.43236454  0.24453936  1
  O2-  O157  1  0.18289361  0.43261088  0.56689793  1
  O2-  O158  1  0.17741421  0.43135138  0.90375563  1
  O2-  O159  1  0.18016975  0.92807995  0.23074709  1
  O2-  O160  1  0.18266632  0.92762845  0.56840665  1
  O2-  O161  1  0.18150869  0.92729537  0.90803374  1
  O2-  O162  1  0.68006948  0.43283118  0.24220716  1
  O2-  O163  1  0.67721697  0.43147187  0.57681209  1
  O2-  O164  1  0.67766152  0.42973963  0.90922087  1
  O2-  O165  1  0.68229488  0.92466225  0.23611351  1
  O2-  O166  1  0.67809176  0.93171697  0.56777146  1
  O2-  O167  1  0.67853322  0.92800261  0.90127274  1
  O2-  O168  1  0.42839260  0.32157608  0.08864061  1
  O2-  O169  1  0.42903385  0.32570092  0.43208767  1
  O2-  O170  1  0.43302880  0.32672055  0.75921692  1
  O2-  O171  1  0.42405305  0.82051302  0.08773253  1
  O2-  O172  1  0.42529900  0.81716422  0.43165343  1
  O2-  O173  1  0.43442180  0.81680541  0.76717362  1
  O2-  O174  1  0.93068632  0.32056044  0.10195107  1
  O2-  O175  1  0.93433306  0.32926984  0.42137537  1
  O2-  O176  1  0.92930112  0.32157786  0.76322706  1
  O2-  O177  1  0.93038388  0.82155802  0.10150443  1
  O2-  O178  1  0.92888416  0.81844320  0.42334181  1
  O2-  O179  1  0.92357756  0.81920818  0.76283034  1
  O2-  O180  1  0.31592013  0.07288445  0.24079611  1
  O2-  O181  1  0.32316918  0.06879269  0.56690974  1
  O2-  O182  1  0.32164539  0.07317598  0.91270408  1
  O2-  O183  1  0.32060077  0.56947081  0.24405944  1
  O2-  O184  1  0.32848762  0.56959442  0.57963374  1
  O2-  O185  1  0.32913153  0.57027182  0.91510895  1
  O2-  O186  1  0.82239810  0.07252717  0.23706066  1
  O2-  O187  1  0.81584549  0.07658123  0.57683885  1
  O2-  O188  1  0.81948239  0.07593622  0.89907034  1
  O2-  O189  1  0.82523664  0.56998811  0.24439547  1
  O2-  O190  1  0.81817553  0.56817809  0.57799642  1
  O2-  O191  1  0.81905134  0.56730268  0.91045188  1
  O2-  O192  1  0.04153995  0.08552566  0.27077940  1
  O2-  O193  1  0.04995854  0.08052301  0.59745808  1
  O2-  O194  1  0.05597304  0.08323922  0.93978249  1
  O2-  O195  1  0.03724340  0.58669896  0.26933317  1
  O2-  O196  1  0.03366043  0.58664874  0.59515197  1
  O2-  O197  1  0.03488318  0.58328050  0.93534263  1
  O2-  O198  1  0.54485490  0.08161688  0.25931676  1
  O2-  O199  1  0.53671512  0.08268179  0.59825345  1
  O2-  O200  1  0.53648441  0.08259188  0.93246161  1
  O2-  O201  1  0.54402541  0.58659268  0.27044547  1
  O2-  O202  1  0.54760190  0.58048986  0.60382435  1
  O2-  O203  1  0.53791838  0.58340143  0.93117558  1
  O2-  O204  1  0.16015869  0.20549214  0.26762341  1
  O2-  O205  1  0.17164299  0.21300577  0.59936237  1
  O2-  O206  1  0.16881678  0.20703364  0.94073155  1
  O2-  O207  1  0.16312265  0.69920489  0.27079281  1
  O2-  O208  1  0.17364605  0.69591180  0.60231058  1
  O2-  O209  1  0.17362639  0.69458215  0.93702037  1
  O2-  O210  1  0.67032316  0.21363876  0.26454077  1
  O2-  O211  1  0.66181492  0.21282428  0.59500506  1
  O2-  O212  1  0.66316241  0.21378065  0.92962325  1
  O2-  O213  1  0.67065875  0.69750994  0.27588111  1
  O2-  O214  1  0.66824758  0.69622557  0.60476801  1
  O2-  O215  1  0.66809340  0.70209039  0.93220259  1
  O2-  O216  1  0.08177576  0.46334175  0.07212516  1
  O2-  O217  1  0.08811913  0.46225586  0.39820916  1
  O2-  O218  1  0.08193890  0.46451628  0.73139706  1
  O2-  O219  1  0.08814598  0.95344506  0.06071560  1
  O2-  O220  1  0.08510739  0.95811055  0.39871078  1
  O2-  O221  1  0.07576229  0.95340947  0.73121789  1
  O2-  O222  1  0.58432696  0.45653937  0.06107462  1
  O2-  O223  1  0.58747914  0.46006479  0.39556394  1
  O2-  O224  1  0.58792621  0.45495186  0.73215672  1
  O2-  O225  1  0.57890892  0.95629796  0.06583798  1
  O2-  O226  1  0.57568143  0.95532791  0.39576843  1
  O2-  O227  1  0.58547855  0.96085134  0.73502410  1
  O2-  O228  1  0.20820897  0.33493511  0.07320288  1
  O2-  O229  1  0.19936641  0.33401310  0.39324150  1
  O2-  O230  1  0.20842602  0.33669128  0.73834215  1
  O2-  O231  1  0.20910525  0.83471087  0.05949668  1
  O2-  O232  1  0.20843532  0.82827287  0.39633586  1
  O2-  O233  1  0.20865754  0.82912495  0.73351991  1
  O2-  O234  1  0.70720925  0.33833601  0.06227853  1
  O2-  O235  1  0.70710047  0.34038294  0.39557872  1
  O2-  O236  1  0.70728589  0.33552868  0.72726815  1
  O2-  O237  1  0.70339989  0.82685155  0.06647385  1
  O2-  O238  1  0.70722350  0.83027208  0.40283476  1
  O2-  O239  1  0.70790007  0.82925649  0.73054031  1
  O2-  O240  1  0.45661157  0.42102017  0.26461261  1
  O2-  O241  1  0.45770373  0.41596830  0.60603655  1
  O2-  O242  1  0.44982221  0.41601965  0.93784381  1
  O2-  O243  1  0.45149890  0.91682691  0.26198140  1
  O2-  O244  1  0.46306242  0.91387122  0.59924133  1
  O2-  O245  1  0.44746752  0.91773236  0.93804147  1
  O2-  O246  1  0.96313170  0.41384507  0.26795850  1
  O2-  O247  1  0.95848755  0.41901670  0.59646106  1
  O2-  O248  1  0.96026021  0.41513522  0.93525446  1
  O2-  O249  1  0.95614248  0.91358245  0.27317108  1
  O2-  O250  1  0.94580643  0.92454070  0.59772384  1
  O2-  O251  1  0.95287999  0.92389500  0.93454338  1
  O2-  O252  1  0.32650946  0.29848823  0.26585863  1
  O2-  O253  1  0.33290918  0.30431098  0.61084682  1
  O2-  O254  1  0.33068704  0.29684028  0.94132989  1
  O2-  O255  1  0.33471417  0.78116922  0.26297600  1
  O2-  O256  1  0.33621373  0.78739463  0.59887944  1
  O2-  O257  1  0.33659621  0.79135801  0.93373087  1
  O2-  O258  1  0.83716198  0.30206440  0.27159623  1
  O2-  O259  1  0.83038944  0.29683299  0.59510856  1
  O2-  O260  1  0.83286114  0.29327013  0.93236700  1
  O2-  O261  1  0.83839471  0.78831219  0.27217560  1
  O2-  O262  1  0.83309735  0.78300164  0.59475605  1
  O2-  O263  1  0.83335785  0.78909814  0.93494584  1
  O2-  O264  1  0.41144682  0.04164619  0.06609370  1
  O2-  O265  1  0.41692382  0.05129957  0.38700520  1
  O2-  O266  1  0.41727121  0.03541999  0.73572336  1
  O2-  O267  1  0.41639471  0.54307427  0.06884135  1
  O2-  O268  1  0.41383795  0.54469879  0.39721457  1
  O2-  O269  1  0.41854874  0.54549448  0.73291161  1
  O2-  O270  1  0.92309340  0.05152220  0.06528055  1
  O2-  O271  1  0.91806706  0.04317939  0.40407866  1
  O2-  O272  1  0.91784654  0.05850625  0.72353193  1
  O2-  O273  1  0.90886770  0.53872957  0.06558907  1
  O2-  O274  1  0.91301033  0.53758640  0.39839146  1
  O2-  O275  1  0.91109719  0.53948651  0.73041063  1
  O2-  O276  1  0.29395533  0.16188096  0.06746163  1
  O2-  O277  1  0.29195084  0.16542231  0.39275406  1
  O2-  O278  1  0.29857289  0.17011416  0.73506145  1
  O2-  O279  1  0.30106011  0.66692059  0.06584725  1
  O2-  O280  1  0.28938699  0.65849782  0.39750800  1
  O2-  O281  1  0.30350083  0.66681352  0.73085481  1
  O2-  O282  1  0.78911720  0.17087343  0.06607322  1
  O2-  O283  1  0.79968695  0.17613149  0.40033576  1
  O2-  O284  1  0.78976197  0.16843129  0.72637470  1
  O2-  O285  1  0.79190635  0.66076798  0.06391625  1
  O2-  O286  1  0.79835641  0.66161486  0.39955650  1
  O2-  O287  1  0.79239077  0.66000486  0.73196372  1
