# generated using pymatgen
data_Ca2Al2SiO7
_symmetry_space_group_name_H-M   'P 1'
_cell_length_a   15.44568293
_cell_length_b   15.44522200
_cell_length_c   15.27475581
_cell_angle_alpha   90.00258816
_cell_angle_beta   89.99945070
_cell_angle_gamma   90.00397028
_symmetry_Int_Tables_number   1
_chemical_formula_structural   Ca2Al2SiO7
_chemical_formula_sum   'Ca48 Al48 Si24 O168'
_cell_volume   3643.97631082
_cell_formula_units_Z   24
loop_
 _symmetry_equiv_pos_site_id
 _symmetry_equiv_pos_as_xyz
  1  'x, y, z'
loop_
 _atom_type_symbol
 _atom_type_oxidation_number
  Ca2+  2.0
  Al0+  0.0
  Si0+  0.0
  O2-  -2.0
loop_
 _atom_site_type_symbol
 _atom_site_label
 _atom_site_symmetry_multiplicity
 _atom_site_fract_x
 _atom_site_fract_y
 _atom_site_fract_z
 _atom_site_occupancy
  Ca2+  Ca0  1  0.17980952  0.08724810  0.17029387  1
  Ca2+  Ca1  1  0.16878890  0.07891706  0.50569535  1
  Ca2+  Ca2  1  0.16702859  0.08244565  0.83468122  1
  Ca2+  Ca3  1  0.16951521  0.57223763  0.17467985  1
  Ca2+  Ca4  1  0.16801510  0.58291947  0.50089887  1
  Ca2+  Ca5  1  0.16611233  0.58023826  0.83846100  1
  Ca2+  Ca6  1  0.66937802  0.07950373  0.17315693  1
  Ca2+  Ca7  1  0.67618528  0.08134394  0.50442005  1
  Ca2+  Ca8  1  0.67105797  0.07108428  0.83659330  1
  Ca2+  Ca9  1  0.66759337  0.57895302  0.16767384  1
  Ca2+  Ca10  1  0.67174981  0.58182218  0.50536591  1
  Ca2+  Ca11  1  0.66139208  0.57815791  0.83891498  1
  Ca2+  Ca12  1  0.07629175  0.34139648  0.16312018  1
  Ca2+  Ca13  1  0.07870474  0.32782568  0.49306926  1
  Ca2+  Ca14  1  0.07870003  0.32955268  0.83050116  1
  Ca2+  Ca15  1  0.06999754  0.83518418  0.16343980  1
  Ca2+  Ca16  1  0.08167480  0.83079025  0.49606713  1
  Ca2+  Ca17  1  0.07922022  0.83320447  0.82561223  1
  Ca2+  Ca18  1  0.58116085  0.32667713  0.15943409  1
  Ca2+  Ca19  1  0.58635081  0.32764223  0.49525155  1
  Ca2+  Ca20  1  0.57826150  0.34120773  0.82996020  1
  Ca2+  Ca21  1  0.58124349  0.82906654  0.16063775  1
  Ca2+  Ca22  1  0.58152573  0.83250234  0.49612707  1
  Ca2+  Ca23  1  0.59176494  0.82554665  0.83003795  1
  Ca2+  Ca24  1  0.32376528  0.41583081  0.17157985  1
  Ca2+  Ca25  1  0.32918776  0.42097865  0.49825297  1
  Ca2+  Ca26  1  0.32735677  0.41570036  0.84401638  1
  Ca2+  Ca27  1  0.33785282  0.92494267  0.17322934  1
  Ca2+  Ca28  1  0.33203900  0.91788928  0.50137472  1
  Ca2+  Ca29  1  0.32669807  0.92181378  0.83718860  1
  Ca2+  Ca30  1  0.83390891  0.41940764  0.17306978  1
  Ca2+  Ca31  1  0.83123867  0.41908416  0.50129637  1
  Ca2+  Ca32  1  0.82294281  0.41521610  0.84001043  1
  Ca2+  Ca33  1  0.83011102  0.91617640  0.17228055  1
  Ca2+  Ca34  1  0.83417568  0.92644511  0.50572642  1
  Ca2+  Ca35  1  0.82896689  0.91768448  0.83629078  1
  Ca2+  Ca36  1  0.41962655  0.16519678  0.16197469  1
  Ca2+  Ca37  1  0.42499672  0.16347040  0.49057620  1
  Ca2+  Ca38  1  0.41208843  0.17105339  0.83557012  1
  Ca2+  Ca39  1  0.41836201  0.66851358  0.16440009  1
  Ca2+  Ca40  1  0.42104948  0.67120742  0.49329888  1
  Ca2+  Ca41  1  0.42990325  0.66424456  0.82898487  1
  Ca2+  Ca42  1  0.91293058  0.17764830  0.16442600  1
  Ca2+  Ca43  1  0.91675250  0.16652955  0.49310246  1
  Ca2+  Ca44  1  0.91709436  0.16980631  0.82851694  1
  Ca2+  Ca45  1  0.90888957  0.67606425  0.16430993  1
  Ca2+  Ca46  1  0.91898385  0.67090474  0.49259672  1
  Ca2+  Ca47  1  0.92115411  0.67276880  0.83021071  1
  Al0+  Al48  1  -0.00051899  0.00019913  -0.00376377  1
  Al0+  Al49  1  0.00022670  0.00013501  0.33089206  1
  Al0+  Al50  1  0.00172385  0.00215854  0.67057439  1
  Al0+  Al51  1  -0.00077722  0.50003553  -0.00137622  1
  Al0+  Al52  1  -0.00093880  0.49887009  0.33837728  1
  Al0+  Al53  1  0.00014550  0.50086809  0.66305774  1
  Al0+  Al54  1  0.50080373  -0.00082121  0.00502909  1
  Al0+  Al55  1  0.50009731  -0.00123707  0.32974548  1
  Al0+  Al56  1  0.50047567  0.00138702  0.67124664  1
  Al0+  Al57  1  0.50036353  0.49925978  -0.00198718  1
  Al0+  Al58  1  0.49844935  0.49872622  0.33657005  1
  Al0+  Al59  1  0.49980264  0.50164088  0.66343501  1
  Al0+  Al60  1  0.25058086  0.24986766  0.00368619  1
  Al0+  Al61  1  0.25089612  0.24910210  0.34280329  1
  Al0+  Al62  1  0.24860160  0.25131758  0.66121182  1
  Al0+  Al63  1  0.24984301  0.75117473  0.00084735  1
  Al0+  Al64  1  0.25125165  0.74911056  0.33030768  1
  Al0+  Al65  1  0.24996216  0.75053318  0.66829413  1
  Al0+  Al66  1  0.74979049  0.24956537  -0.00164580  1
  Al0+  Al67  1  0.75032173  0.24797725  0.32825869  1
  Al0+  Al68  1  0.74849857  0.25151908  0.67473012  1
  Al0+  Al69  1  0.75013385  0.75078656  -0.00474267  1
  Al0+  Al70  1  0.74979793  0.74780494  0.33431954  1
  Al0+  Al71  1  0.75074383  0.74946075  0.66395295  1
  Al0+  Al72  1  0.67842749  0.92765221  0.68095451  1
  Al0+  Al73  1  0.68128248  0.92738104  0.01543815  1
  Al0+  Al74  1  0.07042353  0.17908985  0.65202671  1
  Al0+  Al75  1  0.92912397  0.82175717  0.98433243  1
  Al0+  Al76  1  0.32288746  0.06955282  0.34835771  1
  Al0+  Al77  1  0.92796330  0.32231973  0.98518820  1
  Al0+  Al78  1  0.07218152  0.67866316  0.65232003  1
  Al0+  Al79  1  0.56892531  0.68006754  0.98690796  1
  Al0+  Al80  1  0.42886202  0.82017455  0.31930655  1
  Al0+  Al81  1  0.18036279  0.92862491  0.67946967  1
  Al0+  Al82  1  0.67894715  0.43113305  0.68046763  1
  Al0+  Al83  1  0.82244948  0.07209160  0.68283729  1
  Al0+  Al84  1  0.82087108  0.07095018  0.34491866  1
  Al0+  Al85  1  0.32169995  0.57263614  0.34875368  1
  Al0+  Al86  1  0.81954434  0.57184298  0.34667233  1
  Al0+  Al87  1  0.42926139  0.31899759  0.98795212  1
  Al0+  Al88  1  0.93027584  0.32059543  0.32029354  1
  Al0+  Al89  1  0.57130943  0.17925009  0.31993145  1
  Al0+  Al90  1  0.57177710  0.67913004  0.65072700  1
  Al0+  Al91  1  0.31938306  0.06974819  0.01367834  1
  Al0+  Al92  1  0.17814538  0.43007978  0.01213894  1
  Al0+  Al93  1  0.17748713  0.42864532  0.35133936  1
  Al0+  Al94  1  0.92912235  0.82148004  0.32065721  1
  Al0+  Al95  1  0.67770965  0.42838272  0.01456241  1
  Si0+  Si96  1  0.57219280  0.17613358  0.98157213  1
  Si0+  Si97  1  0.32293290  0.57255667  0.01498675  1
  Si0+  Si98  1  0.17755720  0.92837445  0.34785526  1
  Si0+  Si99  1  0.82145106  0.57117338  0.01502473  1
  Si0+  Si100  1  0.42848986  0.82312419  0.65210823  1
  Si0+  Si101  1  0.42691857  0.82434329  0.98230051  1
  Si0+  Si102  1  0.17898304  0.42880257  0.68218330  1
  Si0+  Si103  1  0.92921993  0.82220230  0.64952997  1
  Si0+  Si104  1  0.32242230  0.07425538  0.68312934  1
  Si0+  Si105  1  0.42801252  0.32174864  0.65018595  1
  Si0+  Si106  1  0.92582269  0.32083557  0.65010382  1
  Si0+  Si107  1  0.42736704  0.32206977  0.31778915  1
  Si0+  Si108  1  0.57189662  0.67589084  0.31673217  1
  Si0+  Si109  1  0.07260881  0.17943028  0.98433157  1
  Si0+  Si110  1  0.57046014  0.17917412  0.65382805  1
  Si0+  Si111  1  0.32042747  0.57064657  0.68250668  1
  Si0+  Si112  1  0.07288395  0.67859630  0.98476272  1
  Si0+  Si113  1  0.67806466  0.42686161  0.34812444  1
  Si0+  Si114  1  0.07409096  0.17761982  0.31658742  1
  Si0+  Si115  1  0.82405833  0.57193271  0.68378415  1
  Si0+  Si116  1  0.17601882  0.92654895  0.01775261  1
  Si0+  Si117  1  0.82305402  0.07162587  0.01778017  1
  Si0+  Si118  1  0.67840982  0.92722197  0.34906451  1
  Si0+  Si119  1  0.07190554  0.67744283  0.31634801  1
  O2-  O120  1  0.24635264  -0.00651402  0.06136047  1
  O2-  O121  1  0.24692856  -0.00425002  0.39347152  1
  O2-  O122  1  0.25414804  0.00463684  0.72623402  1
  O2-  O123  1  0.25162377  0.50634775  0.05818642  1
  O2-  O124  1  0.24933392  0.50188254  0.40066299  1
  O2-  O125  1  0.24883548  0.50038739  0.72560333  1
  O2-  O126  1  0.75486532  0.00279621  0.06250204  1
  O2-  O127  1  0.74873725  -0.00557679  0.39275031  1
  O2-  O128  1  0.75219869  -0.00239354  0.73148782  1
  O2-  O129  1  0.75466698  0.50087024  0.06008761  1
  O2-  O130  1  0.74446546  0.49728015  0.39311790  1
  O2-  O131  1  0.75364670  0.50539228  0.72839827  1
  O2-  O132  1  0.00674353  0.24758778  0.27241019  1
  O2-  O133  1  -0.00669661  0.25119178  0.60561991  1
  O2-  O134  1  0.00234154  0.24662131  0.93973312  1
  O2-  O135  1  0.00268657  0.74583733  0.27224833  1
  O2-  O136  1  -0.00236543  0.75307224  0.60526408  1
  O2-  O137  1  0.00736645  0.74964459  0.93939260  1
  O2-  O138  1  0.49572081  0.25348944  0.27354757  1
  O2-  O139  1  0.49881738  0.24943099  0.60999416  1
  O2-  O140  1  0.50480437  0.24667427  0.93728928  1
  O2-  O141  1  0.50201684  0.74361140  0.27309089  1
  O2-  O142  1  0.50011665  0.75792893  0.60679539  1
  O2-  O143  1  0.49374415  0.75413976  0.93809401  1
  O2-  O144  1  0.07311530  0.17940467  0.08988910  1
  O2-  O145  1  0.07211824  0.17673891  0.42238661  1
  O2-  O146  1  0.07405600  0.18391363  0.76523359  1
  O2-  O147  1  0.07267858  0.67871329  0.09018600  1
  O2-  O148  1  0.07188754  0.68004611  0.42223996  1
  O2-  O149  1  0.07117629  0.67854607  0.76572054  1
  O2-  O150  1  0.57089191  0.17660106  0.08732351  1
  O2-  O151  1  0.57148734  0.18083316  0.43395894  1
  O2-  O152  1  0.56754979  0.17946713  0.75874576  1
  O2-  O153  1  0.56774611  0.68045427  0.10010334  1
  O2-  O154  1  0.57209065  0.67729116  0.42250425  1
  O2-  O155  1  0.56801569  0.67619536  0.76382244  1
  O2-  O156  1  0.17811242  0.42988039  0.23737528  1
  O2-  O157  1  0.18120321  0.42899416  0.57759174  1
  O2-  O158  1  0.18004643  0.43091616  0.89825269  1
  O2-  O159  1  0.17690830  0.93058267  0.24209588  1
  O2-  O160  1  0.18281245  0.92847377  0.56632032  1
  O2-  O161  1  0.17708635  0.92574297  0.91196761  1
  O2-  O162  1  0.67797438  0.42818193  0.24252214  1
  O2-  O163  1  0.68019134  0.42994247  0.56715858  1
  O2-  O164  1  0.67668954  0.43177282  0.90129129  1
  O2-  O165  1  0.67960050  0.92718918  0.24326592  1
  O2-  O166  1  0.67679187  0.93111099  0.56723164  1
  O2-  O167  1  0.68271795  0.92767865  0.90246924  1
  O2-  O168  1  0.42904280  0.31733088  0.10072861  1
  O2-  O169  1  0.42990813  0.32198130  0.42407049  1
  O2-  O170  1  0.42564474  0.32208584  0.75543192  1
  O2-  O171  1  0.42726495  0.82329726  0.08789318  1
  O2-  O172  1  0.43083331  0.82076289  0.43285455  1
  O2-  O173  1  0.42650425  0.82090334  0.75775297  1
  O2-  O174  1  0.92915661  0.32332152  0.09825551  1
  O2-  O175  1  0.92887276  0.31807566  0.43358913  1
  O2-  O176  1  0.92826121  0.32170731  0.75592715  1
  O2-  O177  1  0.92910177  0.82072028  0.09770320  1
  O2-  O178  1  0.93164856  0.82161814  0.43362794  1
  O2-  O179  1  0.93038633  0.81980598  0.75542146  1
  O2-  O180  1  0.32178254  0.06934939  0.23519866  1
  O2-  O181  1  0.32419218  0.07350030  0.57767476  1
  O2-  O182  1  0.31622513  0.06980780  0.90009125  1
  O2-  O183  1  0.32066647  0.57120798  0.23494459  1
  O2-  O184  1  0.32053012  0.56973415  0.57773760  1
  O2-  O185  1  0.32214215  0.57152827  0.90874333  1
  O2-  O186  1  0.81869200  0.07108840  0.23194689  1
  O2-  O187  1  0.82075593  0.07259363  0.56883435  1
  O2-  O188  1  0.82239125  0.07040916  0.91212169  1
  O2-  O189  1  0.81723739  0.57322522  0.23343816  1
  O2-  O190  1  0.82403534  0.57012997  0.57804937  1
  O2-  O191  1  0.82193336  0.56999005  0.90917743  1
  O2-  O192  1  0.04953271  0.08472906  0.26903865  1
  O2-  O193  1  0.04435564  0.08083594  0.59914922  1
  O2-  O194  1  0.04861096  0.08552751  0.93726567  1
  O2-  O195  1  0.04570496  0.58322998  0.27301543  1
  O2-  O196  1  0.04283847  0.58204029  0.59693612  1
  O2-  O197  1  0.04460469  0.58655515  0.93662915  1
  O2-  O198  1  0.54079857  0.08329637  0.26509796  1
  O2-  O199  1  0.54333113  0.08721046  0.60571050  1
  O2-  O200  1  0.54285144  0.08290395  0.93644119  1
  O2-  O201  1  0.54638556  0.58126788  0.27221958  1
  O2-  O202  1  0.53654073  0.58443738  0.59510227  1
  O2-  O203  1  0.53764066  0.58413228  0.93112676  1
  O2-  O204  1  0.16945126  0.20349372  0.27408258  1
  O2-  O205  1  0.16602021  0.21157483  0.59553526  1
  O2-  O206  1  0.16504047  0.20739188  0.93731887  1
  O2-  O207  1  0.16510653  0.70181446  0.26919174  1
  O2-  O208  1  0.16929549  0.70961983  0.59918559  1
  O2-  O209  1  0.16800895  0.70086197  0.93865332  1
  O2-  O210  1  0.66554847  0.20995735  0.26194650  1
  O2-  O211  1  0.66246449  0.20919193  0.60781272  1
  O2-  O212  1  0.66643745  0.19876339  0.93639779  1
  O2-  O213  1  0.66480190  0.70230852  0.27024232  1
  O2-  O214  1  0.66995877  0.70491868  0.59721213  1
  O2-  O215  1  0.66480430  0.71028448  0.93148537  1
  O2-  O216  1  0.08168024  0.46101417  0.06636357  1
  O2-  O217  1  0.07992869  0.45606633  0.40582418  1
  O2-  O218  1  0.08576553  0.45567090  0.72748423  1
  O2-  O219  1  0.08238225  0.95442317  0.06245274  1
  O2-  O220  1  0.08503367  0.95505315  0.39538656  1
  O2-  O221  1  0.08520587  0.95896802  0.73577695  1
  O2-  O222  1  0.58171605  0.46080214  0.06875095  1
  O2-  O223  1  0.58373606  0.44842132  0.39476223  1
  O2-  O224  1  0.58092205  0.46254557  0.73230608  1
  O2-  O225  1  0.58404464  0.95617976  0.06894000  1
  O2-  O226  1  0.58564100  0.95522810  0.39447322  1
  O2-  O227  1  0.58076308  0.95723638  0.73638965  1
  O2-  O228  1  0.21012450  0.33510578  0.06726859  1
  O2-  O229  1  0.20715264  0.33147533  0.40655754  1
  O2-  O230  1  0.20899696  0.33704871  0.72869975  1
  O2-  O231  1  0.19885091  0.83217377  0.06398026  1
  O2-  O232  1  0.20268164  0.83400556  0.39195134  1
  O2-  O233  1  0.21156771  0.83314769  0.73680366  1
  O2-  O234  1  0.70550098  0.32975618  0.06568636  1
  O2-  O235  1  0.70709909  0.33409776  0.39363220  1
  O2-  O236  1  0.70590278  0.33548923  0.73788014  1
  O2-  O237  1  0.71282845  0.83064099  0.06864633  1
  O2-  O238  1  0.70109509  0.83286796  0.39438811  1
  O2-  O239  1  0.70609653  0.82782065  0.73172304  1
  O2-  O240  1  0.45093560  0.41627439  0.27196875  1
  O2-  O241  1  0.45730898  0.41261774  0.60206427  1
  O2-  O242  1  0.45754230  0.41572515  0.93207722  1
  O2-  O243  1  0.46136871  0.91479262  0.26294619  1
  O2-  O244  1  0.45103260  0.91878067  0.60793628  1
  O2-  O245  1  0.45345299  0.91778398  0.93681331  1
  O2-  O246  1  0.95921721  0.41859633  0.26743251  1
  O2-  O247  1  0.95303100  0.41431981  0.60445843  1
  O2-  O248  1  0.95894667  0.41849161  0.92992300  1
  O2-  O249  1  0.96028797  0.91700541  0.26384368  1
  O2-  O250  1  0.95628914  0.91644354  0.60652080  1
  O2-  O251  1  0.95812476  0.91862595  0.92945436  1
  O2-  O252  1  0.33249184  0.29571221  0.27535027  1
  O2-  O253  1  0.33680105  0.29520341  0.60109789  1
  O2-  O254  1  0.33314909  0.28624490  0.93207205  1
  O2-  O255  1  0.33209981  0.79245743  0.26293188  1
  O2-  O256  1  0.33659737  0.79355841  0.60505517  1
  O2-  O257  1  0.33155473  0.80096033  0.93751523  1
  O2-  O258  1  0.83511111  0.28892952  0.26411330  1
  O2-  O259  1  0.83071602  0.29686681  0.60661825  1
  O2-  O260  1  0.83138696  0.29129489  0.93060248  1
  O2-  O261  1  0.83198133  0.78949354  0.26754473  1
  O2-  O262  1  0.83593170  0.79761181  0.60280496  1
  O2-  O263  1  0.83531811  0.78744632  0.92817276  1
  O2-  O264  1  0.41632558  0.04126276  0.06777383  1
  O2-  O265  1  0.41903874  0.03612811  0.40199635  1
  O2-  O266  1  0.41517663  0.05041763  0.73144229  1
  O2-  O267  1  0.41490897  0.54473008  0.06152909  1
  O2-  O268  1  0.41959556  0.54325849  0.40403389  1
  O2-  O269  1  0.41168741  0.54017748  0.72944549  1
  O2-  O270  1  0.91793238  0.04748840  0.06178158  1
  O2-  O271  1  0.91884953  0.04237619  0.39786518  1
  O2-  O272  1  0.92112226  0.04699558  0.73649678  1
  O2-  O273  1  0.91531028  0.54797010  0.06142416  1
  O2-  O274  1  0.91520445  0.54226262  0.40229701  1
  O2-  O275  1  0.91763547  0.54535447  0.73019507  1
  O2-  O276  1  0.28758680  0.16471230  0.06977182  1
  O2-  O277  1  0.29595479  0.16547398  0.40500053  1
  O2-  O278  1  0.29353759  0.16823792  0.72735257  1
  O2-  O279  1  0.30053123  0.66774632  0.05990050  1
  O2-  O280  1  0.29433706  0.67171532  0.40147722  1
  O2-  O281  1  0.29421243  0.66228334  0.73076070  1
  O2-  O282  1  0.79642739  0.16558679  0.06223247  1
  O2-  O283  1  0.78777442  0.16671792  0.39934461  1
  O2-  O284  1  0.79174645  0.16884132  0.73784753  1
  O2-  O285  1  0.79257403  0.66415979  0.05990984  1
  O2-  O286  1  0.78922042  0.66719298  0.40432325  1
  O2-  O287  1  0.80098128  0.66680817  0.72753858  1
