# generated using pymatgen
data_Ca2Al2SiO7
_symmetry_space_group_name_H-M   'P 1'
_cell_length_a   15.46183695
_cell_length_b   15.46055639
_cell_length_c   15.28497509
_cell_angle_alpha   90.02270011
_cell_angle_beta   89.98637064
_cell_angle_gamma   89.99144941
_symmetry_Int_Tables_number   1
_chemical_formula_structural   Ca2Al2SiO7
_chemical_formula_sum   'Ca48 Al48 Si24 O168'
_cell_volume   3653.85149746
_cell_formula_units_Z   24
loop_
 _symmetry_equiv_pos_site_id
 _symmetry_equiv_pos_as_xyz
  1  'x, y, z'
loop_
 _atom_type_symbol
 _atom_type_oxidation_number
  Ca2+  2.0
  Al0+  0.0
  Si0+  0.0
  O2-  -2.0
loop_
 _atom_site_type_symbol
 _atom_site_label
 _atom_site_symmetry_multiplicity
 _atom_site_fract_x
 _atom_site_fract_y
 _atom_site_fract_z
 _atom_site_occupancy
  Ca2+  Ca0  1  0.17434268  0.08442054  0.16706743  1
  Ca2+  Ca1  1  0.16239111  0.07508074  0.50810434  1
  Ca2+  Ca2  1  0.16844889  0.08072485  0.83338154  1
  Ca2+  Ca3  1  0.17875105  0.57689056  0.17276629  1
  Ca2+  Ca4  1  0.17360673  0.57509097  0.50549162  1
  Ca2+  Ca5  1  0.17518062  0.58041948  0.82923160  1
  Ca2+  Ca6  1  0.66112750  0.07069405  0.17119789  1
  Ca2+  Ca7  1  0.66227334  0.08104724  0.50383737  1
  Ca2+  Ca8  1  0.66028125  0.08095036  0.83706269  1
  Ca2+  Ca9  1  0.67421975  0.57639682  0.17770700  1
  Ca2+  Ca10  1  0.67278696  0.57946591  0.49565368  1
  Ca2+  Ca11  1  0.66970291  0.58124858  0.83533530  1
  Ca2+  Ca12  1  0.07383523  0.34562827  0.16658875  1
  Ca2+  Ca13  1  0.08083372  0.34029284  0.49629926  1
  Ca2+  Ca14  1  0.07560884  0.33200462  0.82211701  1
  Ca2+  Ca15  1  0.07601606  0.83151156  0.16633059  1
  Ca2+  Ca16  1  0.08556671  0.82497177  0.49639537  1
  Ca2+  Ca17  1  0.08950281  0.82708257  0.82290680  1
  Ca2+  Ca18  1  0.57243815  0.34260334  0.16593003  1
  Ca2+  Ca19  1  0.57383232  0.33470348  0.49596175  1
  Ca2+  Ca20  1  0.56937550  0.32835136  0.82494338  1
  Ca2+  Ca21  1  0.57842610  0.83477628  0.16391971  1
  Ca2+  Ca22  1  0.57214795  0.83212453  0.49316067  1
  Ca2+  Ca23  1  0.57234874  0.83578612  0.83141870  1
  Ca2+  Ca24  1  0.33511601  0.42520384  0.17847328  1
  Ca2+  Ca25  1  0.32832373  0.42142639  0.50816745  1
  Ca2+  Ca26  1  0.33450303  0.42126172  0.83924739  1
  Ca2+  Ca27  1  0.34440894  0.92298278  0.16861965  1
  Ca2+  Ca28  1  0.33226743  0.91445562  0.50836589  1
  Ca2+  Ca29  1  0.33417125  0.92033148  0.83710155  1
  Ca2+  Ca30  1  0.82908417  0.41669826  0.17872640  1
  Ca2+  Ca31  1  0.83295239  0.41001816  0.50111164  1
  Ca2+  Ca32  1  0.83689250  0.41094590  0.83544323  1
  Ca2+  Ca33  1  0.82112118  0.91361386  0.17758555  1
  Ca2+  Ca34  1  0.82875973  0.91189700  0.50106160  1
  Ca2+  Ca35  1  0.82444689  0.92218436  0.84182383  1
  Ca2+  Ca36  1  0.41293057  0.17952538  0.16219508  1
  Ca2+  Ca37  1  0.41698406  0.17948991  0.50001107  1
  Ca2+  Ca38  1  0.41572228  0.17449430  0.82906253  1
  Ca2+  Ca39  1  0.40868938  0.67445795  0.16303050  1
  Ca2+  Ca40  1  0.40342453  0.67494743  0.49651178  1
  Ca2+  Ca41  1  0.40332982  0.67533651  0.82969903  1
  Ca2+  Ca42  1  0.91801266  0.17873022  0.16408899  1
  Ca2+  Ca43  1  0.92495368  0.17597350  0.49884616  1
  Ca2+  Ca44  1  0.92260776  0.17606960  0.82508298  1
  Ca2+  Ca45  1  0.91236884  0.66689372  0.16854589  1
  Ca2+  Ca46  1  0.92425432  0.66580680  0.49304311  1
  Ca2+  Ca47  1  0.92768810  0.66920161  0.82471115  1
  Al0+  Al48  1  -0.00171025  0.00061791  0.00161583  1
  Al0+  Al49  1  -0.00002809  -0.00072674  0.32706574  1
  Al0+  Al50  1  -0.00334769  0.00109527  0.67004752  1
  Al0+  Al51  1  0.00027209  0.50187114  -0.00494000  1
  Al0+  Al52  1  0.00262913  0.50026930  0.33309797  1
  Al0+  Al53  1  0.00087206  0.50283816  0.66322101  1
  Al0+  Al54  1  0.49868029  -0.00082293  0.00487779  1
  Al0+  Al55  1  0.50041791  -0.00034620  0.33544358  1
  Al0+  Al56  1  0.49932695  -0.00128219  0.66056899  1
  Al0+  Al57  1  0.50141196  0.50233550  -0.00058296  1
  Al0+  Al58  1  0.50282297  0.50286179  0.33823442  1
  Al0+  Al59  1  0.50335689  0.50324708  0.66855222  1
  Al0+  Al60  1  0.24706838  0.24873281  0.00102717  1
  Al0+  Al61  1  0.25173410  0.24829273  0.33264926  1
  Al0+  Al62  1  0.24860873  0.24807960  0.66376774  1
  Al0+  Al63  1  0.24812599  0.74904265  0.00112818  1
  Al0+  Al64  1  0.24907295  0.75181037  0.32796293  1
  Al0+  Al65  1  0.24792791  0.75011742  0.66532593  1
  Al0+  Al66  1  0.75053168  0.24958772  -0.00239923  1
  Al0+  Al67  1  0.75163655  0.24637033  0.33263653  1
  Al0+  Al68  1  0.75020483  0.24838001  0.66215501  1
  Al0+  Al69  1  0.74935209  0.74968918  0.00216141  1
  Al0+  Al70  1  0.74919167  0.75029802  0.33900821  1
  Al0+  Al71  1  0.74690443  0.74962700  0.67046591  1
  Al0+  Al72  1  0.17786160  0.92956621  0.67828306  1
  Al0+  Al73  1  0.92968136  0.32125736  0.98620771  1
  Al0+  Al74  1  0.32292227  0.57061245  0.68233154  1
  Al0+  Al75  1  0.32150369  0.57038328  0.01482485  1
  Al0+  Al76  1  0.07194564  0.17627307  0.65239673  1
  Al0+  Al77  1  0.93096337  0.32048808  0.31874096  1
  Al0+  Al78  1  0.42770148  0.32340879  0.98814214  1
  Al0+  Al79  1  0.67866314  0.92998643  0.35058798  1
  Al0+  Al80  1  0.32220802  0.57398203  0.34804900  1
  Al0+  Al81  1  0.17838445  0.42700872  0.68252553  1
  Al0+  Al82  1  0.67963659  0.92984319  0.01435647  1
  Al0+  Al83  1  0.42841787  0.82073637  0.31805124  1
  Al0+  Al84  1  0.42956133  0.82027311  0.98601697  1
  Al0+  Al85  1  0.82245095  0.57041415  0.34850851  1
  Al0+  Al86  1  0.31930342  0.07108759  0.01355968  1
  Al0+  Al87  1  0.92822726  0.81993732  0.32063281  1
  Al0+  Al88  1  0.43064987  0.32230023  0.32031361  1
  Al0+  Al89  1  0.67947923  0.42529923  0.34916514  1
  Al0+  Al90  1  0.18138024  0.42707849  0.34734183  1
  Al0+  Al91  1  0.42762303  0.32451433  0.65271235  1
  Al0+  Al92  1  0.57022338  0.17836274  0.65228504  1
  Al0+  Al93  1  0.07038496  0.68147777  0.65196577  1
  Al0+  Al94  1  0.93088981  0.32204925  0.65009033  1
  Al0+  Al95  1  0.43002182  0.81734235  0.65393547  1
  Si0+  Si96  1  0.57474487  0.67838553  0.98258001  1
  Si0+  Si97  1  0.82102960  0.57182684  0.68291588  1
  Si0+  Si98  1  0.57018625  0.17810524  0.98659382  1
  Si0+  Si99  1  0.57197213  0.17729122  0.31583884  1
  Si0+  Si100  1  0.07211362  0.67811410  0.31313248  1
  Si0+  Si101  1  0.92651025  0.82147891  0.98528247  1
  Si0+  Si102  1  0.92440538  0.82242328  0.65340316  1
  Si0+  Si103  1  0.67736207  0.92924808  0.68325706  1
  Si0+  Si104  1  0.68009051  0.42813501  0.01264656  1
  Si0+  Si105  1  0.82240990  0.57006608  0.01313790  1
  Si0+  Si106  1  0.17764712  0.93079244  0.34599151  1
  Si0+  Si107  1  0.57697681  0.67798831  0.64833527  1
  Si0+  Si108  1  0.81924915  0.07173281  0.68327938  1
  Si0+  Si109  1  0.07127564  0.17524399  0.98248716  1
  Si0+  Si110  1  0.17583254  0.92642393  0.01801570  1
  Si0+  Si111  1  0.82257714  0.07321051  0.01863709  1
  Si0+  Si112  1  0.32362234  0.07055008  0.68202573  1
  Si0+  Si113  1  0.17689072  0.42836621  0.01504829  1
  Si0+  Si114  1  0.57333063  0.67949847  0.31665508  1
  Si0+  Si115  1  0.07347917  0.17562609  0.31398263  1
  Si0+  Si116  1  0.82439294  0.07016942  0.35136291  1
  Si0+  Si117  1  0.68095605  0.42692023  0.68325373  1
  Si0+  Si118  1  0.06949087  0.68139281  0.98370609  1
  Si0+  Si119  1  0.32163897  0.07022469  0.34968187  1
  O2-  O120  1  0.24522775  -0.00511753  0.06127851  1
  O2-  O121  1  0.24932556  -0.00040448  0.38973981  1
  O2-  O122  1  0.25127909  0.00494813  0.72577983  1
  O2-  O123  1  0.25221998  0.48950404  0.05934603  1
  O2-  O124  1  0.25564156  0.49676449  0.39676691  1
  O2-  O125  1  0.25674865  0.49262841  0.73296808  1
  O2-  O126  1  0.75515623  0.00337635  0.06247772  1
  O2-  O127  1  0.75460923  0.00343178  0.39717840  1
  O2-  O128  1  0.74762052  0.00081081  0.72576367  1
  O2-  O129  1  0.75285397  0.49780497  0.05447547  1
  O2-  O130  1  0.75565210  0.49377040  0.39894802  1
  O2-  O131  1  0.75287059  0.49798495  0.72573749  1
  O2-  O132  1  0.00824194  0.24849811  0.27081508  1
  O2-  O133  1  0.00775388  0.25454019  0.60130141  1
  O2-  O134  1  0.00376750  0.24601139  0.94042472  1
  O2-  O135  1  -0.00044154  0.74415430  0.26989334  1
  O2-  O136  1  -0.00541524  0.75685052  0.60823173  1
  O2-  O137  1  0.00057134  0.75551460  0.94151273  1
  O2-  O138  1  0.50821657  0.25042315  0.27165776  1
  O2-  O139  1  0.50053183  0.25250849  0.60334550  1
  O2-  O140  1  0.50238754  0.24757955  0.94279519  1
  O2-  O141  1  0.50090590  0.74376102  0.27154759  1
  O2-  O142  1  0.50202210  0.74052466  0.60663760  1
  O2-  O143  1  0.50294641  0.74420821  0.93907126  1
  O2-  O144  1  0.06973955  0.17201717  0.08795625  1
  O2-  O145  1  0.07046430  0.16922591  0.41886595  1
  O2-  O146  1  0.06557688  0.17287560  0.76616105  1
  O2-  O147  1  0.06655542  0.68089660  0.08861266  1
  O2-  O148  1  0.07389869  0.68167375  0.41842261  1
  O2-  O149  1  0.06815727  0.68307285  0.76588735  1
  O2-  O150  1  0.57120843  0.17877308  0.09199498  1
  O2-  O151  1  0.56835055  0.17524036  0.42114095  1
  O2-  O152  1  0.56902694  0.17839131  0.76670563  1
  O2-  O153  1  0.58036783  0.67876791  0.08764062  1
  O2-  O154  1  0.57678540  0.68340932  0.42201096  1
  O2-  O155  1  0.58642724  0.68261821  0.75371410  1
  O2-  O156  1  0.18085255  0.43010658  0.23285357  1
  O2-  O157  1  0.17671499  0.43174476  0.56953283  1
  O2-  O158  1  0.17377821  0.43137804  0.90986036  1
  O2-  O159  1  0.17598414  0.93288183  0.24070542  1
  O2-  O160  1  0.17869335  0.92954780  0.56486291  1
  O2-  O161  1  0.17405547  0.92646710  0.91257317  1
  O2-  O162  1  0.68009549  0.42832574  0.23449137  1
  O2-  O163  1  0.68167730  0.42692813  0.57867199  1
  O2-  O164  1  0.68100375  0.42896056  0.90740535  1
  O2-  O165  1  0.67895446  0.93130922  0.23708631  1
  O2-  O166  1  0.67949854  0.92803978  0.57854410  1
  O2-  O167  1  0.68110911  0.93153887  0.90079834  1
  O2-  O168  1  0.43039497  0.32389380  0.10131021  1
  O2-  O169  1  0.42965455  0.31923823  0.43273935  1
  O2-  O170  1  0.43014588  0.32243475  0.76702975  1
  O2-  O171  1  0.43232587  0.82003457  0.09892090  1
  O2-  O172  1  0.42820985  0.82174222  0.43104611  1
  O2-  O173  1  0.43230250  0.82013028  0.76735289  1
  O2-  O174  1  0.92968695  0.32239095  0.09922371  1
  O2-  O175  1  0.93104774  0.31777726  0.43098959  1
  O2-  O176  1  0.92889488  0.31848320  0.76426941  1
  O2-  O177  1  0.92554955  0.81881660  0.09027230  1
  O2-  O178  1  0.93247243  0.82088488  0.43357360  1
  O2-  O179  1  0.92272115  0.81924235  0.75963402  1
  O2-  O180  1  0.32131934  0.07005090  0.24414762  1
  O2-  O181  1  0.32625685  0.06654622  0.57648118  1
  O2-  O182  1  0.31908516  0.06982640  0.90059074  1
  O2-  O183  1  0.31884732  0.57405346  0.23378003  1
  O2-  O184  1  0.31872401  0.57320237  0.56936233  1
  O2-  O185  1  0.31777250  0.57296449  0.90226959  1
  O2-  O186  1  0.82393020  0.06811211  0.24549679  1
  O2-  O187  1  0.82052290  0.06983578  0.57853862  1
  O2-  O188  1  0.82281336  0.07166750  0.91290380  1
  O2-  O189  1  0.81900672  0.57018837  0.23383584  1
  O2-  O190  1  0.81844439  0.57637660  0.57867418  1
  O2-  O191  1  0.82182929  0.57170247  0.90786739  1
  O2-  O192  1  0.04354737  0.08483783  0.26340049  1
  O2-  O193  1  0.03462356  0.08005808  0.59847254  1
  O2-  O194  1  0.04374603  0.08170802  0.93576268  1
  O2-  O195  1  0.04879053  0.58464080  0.26638872  1
  O2-  O196  1  0.03786174  0.58737461  0.59638918  1
  O2-  O197  1  0.03803585  0.59195203  0.93396011  1
  O2-  O198  1  0.53976581  0.08570132  0.26892098  1
  O2-  O199  1  0.54221759  0.08110959  0.59728511  1
  O2-  O200  1  0.54329085  0.08486761  0.94079641  1
  O2-  O201  1  0.55423504  0.58398836  0.27204340  1
  O2-  O202  1  0.56019873  0.58174640  0.60612021  1
  O2-  O203  1  0.55295788  0.58416848  0.93622093  1
  O2-  O204  1  0.16856466  0.19743737  0.26963892  1
  O2-  O205  1  0.17315920  0.19062146  0.60144465  1
  O2-  O206  1  0.16537635  0.19791807  0.93719830  1
  O2-  O207  1  0.16204215  0.71064548  0.26334965  1
  O2-  O208  1  0.16392436  0.71506046  0.59577617  1
  O2-  O209  1  0.16087673  0.70860693  0.93608111  1
  O2-  O210  1  0.66829613  0.19357129  0.27173486  1
  O2-  O211  1  0.66909958  0.20246074  0.59929540  1
  O2-  O212  1  0.66449390  0.20098017  0.93984108  1
  O2-  O213  1  0.66529908  0.70966323  0.26918474  1
  O2-  O214  1  0.66708357  0.71094868  0.59901765  1
  O2-  O215  1  0.66728714  0.70723276  0.93389710  1
  O2-  O216  1  0.08576552  0.46441604  0.06173035  1
  O2-  O217  1  0.08345363  0.45739209  0.39861619  1
  O2-  O218  1  0.08065577  0.46322643  0.73477315  1
  O2-  O219  1  0.08152225  0.95299918  0.06409875  1
  O2-  O220  1  0.08594067  0.95906971  0.39324090  1
  O2-  O221  1  0.07999023  0.95659000  0.73389954  1
  O2-  O222  1  0.58972144  0.45834192  0.06114346  1
  O2-  O223  1  0.58429196  0.45894764  0.40475665  1
  O2-  O224  1  0.59060528  0.45671073  0.73292000  1
  O2-  O225  1  0.58444883  0.96096796  0.06998209  1
  O2-  O226  1  0.58281627  0.96281276  0.40464162  1
  O2-  O227  1  0.58547173  0.95865390  0.72952606  1
  O2-  O228  1  0.19074960  0.33164058  0.05819516  1
  O2-  O229  1  0.20390774  0.32631600  0.39762764  1
  O2-  O230  1  0.19661765  0.32408971  0.73128816  1
  O2-  O231  1  0.19911653  0.83286961  0.06418373  1
  O2-  O232  1  0.20384531  0.83802676  0.39086536  1
  O2-  O233  1  0.21022388  0.83471783  0.73397881  1
  O2-  O234  1  0.70583312  0.33574794  0.05976454  1
  O2-  O235  1  0.70415574  0.32473513  0.39886399  1
  O2-  O236  1  0.70917551  0.33478467  0.73026357  1
  O2-  O237  1  0.71120584  0.83297730  0.06784601  1
  O2-  O238  1  0.70971324  0.83466203  0.40530433  1
  O2-  O239  1  0.70554842  0.83808730  0.73256044  1
  O2-  O240  1  0.46146534  0.42073451  0.26895911  1
  O2-  O241  1  0.45859229  0.42336635  0.60284314  1
  O2-  O242  1  0.46124738  0.41895957  0.93374779  1
  O2-  O243  1  0.46349082  0.91739861  0.26601179  1
  O2-  O244  1  0.46242183  0.91206975  0.59804427  1
  O2-  O245  1  0.46228270  0.91722302  0.93358905  1
  O2-  O246  1  0.95938712  0.41844804  0.26469243  1
  O2-  O247  1  0.95147994  0.42270864  0.60040311  1
  O2-  O248  1  0.95876233  0.41826341  0.93157685  1
  O2-  O249  1  0.96038596  0.91463475  0.26233672  1
  O2-  O250  1  0.94490600  0.91741955  0.61019939  1
  O2-  O251  1  0.94887544  0.91612704  0.94071932  1
  O2-  O252  1  0.33524785  0.28750400  0.26536688  1
  O2-  O253  1  0.32984136  0.29550472  0.60041738  1
  O2-  O254  1  0.32979173  0.29290539  0.93708768  1
  O2-  O255  1  0.33112703  0.79509780  0.26208328  1
  O2-  O256  1  0.33303611  0.78974716  0.60018947  1
  O2-  O257  1  0.33048942  0.79178641  0.93530549  1
  O2-  O258  1  0.83441856  0.28676316  0.26447904  1
  O2-  O259  1  0.83405126  0.28814188  0.59832584  1
  O2-  O260  1  0.83263859  0.29086435  0.93175635  1
  O2-  O261  1  0.83064518  0.78982200  0.26785665  1
  O2-  O262  1  0.83122514  0.79434313  0.60814685  1
  O2-  O263  1  0.83616553  0.79066064  0.93660077  1
  O2-  O264  1  0.41455776  0.04030603  0.07018733  1
  O2-  O265  1  0.41205432  0.04069863  0.39725340  1
  O2-  O266  1  0.41553889  0.03935544  0.72923855  1
  O2-  O267  1  0.42158139  0.54747180  0.06595078  1
  O2-  O268  1  0.42346305  0.55681109  0.39747841  1
  O2-  O269  1  0.42581668  0.55481680  0.73322219  1
  O2-  O270  1  0.91649709  0.04918017  0.06495337  1
  O2-  O271  1  0.91782482  0.04124431  0.39577991  1
  O2-  O272  1  0.90884186  0.04295279  0.73502458  1
  O2-  O273  1  0.91475348  0.54469350  0.06014064  1
  O2-  O274  1  0.92338692  0.54962138  0.39711475  1
  O2-  O275  1  0.91342455  0.54719367  0.73024771  1
  O2-  O276  1  0.28669224  0.16669738  0.07059219  1
  O2-  O277  1  0.29486028  0.16167263  0.39704684  1
  O2-  O278  1  0.30150600  0.16510022  0.72719417  1
  O2-  O279  1  0.28445795  0.66556104  0.06873953  1
  O2-  O280  1  0.28685146  0.67211879  0.39765999  1
  O2-  O281  1  0.28422657  0.66685498  0.73479160  1
  O2-  O282  1  0.79584995  0.16701156  0.06398457  1
  O2-  O283  1  0.80073958  0.16377356  0.39704020  1
  O2-  O284  1  0.79076339  0.16316063  0.73164047  1
  O2-  O285  1  0.79378010  0.66143853  0.06126086  1
  O2-  O286  1  0.79036023  0.66653971  0.40352474  1
  O2-  O287  1  0.78962763  0.66218970  0.73367010  1
