# generated using pymatgen
data_Ca2Al2SiO7
_symmetry_space_group_name_H-M   'P 1'
_cell_length_a   15.45696846
_cell_length_b   15.45617555
_cell_length_c   15.28273611
_cell_angle_alpha   90.00269499
_cell_angle_beta   90.01432582
_cell_angle_gamma   89.98683234
_symmetry_Int_Tables_number   1
_chemical_formula_structural   Ca2Al2SiO7
_chemical_formula_sum   'Ca48 Al48 Si24 O168'
_cell_volume   3651.13130174
_cell_formula_units_Z   24
loop_
 _symmetry_equiv_pos_site_id
 _symmetry_equiv_pos_as_xyz
  1  'x, y, z'
loop_
 _atom_type_symbol
 _atom_type_oxidation_number
  Ca2+  2.0
  Al0+  0.0
  Si0+  0.0
  O2-  -2.0
loop_
 _atom_site_type_symbol
 _atom_site_label
 _atom_site_symmetry_multiplicity
 _atom_site_fract_x
 _atom_site_fract_y
 _atom_site_fract_z
 _atom_site_occupancy
  Ca2+  Ca0  1  0.17071259  0.07800141  0.16869676  1
  Ca2+  Ca1  1  0.17250569  0.08531565  0.50366369  1
  Ca2+  Ca2  1  0.15929214  0.07916758  0.84153364  1
  Ca2+  Ca3  1  0.16709558  0.58422241  0.16565461  1
  Ca2+  Ca4  1  0.17116128  0.58270173  0.51029215  1
  Ca2+  Ca5  1  0.17234785  0.58009947  0.84220306  1
  Ca2+  Ca6  1  0.66403677  0.07832033  0.17668903  1
  Ca2+  Ca7  1  0.65919348  0.07093778  0.50255505  1
  Ca2+  Ca8  1  0.66798377  0.07692412  0.83504700  1
  Ca2+  Ca9  1  0.65846364  0.58102012  0.16327728  1
  Ca2+  Ca10  1  0.66751647  0.57909630  0.51132098  1
  Ca2+  Ca11  1  0.66065655  0.57773439  0.83853488  1
  Ca2+  Ca12  1  0.08708354  0.32693807  0.15706783  1
  Ca2+  Ca13  1  0.08216024  0.33572257  0.50263413  1
  Ca2+  Ca14  1  0.08863079  0.32800825  0.82541767  1
  Ca2+  Ca15  1  0.08651097  0.82451539  0.16028605  1
  Ca2+  Ca16  1  0.08014898  0.81919674  0.49233866  1
  Ca2+  Ca17  1  0.09210741  0.82150854  0.83247142  1
  Ca2+  Ca18  1  0.57196061  0.33260172  0.16039576  1
  Ca2+  Ca19  1  0.57737208  0.32961607  0.49151226  1
  Ca2+  Ca20  1  0.57764675  0.34586777  0.83232844  1
  Ca2+  Ca21  1  0.57218711  0.83377842  0.16150464  1
  Ca2+  Ca22  1  0.58364005  0.83074239  0.49438719  1
  Ca2+  Ca23  1  0.57914317  0.82219397  0.82860988  1
  Ca2+  Ca24  1  0.33487785  0.41851354  0.16473154  1
  Ca2+  Ca25  1  0.32927365  0.42331081  0.50930303  1
  Ca2+  Ca26  1  0.32563834  0.42747717  0.84025638  1
  Ca2+  Ca27  1  0.33279371  0.91511632  0.17169886  1
  Ca2+  Ca28  1  0.34259160  0.92418412  0.49835775  1
  Ca2+  Ca29  1  0.32843909  0.91851042  0.84167869  1
  Ca2+  Ca30  1  0.82660195  0.41770957  0.16753286  1
  Ca2+  Ca31  1  0.82655454  0.41475432  0.50927007  1
  Ca2+  Ca32  1  0.82319531  0.40938859  0.83533060  1
  Ca2+  Ca33  1  0.82743272  0.91384769  0.17561840  1
  Ca2+  Ca34  1  0.82345255  0.90892218  0.50235868  1
  Ca2+  Ca35  1  0.82853329  0.91352935  0.83472816  1
  Ca2+  Ca36  1  0.41447706  0.17436308  0.16775085  1
  Ca2+  Ca37  1  0.42045590  0.17340784  0.48742248  1
  Ca2+  Ca38  1  0.41258327  0.17787012  0.83277620  1
  Ca2+  Ca39  1  0.41674681  0.67750811  0.15593636  1
  Ca2+  Ca40  1  0.42037342  0.66892311  0.49854808  1
  Ca2+  Ca41  1  0.41838850  0.66237480  0.83329887  1
  Ca2+  Ca42  1  0.92264470  0.16702206  0.15946101  1
  Ca2+  Ca43  1  0.92000342  0.17113063  0.50386503  1
  Ca2+  Ca44  1  0.92860985  0.17318724  0.82701706  1
  Ca2+  Ca45  1  0.92636125  0.67182990  0.16619010  1
  Ca2+  Ca46  1  0.92899469  0.66619445  0.49456904  1
  Ca2+  Ca47  1  0.93098023  0.66039645  0.83006636  1
  Al0+  Al48  1  -0.00069051  0.00062559  0.00141196  1
  Al0+  Al49  1  -0.00143552  -0.00009843  0.33361948  1
  Al0+  Al50  1  -0.00037578  0.00148167  0.66123395  1
  Al0+  Al51  1  -0.00281791  0.50020584  0.00127911  1
  Al0+  Al52  1  -0.00041179  0.49859163  0.32974430  1
  Al0+  Al53  1  -0.00063771  0.49847801  0.66095447  1
  Al0+  Al54  1  0.50036817  0.00102954  -0.00414776  1
  Al0+  Al55  1  0.50057501  -0.00020077  0.33453861  1
  Al0+  Al56  1  0.49993102  0.00027619  0.67447593  1
  Al0+  Al57  1  0.49958406  0.49941083  0.00271631  1
  Al0+  Al58  1  0.49826197  0.49913354  0.33209155  1
  Al0+  Al59  1  0.49969466  0.50253721  0.66792608  1
  Al0+  Al60  1  0.25109844  0.24974062  -0.00536989  1
  Al0+  Al61  1  0.24929812  0.25032868  0.33482984  1
  Al0+  Al62  1  0.25163018  0.25026024  0.66473322  1
  Al0+  Al63  1  0.24926992  0.75192309  0.00017047  1
  Al0+  Al64  1  0.25124103  0.74789740  0.32835979  1
  Al0+  Al65  1  0.25211913  0.75409347  0.66378516  1
  Al0+  Al66  1  0.74987137  0.24915513  0.00570484  1
  Al0+  Al67  1  0.75120471  0.24833544  0.33114305  1
  Al0+  Al68  1  0.75041896  0.24786887  0.66787501  1
  Al0+  Al69  1  0.74941885  0.74994550  -0.00149445  1
  Al0+  Al70  1  0.75294536  0.74740696  0.33464754  1
  Al0+  Al71  1  0.74833766  0.74874746  0.66935781  1
  Al0+  Al72  1  0.67864202  0.92737199  0.68290168  1
  Al0+  Al73  1  0.42702843  0.32252961  0.31832692  1
  Al0+  Al74  1  0.57139315  0.17871588  0.31967165  1
  Al0+  Al75  1  0.07038289  0.17995086  0.98799939  1
  Al0+  Al76  1  0.42727066  0.82351937  0.98291800  1
  Al0+  Al77  1  0.07221969  0.67749151  0.31646392  1
  Al0+  Al78  1  0.06958075  0.67899926  0.98550185  1
  Al0+  Al79  1  0.92832923  0.82129054  0.31939643  1
  Al0+  Al80  1  0.17799183  0.42897889  0.68052400  1
  Al0+  Al81  1  0.57066563  0.67960476  0.98505145  1
  Al0+  Al82  1  0.07308319  0.67976948  0.65377747  1
  Al0+  Al83  1  0.56985546  0.67910088  0.65222196  1
  Al0+  Al84  1  0.32027325  0.57448943  0.68144429  1
  Al0+  Al85  1  0.67940977  0.42795059  0.67865471  1
  Al0+  Al86  1  0.07374962  0.17824674  0.64890968  1
  Al0+  Al87  1  0.32003370  0.57110043  0.01745521  1
  Al0+  Al88  1  0.43177191  0.82038448  0.32134012  1
  Al0+  Al89  1  0.92745015  0.32091538  0.65182003  1
  Al0+  Al90  1  0.67922355  0.42939264  0.01608063  1
  Al0+  Al91  1  0.43011982  0.32022666  0.98423962  1
  Al0+  Al92  1  0.17908825  0.93037459  0.01344635  1
  Al0+  Al93  1  0.68061165  0.92895691  0.34621503  1
  Al0+  Al94  1  0.31880820  0.07015087  0.34640841  1
  Al0+  Al95  1  0.17718978  0.42732844  0.01485703  1
  Si0+  Si96  1  0.92582469  0.32175583  0.98499611  1
  Si0+  Si97  1  0.17708945  0.92594584  0.35047735  1
  Si0+  Si98  1  0.32411463  0.07295748  0.01618412  1
  Si0+  Si99  1  0.92725902  0.82302028  0.98293152  1
  Si0+  Si100  1  0.17771863  0.93168751  0.67872565  1
  Si0+  Si101  1  0.82265330  0.57176992  0.68275109  1
  Si0+  Si102  1  0.82238404  0.57453996  0.01878125  1
  Si0+  Si103  1  0.57036707  0.17667986  0.65347161  1
  Si0+  Si104  1  0.57495923  0.17831707  0.98184095  1
  Si0+  Si105  1  0.43118640  0.32128539  0.65190199  1
  Si0+  Si106  1  0.82483744  0.07436724  0.35257032  1
  Si0+  Si107  1  0.32148953  0.07194998  0.68237975  1
  Si0+  Si108  1  0.67864054  0.92854737  0.01545121  1
  Si0+  Si109  1  0.92839967  0.32041335  0.31653815  1
  Si0+  Si110  1  0.17787270  0.42897847  0.34855938  1
  Si0+  Si111  1  0.82275348  0.07065183  0.68446412  1
  Si0+  Si112  1  0.32125671  0.57193906  0.34860113  1
  Si0+  Si113  1  0.81999003  0.06956841  0.01579889  1
  Si0+  Si114  1  0.67887299  0.42859475  0.34784515  1
  Si0+  Si115  1  0.57396826  0.67610701  0.31825456  1
  Si0+  Si116  1  0.92704833  0.82197065  0.65116223  1
  Si0+  Si117  1  0.07117056  0.17927009  0.31835602  1
  Si0+  Si118  1  0.42945299  0.82560819  0.64862132  1
  Si0+  Si119  1  0.82223910  0.56801503  0.34941861  1
  O2-  O120  1  0.25668140  0.00260567  0.05957864  1
  O2-  O121  1  0.24526592  -0.00512390  0.39580323  1
  O2-  O122  1  0.24633949  0.00461247  0.72222460  1
  O2-  O123  1  0.24675564  0.49984740  0.06799507  1
  O2-  O124  1  0.24909561  0.50076777  0.38940501  1
  O2-  O125  1  0.24434040  0.50585689  0.73021547  1
  O2-  O126  1  0.74854307  -0.00018550  0.05875574  1
  O2-  O127  1  0.75616135  0.00386893  0.39397245  1
  O2-  O128  1  0.75582873  0.00024965  0.72914958  1
  O2-  O129  1  0.75283293  0.50567664  0.06261274  1
  O2-  O130  1  0.74831955  0.49986600  0.39177582  1
  O2-  O131  1  0.75510377  0.50149301  0.72612650  1
  O2-  O132  1  -0.00186599  0.24788601  0.27555019  1
  O2-  O133  1  0.00314609  0.25280331  0.60056848  1
  O2-  O134  1  0.00062374  0.25959217  0.94184833  1
  O2-  O135  1  0.00458690  0.75508073  0.26854688  1
  O2-  O136  1  -0.00375863  0.75338049  0.60787870  1
  O2-  O137  1  -0.00507525  0.75406125  0.93825692  1
  O2-  O138  1  0.50148485  0.25209336  0.26951451  1
  O2-  O139  1  0.50266157  0.25016162  0.61049228  1
  O2-  O140  1  0.50696774  0.24698356  0.93681455  1
  O2-  O141  1  0.50652914  0.74585637  0.27501087  1
  O2-  O142  1  0.49729827  0.75558222  0.60533591  1
  O2-  O143  1  0.49804270  0.75013722  0.93384174  1
  O2-  O144  1  0.06674717  0.17840765  0.10166392  1
  O2-  O145  1  0.07165915  0.18142796  0.42315457  1
  O2-  O146  1  0.07102234  0.17537200  0.76230020  1
  O2-  O147  1  0.06715260  0.68060389  0.09823463  1
  O2-  O148  1  0.07057892  0.67572491  0.43046800  1
  O2-  O149  1  0.07281820  0.68142638  0.76674439  1
  O2-  O150  1  0.57573356  0.17757407  0.08722269  1
  O2-  O151  1  0.57015302  0.18079627  0.43401479  1
  O2-  O152  1  0.56769303  0.17445137  0.75848055  1
  O2-  O153  1  0.57182732  0.68444825  0.09920029  1
  O2-  O154  1  0.57301505  0.67451869  0.42411357  1
  O2-  O155  1  0.56982312  0.67891175  0.76454474  1
  O2-  O156  1  0.17618687  0.42701616  0.24385125  1
  O2-  O157  1  0.18260209  0.42888118  0.56601773  1
  O2-  O158  1  0.17816829  0.42741306  0.90165749  1
  O2-  O159  1  0.17721880  0.92854414  0.24499944  1
  O2-  O160  1  0.17917314  0.93175406  0.57362138  1
  O2-  O161  1  0.17715983  0.93340937  0.89974000  1
  O2-  O162  1  0.68071947  0.42966863  0.24297942  1
  O2-  O163  1  0.67955253  0.42865566  0.56481968  1
  O2-  O164  1  0.68231335  0.42793972  0.90299296  1
  O2-  O165  1  0.68181412  0.93116643  0.23292366  1
  O2-  O166  1  0.67791712  0.92929022  0.56963142  1
  O2-  O167  1  0.68107350  0.92982200  0.91030957  1
  O2-  O168  1  0.43057396  0.31743442  0.09722501  1
  O2-  O169  1  0.42918284  0.32319542  0.43264653  1
  O2-  O170  1  0.43121990  0.31958249  0.75682936  1
  O2-  O171  1  0.43112088  0.82613545  0.09678664  1
  O2-  O172  1  0.43328000  0.81937717  0.43470131  1
  O2-  O173  1  0.42951208  0.82933722  0.75361294  1
  O2-  O174  1  0.92312554  0.31702711  0.09116766  1
  O2-  O175  1  0.92711606  0.32165223  0.42121323  1
  O2-  O176  1  0.92289340  0.31576493  0.76500569  1
  O2-  O177  1  0.92640937  0.82313398  0.08839413  1
  O2-  O178  1  0.92761057  0.81599197  0.43314251  1
  O2-  O179  1  0.92843034  0.82308812  0.75687595  1
  O2-  O180  1  0.31523928  0.07144052  0.23369517  1
  O2-  O181  1  0.32477100  0.07095761  0.57722300  1
  O2-  O182  1  0.32335108  0.07271113  0.91009148  1
  O2-  O183  1  0.32267634  0.57244240  0.24421079  1
  O2-  O184  1  0.32142288  0.57176375  0.56684293  1
  O2-  O185  1  0.31902351  0.56969430  0.90394359  1
  O2-  O186  1  0.82569687  0.07642032  0.24676977  1
  O2-  O187  1  0.82163396  0.07130126  0.57903861  1
  O2-  O188  1  0.81930556  0.06934459  0.91078142  1
  O2-  O189  1  0.82385215  0.56572564  0.24455265  1
  O2-  O190  1  0.81994670  0.57237497  0.57660539  1
  O2-  O191  1  0.82417311  0.57495937  0.91342536  1
  O2-  O192  1  0.04595315  0.08604781  0.27270119  1
  O2-  O193  1  0.04202025  0.08142490  0.59333768  1
  O2-  O194  1  0.03319254  0.08531122  0.93354778  1
  O2-  O195  1  0.03755281  0.58085246  0.26365153  1
  O2-  O196  1  0.04349259  0.58350424  0.59861811  1
  O2-  O197  1  0.03727399  0.58192247  0.93276549  1
  O2-  O198  1  0.54172897  0.08153946  0.26661659  1
  O2-  O199  1  0.53828150  0.08578343  0.60635441  1
  O2-  O200  1  0.55004812  0.08491258  0.93495764  1
  O2-  O201  1  0.54696602  0.58309864  0.27223208  1
  O2-  O202  1  0.53851058  0.58317866  0.59611817  1
  O2-  O203  1  0.54503679  0.57957256  0.93581950  1
  O2-  O204  1  0.16142429  0.20967371  0.27051150  1
  O2-  O205  1  0.17319917  0.20488057  0.59651963  1
  O2-  O206  1  0.16756852  0.20293711  0.93279706  1
  O2-  O207  1  0.17093588  0.70217656  0.26409546  1
  O2-  O208  1  0.16805987  0.71424526  0.59790991  1
  O2-  O209  1  0.16508941  0.71235078  0.93253495  1
  O2-  O210  1  0.67140904  0.20268335  0.26722812  1
  O2-  O211  1  0.66372888  0.19914924  0.60783840  1
  O2-  O212  1  0.66957773  0.20301113  0.93734383  1
  O2-  O213  1  0.66879103  0.69770947  0.27421212  1
  O2-  O214  1  0.66808275  0.70795912  0.59939543  1
  O2-  O215  1  0.66959545  0.70765263  0.93208155  1
  O2-  O216  1  0.07617281  0.45105496  0.06615487  1
  O2-  O217  1  0.08500108  0.45636265  0.39496424  1
  O2-  O218  1  0.07517334  0.44708364  0.72733955  1
  O2-  O219  1  0.08294995  0.96311164  0.06857813  1
  O2-  O220  1  0.08266008  0.95099761  0.39563611  1
  O2-  O221  1  0.08485925  0.95703794  0.72530562  1
  O2-  O222  1  0.58371829  0.45952357  0.07162249  1
  O2-  O223  1  0.58583877  0.45420679  0.39433713  1
  O2-  O224  1  0.58412060  0.46127584  0.73250898  1
  O2-  O225  1  0.58611596  0.95741775  0.06070701  1
  O2-  O226  1  0.58542602  0.96099541  0.40239714  1
  O2-  O227  1  0.58457905  0.96252700  0.73926114  1
  O2-  O228  1  0.20800248  0.32787410  0.06567716  1
  O2-  O229  1  0.20530053  0.33768892  0.39719015  1
  O2-  O230  1  0.21068932  0.33069042  0.73149168  1
  O2-  O231  1  0.20769724  0.83453509  0.06868429  1
  O2-  O232  1  0.20354939  0.83134543  0.39409575  1
  O2-  O233  1  0.20830595  0.84128583  0.72697098  1
  O2-  O234  1  0.71172410  0.33315050  0.07150259  1
  O2-  O235  1  0.70832265  0.33613496  0.39350398  1
  O2-  O236  1  0.70749495  0.33052626  0.73303919  1
  O2-  O237  1  0.70665474  0.83693491  0.06254405  1
  O2-  O238  1  0.71165796  0.83135129  0.40006075  1
  O2-  O239  1  0.70904708  0.83120070  0.73770452  1
  O2-  O240  1  0.45550397  0.42039282  0.26484982  1
  O2-  O241  1  0.45904156  0.41278819  0.60471759  1
  O2-  O242  1  0.46218761  0.41650370  0.93189247  1
  O2-  O243  1  0.46163734  0.91637310  0.26714095  1
  O2-  O244  1  0.45921734  0.91922611  0.60366156  1
  O2-  O245  1  0.45651799  0.92193581  0.92936564  1
  O2-  O246  1  0.95676277  0.41093510  0.26761452  1
  O2-  O247  1  0.94973234  0.41933510  0.59546616  1
  O2-  O248  1  0.94078901  0.41814553  0.94262328  1
  O2-  O249  1  0.94739287  0.92326026  0.26935425  1
  O2-  O250  1  0.94992581  0.91562015  0.60403810  1
  O2-  O251  1  0.95230271  0.91678315  0.93738461  1
  O2-  O252  1  0.32923910  0.29126612  0.26650823  1
  O2-  O253  1  0.34054018  0.29210732  0.60334658  1
  O2-  O254  1  0.33572283  0.28742830  0.92742282  1
  O2-  O255  1  0.33532020  0.79150284  0.26694877  1
  O2-  O256  1  0.33588065  0.80348565  0.60104645  1
  O2-  O257  1  0.32812105  0.79809264  0.93161514  1
  O2-  O258  1  0.83685676  0.29340508  0.26787065  1
  O2-  O259  1  0.83031715  0.28633509  0.59662458  1
  O2-  O260  1  0.83475352  0.28779108  0.93861027  1
  O2-  O261  1  0.83218639  0.78739062  0.26422258  1
  O2-  O262  1  0.83311003  0.79549886  0.60661325  1
  O2-  O263  1  0.83351891  0.79820936  0.93685627  1
  O2-  O264  1  0.41927822  0.05006872  0.06068738  1
  O2-  O265  1  0.41531200  0.03968232  0.40162399  1
  O2-  O266  1  0.41046739  0.04198602  0.73384578  1
  O2-  O267  1  0.41803601  0.54171451  0.07045058  1
  O2-  O268  1  0.41323060  0.54335756  0.39692606  1
  O2-  O269  1  0.41703509  0.54168255  0.73391849  1
  O2-  O270  1  0.91065124  0.04117484  0.06523795  1
  O2-  O271  1  0.91867849  0.05069408  0.39965744  1
  O2-  O272  1  0.91728627  0.04566065  0.72953973  1
  O2-  O273  1  0.91412452  0.54715799  0.06787548  1
  O2-  O274  1  0.91292578  0.53604740  0.39741129  1
  O2-  O275  1  0.91684951  0.54664402  0.72697688  1
  O2-  O276  1  0.29594670  0.16561377  0.06151988  1
  O2-  O277  1  0.28717046  0.16643936  0.40242848  1
  O2-  O278  1  0.29713781  0.16490165  0.72866535  1
  O2-  O279  1  0.29231905  0.67074811  0.06788659  1
  O2-  O280  1  0.29422420  0.66384577  0.39675787  1
  O2-  O281  1  0.29807165  0.67597997  0.73043217  1
  O2-  O282  1  0.79407600  0.16080812  0.06583296  1
  O2-  O283  1  0.79854142  0.16815960  0.39880510  1
  O2-  O284  1  0.79416597  0.16222477  0.73278288  1
  O2-  O285  1  0.79574515  0.66815040  0.06538631  1
  O2-  O286  1  0.79794278  0.66012671  0.39766976  1
  O2-  O287  1  0.79784371  0.66453745  0.73019650  1
