# generated using pymatgen
data_Ca2Al2SiO7
_symmetry_space_group_name_H-M   'P 1'
_cell_length_a   15.47405531
_cell_length_b   15.47211613
_cell_length_c   15.29367648
_cell_angle_alpha   89.99490182
_cell_angle_beta   89.99434784
_cell_angle_gamma   90.00308344
_symmetry_Int_Tables_number   1
_chemical_formula_structural   Ca2Al2SiO7
_chemical_formula_sum   'Ca48 Al48 Si24 O168'
_cell_volume   3661.55663341
_cell_formula_units_Z   24
loop_
 _symmetry_equiv_pos_site_id
 _symmetry_equiv_pos_as_xyz
  1  'x, y, z'
loop_
 _atom_type_symbol
 _atom_type_oxidation_number
  Ca2+  2.0
  Al0+  0.0
  Si0+  0.0
  O2-  -2.0
loop_
 _atom_site_type_symbol
 _atom_site_label
 _atom_site_symmetry_multiplicity
 _atom_site_fract_x
 _atom_site_fract_y
 _atom_site_fract_z
 _atom_site_occupancy
  Ca2+  Ca0  1  0.17710051  0.07648945  0.17856749  1
  Ca2+  Ca1  1  0.17263269  0.08645862  0.50278455  1
  Ca2+  Ca2  1  0.17922310  0.08715679  0.83507827  1
  Ca2+  Ca3  1  0.16330127  0.57731597  0.17696026  1
  Ca2+  Ca4  1  0.16864063  0.57494771  0.49806453  1
  Ca2+  Ca5  1  0.16436113  0.57074819  0.83986298  1
  Ca2+  Ca6  1  0.67748392  0.07733969  0.17726580  1
  Ca2+  Ca7  1  0.66810064  0.08202680  0.49964593  1
  Ca2+  Ca8  1  0.66973411  0.08687528  0.83920202  1
  Ca2+  Ca9  1  0.67371649  0.58763095  0.17834153  1
  Ca2+  Ca10  1  0.67131579  0.59820678  0.50074845  1
  Ca2+  Ca11  1  0.66271937  0.58600043  0.83157831  1
  Ca2+  Ca12  1  0.08452697  0.33296058  0.17035116  1
  Ca2+  Ca13  1  0.08717975  0.32586957  0.49200192  1
  Ca2+  Ca14  1  0.08813378  0.32901984  0.82653972  1
  Ca2+  Ca15  1  0.10058450  0.81889294  0.16828056  1
  Ca2+  Ca16  1  0.08646116  0.82880058  0.48780229  1
  Ca2+  Ca17  1  0.08347014  0.82677977  0.83281405  1
  Ca2+  Ca18  1  0.58025119  0.33212026  0.16595344  1
  Ca2+  Ca19  1  0.57737593  0.32718471  0.50008729  1
  Ca2+  Ca20  1  0.57229112  0.32439697  0.82184869  1
  Ca2+  Ca21  1  0.57552610  0.83545496  0.17039797  1
  Ca2+  Ca22  1  0.57370101  0.82961645  0.49315478  1
  Ca2+  Ca23  1  0.57122997  0.83230592  0.82617473  1
  Ca2+  Ca24  1  0.31927136  0.42514269  0.17656090  1
  Ca2+  Ca25  1  0.32437864  0.41651209  0.50451490  1
  Ca2+  Ca26  1  0.32220289  0.40929522  0.83476888  1
  Ca2+  Ca27  1  0.33641909  0.92271185  0.17488690  1
  Ca2+  Ca28  1  0.33635512  0.92203452  0.49794533  1
  Ca2+  Ca29  1  0.34442255  0.92557956  0.83428005  1
  Ca2+  Ca30  1  0.83389215  0.42072005  0.17826747  1
  Ca2+  Ca31  1  0.83761206  0.41882763  0.49588006  1
  Ca2+  Ca32  1  0.82837283  0.41631122  0.83687166  1
  Ca2+  Ca33  1  0.82804272  0.92505979  0.17735911  1
  Ca2+  Ca34  1  0.82659032  0.91650379  0.49799047  1
  Ca2+  Ca35  1  0.82845175  0.92605571  0.84058479  1
  Ca2+  Ca36  1  0.41171370  0.16149356  0.16471550  1
  Ca2+  Ca37  1  0.40952761  0.16782914  0.49905237  1
  Ca2+  Ca38  1  0.41619845  0.16765264  0.82100471  1
  Ca2+  Ca39  1  0.40649899  0.68120498  0.16693522  1
  Ca2+  Ca40  1  0.42081690  0.67499874  0.48627009  1
  Ca2+  Ca41  1  0.41883631  0.68098713  0.82330652  1
  Ca2+  Ca42  1  0.91922583  0.16378023  0.16863607  1
  Ca2+  Ca43  1  0.92959890  0.17065407  0.48788968  1
  Ca2+  Ca44  1  0.92354341  0.16648338  0.82664627  1
  Ca2+  Ca45  1  0.92656300  0.66385133  0.16879458  1
  Ca2+  Ca46  1  0.92224514  0.66619539  0.48918539  1
  Ca2+  Ca47  1  0.92300075  0.66580198  0.83299012  1
  Al0+  Al48  1  0.00104482  -0.00062921  0.00232320  1
  Al0+  Al49  1  0.00040858  0.00045085  0.33498284  1
  Al0+  Al50  1  -0.00028528  -0.00059949  0.66497570  1
  Al0+  Al51  1  -0.00237435  0.49798950  -0.00215338  1
  Al0+  Al52  1  -0.00265851  0.49932187  0.33476559  1
  Al0+  Al53  1  -0.00092231  0.50107917  0.67326467  1
  Al0+  Al54  1  0.50223951  -0.00030845  -0.00004528  1
  Al0+  Al55  1  0.50143986  0.00017034  0.33695416  1
  Al0+  Al56  1  0.50224330  -0.00169356  0.66395606  1
  Al0+  Al57  1  0.49872337  0.49890380  -0.00111585  1
  Al0+  Al58  1  0.50178254  0.49900806  0.33125328  1
  Al0+  Al59  1  0.50251266  0.50036990  0.66184589  1
  Al0+  Al60  1  0.24857839  0.25009408  0.00883224  1
  Al0+  Al61  1  0.24941944  0.25031580  0.33318627  1
  Al0+  Al62  1  0.24894060  0.24945460  0.66785104  1
  Al0+  Al63  1  0.25075439  0.74915857  -0.01533594  1
  Al0+  Al64  1  0.25155284  0.75025851  0.33235279  1
  Al0+  Al65  1  0.24821892  0.74987299  0.66388951  1
  Al0+  Al66  1  0.75072402  0.25119654  0.00381837  1
  Al0+  Al67  1  0.75040435  0.25117875  0.33344657  1
  Al0+  Al68  1  0.75022295  0.25290552  0.66501129  1
  Al0+  Al69  1  0.75039843  0.74986020  -0.00101610  1
  Al0+  Al70  1  0.75012542  0.75003532  0.33726308  1
  Al0+  Al71  1  0.75152227  0.75236411  0.66957466  1
  Al0+  Al72  1  0.57286422  0.67771576  0.31673949  1
  Al0+  Al73  1  0.17941987  0.92744908  0.34633522  1
  Al0+  Al74  1  0.42660186  0.82131292  0.64810845  1
  Al0+  Al75  1  0.07052830  0.68018224  0.32220620  1
  Al0+  Al76  1  0.06964395  0.17942801  0.65500754  1
  Al0+  Al77  1  0.17793927  0.43058833  0.34907556  1
  Al0+  Al78  1  0.32156822  0.06909235  0.01253849  1
  Al0+  Al79  1  0.32140266  0.07168572  0.34939915  1
  Al0+  Al80  1  0.81877098  0.56964186  0.34673151  1
  Al0+  Al81  1  0.43089024  0.82178193  0.98404500  1
  Al0+  Al82  1  0.92927981  0.31967865  0.31782712  1
  Al0+  Al83  1  0.57367045  0.17779886  0.65177109  1
  Al0+  Al84  1  0.32308014  0.57190183  0.34632243  1
  Al0+  Al85  1  0.18056343  0.43095696  0.68142533  1
  Al0+  Al86  1  0.42717984  0.31999813  0.65178245  1
  Al0+  Al87  1  0.06904637  0.67720389  0.98478531  1
  Al0+  Al88  1  0.57252495  0.68022919  0.65213481  1
  Al0+  Al89  1  0.82240782  0.07350804  0.35071094  1
  Al0+  Al90  1  0.31955027  0.06724317  0.68009179  1
  Al0+  Al91  1  0.67995425  0.92911972  0.35004935  1
  Al0+  Al92  1  0.82247072  0.07211004  0.01365833  1
  Al0+  Al93  1  0.42989884  0.82164316  0.31625813  1
  Al0+  Al94  1  0.07349476  0.17700596  0.31547209  1
  Al0+  Al95  1  0.17747683  0.42986915  0.01546446  1
  Si0+  Si96  1  0.17372865  0.92522051  0.68515337  1
  Si0+  Si97  1  0.42775104  0.32173056  0.31637699  1
  Si0+  Si98  1  0.92554561  0.82268294  0.98322004  1
  Si0+  Si99  1  0.67610013  0.42623487  0.35154381  1
  Si0+  Si100  1  0.32155688  0.57313915  0.01289154  1
  Si0+  Si101  1  0.68173190  0.92979457  0.68420005  1
  Si0+  Si102  1  0.92763813  0.32434292  0.65173035  1
  Si0+  Si103  1  0.32426305  0.57351254  0.68286514  1
  Si0+  Si104  1  0.93004132  0.82077203  0.65285302  1
  Si0+  Si105  1  0.57174658  0.18165373  0.98797539  1
  Si0+  Si106  1  0.81929340  0.57038660  0.01407800  1
  Si0+  Si107  1  0.57432148  0.67592467  0.98322373  1
  Si0+  Si108  1  0.92719443  0.82252591  0.31759455  1
  Si0+  Si109  1  0.42711478  0.32009631  0.98684541  1
  Si0+  Si110  1  0.57052833  0.18027021  0.31754174  1
  Si0+  Si111  1  0.92767975  0.31951770  0.98359652  1
  Si0+  Si112  1  0.67909462  0.92805443  0.01630598  1
  Si0+  Si113  1  0.67822922  0.42730917  0.68316366  1
  Si0+  Si114  1  0.81962577  0.57191051  0.68452616  1
  Si0+  Si115  1  0.17844140  0.92524111  0.01334056  1
  Si0+  Si116  1  0.82176179  0.07290419  0.68141800  1
  Si0+  Si117  1  0.07153596  0.17849128  0.98536721  1
  Si0+  Si118  1  0.06853145  0.67736642  0.65198783  1
  Si0+  Si119  1  0.67738835  0.42937998  0.01401697  1
  O2-  O120  1  0.24825432  -0.00748697  0.05674892  1
  O2-  O121  1  0.24671945  0.00214088  0.39829008  1
  O2-  O122  1  0.24592879  -0.00883487  0.72842264  1
  O2-  O123  1  0.25077637  0.50748111  0.05796131  1
  O2-  O124  1  0.25314014  0.49934647  0.39834802  1
  O2-  O125  1  0.25679223  0.50421695  0.72944414  1
  O2-  O126  1  0.75045667  -0.00540656  0.05871566  1
  O2-  O127  1  0.75192246  0.00089735  0.40127575  1
  O2-  O128  1  0.74823759  0.00579543  0.72634579  1
  O2-  O129  1  0.74342298  0.50473996  0.05527913  1
  O2-  O130  1  0.74106247  0.49886884  0.39480665  1
  O2-  O131  1  0.74738870  0.50115795  0.72552803  1
  O2-  O132  1  -0.00065106  0.24748712  0.26533915  1
  O2-  O133  1  -0.00500870  0.25458091  0.60991743  1
  O2-  O134  1  -0.00122878  0.24837572  0.94222601  1
  O2-  O135  1  0.00054989  0.75892792  0.27334275  1
  O2-  O136  1  0.00404195  0.75394226  0.61056668  1
  O2-  O137  1  -0.00507745  0.75416044  0.93904497  1
  O2-  O138  1  0.49782781  0.24904326  0.27401300  1
  O2-  O139  1  0.49768474  0.24581644  0.60229380  1
  O2-  O140  1  0.49721937  0.24800867  0.94464898  1
  O2-  O141  1  0.49884567  0.74628975  0.26551848  1
  O2-  O142  1  0.49393180  0.74315321  0.60174905  1
  O2-  O143  1  0.50511009  0.74418503  0.94022779  1
  O2-  O144  1  0.07089085  0.17883565  0.08943976  1
  O2-  O145  1  0.07332730  0.18026970  0.42921497  1
  O2-  O146  1  0.06776473  0.18028964  0.76929596  1
  O2-  O147  1  0.06754550  0.67687590  0.09734289  1
  O2-  O148  1  0.06653258  0.67966741  0.43551849  1
  O2-  O149  1  0.06390614  0.67611675  0.75752577  1
  O2-  O150  1  0.57345879  0.18489223  0.09284342  1
  O2-  O151  1  0.57214091  0.18300068  0.42224771  1
  O2-  O152  1  0.57568987  0.18170678  0.76657455  1
  O2-  O153  1  0.57818660  0.67457179  0.08774395  1
  O2-  O154  1  0.57309653  0.68164940  0.42998399  1
  O2-  O155  1  0.57401322  0.68459750  0.76667113  1
  O2-  O156  1  0.17841077  0.43267451  0.23508604  1
  O2-  O157  1  0.17686449  0.43336009  0.56952069  1
  O2-  O158  1  0.17916484  0.42761756  0.90187021  1
  O2-  O159  1  0.18377590  0.92612373  0.23207516  1
  O2-  O160  1  0.16784086  0.92620069  0.58063311  1
  O2-  O161  1  0.17538238  0.92815030  0.90758293  1
  O2-  O162  1  0.67816460  0.42446636  0.24516107  1
  O2-  O163  1  0.68084694  0.42187267  0.57924794  1
  O2-  O164  1  0.67926012  0.42704597  0.90885749  1
  O2-  O165  1  0.68148199  0.93170102  0.23565700  1
  O2-  O166  1  0.68675235  0.92580366  0.58024106  1
  O2-  O167  1  0.67968131  0.93010122  0.91018653  1
  O2-  O168  1  0.43044034  0.32209280  0.09162480  1
  O2-  O169  1  0.42883577  0.32217210  0.42112793  1
  O2-  O170  1  0.42856063  0.31764444  0.76666450  1
  O2-  O171  1  0.43089368  0.82340257  0.09624641  1
  O2-  O172  1  0.43084668  0.82161098  0.42913049  1
  O2-  O173  1  0.43189687  0.82261332  0.76261050  1
  O2-  O174  1  0.92430465  0.32178791  0.08760454  1
  O2-  O175  1  0.93005413  0.32018630  0.43161472  1
  O2-  O176  1  0.92563908  0.32347319  0.75820811  1
  O2-  O177  1  0.91911660  0.82150371  0.08756766  1
  O2-  O178  1  0.92578853  0.81793460  0.42367552  1
  O2-  O179  1  0.92899847  0.81925010  0.75846261  1
  O2-  O180  1  0.32250837  0.06926446  0.23520532  1
  O2-  O181  1  0.31711194  0.06919398  0.56831557  1
  O2-  O182  1  0.32163933  0.07174089  0.89928568  1
  O2-  O183  1  0.31948930  0.57016791  0.23194173  1
  O2-  O184  1  0.32113420  0.57286945  0.57799904  1
  O2-  O185  1  0.32255449  0.56966416  0.90714710  1
  O2-  O186  1  0.81798377  0.07236730  0.23651022  1
  O2-  O187  1  0.82254587  0.07071928  0.57747357  1
  O2-  O188  1  0.81958798  0.07288261  0.89962065  1
  O2-  O189  1  0.81921842  0.56805196  0.23297358  1
  O2-  O190  1  0.82223201  0.57286790  0.58023801  1
  O2-  O191  1  0.81958252  0.56846115  0.90847832  1
  O2-  O192  1  0.04630569  0.07723413  0.26401238  1
  O2-  O193  1  0.03948864  0.08283950  0.60175824  1
  O2-  O194  1  0.04577099  0.08575684  0.93801404  1
  O2-  O195  1  0.03307980  0.58612536  0.26806481  1
  O2-  O196  1  0.03301737  0.58787637  0.60611419  1
  O2-  O197  1  0.03214797  0.58240735  0.92915748  1
  O2-  O198  1  0.54525995  0.08791451  0.27078102  1
  O2-  O199  1  0.55397673  0.07760740  0.60238740  1
  O2-  O200  1  0.55035312  0.08809043  0.94169274  1
  O2-  O201  1  0.55398202  0.57560240  0.26643779  1
  O2-  O202  1  0.56084423  0.57723061  0.60453460  1
  O2-  O203  1  0.54972622  0.58106711  0.93719880  1
  O2-  O204  1  0.17122433  0.20802416  0.26185229  1
  O2-  O205  1  0.16476749  0.21104244  0.60195269  1
  O2-  O206  1  0.16315630  0.21054200  0.93924702  1
  O2-  O207  1  0.16686662  0.70742475  0.26604095  1
  O2-  O208  1  0.16255106  0.69709231  0.60767830  1
  O2-  O209  1  0.16373769  0.70490155  0.92528260  1
  O2-  O210  1  0.66100691  0.21136436  0.26886919  1
  O2-  O211  1  0.67012723  0.21192742  0.59851968  1
  O2-  O212  1  0.66221315  0.21382100  0.93941864  1
  O2-  O213  1  0.67143783  0.71003264  0.26530179  1
  O2-  O214  1  0.67056161  0.71522086  0.60255635  1
  O2-  O215  1  0.66837435  0.70075826  0.93589995  1
  O2-  O216  1  0.07882366  0.45883811  0.06520813  1
  O2-  O217  1  0.08075628  0.46060157  0.40148039  1
  O2-  O218  1  0.08393330  0.46324180  0.73775473  1
  O2-  O219  1  0.08483977  0.94797851  0.06001024  1
  O2-  O220  1  0.07822363  0.94701820  0.39674715  1
  O2-  O221  1  0.08059136  0.95290856  0.73335312  1
  O2-  O222  1  0.58371209  0.45103726  0.06067504  1
  O2-  O223  1  0.58117670  0.44536126  0.39564515  1
  O2-  O224  1  0.58613230  0.45298752  0.73207429  1
  O2-  O225  1  0.58787850  0.95711459  0.06350973  1
  O2-  O226  1  0.58374456  0.95980679  0.40382371  1
  O2-  O227  1  0.58914004  0.95416558  0.73127657  1
  O2-  O228  1  0.20966167  0.33553530  0.07138077  1
  O2-  O229  1  0.20658882  0.33178943  0.39893925  1
  O2-  O230  1  0.21085099  0.33433755  0.73667531  1
  O2-  O231  1  0.20434797  0.82927711  0.05323189  1
  O2-  O232  1  0.20838609  0.83027891  0.40058414  1
  O2-  O233  1  0.19565754  0.82937713  0.72962455  1
  O2-  O234  1  0.70926272  0.34032863  0.06391925  1
  O2-  O235  1  0.70656329  0.33533178  0.39922153  1
  O2-  O236  1  0.71012364  0.33788639  0.73513853  1
  O2-  O237  1  0.70210359  0.83293599  0.05974785  1
  O2-  O238  1  0.71072668  0.83255177  0.40431292  1
  O2-  O239  1  0.71654864  0.84146504  0.73562043  1
  O2-  O240  1  0.45815182  0.41160991  0.26630686  1
  O2-  O241  1  0.45712528  0.41779054  0.59998390  1
  O2-  O242  1  0.45527582  0.41131136  0.93759257  1
  O2-  O243  1  0.46371681  0.91992369  0.26489625  1
  O2-  O244  1  0.46139901  0.91730785  0.59708090  1
  O2-  O245  1  0.46687738  0.91764903  0.92964411  1
  O2-  O246  1  0.95737382  0.41819869  0.26460595  1
  O2-  O247  1  0.95352463  0.41886992  0.60894327  1
  O2-  O248  1  0.95396332  0.41077143  0.93383125  1
  O2-  O249  1  0.94474068  0.91830767  0.27432161  1
  O2-  O250  1  0.95151608  0.91352013  0.60572174  1
  O2-  O251  1  0.95266318  0.91624115  0.93637295  1
  O2-  O252  1  0.33651457  0.29496059  0.26799144  1
  O2-  O253  1  0.32935239  0.29223435  0.59972609  1
  O2-  O254  1  0.33451388  0.29186714  0.94166108  1
  O2-  O255  1  0.33170964  0.79329848  0.26245039  1
  O2-  O256  1  0.32460190  0.80097213  0.60037654  1
  O2-  O257  1  0.33597487  0.79406360  0.92476781  1
  O2-  O258  1  0.82923264  0.29457937  0.26459867  1
  O2-  O259  1  0.83400521  0.30229517  0.60591452  1
  O2-  O260  1  0.83546689  0.29131881  0.93509694  1
  O2-  O261  1  0.83637561  0.79068227  0.27030302  1
  O2-  O262  1  0.84021645  0.78823765  0.60590239  1
  O2-  O263  1  0.83314359  0.79564479  0.93303170  1
  O2-  O264  1  0.42003457  0.04210743  0.06472145  1
  O2-  O265  1  0.41969300  0.04451738  0.40134658  1
  O2-  O266  1  0.41913578  0.03938635  0.73232600  1
  O2-  O267  1  0.41505569  0.54691324  0.05878272  1
  O2-  O268  1  0.42314460  0.54593938  0.39621884  1
  O2-  O269  1  0.42006851  0.55116840  0.72653209  1
  O2-  O270  1  0.91966694  0.04353152  0.06642169  1
  O2-  O271  1  0.92137525  0.04777437  0.40159756  1
  O2-  O272  1  0.91204337  0.04083136  0.73068623  1
  O2-  O273  1  0.90886476  0.53731477  0.06085541  1
  O2-  O274  1  0.91245653  0.53597841  0.40384765  1
  O2-  O275  1  0.90928343  0.54178744  0.73578331  1
  O2-  O276  1  0.29089552  0.16432248  0.06828348  1
  O2-  O277  1  0.29545429  0.17131164  0.39943511  1
  O2-  O278  1  0.28722005  0.16378133  0.73521303  1
  O2-  O279  1  0.29698768  0.66897659  0.05327785  1
  O2-  O280  1  0.29409176  0.66891728  0.39918601  1
  O2-  O281  1  0.29633966  0.66729184  0.72885459  1
  O2-  O282  1  0.78931476  0.16758312  0.06767821  1
  O2-  O283  1  0.79134189  0.17149020  0.40202872  1
  O2-  O284  1  0.79712703  0.16670162  0.72778327  1
  O2-  O285  1  0.79769009  0.66434982  0.05946489  1
  O2-  O286  1  0.79209456  0.66593941  0.40296156  1
  O2-  O287  1  0.79201301  0.66331775  0.73408081  1
