# generated using pymatgen
data_Ca2Al2SiO7
_symmetry_space_group_name_H-M   'P 1'
_cell_length_a   15.45946810
_cell_length_b   15.45906253
_cell_length_c   15.28409905
_cell_angle_alpha   90.00627167
_cell_angle_beta   89.98982335
_cell_angle_gamma   89.99449419
_symmetry_Int_Tables_number   1
_chemical_formula_structural   Ca2Al2SiO7
_chemical_formula_sum   'Ca48 Al48 Si24 O168'
_cell_volume   3652.72967701
_cell_formula_units_Z   24
loop_
 _symmetry_equiv_pos_site_id
 _symmetry_equiv_pos_as_xyz
  1  'x, y, z'
loop_
 _atom_type_symbol
 _atom_type_oxidation_number
  Ca2+  2.0
  Al0+  0.0
  Si0+  0.0
  O2-  -2.0
loop_
 _atom_site_type_symbol
 _atom_site_label
 _atom_site_symmetry_multiplicity
 _atom_site_fract_x
 _atom_site_fract_y
 _atom_site_fract_z
 _atom_site_occupancy
  Ca2+  Ca0  1  0.17429709  0.07945320  0.17523879  1
  Ca2+  Ca1  1  0.16634656  0.07900350  0.49963784  1
  Ca2+  Ca2  1  0.16187833  0.08658854  0.83770318  1
  Ca2+  Ca3  1  0.17679807  0.57685650  0.17493053  1
  Ca2+  Ca4  1  0.17484282  0.58449326  0.50306710  1
  Ca2+  Ca5  1  0.17459679  0.58840166  0.83560472  1
  Ca2+  Ca6  1  0.66531258  0.08398570  0.16692416  1
  Ca2+  Ca7  1  0.66498808  0.08344920  0.50188075  1
  Ca2+  Ca8  1  0.67515117  0.07823000  0.84594866  1
  Ca2+  Ca9  1  0.67175704  0.57617690  0.17506351  1
  Ca2+  Ca10  1  0.67039229  0.57322665  0.50150438  1
  Ca2+  Ca11  1  0.66620913  0.57634880  0.83405720  1
  Ca2+  Ca12  1  0.08859721  0.32875230  0.16191086  1
  Ca2+  Ca13  1  0.08585791  0.33235741  0.49740098  1
  Ca2+  Ca14  1  0.07837521  0.31976979  0.82481906  1
  Ca2+  Ca15  1  0.07424466  0.83907252  0.16532868  1
  Ca2+  Ca16  1  0.07720604  0.82815919  0.49545380  1
  Ca2+  Ca17  1  0.07146557  0.82965389  0.82676522  1
  Ca2+  Ca18  1  0.58103155  0.32510184  0.16228277  1
  Ca2+  Ca19  1  0.58191095  0.33522600  0.49527860  1
  Ca2+  Ca20  1  0.57606710  0.33532665  0.82929065  1
  Ca2+  Ca21  1  0.57014631  0.83550308  0.16046870  1
  Ca2+  Ca22  1  0.57604202  0.82835986  0.48970288  1
  Ca2+  Ca23  1  0.57944473  0.83671413  0.83563104  1
  Ca2+  Ca24  1  0.33370328  0.42421299  0.17267680  1
  Ca2+  Ca25  1  0.33222820  0.42487949  0.50617994  1
  Ca2+  Ca26  1  0.34099712  0.42514521  0.83815367  1
  Ca2+  Ca27  1  0.32959012  0.91770524  0.17821179  1
  Ca2+  Ca28  1  0.33226511  0.92016878  0.49738156  1
  Ca2+  Ca29  1  0.32997451  0.91754289  0.84070886  1
  Ca2+  Ca30  1  0.82781754  0.42417310  0.17928904  1
  Ca2+  Ca31  1  0.82287804  0.41247149  0.50497162  1
  Ca2+  Ca32  1  0.82965779  0.40829546  0.83332453  1
  Ca2+  Ca33  1  0.83235785  0.91816481  0.16628669  1
  Ca2+  Ca34  1  0.83821974  0.91420458  0.50298477  1
  Ca2+  Ca35  1  0.83267841  0.91838335  0.84462022  1
  Ca2+  Ca36  1  0.42677461  0.16735984  0.16019863  1
  Ca2+  Ca37  1  0.42150395  0.17209348  0.49111685  1
  Ca2+  Ca38  1  0.42075695  0.18134839  0.83114579  1
  Ca2+  Ca39  1  0.40646080  0.67352249  0.16393224  1
  Ca2+  Ca40  1  0.41143003  0.66725284  0.49472009  1
  Ca2+  Ca41  1  0.41083819  0.66785430  0.83222274  1
  Ca2+  Ca42  1  0.92440709  0.16447663  0.15907854  1
  Ca2+  Ca43  1  0.92105508  0.17250937  0.50217622  1
  Ca2+  Ca44  1  0.92530799  0.16334663  0.82920309  1
  Ca2+  Ca45  1  0.91185468  0.67598955  0.16363740  1
  Ca2+  Ca46  1  0.91531801  0.67452807  0.49226157  1
  Ca2+  Ca47  1  0.92056577  0.67813200  0.82398012  1
  Al0+  Al48  1  -0.00080745  -0.00027797  -0.00337775  1
  Al0+  Al49  1  -0.00047141  0.00003657  0.33344401  1
  Al0+  Al50  1  0.00048601  -0.00040028  0.65972643  1
  Al0+  Al51  1  0.00127601  0.49980103  0.00012096  1
  Al0+  Al52  1  0.00062091  0.50188215  0.33933610  1
  Al0+  Al53  1  0.00042114  0.50016685  0.66170725  1
  Al0+  Al54  1  0.50023957  -0.00047340  -0.00626895  1
  Al0+  Al55  1  0.50107287  -0.00002631  0.33018713  1
  Al0+  Al56  1  0.49899165  0.00087611  0.66965894  1
  Al0+  Al57  1  0.50035610  0.50279133  0.00358706  1
  Al0+  Al58  1  0.50127107  0.49968654  0.33902680  1
  Al0+  Al59  1  0.50042690  0.50067197  0.67142601  1
  Al0+  Al60  1  0.24990926  0.25038518  -0.00835314  1
  Al0+  Al61  1  0.25167125  0.25003609  0.33915940  1
  Al0+  Al62  1  0.25228480  0.25013572  0.65906039  1
  Al0+  Al63  1  0.24956686  0.75011587  0.00061456  1
  Al0+  Al64  1  0.24682991  0.75057375  0.33654768  1
  Al0+  Al65  1  0.24869896  0.75225090  0.66842356  1
  Al0+  Al66  1  0.75112978  0.24865050  0.00291445  1
  Al0+  Al67  1  0.75104774  0.24847988  0.33245637  1
  Al0+  Al68  1  0.75054102  0.24657375  0.67028769  1
  Al0+  Al69  1  0.74735668  0.75021762  -0.00036538  1
  Al0+  Al70  1  0.74911468  0.75113004  0.33124713  1
  Al0+  Al71  1  0.74671597  0.74909404  0.66389231  1
  Al0+  Al72  1  0.32040286  0.57132489  0.01501129  1
  Al0+  Al73  1  0.07337710  0.67891762  0.65094713  1
  Al0+  Al74  1  0.32459085  0.07003184  0.34739442  1
  Al0+  Al75  1  0.43064179  0.32334191  0.98640465  1
  Al0+  Al76  1  0.67696830  0.92793674  0.01669646  1
  Al0+  Al77  1  0.92828312  0.81886976  0.98689544  1
  Al0+  Al78  1  0.42791108  0.81861735  0.32136210  1
  Al0+  Al79  1  0.17858640  0.42706291  0.34901423  1
  Al0+  Al80  1  0.31854171  0.57086321  0.68314994  1
  Al0+  Al81  1  0.32093507  0.57147511  0.34910979  1
  Al0+  Al82  1  0.57356368  0.17837496  0.98303950  1
  Al0+  Al83  1  0.82074353  0.57430097  0.34830324  1
  Al0+  Al84  1  0.68138182  0.42828360  0.68273060  1
  Al0+  Al85  1  0.92649145  0.32038949  0.65209973  1
  Al0+  Al86  1  0.92826386  0.82132079  0.31613836  1
  Al0+  Al87  1  0.42703670  0.82053372  0.98589980  1
  Al0+  Al88  1  0.07052717  0.17937045  0.98876551  1
  Al0+  Al89  1  0.92683051  0.81907839  0.65056258  1
  Al0+  Al90  1  0.57218281  0.17936986  0.31951380  1
  Al0+  Al91  1  0.43200277  0.32318734  0.65108456  1
  Al0+  Al92  1  0.82252584  0.07069857  0.01644230  1
  Al0+  Al93  1  0.07248460  0.17888409  0.64782335  1
  Al0+  Al94  1  0.17652417  0.93013648  0.34909134  1
  Al0+  Al95  1  0.68093081  0.42632751  0.34809582  1
  Si0+  Si96  1  0.67963315  0.42911689  0.01531345  1
  Si0+  Si97  1  0.82251304  0.57099482  0.01238521  1
  Si0+  Si98  1  0.17954245  0.93205092  0.68321269  1
  Si0+  Si99  1  0.56930147  0.67906899  0.65166143  1
  Si0+  Si100  1  0.07160020  0.18029006  0.31829232  1
  Si0+  Si101  1  0.67623081  0.92697822  0.68086566  1
  Si0+  Si102  1  0.17784826  0.42646786  0.01372076  1
  Si0+  Si103  1  0.32021963  0.07272536  0.01141761  1
  Si0+  Si104  1  0.82111371  0.06696922  0.68095628  1
  Si0+  Si105  1  0.07145210  0.67691836  0.31449308  1
  Si0+  Si106  1  0.32263967  0.07243503  0.68394161  1
  Si0+  Si107  1  0.57101945  0.17701195  0.65087532  1
  Si0+  Si108  1  0.07165900  0.67662174  0.98470139  1
  Si0+  Si109  1  0.82235432  0.57383599  0.68347672  1
  Si0+  Si110  1  0.92804803  0.32493663  0.98661381  1
  Si0+  Si111  1  0.67901584  0.93036881  0.34789874  1
  Si0+  Si112  1  0.92962786  0.32165092  0.31922526  1
  Si0+  Si113  1  0.17687412  0.42517896  0.68482773  1
  Si0+  Si114  1  0.42908183  0.82291471  0.65226534  1
  Si0+  Si115  1  0.57143256  0.67666745  0.31679302  1
  Si0+  Si116  1  0.42790572  0.32314421  0.31766059  1
  Si0+  Si117  1  0.82213368  0.07061841  0.34973830  1
  Si0+  Si118  1  0.17932178  0.92979589  0.01330885  1
  Si0+  Si119  1  0.57182289  0.67806673  0.98269528  1
  O2-  O120  1  0.25151906  -0.00001678  0.05463966  1
  O2-  O121  1  0.25103365  0.00008085  0.39902146  1
  O2-  O122  1  0.24872149  0.00443904  0.72681109  1
  O2-  O123  1  0.24712077  0.49413688  0.05855018  1
  O2-  O124  1  0.25102522  0.49808523  0.39948616  1
  O2-  O125  1  0.24331121  0.49595831  0.73018810  1
  O2-  O126  1  0.74803102  0.00112207  0.06688180  1
  O2-  O127  1  0.75104794  -0.00060185  0.39173459  1
  O2-  O128  1  0.75163900  -0.00634461  0.72169519  1
  O2-  O129  1  0.75488657  0.49692506  0.05518546  1
  O2-  O130  1  0.75266614  0.49873005  0.39820600  1
  O2-  O131  1  0.75948424  0.50035453  0.72976512  1
  O2-  O132  1  0.00462620  0.25516385  0.27596612  1
  O2-  O133  1  0.00390034  0.25541047  0.59969882  1
  O2-  O134  1  -0.00477891  0.25419701  0.94375305  1
  O2-  O135  1  0.00168840  0.74491527  0.26986276  1
  O2-  O136  1  -0.00466755  0.74420417  0.60058183  1
  O2-  O137  1  0.00014771  0.74212644  0.94033409  1
  O2-  O138  1  0.49635536  0.25371491  0.27410465  1
  O2-  O139  1  0.50565303  0.24725336  0.60494807  1
  O2-  O140  1  0.50390987  0.25310158  0.93438101  1
  O2-  O141  1  0.49854740  0.74094358  0.27288551  1
  O2-  O142  1  0.49905839  0.75131041  0.61042868  1
  O2-  O143  1  0.50251643  0.74671755  0.93866764  1
  O2-  O144  1  0.07241985  0.18038930  0.10218613  1
  O2-  O145  1  0.06820850  0.17877038  0.42303418  1
  O2-  O146  1  0.06905432  0.17617760  0.76171892  1
  O2-  O147  1  0.07067511  0.67582848  0.08998992  1
  O2-  O148  1  0.07147553  0.67922434  0.41988235  1
  O2-  O149  1  0.07358731  0.68543787  0.76526338  1
  O2-  O150  1  0.57119031  0.18018509  0.09679540  1
  O2-  O151  1  0.57218572  0.17888951  0.43292960  1
  O2-  O152  1  0.56856732  0.17534516  0.75605441  1
  O2-  O153  1  0.57324705  0.67670737  0.08796189  1
  O2-  O154  1  0.57339077  0.68051119  0.42274397  1
  O2-  O155  1  0.57116754  0.68035636  0.75687446  1
  O2-  O156  1  0.17974572  0.42626713  0.23458866  1
  O2-  O157  1  0.18134296  0.42485464  0.57955060  1
  O2-  O158  1  0.17490764  0.42746730  0.90856223  1
  O2-  O159  1  0.17537037  0.93402854  0.23476008  1
  O2-  O160  1  0.18160510  0.93183027  0.57855310  1
  O2-  O161  1  0.17995532  0.92981121  0.90775581  1
  O2-  O162  1  0.68327603  0.42685553  0.23389015  1
  O2-  O163  1  0.68078560  0.42983561  0.57020448  1
  O2-  O164  1  0.67939636  0.43069543  0.90999778  1
  O2-  O165  1  0.67815357  0.93116029  0.24335689  1
  O2-  O166  1  0.67212269  0.92914306  0.57568815  1
  O2-  O167  1  0.68009077  0.92751119  0.90228490  1
  O2-  O168  1  0.43076884  0.32211051  0.09997042  1
  O2-  O169  1  0.43000848  0.32269689  0.42325225  1
  O2-  O170  1  0.43394402  0.32286204  0.76424273  1
  O2-  O171  1  0.42468787  0.81936483  0.09870668  1
  O2-  O172  1  0.43285721  0.81984272  0.43502228  1
  O2-  O173  1  0.43035716  0.82414188  0.75746611  1
  O2-  O174  1  0.93082467  0.32855629  0.09233767  1
  O2-  O175  1  0.92702242  0.31661575  0.42385631  1
  O2-  O176  1  0.92580351  0.31359931  0.76613391  1
  O2-  O177  1  0.93030988  0.81900549  0.09986427  1
  O2-  O178  1  0.92840071  0.82126611  0.42892766  1
  O2-  O179  1  0.92737849  0.82075603  0.76451244  1
  O2-  O180  1  0.32275374  0.06937168  0.23302316  1
  O2-  O181  1  0.32785116  0.06774426  0.57938683  1
  O2-  O182  1  0.31656128  0.07186823  0.90597652  1
  O2-  O183  1  0.31913966  0.57036117  0.23526675  1
  O2-  O184  1  0.31956572  0.57161926  0.57066342  1
  O2-  O185  1  0.31821152  0.57234089  0.90180406  1
  O2-  O186  1  0.82422332  0.07101920  0.24502745  1
  O2-  O187  1  0.81892305  0.06786991  0.57552358  1
  O2-  O188  1  0.82468316  0.06722960  0.90240026  1
  O2-  O189  1  0.81792680  0.57228704  0.23356631  1
  O2-  O190  1  0.81533877  0.57792237  0.57862123  1
  O2-  O191  1  0.82205211  0.57049410  0.90735311  1
  O2-  O192  1  0.03904419  0.09017654  0.27061455  1
  O2-  O193  1  0.03894091  0.08279086  0.59380437  1
  O2-  O194  1  0.03948120  0.08423785  0.93187941  1
  O2-  O195  1  0.04797028  0.58204358  0.26937191  1
  O2-  O196  1  0.05666648  0.57724309  0.60183597  1
  O2-  O197  1  0.05014859  0.58215408  0.93791379  1
  O2-  O198  1  0.54183236  0.08334718  0.26453015  1
  O2-  O199  1  0.54253532  0.08368797  0.60438179  1
  O2-  O200  1  0.54529912  0.08090079  0.92912768  1
  O2-  O201  1  0.55123854  0.58087767  0.27307938  1
  O2-  O202  1  0.54016920  0.58813284  0.60488658  1
  O2-  O203  1  0.54519311  0.58527107  0.93558549  1
  O2-  O204  1  0.16572853  0.20416844  0.27335965  1
  O2-  O205  1  0.17223166  0.20114244  0.59603393  1
  O2-  O206  1  0.16468335  0.20865812  0.92932881  1
  O2-  O207  1  0.16439869  0.70458693  0.26835659  1
  O2-  O208  1  0.16899084  0.71612950  0.59755223  1
  O2-  O209  1  0.16317640  0.70744057  0.93792636  1
  O2-  O210  1  0.66910635  0.20910648  0.26477678  1
  O2-  O211  1  0.66639066  0.19814110  0.60781917  1
  O2-  O212  1  0.67446371  0.20345060  0.93338200  1
  O2-  O213  1  0.66271173  0.70664275  0.26876194  1
  O2-  O214  1  0.65976664  0.70621970  0.60153952  1
  O2-  O215  1  0.66424381  0.70365679  0.93369742  1
  O2-  O216  1  0.08457612  0.45168634  0.06224224  1
  O2-  O217  1  0.08011231  0.45327078  0.40232860  1
  O2-  O218  1  0.08038416  0.44572273  0.72775225  1
  O2-  O219  1  0.08812412  0.95912509  0.06001560  1
  O2-  O220  1  0.08000231  0.96291275  0.40350106  1
  O2-  O221  1  0.08618506  0.95937488  0.72858573  1
  O2-  O222  1  0.59040372  0.46159784  0.06424504  1
  O2-  O223  1  0.58323728  0.45411098  0.40178354  1
  O2-  O224  1  0.58733990  0.46533329  0.73805220  1
  O2-  O225  1  0.57640666  0.95547193  0.06609783  1
  O2-  O226  1  0.58877551  0.95968995  0.39741657  1
  O2-  O227  1  0.58634974  0.95827485  0.73095213  1
  O2-  O228  1  0.20337928  0.33212457  0.05864940  1
  O2-  O229  1  0.20396832  0.32881543  0.40335763  1
  O2-  O230  1  0.20475284  0.33047143  0.72839406  1
  O2-  O231  1  0.20567058  0.83829081  0.06131706  1
  O2-  O232  1  0.20178851  0.83176898  0.40168757  1
  O2-  O233  1  0.20964484  0.84197839  0.73269433  1
  O2-  O234  1  0.70350062  0.33637210  0.06202770  1
  O2-  O235  1  0.71162766  0.32866307  0.40163244  1
  O2-  O236  1  0.70991225  0.33038124  0.73672122  1
  O2-  O237  1  0.70403698  0.82868341  0.06874892  1
  O2-  O238  1  0.70497582  0.83810546  0.39517203  1
  O2-  O239  1  0.69857988  0.83328415  0.72704114  1
  O2-  O240  1  0.45477531  0.41707669  0.27269274  1
  O2-  O241  1  0.46497727  0.41977270  0.59927181  1
  O2-  O242  1  0.46008451  0.42248452  0.93504824  1
  O2-  O243  1  0.46273430  0.91342075  0.26665649  1
  O2-  O244  1  0.45874092  0.91447350  0.60547836  1
  O2-  O245  1  0.45608790  0.91606574  0.92884714  1
  O2-  O246  1  0.95193666  0.41629841  0.27497569  1
  O2-  O247  1  0.94273859  0.42241882  0.60320736  1
  O2-  O248  1  0.95311187  0.41736324  0.93716310  1
  O2-  O249  1  0.96133190  0.91846900  0.26367888  1
  O2-  O250  1  0.95793770  0.91604390  0.59748152  1
  O2-  O251  1  0.96197862  0.91370132  0.93192800  1
  O2-  O252  1  0.33342739  0.29856482  0.27308614  1
  O2-  O253  1  0.33612267  0.29364478  0.59687838  1
  O2-  O254  1  0.33373171  0.29436466  0.93036990  1
  O2-  O255  1  0.32900513  0.79336070  0.26916359  1
  O2-  O256  1  0.33673210  0.79661214  0.60695806  1
  O2-  O257  1  0.33083535  0.78892158  0.93049835  1
  O2-  O258  1  0.84021439  0.28953713  0.26954686  1
  O2-  O259  1  0.83052644  0.28304201  0.59857834  1
  O2-  O260  1  0.83372718  0.30088125  0.94252435  1
  O2-  O261  1  0.83049200  0.79212667  0.26305732  1
  O2-  O262  1  0.82605533  0.79536227  0.59937201  1
  O2-  O263  1  0.83079450  0.79028087  0.93380233  1
  O2-  O264  1  0.41359422  0.04710543  0.05529328  1
  O2-  O265  1  0.42160934  0.03857109  0.40189843  1
  O2-  O266  1  0.41256434  0.04107281  0.73415476  1
  O2-  O267  1  0.41818363  0.54527710  0.06908490  1
  O2-  O268  1  0.42079072  0.54805500  0.40118361  1
  O2-  O269  1  0.41578369  0.54111090  0.73700986  1
  O2-  O270  1  0.92054264  0.03872247  0.06925946  1
  O2-  O271  1  0.91261905  0.04202628  0.39856140  1
  O2-  O272  1  0.91415335  0.03995830  0.72644898  1
  O2-  O273  1  0.91526791  0.54719783  0.06049187  1
  O2-  O274  1  0.92036535  0.55290957  0.39936210  1
  O2-  O275  1  0.91925159  0.55617132  0.72563862  1
  O2-  O276  1  0.29102382  0.16416944  0.05837863  1
  O2-  O277  1  0.29859071  0.16809669  0.40082279  1
  O2-  O278  1  0.29699776  0.16616449  0.72802965  1
  O2-  O279  1  0.28628025  0.66727501  0.06865149  1
  O2-  O280  1  0.29127503  0.66933796  0.40199500  1
  O2-  O281  1  0.28828440  0.66933951  0.73600830  1
  O2-  O282  1  0.79936670  0.17079182  0.06966720  1
  O2-  O283  1  0.79311332  0.16152860  0.39768199  1
  O2-  O284  1  0.79265928  0.15687593  0.73109253  1
  O2-  O285  1  0.79104656  0.66125475  0.06028970  1
  O2-  O286  1  0.78808329  0.67155989  0.40115975  1
  O2-  O287  1  0.78887922  0.66539207  0.73156692  1
