# generated using pymatgen
data_Ca2Al2SiO7
_symmetry_space_group_name_H-M   'P 1'
_cell_length_a   15.46744812
_cell_length_b   15.46544333
_cell_length_c   15.29063372
_cell_angle_alpha   90.00367367
_cell_angle_beta   90.02089004
_cell_angle_gamma   89.97161056
_symmetry_Int_Tables_number   1
_chemical_formula_structural   Ca2Al2SiO7
_chemical_formula_sum   'Ca48 Al48 Si24 O168'
_cell_volume   3657.68620049
_cell_formula_units_Z   24
loop_
 _symmetry_equiv_pos_site_id
 _symmetry_equiv_pos_as_xyz
  1  'x, y, z'
loop_
 _atom_type_symbol
 _atom_type_oxidation_number
  Ca2+  2.0
  Al0+  0.0
  Si0+  0.0
  O2-  -2.0
loop_
 _atom_site_type_symbol
 _atom_site_label
 _atom_site_symmetry_multiplicity
 _atom_site_fract_x
 _atom_site_fract_y
 _atom_site_fract_z
 _atom_site_occupancy
  Ca2+  Ca0  1  0.16624802  0.09002059  0.17250396  1
  Ca2+  Ca1  1  0.17237519  0.07773145  0.50939412  1
  Ca2+  Ca2  1  0.17010231  0.08151218  0.83664018  1
  Ca2+  Ca3  1  0.16981092  0.58522474  0.17372239  1
  Ca2+  Ca4  1  0.16348232  0.59058390  0.50585948  1
  Ca2+  Ca5  1  0.16899017  0.58549077  0.83524607  1
  Ca2+  Ca6  1  0.65707062  0.07233591  0.16978271  1
  Ca2+  Ca7  1  0.66375823  0.07106810  0.50795440  1
  Ca2+  Ca8  1  0.65431044  0.07363527  0.83534224  1
  Ca2+  Ca9  1  0.66980018  0.57755412  0.17345078  1
  Ca2+  Ca10  1  0.66680308  0.58395279  0.49885639  1
  Ca2+  Ca11  1  0.67024925  0.58279073  0.84540682  1
  Ca2+  Ca12  1  0.07609253  0.32528946  0.16566604  1
  Ca2+  Ca13  1  0.06917422  0.32889782  0.49249137  1
  Ca2+  Ca14  1  0.07585445  0.32801340  0.82849951  1
  Ca2+  Ca15  1  0.07338098  0.82915975  0.16907727  1
  Ca2+  Ca16  1  0.08232033  0.82734439  0.49285499  1
  Ca2+  Ca17  1  0.08162815  0.82840948  0.82441787  1
  Ca2+  Ca18  1  0.58401288  0.33404254  0.15566216  1
  Ca2+  Ca19  1  0.58827542  0.32563856  0.49587957  1
  Ca2+  Ca20  1  0.58867736  0.32423956  0.83145182  1
  Ca2+  Ca21  1  0.59565901  0.82381594  0.16610617  1
  Ca2+  Ca22  1  0.57862735  0.83244141  0.49353690  1
  Ca2+  Ca23  1  0.58740575  0.82563519  0.82487028  1
  Ca2+  Ca24  1  0.33550335  0.41555269  0.17055091  1
  Ca2+  Ca25  1  0.32913026  0.42145074  0.50359977  1
  Ca2+  Ca26  1  0.33346321  0.41453699  0.83979487  1
  Ca2+  Ca27  1  0.33338247  0.91634821  0.17339841  1
  Ca2+  Ca28  1  0.33165636  0.91585516  0.51158605  1
  Ca2+  Ca29  1  0.33440473  0.91738981  0.82785055  1
  Ca2+  Ca30  1  0.82421791  0.42417024  0.17459672  1
  Ca2+  Ca31  1  0.83581375  0.41766433  0.49911795  1
  Ca2+  Ca32  1  0.82877963  0.42290473  0.84058302  1
  Ca2+  Ca33  1  0.82362263  0.91608365  0.17314302  1
  Ca2+  Ca34  1  0.82256209  0.90561318  0.49926740  1
  Ca2+  Ca35  1  0.81890347  0.91519444  0.83798887  1
  Ca2+  Ca36  1  0.42484683  0.17546444  0.15825903  1
  Ca2+  Ca37  1  0.42107023  0.15781238  0.50317495  1
  Ca2+  Ca38  1  0.42519862  0.16823935  0.83259229  1
  Ca2+  Ca39  1  0.43153667  0.67182585  0.16606088  1
  Ca2+  Ca40  1  0.42700855  0.68035959  0.49598432  1
  Ca2+  Ca41  1  0.43316715  0.67145835  0.82625765  1
  Ca2+  Ca42  1  0.92442130  0.16710888  0.16511247  1
  Ca2+  Ca43  1  0.91693112  0.17744169  0.49237726  1
  Ca2+  Ca44  1  0.91750653  0.17308763  0.82867923  1
  Ca2+  Ca45  1  0.90483627  0.66711241  0.16987964  1
  Ca2+  Ca46  1  0.92565443  0.66993042  0.49046863  1
  Ca2+  Ca47  1  0.91917813  0.66397517  0.82872123  1
  Al0+  Al48  1  0.00014964  -0.00196329  -0.00443843  1
  Al0+  Al49  1  0.00173312  -0.00155102  0.32771359  1
  Al0+  Al50  1  -0.00130233  0.00030607  0.67104916  1
  Al0+  Al51  1  0.00205907  0.50072578  0.00474829  1
  Al0+  Al52  1  0.00087060  0.49711897  0.32876774  1
  Al0+  Al53  1  -0.00065009  0.49974276  0.66077285  1
  Al0+  Al54  1  0.49553039  0.00105916  0.00286836  1
  Al0+  Al55  1  0.49763751  0.00169512  0.33428578  1
  Al0+  Al56  1  0.49884141  0.00114470  0.66937301  1
  Al0+  Al57  1  0.49796220  0.50337333  -0.00390953  1
  Al0+  Al58  1  0.49843193  0.50092289  0.33727732  1
  Al0+  Al59  1  0.49975386  0.49839429  0.66411229  1
  Al0+  Al60  1  0.24911939  0.24922508  -0.00662873  1
  Al0+  Al61  1  0.25198720  0.25047211  0.33345305  1
  Al0+  Al62  1  0.24958124  0.25072188  0.67202029  1
  Al0+  Al63  1  0.24875566  0.75074694  0.00164005  1
  Al0+  Al64  1  0.25114378  0.75130875  0.32654313  1
  Al0+  Al65  1  0.25167842  0.74885530  0.66716844  1
  Al0+  Al66  1  0.75195094  0.24862569  -0.00121399  1
  Al0+  Al67  1  0.75004338  0.24904091  0.33103283  1
  Al0+  Al68  1  0.74916373  0.25070521  0.65822675  1
  Al0+  Al69  1  0.75097136  0.75213688  0.00210806  1
  Al0+  Al70  1  0.75073538  0.74846457  0.33589750  1
  Al0+  Al71  1  0.75277501  0.74704813  0.66809923  1
  Al0+  Al72  1  0.82277714  0.57152737  0.01531734  1
  Al0+  Al73  1  0.06987300  0.17774270  0.98375778  1
  Al0+  Al74  1  0.57310120  0.17773989  0.98587310  1
  Al0+  Al75  1  0.42964500  0.32327577  0.98557003  1
  Al0+  Al76  1  0.92580959  0.32082405  0.31426192  1
  Al0+  Al77  1  0.57121185  0.67887079  0.31806636  1
  Al0+  Al78  1  0.07218963  0.67755466  0.31717037  1
  Al0+  Al79  1  0.07277380  0.17942897  0.32105034  1
  Al0+  Al80  1  0.67646665  0.42717014  0.35038142  1
  Al0+  Al81  1  0.43003250  0.82438480  0.31739346  1
  Al0+  Al82  1  0.67727254  0.93226567  0.01380507  1
  Al0+  Al83  1  0.67901969  0.93058796  0.34801588  1
  Al0+  Al84  1  0.57197222  0.68323282  0.98665495  1
  Al0+  Al85  1  0.56842947  0.18028811  0.65182794  1
  Al0+  Al86  1  0.17752260  0.92680487  0.68193641  1
  Al0+  Al87  1  0.67751030  0.42835209  0.01181506  1
  Al0+  Al88  1  0.68124205  0.92858369  0.67973205  1
  Al0+  Al89  1  0.92935119  0.31998462  0.65319429  1
  Al0+  Al90  1  0.07019870  0.68103662  0.65573295  1
  Al0+  Al91  1  0.57566144  0.67600611  0.65088780  1
  Al0+  Al92  1  0.92797724  0.82011462  0.31793724  1
  Al0+  Al93  1  0.32084401  0.07274491  0.68548139  1
  Al0+  Al94  1  0.82221916  0.56937352  0.35163477  1
  Al0+  Al95  1  0.43219083  0.82068956  0.65384898  1
  Si0+  Si96  1  0.17714538  0.92798175  0.01762779  1
  Si0+  Si97  1  0.07275289  0.67869473  0.98470574  1
  Si0+  Si98  1  0.82510241  0.07076147  0.34888401  1
  Si0+  Si99  1  0.92991273  0.32371264  0.98329298  1
  Si0+  Si100  1  0.57040486  0.17877445  0.31977357  1
  Si0+  Si101  1  0.42401562  0.82240970  0.98257858  1
  Si0+  Si102  1  0.07281758  0.17678217  0.65143388  1
  Si0+  Si103  1  0.82059576  0.07634245  0.68211200  1
  Si0+  Si104  1  0.42462864  0.32285745  0.64850168  1
  Si0+  Si105  1  0.17723596  0.43094075  0.68169330  1
  Si0+  Si106  1  0.82203049  0.56799184  0.68099750  1
  Si0+  Si107  1  0.82544844  0.07123571  0.01552082  1
  Si0+  Si108  1  0.92743394  0.82385830  0.65225355  1
  Si0+  Si109  1  0.31972556  0.57287936  0.01553951  1
  Si0+  Si110  1  0.31930673  0.57288334  0.34950905  1
  Si0+  Si111  1  0.31960534  0.07270778  0.34836210  1
  Si0+  Si112  1  0.18113859  0.42751408  0.34802306  1
  Si0+  Si113  1  0.17962479  0.92865608  0.34666805  1
  Si0+  Si114  1  0.67821151  0.42732262  0.68090345  1
  Si0+  Si115  1  0.18064482  0.42788425  0.01549878  1
  Si0+  Si116  1  0.42968069  0.32122096  0.32159566  1
  Si0+  Si117  1  0.31702458  0.07151608  0.01771077  1
  Si0+  Si118  1  0.32191522  0.56979782  0.68247436  1
  Si0+  Si119  1  0.92964170  0.81973860  0.98335340  1
  O2-  O120  1  0.24685068  -0.00008413  0.06062722  1
  O2-  O121  1  0.24952105  0.00039380  0.38863874  1
  O2-  O122  1  0.24658887  0.00118853  0.73375678  1
  O2-  O123  1  0.25231367  0.49808349  0.05810521  1
  O2-  O124  1  0.24488663  0.50463778  0.39174514  1
  O2-  O125  1  0.25096114  0.49831853  0.72535237  1
  O2-  O126  1  0.74951725  0.01061363  0.05948518  1
  O2-  O127  1  0.75612054  0.00330628  0.39455885  1
  O2-  O128  1  0.75555595  0.00438322  0.72671574  1
  O2-  O129  1  0.74961478  0.49939392  0.06271770  1
  O2-  O130  1  0.74960751  0.49752497  0.40202615  1
  O2-  O131  1  0.74555723  0.50225531  0.72237367  1
  O2-  O132  1  -0.00180687  0.24672942  0.26837566  1
  O2-  O133  1  0.00181444  0.24228260  0.60751147  1
  O2-  O134  1  -0.00523207  0.25189261  0.93756965  1
  O2-  O135  1  -0.00423846  0.74407762  0.26632404  1
  O2-  O136  1  0.00256219  0.76153732  0.60981477  1
  O2-  O137  1  -0.00082608  0.74624825  0.94248078  1
  O2-  O138  1  0.50637860  0.25701047  0.27961641  1
  O2-  O139  1  0.49231864  0.25376880  0.60414772  1
  O2-  O140  1  0.50650599  0.25589720  0.93680778  1
  O2-  O141  1  0.50483465  0.75612480  0.26720705  1
  O2-  O142  1  0.50740095  0.75276276  0.60333527  1
  O2-  O143  1  0.49835954  0.75942375  0.94018862  1
  O2-  O144  1  0.07047452  0.17995818  0.09662746  1
  O2-  O145  1  0.07512922  0.18230453  0.43452145  1
  O2-  O146  1  0.07191179  0.17984768  0.75719954  1
  O2-  O147  1  0.07771563  0.68086452  0.08888150  1
  O2-  O148  1  0.07515600  0.68305193  0.43081159  1
  O2-  O149  1  0.06689056  0.67743584  0.76939847  1
  O2-  O150  1  0.56714364  0.17567510  0.09979667  1
  O2-  O151  1  0.56670337  0.17605872  0.42481842  1
  O2-  O152  1  0.56977441  0.18252064  0.76458396  1
  O2-  O153  1  0.57056249  0.68209230  0.09924019  1
  O2-  O154  1  0.56677262  0.67856704  0.43126390  1
  O2-  O155  1  0.57444164  0.67528645  0.76499474  1
  O2-  O156  1  0.18782366  0.42401183  0.24296221  1
  O2-  O157  1  0.17789559  0.43158986  0.57654510  1
  O2-  O158  1  0.17923777  0.43047915  0.91004051  1
  O2-  O159  1  0.18085742  0.92922611  0.24125528  1
  O2-  O160  1  0.17825273  0.92741698  0.56805094  1
  O2-  O161  1  0.17775864  0.92596134  0.91291493  1
  O2-  O162  1  0.67320597  0.42739565  0.23694892  1
  O2-  O163  1  0.67917555  0.42554699  0.57624215  1
  O2-  O164  1  0.68074169  0.42980739  0.89754642  1
  O2-  O165  1  0.67825931  0.93428068  0.23480837  1
  O2-  O166  1  0.68229846  0.92894541  0.56673388  1
  O2-  O167  1  0.67955645  0.93029537  0.90053730  1
  O2-  O168  1  0.42579114  0.31961446  0.09967905  1
  O2-  O169  1  0.42447798  0.31834522  0.42643213  1
  O2-  O170  1  0.42545313  0.32511473  0.75368096  1
  O2-  O171  1  0.41835901  0.81877494  0.08775569  1
  O2-  O172  1  0.42771182  0.82371224  0.43066934  1
  O2-  O173  1  0.43228721  0.81656624  0.76773374  1
  O2-  O174  1  0.93348338  0.32393432  0.08815562  1
  O2-  O175  1  0.92933924  0.31933708  0.42823760  1
  O2-  O176  1  0.93203091  0.32132302  0.76660308  1
  O2-  O177  1  0.93122205  0.82207749  0.08792835  1
  O2-  O178  1  0.93292543  0.82248706  0.43165555  1
  O2-  O179  1  0.92538332  0.81962214  0.75821513  1
  O2-  O180  1  0.31855520  0.07588630  0.24318237  1
  O2-  O181  1  0.31766074  0.07358979  0.57127396  1
  O2-  O182  1  0.31639068  0.07125308  0.91318078  1
  O2-  O183  1  0.31997315  0.56950876  0.24415141  1
  O2-  O184  1  0.31997914  0.56808408  0.57728968  1
  O2-  O185  1  0.31544223  0.57499026  0.91042461  1
  O2-  O186  1  0.82464733  0.06928652  0.24315787  1
  O2-  O187  1  0.81899238  0.07839061  0.57670786  1
  O2-  O188  1  0.83050169  0.06642522  0.91005408  1
  O2-  O189  1  0.81910931  0.56732677  0.23819362  1
  O2-  O190  1  0.82662657  0.56617259  0.57678995  1
  O2-  O191  1  0.82559899  0.56934928  0.90083161  1
  O2-  O192  1  0.04988972  0.08065389  0.26676801  1
  O2-  O193  1  0.05167125  0.08115306  0.60829156  1
  O2-  O194  1  0.04169170  0.08034041  0.93010451  1
  O2-  O195  1  0.05493023  0.57593546  0.26787147  1
  O2-  O196  1  0.03718790  0.58675140  0.59936010  1
  O2-  O197  1  0.04896911  0.58479518  0.93917669  1
  O2-  O198  1  0.53372639  0.09138178  0.27018704  1
  O2-  O199  1  0.53675765  0.08404210  0.59848769  1
  O2-  O200  1  0.53449379  0.08175809  0.93334835  1
  O2-  O201  1  0.53436140  0.58175565  0.26675699  1
  O2-  O202  1  0.54253172  0.57869887  0.59915389  1
  O2-  O203  1  0.53853870  0.58798685  0.93165744  1
  O2-  O204  1  0.16968831  0.21355740  0.26647384  1
  O2-  O205  1  0.16625460  0.20532511  0.60756697  1
  O2-  O206  1  0.16454721  0.21079007  0.92842791  1
  O2-  O207  1  0.16808642  0.71062582  0.26161246  1
  O2-  O208  1  0.16879933  0.70430280  0.60348817  1
  O2-  O209  1  0.16308452  0.71007309  0.93562919  1
  O2-  O210  1  0.66417340  0.19652901  0.27359331  1
  O2-  O211  1  0.66331369  0.21124397  0.59523034  1
  O2-  O212  1  0.67441230  0.19637190  0.93412581  1
  O2-  O213  1  0.67097491  0.70306243  0.26809316  1
  O2-  O214  1  0.67626498  0.69874380  0.60169527  1
  O2-  O215  1  0.66911970  0.71308177  0.93299164  1
  O2-  O216  1  0.09044890  0.45655534  0.06487437  1
  O2-  O217  1  0.08673757  0.44710970  0.39234949  1
  O2-  O218  1  0.08696948  0.46294603  0.72979107  1
  O2-  O219  1  0.08452075  0.95533880  0.06319887  1
  O2-  O220  1  0.08739703  0.95463841  0.39367875  1
  O2-  O221  1  0.07744409  0.95115392  0.73566406  1
  O2-  O222  1  0.57710445  0.45573729  0.06156347  1
  O2-  O223  1  0.57706404  0.45418073  0.40403784  1
  O2-  O224  1  0.58380636  0.44894566  0.72608918  1
  O2-  O225  1  0.57909610  0.95895079  0.06738641  1
  O2-  O226  1  0.58246392  0.96562322  0.40041863  1
  O2-  O227  1  0.58495030  0.95976494  0.73301269  1
  O2-  O228  1  0.20866856  0.33544359  0.06117077  1
  O2-  O229  1  0.21698193  0.33957603  0.39875733  1
  O2-  O230  1  0.20145389  0.33875676  0.73040316  1
  O2-  O231  1  0.20607706  0.83651729  0.06559332  1
  O2-  O232  1  0.20899782  0.83679289  0.39291091  1
  O2-  O233  1  0.20857491  0.82883043  0.73623737  1
  O2-  O234  1  0.70287552  0.32777565  0.06269782  1
  O2-  O235  1  0.70411051  0.32620239  0.40020395  1
  O2-  O236  1  0.71091154  0.33654705  0.72739827  1
  O2-  O237  1  0.71471354  0.83809930  0.06751827  1
  O2-  O238  1  0.70783614  0.83341732  0.40092555  1
  O2-  O239  1  0.71444247  0.83196907  0.73401329  1
  O2-  O240  1  0.44915059  0.41525765  0.27584090  1
  O2-  O241  1  0.44958272  0.41593718  0.60139646  1
  O2-  O242  1  0.44693273  0.42399269  0.93320319  1
  O2-  O243  1  0.45201096  0.92495253  0.26572709  1
  O2-  O244  1  0.45306941  0.92101793  0.60322954  1
  O2-  O245  1  0.44291889  0.91899218  0.94178960  1
  O2-  O246  1  0.95848521  0.41672807  0.26085661  1
  O2-  O247  1  0.96569551  0.41307761  0.59675371  1
  O2-  O248  1  0.96165497  0.41617369  0.93737869  1
  O2-  O249  1  0.96079035  0.91594508  0.26168840  1
  O2-  O250  1  0.94391397  0.92046865  0.60946411  1
  O2-  O251  1  0.96017345  0.90925100  0.93343883  1
  O2-  O252  1  0.34129313  0.28771764  0.27067505  1
  O2-  O253  1  0.32922189  0.29940323  0.60448697  1
  O2-  O254  1  0.33333285  0.28998637  0.93063504  1
  O2-  O255  1  0.33377878  0.79266516  0.26235298  1
  O2-  O256  1  0.33461273  0.78823387  0.60144946  1
  O2-  O257  1  0.33218016  0.79112904  0.93530029  1
  O2-  O258  1  0.82769007  0.29259718  0.26133403  1
  O2-  O259  1  0.83427683  0.29197807  0.59619155  1
  O2-  O260  1  0.83559757  0.30136043  0.93754505  1
  O2-  O261  1  0.82888351  0.79492492  0.26568971  1
  O2-  O262  1  0.83799736  0.79031508  0.60394996  1
  O2-  O263  1  0.83826627  0.79288266  0.93522629  1
  O2-  O264  1  0.40830493  0.04553001  0.06713956  1
  O2-  O265  1  0.41063037  0.04549036  0.39712543  1
  O2-  O266  1  0.41817368  0.04304129  0.73934464  1
  O2-  O267  1  0.41190798  0.54825449  0.06274932  1
  O2-  O268  1  0.40800792  0.54137107  0.39998189  1
  O2-  O269  1  0.41349555  0.54068473  0.73012456  1
  O2-  O270  1  0.91620510  0.03744457  0.06363337  1
  O2-  O271  1  0.91957428  0.04606194  0.39403336  1
  O2-  O272  1  0.91586612  0.05609582  0.72773491  1
  O2-  O273  1  0.92217486  0.54594594  0.06824808  1
  O2-  O274  1  0.92353975  0.54050404  0.40039396  1
  O2-  O275  1  0.91227583  0.53459255  0.72966699  1
  O2-  O276  1  0.28688975  0.16375997  0.06368393  1
  O2-  O277  1  0.29145358  0.16355659  0.39790915  1
  O2-  O278  1  0.29390942  0.17206833  0.73897305  1
  O2-  O279  1  0.28648232  0.66226801  0.06484750  1
  O2-  O280  1  0.29188848  0.66570865  0.39468798  1
  O2-  O281  1  0.29313906  0.65980200  0.73189310  1
  O2-  O282  1  0.81000583  0.16809168  0.05787277  1
  O2-  O283  1  0.79978709  0.16509434  0.39302076  1
  O2-  O284  1  0.79210705  0.16913539  0.72871018  1
  O2-  O285  1  0.79510908  0.67042487  0.06595608  1
  O2-  O286  1  0.79778147  0.66910420  0.40370661  1
  O2-  O287  1  0.80065306  0.66080863  0.72973660  1
