# generated using pymatgen
data_Ca2Al2SiO7
_symmetry_space_group_name_H-M   'P 1'
_cell_length_a   15.45687291
_cell_length_b   15.45623213
_cell_length_c   15.28271994
_cell_angle_alpha   90.00420692
_cell_angle_beta   89.98798271
_cell_angle_gamma   89.98808254
_symmetry_Int_Tables_number   1
_chemical_formula_structural   Ca2Al2SiO7
_chemical_formula_sum   'Ca48 Al48 Si24 O168'
_cell_volume   3651.11827917
_cell_formula_units_Z   24
loop_
 _symmetry_equiv_pos_site_id
 _symmetry_equiv_pos_as_xyz
  1  'x, y, z'
loop_
 _atom_type_symbol
 _atom_type_oxidation_number
  Ca2+  2.0
  Al0+  0.0
  Si0+  0.0
  O2-  -2.0
loop_
 _atom_site_type_symbol
 _atom_site_label
 _atom_site_symmetry_multiplicity
 _atom_site_fract_x
 _atom_site_fract_y
 _atom_site_fract_z
 _atom_site_occupancy
  Ca2+  Ca0  1  0.17476373  0.08382934  0.17221271  1
  Ca2+  Ca1  1  0.16817290  0.07612660  0.49756808  1
  Ca2+  Ca2  1  0.17064286  0.08315910  0.84399420  1
  Ca2+  Ca3  1  0.16970815  0.58048669  0.17125471  1
  Ca2+  Ca4  1  0.15371752  0.57558457  0.50240155  1
  Ca2+  Ca5  1  0.16824190  0.57861361  0.83517663  1
  Ca2+  Ca6  1  0.67151116  0.08758485  0.16397254  1
  Ca2+  Ca7  1  0.66946618  0.08148948  0.50241640  1
  Ca2+  Ca8  1  0.67037897  0.08496951  0.84352644  1
  Ca2+  Ca9  1  0.67543583  0.58132572  0.16925012  1
  Ca2+  Ca10  1  0.67305653  0.58925612  0.49749019  1
  Ca2+  Ca11  1  0.67414016  0.57382266  0.84644247  1
  Ca2+  Ca12  1  0.07653940  0.33320708  0.16268514  1
  Ca2+  Ca13  1  0.07695203  0.34213999  0.49473801  1
  Ca2+  Ca14  1  0.07649215  0.33218350  0.83140113  1
  Ca2+  Ca15  1  0.07891254  0.83310269  0.16499604  1
  Ca2+  Ca16  1  0.08255288  0.82142597  0.49004669  1
  Ca2+  Ca17  1  0.07823485  0.82554432  0.83156325  1
  Ca2+  Ca18  1  0.57788517  0.32837941  0.15421754  1
  Ca2+  Ca19  1  0.57345167  0.33607846  0.49848005  1
  Ca2+  Ca20  1  0.57518374  0.33563440  0.83705389  1
  Ca2+  Ca21  1  0.57863449  0.82605170  0.16205245  1
  Ca2+  Ca22  1  0.57733270  0.82862317  0.49431386  1
  Ca2+  Ca23  1  0.57011940  0.83466850  0.83309026  1
  Ca2+  Ca24  1  0.32894057  0.41793164  0.17029667  1
  Ca2+  Ca25  1  0.31876640  0.41618598  0.50747009  1
  Ca2+  Ca26  1  0.33117058  0.41662218  0.84123237  1
  Ca2+  Ca27  1  0.33101232  0.92699825  0.17138658  1
  Ca2+  Ca28  1  0.33163598  0.91776543  0.50106951  1
  Ca2+  Ca29  1  0.33475651  0.91864763  0.84358012  1
  Ca2+  Ca30  1  0.83651520  0.42277097  0.16947635  1
  Ca2+  Ca31  1  0.84348196  0.42292965  0.50145065  1
  Ca2+  Ca32  1  0.83090536  0.41616803  0.84473328  1
  Ca2+  Ca33  1  0.84451485  0.92092848  0.16892783  1
  Ca2+  Ca34  1  0.83534110  0.91365986  0.49991590  1
  Ca2+  Ca35  1  0.83263324  0.92213674  0.84585977  1
  Ca2+  Ca36  1  0.41686463  0.16816940  0.15527792  1
  Ca2+  Ca37  1  0.41133309  0.17033333  0.49843848  1
  Ca2+  Ca38  1  0.41593239  0.17639266  0.83656366  1
  Ca2+  Ca39  1  0.41939280  0.66705986  0.15813247  1
  Ca2+  Ca40  1  0.42231521  0.67087244  0.49513414  1
  Ca2+  Ca41  1  0.40634883  0.67673863  0.83259544  1
  Ca2+  Ca42  1  0.92225706  0.17591336  0.15417031  1
  Ca2+  Ca43  1  0.91757972  0.18165787  0.49407260  1
  Ca2+  Ca44  1  0.91648829  0.17539552  0.83640723  1
  Ca2+  Ca45  1  0.91657529  0.67139297  0.16506474  1
  Ca2+  Ca46  1  0.92660990  0.66769616  0.48840159  1
  Ca2+  Ca47  1  0.91837266  0.66608474  0.83267984  1
  Al0+  Al48  1  -0.00071115  -0.00206427  -0.00461166  1
  Al0+  Al49  1  0.00195659  0.00174711  0.33831632  1
  Al0+  Al50  1  0.00046679  0.00084521  0.66821798  1
  Al0+  Al51  1  0.00030890  0.50062450  0.00032408  1
  Al0+  Al52  1  -0.00053289  0.50177925  0.33127276  1
  Al0+  Al53  1  0.00064591  0.49979912  0.66719455  1
  Al0+  Al54  1  0.49969560  -0.00080959  -0.00288767  1
  Al0+  Al55  1  0.50208641  0.00169466  0.33902974  1
  Al0+  Al56  1  0.50092156  -0.00046812  0.66258137  1
  Al0+  Al57  1  0.50035859  0.49972938  0.00403261  1
  Al0+  Al58  1  0.50111968  0.49970512  0.33018485  1
  Al0+  Al59  1  0.50093979  0.50022483  0.66240925  1
  Al0+  Al60  1  0.24942102  0.24838702  -0.00233942  1
  Al0+  Al61  1  0.24984227  0.25144306  0.34285583  1
  Al0+  Al62  1  0.24942421  0.24849868  0.66739490  1
  Al0+  Al63  1  0.24924888  0.74803934  0.00090479  1
  Al0+  Al64  1  0.25090599  0.75128264  0.33271165  1
  Al0+  Al65  1  0.24940172  0.75030610  0.65757540  1
  Al0+  Al66  1  0.74918410  0.24795592  0.00139240  1
  Al0+  Al67  1  0.74764165  0.25127305  0.33214383  1
  Al0+  Al68  1  0.75063886  0.25052355  0.66191119  1
  Al0+  Al69  1  0.74943480  0.74939658  -0.00180111  1
  Al0+  Al70  1  0.74874560  0.75016868  0.33078538  1
  Al0+  Al71  1  0.74877081  0.75142482  0.67031729  1
  Al0+  Al72  1  0.56998834  0.67869743  0.31819851  1
  Al0+  Al73  1  0.17817106  0.92797429  0.34922976  1
  Al0+  Al74  1  0.17861132  0.42874494  0.68275742  1
  Al0+  Al75  1  0.92814665  0.81967603  0.98572942  1
  Al0+  Al76  1  0.67904113  0.42700279  0.01567267  1
  Al0+  Al77  1  0.42767224  0.32162677  0.65218156  1
  Al0+  Al78  1  0.82154041  0.06904294  0.01341831  1
  Al0+  Al79  1  0.06809831  0.68025367  0.65342841  1
  Al0+  Al80  1  0.32005712  0.57132568  0.01211249  1
  Al0+  Al81  1  0.93021168  0.31904406  0.65237461  1
  Al0+  Al82  1  0.07321735  0.67826496  0.31541650  1
  Al0+  Al83  1  0.42746597  0.32332072  0.98723748  1
  Al0+  Al84  1  0.92939691  0.32236872  0.98606363  1
  Al0+  Al85  1  0.32310652  0.07128810  0.35069189  1
  Al0+  Al86  1  0.81862025  0.57052101  0.34788991  1
  Al0+  Al87  1  0.92861646  0.32129934  0.31839163  1
  Al0+  Al88  1  0.17987469  0.43261622  0.34655105  1
  Al0+  Al89  1  0.32054163  0.07032281  0.01127475  1
  Al0+  Al90  1  0.42956307  0.82147580  0.65110779  1
  Al0+  Al91  1  0.82297388  0.57224495  0.01598897  1
  Al0+  Al92  1  0.57109371  0.17777741  0.98581016  1
  Al0+  Al93  1  0.07195866  0.17744088  0.98631787  1
  Al0+  Al94  1  0.92923483  0.82279762  0.31931016  1
  Al0+  Al95  1  0.42843489  0.81903008  0.98911573  1
  Si0+  Si96  1  0.32378738  0.57208373  0.68077185  1
  Si0+  Si97  1  0.07328592  0.17522597  0.64795023  1
  Si0+  Si98  1  0.17836050  0.42668113  0.01594665  1
  Si0+  Si99  1  0.57445697  0.67811366  0.65058632  1
  Si0+  Si100  1  0.57180747  0.67724167  0.98253388  1
  Si0+  Si101  1  0.92614312  0.82378306  0.65140751  1
  Si0+  Si102  1  0.57187773  0.17898475  0.64818117  1
  Si0+  Si103  1  0.82034090  0.07196190  0.68112460  1
  Si0+  Si104  1  0.68003376  0.92966227  0.34889907  1
  Si0+  Si105  1  0.32558088  0.57282674  0.35011754  1
  Si0+  Si106  1  0.32196310  0.06900355  0.68401405  1
  Si0+  Si107  1  0.07284365  0.17943914  0.31909995  1
  Si0+  Si108  1  0.82149869  0.07370638  0.34890644  1
  Si0+  Si109  1  0.67860141  0.92941156  0.68264559  1
  Si0+  Si110  1  0.67679293  0.42646354  0.35268424  1
  Si0+  Si111  1  0.42934297  0.82412668  0.31640356  1
  Si0+  Si112  1  0.67789032  0.42854012  0.68039492  1
  Si0+  Si113  1  0.17952050  0.92713650  0.68269709  1
  Si0+  Si114  1  0.17743985  0.92632603  0.01488599  1
  Si0+  Si115  1  0.42776520  0.31905385  0.31992695  1
  Si0+  Si116  1  0.57074572  0.17803566  0.31869743  1
  Si0+  Si117  1  0.82056754  0.57077587  0.68118860  1
  Si0+  Si118  1  0.07296844  0.67747330  0.98251166  1
  Si0+  Si119  1  0.67689881  0.92758667  0.01690378  1
  O2-  O120  1  0.24455525  -0.00277737  0.05770297  1
  O2-  O121  1  0.25292969  -0.00278918  0.40058348  1
  O2-  O122  1  0.25006457  -0.00167869  0.72582861  1
  O2-  O123  1  0.24859730  0.49432059  0.05932716  1
  O2-  O124  1  0.25327080  0.50885492  0.39510053  1
  O2-  O125  1  0.25810532  0.50083336  0.72571393  1
  O2-  O126  1  0.74835571  -0.00689042  0.06160043  1
  O2-  O127  1  0.75353643  -0.00097760  0.39126441  1
  O2-  O128  1  0.75201390  -0.00185502  0.72340692  1
  O2-  O129  1  0.75270941  0.49778125  0.06496713  1
  O2-  O130  1  0.74636421  0.49395806  0.39766143  1
  O2-  O131  1  0.74799230  0.50066018  0.72169240  1
  O2-  O132  1  0.00219984  0.24487964  0.27414040  1
  O2-  O133  1  0.00613705  0.24579761  0.60454804  1
  O2-  O134  1  0.00142886  0.25062564  0.93535712  1
  O2-  O135  1  0.00270782  0.75335439  0.26828537  1
  O2-  O136  1  -0.00673032  0.75518933  0.60704370  1
  O2-  O137  1  0.00030641  0.74291355  0.93896191  1
  O2-  O138  1  0.49821377  0.24751694  0.27836003  1
  O2-  O139  1  0.50213292  0.24651018  0.60400561  1
  O2-  O140  1  0.50038274  0.25164410  0.93712913  1
  O2-  O141  1  0.49195635  0.75027220  0.27224052  1
  O2-  O142  1  0.50416373  0.74549177  0.60672859  1
  O2-  O143  1  0.50047591  0.74329589  0.93836723  1
  O2-  O144  1  0.07182304  0.17806325  0.10012028  1
  O2-  O145  1  0.07047020  0.18001128  0.42516112  1
  O2-  O146  1  0.07165710  0.17197479  0.75309320  1
  O2-  O147  1  0.07654823  0.67916011  0.08743653  1
  O2-  O148  1  0.06835979  0.67743456  0.42941863  1
  O2-  O149  1  0.06751286  0.68209474  0.76664560  1
  O2-  O150  1  0.56798652  0.17638680  0.09983281  1
  O2-  O151  1  0.57292899  0.17842259  0.42422498  1
  O2-  O152  1  0.57391847  0.17761409  0.75294530  1
  O2-  O153  1  0.57191954  0.68024075  0.08809776  1
  O2-  O154  1  0.56956493  0.68244952  0.43215353  1
  O2-  O155  1  0.57788003  0.67919384  0.75562101  1
  O2-  O156  1  0.18404514  0.42924934  0.23373670  1
  O2-  O157  1  0.17715485  0.43203333  0.56958505  1
  O2-  O158  1  0.17808984  0.42843065  0.91005812  1
  O2-  O159  1  0.17810300  0.93194466  0.23573364  1
  O2-  O160  1  0.17945048  0.92862562  0.57798446  1
  O2-  O161  1  0.17996955  0.92460751  0.90853405  1
  O2-  O162  1  0.67573646  0.42503386  0.24793775  1
  O2-  O163  1  0.67670729  0.42881327  0.57523874  1
  O2-  O164  1  0.67882746  0.43009397  0.90085836  1
  O2-  O165  1  0.67518712  0.93234569  0.24457227  1
  O2-  O166  1  0.67899921  0.92894641  0.57722140  1
  O2-  O167  1  0.67713114  0.92913876  0.91063468  1
  O2-  O168  1  0.42648999  0.32055073  0.10115454  1
  O2-  O169  1  0.42995157  0.31874082  0.42547044  1
  O2-  O170  1  0.42991624  0.32185303  0.76454312  1
  O2-  O171  1  0.43098925  0.81891306  0.10188665  1
  O2-  O172  1  0.43383318  0.82439936  0.42250786  1
  O2-  O173  1  0.42990615  0.82227613  0.76418856  1
  O2-  O174  1  0.93212844  0.32176026  0.09955034  1
  O2-  O175  1  0.92947315  0.31976651  0.43219272  1
  O2-  O176  1  0.92700718  0.31709288  0.76475577  1
  O2-  O177  1  0.93122022  0.82190660  0.09818259  1
  O2-  O178  1  0.92791725  0.82021116  0.43373737  1
  O2-  O179  1  0.92562531  0.82399779  0.75677221  1
  O2-  O180  1  0.32461398  0.07176113  0.23731223  1
  O2-  O181  1  0.32198240  0.06737240  0.57887915  1
  O2-  O182  1  0.32037510  0.06766680  0.89767248  1
  O2-  O183  1  0.32789318  0.56865071  0.24466058  1
  O2-  O184  1  0.32545448  0.57104575  0.57521436  1
  O2-  O185  1  0.31576289  0.57455166  0.89865750  1
  O2-  O186  1  0.81982848  0.07489996  0.24434906  1
  O2-  O187  1  0.81801718  0.07151028  0.57554886  1
  O2-  O188  1  0.81943256  0.06731366  0.89958403  1
  O2-  O189  1  0.81674703  0.57100851  0.23575859  1
  O2-  O190  1  0.81939669  0.57230741  0.57603038  1
  O2-  O191  1  0.82017038  0.57245226  0.90122855  1
  O2-  O192  1  0.05061241  0.08467328  0.27541600  1
  O2-  O193  1  0.04467420  0.08201880  0.60098092  1
  O2-  O194  1  0.04359078  0.07999893  0.93093333  1
  O2-  O195  1  0.04231462  0.58163654  0.26232646  1
  O2-  O196  1  0.03528760  0.58460881  0.59977557  1
  O2-  O197  1  0.04990864  0.58339295  0.93655058  1
  O2-  O198  1  0.54603733  0.08499687  0.27316864  1
  O2-  O199  1  0.54681323  0.08524856  0.60097568  1
  O2-  O200  1  0.54249289  0.08050554  0.93033809  1
  O2-  O201  1  0.54366732  0.58091778  0.26451191  1
  O2-  O202  1  0.55153013  0.58485177  0.60263642  1
  O2-  O203  1  0.54895821  0.58277367  0.93851285  1
  O2-  O204  1  0.16691924  0.20761169  0.27599853  1
  O2-  O205  1  0.16787391  0.19754534  0.60338963  1
  O2-  O206  1  0.16930252  0.20424158  0.93065288  1
  O2-  O207  1  0.17405889  0.70300277  0.26548728  1
  O2-  O208  1  0.16363284  0.70921239  0.59692698  1
  O2-  O209  1  0.16392928  0.70795453  0.93346797  1
  O2-  O210  1  0.66160621  0.20644997  0.27039265  1
  O2-  O211  1  0.66434770  0.20573902  0.59944641  1
  O2-  O212  1  0.66946469  0.20370617  0.93217911  1
  O2-  O213  1  0.66380911  0.71415235  0.26364103  1
  O2-  O214  1  0.66697014  0.70826629  0.60305264  1
  O2-  O215  1  0.66353291  0.70539604  0.93410053  1
  O2-  O216  1  0.08580374  0.45445266  0.06221486  1
  O2-  O217  1  0.08292123  0.46304686  0.40046169  1
  O2-  O218  1  0.08345904  0.46375173  0.73737412  1
  O2-  O219  1  0.08320518  0.95004049  0.05860324  1
  O2-  O220  1  0.08164382  0.95916486  0.40720483  1
  O2-  O221  1  0.08627463  0.95371574  0.72939149  1
  O2-  O222  1  0.58134539  0.45579955  0.06990450  1
  O2-  O223  1  0.58324962  0.45541423  0.39877932  1
  O2-  O224  1  0.58582348  0.45605937  0.72783573  1
  O2-  O225  1  0.58488299  0.95603638  0.06394736  1
  O2-  O226  1  0.59116751  0.96087724  0.40160023  1
  O2-  O227  1  0.58713143  0.95985986  0.72932186  1
  O2-  O228  1  0.20271799  0.33300860  0.06150489  1
  O2-  O229  1  0.21077292  0.33781880  0.40501362  1
  O2-  O230  1  0.20564520  0.32966280  0.73364568  1
  O2-  O231  1  0.20499495  0.83440483  0.06220168  1
  O2-  O232  1  0.20538129  0.82855076  0.40223330  1
  O2-  O233  1  0.20829082  0.83469453  0.72807369  1
  O2-  O234  1  0.70235992  0.32752416  0.06768601  1
  O2-  O235  1  0.69942047  0.33186185  0.39938587  1
  O2-  O236  1  0.70694669  0.33611031  0.72544625  1
  O2-  O237  1  0.69889421  0.83257499  0.06041403  1
  O2-  O238  1  0.70638700  0.83829088  0.39795823  1
  O2-  O239  1  0.70251316  0.83720523  0.73179100  1
  O2-  O240  1  0.45535188  0.41084604  0.27335430  1
  O2-  O241  1  0.45941823  0.41759665  0.59633464  1
  O2-  O242  1  0.45600872  0.42176379  0.93367623  1
  O2-  O243  1  0.46243818  0.91668088  0.27301401  1
  O2-  O244  1  0.46435828  0.91626107  0.59536547  1
  O2-  O245  1  0.46180253  0.91310397  0.93175166  1
  O2-  O246  1  0.96008902  0.41695320  0.26586346  1
  O2-  O247  1  0.96096513  0.41629725  0.60028205  1
  O2-  O248  1  0.95643910  0.42113369  0.93249067  1
  O2-  O249  1  0.95564597  0.92404603  0.27101345  1
  O2-  O250  1  0.95081914  0.91832725  0.60644101  1
  O2-  O251  1  0.95985341  0.91403590  0.92781037  1
  O2-  O252  1  0.33535813  0.29154270  0.27510296  1
  O2-  O253  1  0.33132023  0.28880906  0.59854112  1
  O2-  O254  1  0.33091826  0.29315765  0.93229029  1
  O2-  O255  1  0.33343148  0.80684851  0.27390117  1
  O2-  O256  1  0.33440688  0.79218465  0.59462087  1
  O2-  O257  1  0.33193652  0.78887165  0.93343993  1
  O2-  O258  1  0.83032825  0.29141972  0.26813950  1
  O2-  O259  1  0.83443620  0.28745502  0.59561347  1
  O2-  O260  1  0.83121470  0.29144409  0.93480219  1
  O2-  O261  1  0.83028490  0.79671010  0.26774830  1
  O2-  O262  1  0.83060700  0.80043622  0.60752111  1
  O2-  O263  1  0.83024098  0.79299235  0.93078359  1
  O2-  O264  1  0.41659564  0.03753727  0.06506832  1
  O2-  O265  1  0.42193508  0.04440749  0.40586596  1
  O2-  O266  1  0.41529348  0.04048388  0.72778742  1
  O2-  O267  1  0.41730701  0.54579227  0.06660765  1
  O2-  O268  1  0.41827896  0.54376931  0.39736069  1
  O2-  O269  1  0.41942796  0.55145368  0.72558388  1
  O2-  O270  1  0.91832951  0.03746548  0.06651149  1
  O2-  O271  1  0.91334679  0.05043501  0.39833661  1
  O2-  O272  1  0.91342131  0.04736608  0.72754159  1
  O2-  O273  1  0.92280504  0.54809892  0.06725093  1
  O2-  O274  1  0.91543474  0.53967661  0.40153635  1
  O2-  O275  1  0.91101186  0.54175183  0.72897414  1
  O2-  O276  1  0.29173376  0.16709547  0.06591496  1
  O2-  O277  1  0.29191365  0.16766553  0.40688475  1
  O2-  O278  1  0.29512891  0.16147426  0.72970586  1
  O2-  O279  1  0.28820493  0.66628090  0.06927991  1
  O2-  O280  1  0.30734342  0.66960914  0.39216291  1
  O2-  O281  1  0.29343476  0.66608083  0.72406211  1
  O2-  O282  1  0.79005619  0.16393961  0.06917404  1
  O2-  O283  1  0.78671614  0.16310353  0.39838896  1
  O2-  O284  1  0.78877490  0.16304629  0.72738767  1
  O2-  O285  1  0.79136404  0.67063955  0.06711010  1
  O2-  O286  1  0.78448471  0.66698699  0.40218763  1
  O2-  O287  1  0.79410570  0.66379798  0.72850986  1
