# generated using pymatgen
data_Ca2Al2SiO7
_symmetry_space_group_name_H-M   'P 1'
_cell_length_a   15.46336997
_cell_length_b   15.46724823
_cell_length_c   15.28883711
_cell_angle_alpha   90.00049151
_cell_angle_beta   89.99406377
_cell_angle_gamma   90.00193937
_symmetry_Int_Tables_number   1
_chemical_formula_structural   Ca2Al2SiO7
_chemical_formula_sum   'Ca48 Al48 Si24 O168'
_cell_volume   3656.71954496
_cell_formula_units_Z   24
loop_
 _symmetry_equiv_pos_site_id
 _symmetry_equiv_pos_as_xyz
  1  'x, y, z'
loop_
 _atom_type_symbol
 _atom_type_oxidation_number
  Ca2+  2.0
  Al0+  0.0
  Si0+  0.0
  O2-  -2.0
loop_
 _atom_site_type_symbol
 _atom_site_label
 _atom_site_symmetry_multiplicity
 _atom_site_fract_x
 _atom_site_fract_y
 _atom_site_fract_z
 _atom_site_occupancy
  Ca2+  Ca0  1  0.16957004  0.08288374  0.16943455  1
  Ca2+  Ca1  1  0.16567124  0.07553368  0.50676518  1
  Ca2+  Ca2  1  0.16456294  0.07431179  0.83452541  1
  Ca2+  Ca3  1  0.17279707  0.58109577  0.16960942  1
  Ca2+  Ca4  1  0.17473570  0.58614682  0.50017093  1
  Ca2+  Ca5  1  0.17859589  0.58021366  0.84382927  1
  Ca2+  Ca6  1  0.67051481  0.07598881  0.17158541  1
  Ca2+  Ca7  1  0.66990654  0.07752445  0.50650168  1
  Ca2+  Ca8  1  0.67476339  0.09301660  0.83440654  1
  Ca2+  Ca9  1  0.67058807  0.57942030  0.17414405  1
  Ca2+  Ca10  1  0.66532661  0.57689620  0.50757313  1
  Ca2+  Ca11  1  0.67440234  0.58474226  0.83164537  1
  Ca2+  Ca12  1  0.07583254  0.34505947  0.16180145  1
  Ca2+  Ca13  1  0.07525685  0.33676434  0.49048707  1
  Ca2+  Ca14  1  0.07690863  0.34287610  0.83585394  1
  Ca2+  Ca15  1  0.08041033  0.81894317  0.16554907  1
  Ca2+  Ca16  1  0.07674392  0.82887527  0.49222691  1
  Ca2+  Ca17  1  0.08499024  0.82623919  0.83048267  1
  Ca2+  Ca18  1  0.57771907  0.33872423  0.16317118  1
  Ca2+  Ca19  1  0.58459705  0.33812597  0.50095263  1
  Ca2+  Ca20  1  0.57441350  0.33659119  0.82345283  1
  Ca2+  Ca21  1  0.58174217  0.82777770  0.16503990  1
  Ca2+  Ca22  1  0.58900255  0.81898427  0.49338682  1
  Ca2+  Ca23  1  0.57641522  0.82645107  0.82938056  1
  Ca2+  Ca24  1  0.32456999  0.42392091  0.17256849  1
  Ca2+  Ca25  1  0.33123889  0.42717111  0.50397954  1
  Ca2+  Ca26  1  0.33521656  0.42316953  0.84072233  1
  Ca2+  Ca27  1  0.33765605  0.91450362  0.16802049  1
  Ca2+  Ca28  1  0.32419148  0.91488089  0.50589050  1
  Ca2+  Ca29  1  0.32896169  0.91046378  0.83791020  1
  Ca2+  Ca30  1  0.83357202  0.41800481  0.17025304  1
  Ca2+  Ca31  1  0.82375224  0.42003720  0.50516594  1
  Ca2+  Ca32  1  0.82747051  0.42327846  0.83824750  1
  Ca2+  Ca33  1  0.83493766  0.92216052  0.17252358  1
  Ca2+  Ca34  1  0.82989993  0.91609336  0.50419815  1
  Ca2+  Ca35  1  0.83156979  0.92972641  0.83812915  1
  Ca2+  Ca36  1  0.42019970  0.17585766  0.15654041  1
  Ca2+  Ca37  1  0.42111304  0.17434908  0.50072138  1
  Ca2+  Ca38  1  0.42283905  0.18158071  0.82436466  1
  Ca2+  Ca39  1  0.42009053  0.66156565  0.16324191  1
  Ca2+  Ca40  1  0.42530011  0.65548483  0.49839266  1
  Ca2+  Ca41  1  0.41722517  0.66362651  0.82849318  1
  Ca2+  Ca42  1  0.91334016  0.17956753  0.16120212  1
  Ca2+  Ca43  1  0.91248483  0.17191521  0.49611402  1
  Ca2+  Ca44  1  0.90931778  0.17055972  0.83086971  1
  Ca2+  Ca45  1  0.92810103  0.66035393  0.16115890  1
  Ca2+  Ca46  1  0.92187665  0.66815853  0.48887664  1
  Ca2+  Ca47  1  0.92162393  0.65505988  0.83176573  1
  Al0+  Al48  1  -0.00045429  -0.00050311  0.00621032  1
  Al0+  Al49  1  0.00190682  0.00247166  0.32935380  1
  Al0+  Al50  1  -0.00062884  -0.00090752  0.67451108  1
  Al0+  Al51  1  -0.00053786  0.49917700  -0.00376392  1
  Al0+  Al52  1  0.00119903  0.49950194  0.32884329  1
  Al0+  Al53  1  0.00107697  0.50000745  0.66513337  1
  Al0+  Al54  1  0.49979427  -0.00232242  -0.00565963  1
  Al0+  Al55  1  0.50272740  0.00066683  0.33877841  1
  Al0+  Al56  1  0.49778504  0.00112233  0.66300004  1
  Al0+  Al57  1  0.50135765  0.50028919  -0.00177590  1
  Al0+  Al58  1  0.50054958  0.49990754  0.33491647  1
  Al0+  Al59  1  0.49851967  0.50112639  0.66649177  1
  Al0+  Al60  1  0.24917457  0.24766948  -0.00191877  1
  Al0+  Al61  1  0.25049607  0.25080992  0.33781741  1
  Al0+  Al62  1  0.24806660  0.24845996  0.66187636  1
  Al0+  Al63  1  0.24985093  0.74924628  -0.00247999  1
  Al0+  Al64  1  0.25069796  0.75255498  0.33432336  1
  Al0+  Al65  1  0.24781002  0.74891686  0.67349199  1
  Al0+  Al66  1  0.75184462  0.24921487  0.00172428  1
  Al0+  Al67  1  0.74976384  0.24972204  0.33215072  1
  Al0+  Al68  1  0.74882454  0.24990648  0.66912944  1
  Al0+  Al69  1  0.75114793  0.75097214  0.00345726  1
  Al0+  Al70  1  0.74891884  0.75256839  0.32774545  1
  Al0+  Al71  1  0.74991212  0.75188493  0.66874922  1
  Al0+  Al72  1  0.17705389  0.42875475  0.34965926  1
  Al0+  Al73  1  0.82337395  0.57343325  0.67937861  1
  Al0+  Al74  1  0.57118465  0.68192341  0.65348118  1
  Al0+  Al75  1  0.67896441  0.42993447  0.68207259  1
  Al0+  Al76  1  0.42850645  0.32140411  0.98769180  1
  Al0+  Al77  1  0.92854010  0.31959694  0.32037740  1
  Al0+  Al78  1  0.32067717  0.57303201  0.34916282  1
  Al0+  Al79  1  0.92956315  0.31963359  0.98402035  1
  Al0+  Al80  1  0.82084796  0.07145975  0.01672399  1
  Al0+  Al81  1  0.17966323  0.92947056  0.68095715  1
  Al0+  Al82  1  0.57301938  0.17920004  0.64973710  1
  Al0+  Al83  1  0.92756813  0.82361499  0.31828507  1
  Al0+  Al84  1  0.07239584  0.67928092  0.31809211  1
  Al0+  Al85  1  0.43000153  0.81963577  0.98661569  1
  Al0+  Al86  1  0.67977870  0.42877125  0.34643615  1
  Al0+  Al87  1  0.42715095  0.32292644  0.64871788  1
  Al0+  Al88  1  0.81868491  0.06975960  0.67918959  1
  Al0+  Al89  1  0.82104918  0.57131126  0.01468068  1
  Al0+  Al90  1  0.17979407  0.42688618  0.01376480  1
  Al0+  Al91  1  0.32310643  0.57198254  0.01598546  1
  Al0+  Al92  1  0.31905806  0.56869139  0.68145919  1
  Al0+  Al93  1  0.56982821  0.67731062  0.31938814  1
  Al0+  Al94  1  0.06890144  0.67939186  0.98413427  1
  Al0+  Al95  1  0.67951014  0.92814859  0.34767132  1
  Si0+  Si96  1  0.82234706  0.07119633  0.34949419  1
  Si0+  Si97  1  0.32177192  0.07312813  0.68409407  1
  Si0+  Si98  1  0.67892519  0.42796584  0.01635228  1
  Si0+  Si99  1  0.57124692  0.17734079  0.98479278  1
  Si0+  Si100  1  0.07231273  0.17436756  0.98225366  1
  Si0+  Si101  1  0.92768625  0.82388933  0.98208208  1
  Si0+  Si102  1  0.67642508  0.92859866  0.01652683  1
  Si0+  Si103  1  0.17959119  0.93168764  0.34730257  1
  Si0+  Si104  1  0.07507535  0.17867632  0.31670942  1
  Si0+  Si105  1  0.17926535  0.92781000  0.01761908  1
  Si0+  Si106  1  0.07061012  0.67892131  0.65169169  1
  Si0+  Si107  1  0.93049085  0.82278256  0.65480448  1
  Si0+  Si108  1  0.42452968  0.82134311  0.64981844  1
  Si0+  Si109  1  0.32162179  0.06903803  0.01311432  1
  Si0+  Si110  1  0.57032303  0.17763845  0.31755157  1
  Si0+  Si111  1  0.06849747  0.17545593  0.65244915  1
  Si0+  Si112  1  0.32328835  0.07271191  0.34874733  1
  Si0+  Si113  1  0.67482654  0.92715602  0.68424294  1
  Si0+  Si114  1  0.82216093  0.57265931  0.34637658  1
  Si0+  Si115  1  0.42897044  0.31997191  0.31814217  1
  Si0+  Si116  1  0.42923126  0.82475298  0.31949540  1
  Si0+  Si117  1  0.57493578  0.67720187  0.98270188  1
  Si0+  Si118  1  0.92990727  0.32095959  0.65141893  1
  Si0+  Si119  1  0.17672933  0.42471868  0.68254330  1
  O2-  O120  1  0.25120293  -0.00103097  0.05864675  1
  O2-  O121  1  0.25105453  0.00215964  0.38979400  1
  O2-  O122  1  0.25671379  0.00136352  0.72883416  1
  O2-  O123  1  0.25275919  0.49752030  0.06402073  1
  O2-  O124  1  0.24703677  0.50236976  0.39923736  1
  O2-  O125  1  0.24808738  0.48989007  0.72640727  1
  O2-  O126  1  0.74645803  -0.00420478  0.06128909  1
  O2-  O127  1  0.75855226  -0.00132723  0.39404744  1
  O2-  O128  1  0.73951717  0.00013733  0.72743208  1
  O2-  O129  1  0.74548637  0.49793686  0.06137051  1
  O2-  O130  1  0.75364262  0.50496530  0.39200208  1
  O2-  O131  1  0.75162206  0.50183839  0.73052677  1
  O2-  O132  1  0.00757021  0.24844237  0.27385195  1
  O2-  O133  1  0.00143196  0.24956790  0.60962671  1
  O2-  O134  1  0.00494201  0.24419947  0.93798536  1
  O2-  O135  1  -0.00459107  0.74736597  0.26894026  1
  O2-  O136  1  -0.00480722  0.74644723  0.61160473  1
  O2-  O137  1  -0.00756165  0.75271157  0.93610319  1
  O2-  O138  1  0.50019290  0.24911158  0.27503495  1
  O2-  O139  1  0.50165036  0.25193238  0.59931705  1
  O2-  O140  1  0.50514944  0.24834254  0.94149445  1
  O2-  O141  1  0.49420371  0.75299248  0.27526785  1
  O2-  O142  1  0.49653025  0.75719113  0.60537406  1
  O2-  O143  1  0.50273038  0.74354047  0.94016819  1
  O2-  O144  1  0.07269742  0.17167690  0.08775479  1
  O2-  O145  1  0.07402695  0.17440204  0.42248235  1
  O2-  O146  1  0.06735927  0.17252668  0.75719187  1
  O2-  O147  1  0.06991485  0.68245373  0.09688119  1
  O2-  O148  1  0.07234391  0.68394080  0.43246022  1
  O2-  O149  1  0.07145075  0.67967835  0.75664357  1
  O2-  O150  1  0.56772017  0.17431681  0.09085561  1
  O2-  O151  1  0.56920056  0.17575144  0.42210807  1
  O2-  O152  1  0.57094985  0.17974549  0.76366172  1
  O2-  O153  1  0.57568751  0.67822231  0.08835725  1
  O2-  O154  1  0.56985923  0.67807098  0.43249204  1
  O2-  O155  1  0.57201482  0.68527408  0.76654309  1
  O2-  O156  1  0.18068996  0.42492935  0.23664914  1
  O2-  O157  1  0.17351767  0.42688900  0.57717180  1
  O2-  O158  1  0.18128048  0.42828422  0.89977219  1
  O2-  O159  1  0.18102535  0.93315281  0.24223703  1
  O2-  O160  1  0.17898601  0.93184283  0.56735529  1
  O2-  O161  1  0.17864823  0.92958200  0.91242084  1
  O2-  O162  1  0.67891984  0.42838413  0.23320081  1
  O2-  O163  1  0.68272528  0.43040850  0.56822175  1
  O2-  O164  1  0.67941574  0.42668186  0.91105337  1
  O2-  O165  1  0.67365159  0.93435138  0.23486799  1
  O2-  O166  1  0.67911327  0.92513046  0.57874414  1
  O2-  O167  1  0.67624671  0.92962769  0.91091262  1
  O2-  O168  1  0.42996848  0.31745677  0.10140518  1
  O2-  O169  1  0.42856723  0.31712674  0.42282441  1
  O2-  O170  1  0.42643289  0.31975407  0.76254292  1
  O2-  O171  1  0.43350743  0.82491442  0.09963683  1
  O2-  O172  1  0.42924104  0.82876665  0.42480532  1
  O2-  O173  1  0.42443247  0.81976800  0.75550561  1
  O2-  O174  1  0.92878164  0.31755326  0.09705376  1
  O2-  O175  1  0.92737623  0.31535108  0.43398215  1
  O2-  O176  1  0.93125496  0.32074998  0.75634460  1
  O2-  O177  1  0.93116472  0.82587468  0.08733480  1
  O2-  O178  1  0.93150364  0.82572244  0.43271530  1
  O2-  O179  1  0.93411150  0.82645647  0.75959853  1
  O2-  O180  1  0.32365321  0.07301033  0.24326718  1
  O2-  O181  1  0.31840494  0.07268752  0.57809075  1
  O2-  O182  1  0.32005846  0.06709175  0.90845181  1
  O2-  O183  1  0.32171361  0.57083992  0.23587329  1
  O2-  O184  1  0.31588123  0.57179185  0.56859762  1
  O2-  O185  1  0.32173787  0.57163840  0.90230381  1
  O2-  O186  1  0.81939657  0.07163310  0.24397707  1
  O2-  O187  1  0.82221515  0.06577116  0.56612927  1
  O2-  O188  1  0.81966100  0.07059629  0.90343990  1
  O2-  O189  1  0.82061865  0.56944155  0.24071471  1
  O2-  O190  1  0.82650806  0.57203182  0.56567939  1
  O2-  O191  1  0.81900818  0.56964903  0.90164884  1
  O2-  O192  1  0.05023633  0.08621434  0.26774617  1
  O2-  O193  1  0.03691510  0.08477454  0.60406746  1
  O2-  O194  1  0.04424247  0.08049443  0.93724956  1
  O2-  O195  1  0.04852924  0.58034197  0.26505240  1
  O2-  O196  1  0.04723930  0.58638654  0.60339263  1
  O2-  O197  1  0.03912384  0.58359293  0.92883831  1
  O2-  O198  1  0.53992368  0.08659684  0.26957711  1
  O2-  O199  1  0.54378821  0.07987539  0.59668421  1
  O2-  O200  1  0.54441969  0.08549153  0.93631357  1
  O2-  O201  1  0.53911382  0.58125196  0.26401148  1
  O2-  O202  1  0.53996773  0.58553304  0.60050032  1
  O2-  O203  1  0.55246720  0.58330109  0.93663060  1
  O2-  O204  1  0.17025483  0.20108984  0.27187729  1
  O2-  O205  1  0.16139266  0.19701945  0.60417610  1
  O2-  O206  1  0.16662119  0.19555394  0.93562169  1
  O2-  O207  1  0.16901993  0.71531152  0.26555240  1
  O2-  O208  1  0.16068161  0.71314731  0.60513128  1
  O2-  O209  1  0.16444501  0.71399842  0.93024845  1
  O2-  O210  1  0.66211603  0.20425610  0.27000783  1
  O2-  O211  1  0.67250104  0.20516030  0.59725653  1
  O2-  O212  1  0.66609159  0.20136329  0.94206792  1
  O2-  O213  1  0.66502923  0.70915721  0.26367350  1
  O2-  O214  1  0.66849518  0.71286174  0.59944829  1
  O2-  O215  1  0.66758050  0.70745276  0.93685360  1
  O2-  O216  1  0.08107616  0.45740734  0.06335451  1
  O2-  O217  1  0.07704552  0.45497998  0.40099442  1
  O2-  O218  1  0.08419040  0.45377641  0.72865494  1
  O2-  O219  1  0.08887297  0.95679755  0.06644267  1
  O2-  O220  1  0.08839434  0.96170891  0.39535445  1
  O2-  O221  1  0.08634830  0.96374854  0.73872164  1
  O2-  O222  1  0.58499430  0.45280992  0.06197205  1
  O2-  O223  1  0.58347147  0.45794025  0.40056812  1
  O2-  O224  1  0.58045823  0.45810887  0.73305054  1
  O2-  O225  1  0.58323796  0.95715552  0.06230961  1
  O2-  O226  1  0.58551474  0.96250687  0.40518644  1
  O2-  O227  1  0.57825842  0.94817956  0.72605752  1
  O2-  O228  1  0.20302620  0.32581617  0.06471689  1
  O2-  O229  1  0.20527333  0.32977857  0.40341239  1
  O2-  O230  1  0.19613889  0.32837667  0.72545055  1
  O2-  O231  1  0.20918845  0.83726985  0.06456707  1
  O2-  O232  1  0.20681026  0.84125002  0.39701224  1
  O2-  O233  1  0.20854018  0.83425818  0.73781919  1
  O2-  O234  1  0.70466595  0.33450821  0.06276441  1
  O2-  O235  1  0.71072100  0.33161480  0.39971122  1
  O2-  O236  1  0.70625675  0.33157191  0.73479128  1
  O2-  O237  1  0.69998441  0.83501372  0.06289560  1
  O2-  O238  1  0.70769338  0.83060364  0.40111719  1
  O2-  O239  1  0.70501893  0.83695259  0.73381675  1
  O2-  O240  1  0.45810228  0.41098509  0.27134149  1
  O2-  O241  1  0.45469038  0.42127585  0.59682393  1
  O2-  O242  1  0.45864896  0.41769082  0.93326644  1
  O2-  O243  1  0.45813800  0.91777864  0.27248459  1
  O2-  O244  1  0.44220141  0.91780209  0.60631436  1
  O2-  O245  1  0.46030667  0.91510970  0.92799820  1
  O2-  O246  1  0.95555527  0.41637794  0.26569295  1
  O2-  O247  1  0.95845897  0.41201683  0.60254729  1
  O2-  O248  1  0.96025359  0.41469177  0.92778634  1
  O2-  O249  1  0.96091802  0.92090577  0.26451883  1
  O2-  O250  1  0.96491914  0.91192851  0.60589697  1
  O2-  O251  1  0.95824615  0.91698732  0.93687784  1
  O2-  O252  1  0.33720751  0.28974662  0.27191300  1
  O2-  O253  1  0.32903719  0.29041292  0.59543472  1
  O2-  O254  1  0.33338170  0.28700532  0.93323066  1
  O2-  O255  1  0.33420180  0.80470187  0.27416758  1
  O2-  O256  1  0.33074650  0.79279630  0.60526604  1
  O2-  O257  1  0.33250642  0.79345708  0.93266003  1
  O2-  O258  1  0.83379427  0.28487802  0.26430153  1
  O2-  O259  1  0.83831602  0.29150143  0.60560429  1
  O2-  O260  1  0.83286755  0.28661251  0.93084886  1
  O2-  O261  1  0.82767008  0.80486741  0.26554709  1
  O2-  O262  1  0.83620314  0.80241824  0.60964906  1
  O2-  O263  1  0.83144726  0.80405570  0.93934839  1
  O2-  O264  1  0.41365168  0.04059481  0.06042338  1
  O2-  O265  1  0.41341567  0.04410181  0.39812176  1
  O2-  O266  1  0.41698498  0.05191497  0.72809696  1
  O2-  O267  1  0.42352206  0.54615834  0.06584382  1
  O2-  O268  1  0.41767077  0.53946356  0.40150337  1
  O2-  O269  1  0.41663503  0.54291396  0.73445159  1
  O2-  O270  1  0.91727492  0.04115167  0.07155198  1
  O2-  O271  1  0.91915052  0.05199784  0.39194415  1
  O2-  O272  1  0.91239460  0.03581442  0.73680096  1
  O2-  O273  1  0.91704813  0.53738457  0.06646182  1
  O2-  O274  1  0.91652398  0.54843969  0.39072542  1
  O2-  O275  1  0.92169864  0.54246806  0.73176853  1
  O2-  O276  1  0.29362452  0.15977724  0.06261309  1
  O2-  O277  1  0.29532118  0.16289540  0.39854588  1
  O2-  O278  1  0.29117271  0.16529760  0.72995798  1
  O2-  O279  1  0.29275805  0.67077250  0.06703077  1
  O2-  O280  1  0.29535566  0.67327511  0.40110509  1
  O2-  O281  1  0.28555465  0.66371482  0.73674301  1
  O2-  O282  1  0.78942646  0.16724327  0.07160887  1
  O2-  O283  1  0.79128897  0.16256387  0.39607647  1
  O2-  O284  1  0.79158725  0.16655097  0.73438892  1
  O2-  O285  1  0.79568199  0.66979522  0.06802401  1
  O2-  O286  1  0.79923336  0.66811803  0.38879746  1
  O2-  O287  1  0.79680032  0.67209749  0.73339512  1
