# generated using pymatgen
data_Ca2Al2SiO7
_symmetry_space_group_name_H-M   'P 1'
_cell_length_a   15.46178068
_cell_length_b   15.45981418
_cell_length_c   15.28457170
_cell_angle_alpha   90.00403051
_cell_angle_beta   89.99751623
_cell_angle_gamma   89.99670517
_symmetry_Int_Tables_number   1
_chemical_formula_structural   Ca2Al2SiO7
_chemical_formula_sum   'Ca48 Al48 Si24 O168'
_cell_volume   3653.56677820
_cell_formula_units_Z   24
loop_
 _symmetry_equiv_pos_site_id
 _symmetry_equiv_pos_as_xyz
  1  'x, y, z'
loop_
 _atom_type_symbol
 _atom_type_oxidation_number
  Ca2+  2.0
  Al0+  0.0
  Si0+  0.0
  O2-  -2.0
loop_
 _atom_site_type_symbol
 _atom_site_label
 _atom_site_symmetry_multiplicity
 _atom_site_fract_x
 _atom_site_fract_y
 _atom_site_fract_z
 _atom_site_occupancy
  Ca2+  Ca0  1  0.17147663  0.08167904  0.17363416  1
  Ca2+  Ca1  1  0.16924622  0.08408026  0.50502697  1
  Ca2+  Ca2  1  0.15589403  0.07186448  0.83335349  1
  Ca2+  Ca3  1  0.17702464  0.57365971  0.17424422  1
  Ca2+  Ca4  1  0.17271570  0.57939349  0.50413879  1
  Ca2+  Ca5  1  0.17759623  0.58871915  0.83419790  1
  Ca2+  Ca6  1  0.66707344  0.07878849  0.17196632  1
  Ca2+  Ca7  1  0.65853798  0.08220012  0.50268489  1
  Ca2+  Ca8  1  0.67073799  0.08093827  0.83932024  1
  Ca2+  Ca9  1  0.67439619  0.57341038  0.17838060  1
  Ca2+  Ca10  1  0.67040894  0.57799573  0.49856534  1
  Ca2+  Ca11  1  0.66894103  0.58108313  0.83620047  1
  Ca2+  Ca12  1  0.08364715  0.33071491  0.16496149  1
  Ca2+  Ca13  1  0.08774335  0.32625478  0.49398048  1
  Ca2+  Ca14  1  0.07032312  0.32660425  0.82436200  1
  Ca2+  Ca15  1  0.08581979  0.83176045  0.16195849  1
  Ca2+  Ca16  1  0.08507226  0.82994924  0.50309123  1
  Ca2+  Ca17  1  0.08431170  0.83250611  0.82074956  1
  Ca2+  Ca18  1  0.58119386  0.33156126  0.16374074  1
  Ca2+  Ca19  1  0.57992037  0.32391634  0.49725652  1
  Ca2+  Ca20  1  0.57431768  0.32777195  0.82598101  1
  Ca2+  Ca21  1  0.58066863  0.83893917  0.16804264  1
  Ca2+  Ca22  1  0.57051157  0.83641110  0.49082069  1
  Ca2+  Ca23  1  0.57823412  0.83311146  0.82757970  1
  Ca2+  Ca24  1  0.33496716  0.42468760  0.17503080  1
  Ca2+  Ca25  1  0.33384461  0.42479328  0.50538468  1
  Ca2+  Ca26  1  0.34195970  0.42475866  0.83714452  1
  Ca2+  Ca27  1  0.32974198  0.92194101  0.17396357  1
  Ca2+  Ca28  1  0.33519134  0.92087037  0.50539721  1
  Ca2+  Ca29  1  0.32244397  0.91357959  0.83295793  1
  Ca2+  Ca30  1  0.83007630  0.41769811  0.17680476  1
  Ca2+  Ca31  1  0.83082698  0.41313469  0.50053022  1
  Ca2+  Ca32  1  0.83698943  0.41082263  0.83621663  1
  Ca2+  Ca33  1  0.82084932  0.92241335  0.16996722  1
  Ca2+  Ca34  1  0.82772238  0.91496577  0.50427933  1
  Ca2+  Ca35  1  0.83089918  0.92435185  0.84261194  1
  Ca2+  Ca36  1  0.41976875  0.16937740  0.16692573  1
  Ca2+  Ca37  1  0.42414623  0.16419707  0.49214873  1
  Ca2+  Ca38  1  0.42092257  0.17873964  0.82543971  1
  Ca2+  Ca39  1  0.40879890  0.66931744  0.16555267  1
  Ca2+  Ca40  1  0.40311563  0.67731928  0.49774560  1
  Ca2+  Ca41  1  0.41297077  0.66913882  0.82562901  1
  Ca2+  Ca42  1  0.92029239  0.16959884  0.16203654  1
  Ca2+  Ca43  1  0.93071694  0.16919633  0.49922424  1
  Ca2+  Ca44  1  0.91572731  0.17247911  0.82660092  1
  Ca2+  Ca45  1  0.91579753  0.66384051  0.16479482  1
  Ca2+  Ca46  1  0.91886259  0.66896530  0.49753675  1
  Ca2+  Ca47  1  0.92754904  0.67775085  0.82041375  1
  Al0+  Al48  1  -0.00143227  -0.00136441  0.01020329  1
  Al0+  Al49  1  -0.00152725  -0.00057124  0.32699215  1
  Al0+  Al50  1  -0.00247727  0.00087757  0.66293953  1
  Al0+  Al51  1  0.00302069  0.50021544  -0.00590350  1
  Al0+  Al52  1  0.00127879  0.50114027  0.33940611  1
  Al0+  Al53  1  -0.00044907  0.50118255  0.66147649  1
  Al0+  Al54  1  0.49807656  -0.00136026  0.00056106  1
  Al0+  Al55  1  0.49859514  -0.00025187  0.33018152  1
  Al0+  Al56  1  0.49886412  -0.00109014  0.66482427  1
  Al0+  Al57  1  0.50199119  0.50243899  0.00091481  1
  Al0+  Al58  1  0.50224168  0.50252588  0.34269609  1
  Al0+  Al59  1  0.50240699  0.49939412  0.66828259  1
  Al0+  Al60  1  0.24920702  0.24957543  -0.00718674  1
  Al0+  Al61  1  0.25124555  0.24818313  0.33474620  1
  Al0+  Al62  1  0.25018188  0.25251166  0.66395911  1
  Al0+  Al63  1  0.25074246  0.74953673  0.00776221  1
  Al0+  Al64  1  0.24715822  0.75047775  0.32898893  1
  Al0+  Al65  1  0.24991799  0.75011353  0.66681656  1
  Al0+  Al66  1  0.75077546  0.24979705  0.00040345  1
  Al0+  Al67  1  0.75124208  0.24833956  0.33342526  1
  Al0+  Al68  1  0.74905729  0.24914505  0.66066187  1
  Al0+  Al69  1  0.74925449  0.74939307  0.00236589  1
  Al0+  Al70  1  0.74836386  0.75122565  0.33963735  1
  Al0+  Al71  1  0.74955149  0.74895229  0.66572056  1
  Al0+  Al72  1  0.92763756  0.32188863  0.64966310  1
  Al0+  Al73  1  0.31987925  0.06851662  0.34598729  1
  Al0+  Al74  1  0.18069917  0.42732159  0.34802763  1
  Al0+  Al75  1  0.42949839  0.32334610  0.98805006  1
  Al0+  Al76  1  0.67901726  0.93250411  0.34889087  1
  Al0+  Al77  1  0.92682373  0.82275544  0.65206214  1
  Al0+  Al78  1  0.67655042  0.92732658  0.01480247  1
  Al0+  Al79  1  0.32134698  0.57347000  0.34974652  1
  Al0+  Al80  1  0.17982014  0.93245724  0.67738107  1
  Al0+  Al81  1  0.67891945  0.42498861  0.35007822  1
  Al0+  Al82  1  0.92941786  0.32086116  0.98808669  1
  Al0+  Al83  1  0.07332476  0.17824513  0.31723316  1
  Al0+  Al84  1  0.82209122  0.57148645  0.34933485  1
  Al0+  Al85  1  0.32223053  0.56887079  0.01441438  1
  Al0+  Al86  1  0.42774074  0.81920556  0.31722006  1
  Al0+  Al87  1  0.81997327  0.07343203  0.01618221  1
  Al0+  Al88  1  0.07124221  0.17855922  0.65283331  1
  Al0+  Al89  1  0.56852724  0.17859701  0.65271678  1
  Al0+  Al90  1  0.31976803  0.56874225  0.68165861  1
  Al0+  Al91  1  0.17965332  0.92925913  0.01400709  1
  Al0+  Al92  1  0.42834739  0.32437824  0.65070625  1
  Al0+  Al93  1  0.07257797  0.68023602  0.65078792  1
  Al0+  Al94  1  0.57176155  0.17902239  0.31731523  1
  Al0+  Al95  1  0.43008442  0.81823467  0.65514092  1
  Si0+  Si96  1  0.92786458  0.81978090  0.98761511  1
  Si0+  Si97  1  0.57234530  0.67974676  0.98566530  1
  Si0+  Si98  1  0.07130730  0.17467390  0.98367545  1
  Si0+  Si99  1  0.57354648  0.67853288  0.31642741  1
  Si0+  Si100  1  0.93070889  0.32234822  0.31705421  1
  Si0+  Si101  1  0.82364042  0.57042017  0.01118441  1
  Si0+  Si102  1  0.42746620  0.82020117  0.98476057  1
  Si0+  Si103  1  0.81863781  0.07005804  0.67995386  1
  Si0+  Si104  1  0.42998992  0.32402091  0.31828689  1
  Si0+  Si105  1  0.06920930  0.67878688  0.31536478  1
  Si0+  Si106  1  0.82227554  0.57248679  0.68409663  1
  Si0+  Si107  1  0.17491844  0.92788035  0.34990512  1
  Si0+  Si108  1  0.32155946  0.07466900  0.01484990  1
  Si0+  Si109  1  0.17705914  0.42716299  0.01344432  1
  Si0+  Si110  1  0.82417914  0.07160174  0.35234774  1
  Si0+  Si111  1  0.57126076  0.17722269  0.98441689  1
  Si0+  Si112  1  0.32452368  0.07408983  0.68413673  1
  Si0+  Si113  1  0.17506257  0.42622830  0.68571066  1
  Si0+  Si114  1  0.07222839  0.68105278  0.98568199  1
  Si0+  Si115  1  0.67646149  0.92752186  0.68142519  1
  Si0+  Si116  1  0.92585098  0.82017233  0.31534883  1
  Si0+  Si117  1  0.68234213  0.42843609  0.68402011  1
  Si0+  Si118  1  0.57408932  0.67661806  0.64973003  1
  Si0+  Si119  1  0.68049461  0.43026510  0.01259115  1
  O2-  O120  1  0.25194707  0.00659938  0.05885157  1
  O2-  O121  1  0.24305813  -0.00349821  0.39338650  1
  O2-  O122  1  0.25112875  0.00939008  0.72749063  1
  O2-  O123  1  0.25133559  0.48949350  0.05817410  1
  O2-  O124  1  0.25342288  0.49786411  0.39880116  1
  O2-  O125  1  0.24662637  0.49259900  0.73027344  1
  O2-  O126  1  0.74539844  0.00265678  0.06409661  1
  O2-  O127  1  0.75262074  0.00675490  0.39772156  1
  O2-  O128  1  0.74856201  -0.00235172  0.72296103  1
  O2-  O129  1  0.75673477  0.49621882  0.05369719  1
  O2-  O130  1  0.75248953  0.49686681  0.39860091  1
  O2-  O131  1  0.75412771  0.49895729  0.72758744  1
  O2-  O132  1  -0.00075936  0.25444040  0.27131063  1
  O2-  O133  1  0.00628751  0.25657902  0.60181002  1
  O2-  O134  1  0.00189963  0.24388627  0.94149829  1
  O2-  O135  1  -0.00298318  0.74900397  0.27245488  1
  O2-  O136  1  -0.00234538  0.75002814  0.60160167  1
  O2-  O137  1  0.00161380  0.75280297  0.94397704  1
  O2-  O138  1  0.50090874  0.25831822  0.27197383  1
  O2-  O139  1  0.49289927  0.24574008  0.60163612  1
  O2-  O140  1  0.50160058  0.24544631  0.94149498  1
  O2-  O141  1  0.50077761  0.74199376  0.27028379  1
  O2-  O142  1  0.50508367  0.74492144  0.60694110  1
  O2-  O143  1  0.50155013  0.75135035  0.94387053  1
  O2-  O144  1  0.07280653  0.17677037  0.08920758  1
  O2-  O145  1  0.07089877  0.17632576  0.42981706  1
  O2-  O146  1  0.06429175  0.17527915  0.76690404  1
  O2-  O147  1  0.06945582  0.67967989  0.09084352  1
  O2-  O148  1  0.07030314  0.68117214  0.41988259  1
  O2-  O149  1  0.07207581  0.68371519  0.76557650  1
  O2-  O150  1  0.57126459  0.17841304  0.08986157  1
  O2-  O151  1  0.56793602  0.17776861  0.42983875  1
  O2-  O152  1  0.57088797  0.18045346  0.76711824  1
  O2-  O153  1  0.57476097  0.67717812  0.09008843  1
  O2-  O154  1  0.57700519  0.68269638  0.42163750  1
  O2-  O155  1  0.57608254  0.67821049  0.75629764  1
  O2-  O156  1  0.18007547  0.42976842  0.23336846  1
  O2-  O157  1  0.17475794  0.42807447  0.58047966  1
  O2-  O158  1  0.17294660  0.43160340  0.90840618  1
  O2-  O159  1  0.17680136  0.92840685  0.24368476  1
  O2-  O160  1  0.18212936  0.93232919  0.56475936  1
  O2-  O161  1  0.17957644  0.92698838  0.90074999  1
  O2-  O162  1  0.68054887  0.42710705  0.23510944  1
  O2-  O163  1  0.68289423  0.42965780  0.57960758  1
  O2-  O164  1  0.67937495  0.43267848  0.90731885  1
  O2-  O165  1  0.68128061  0.93226048  0.23566363  1
  O2-  O166  1  0.67609893  0.92781898  0.57669923  1
  O2-  O167  1  0.67925930  0.92552971  0.90071924  1
  O2-  O168  1  0.43312579  0.32513246  0.10102352  1
  O2-  O169  1  0.43022343  0.32147052  0.42337253  1
  O2-  O170  1  0.43453352  0.32529478  0.76513659  1
  O2-  O171  1  0.42640178  0.81910354  0.08958861  1
  O2-  O172  1  0.42837792  0.81928117  0.43025569  1
  O2-  O173  1  0.43163604  0.81756198  0.76911545  1
  O2-  O174  1  0.93129584  0.32478315  0.10079404  1
  O2-  O175  1  0.93145536  0.32069175  0.42219918  1
  O2-  O176  1  0.92583875  0.31740591  0.76397230  1
  O2-  O177  1  0.92631064  0.81503242  0.09263662  1
  O2-  O178  1  0.92643399  0.82059164  0.42010098  1
  O2-  O179  1  0.92619926  0.82180669  0.76670653  1
  O2-  O180  1  0.31897521  0.06774506  0.23215833  1
  O2-  O181  1  0.32805300  0.06956626  0.57886804  1
  O2-  O182  1  0.32346252  0.07365904  0.90941836  1
  O2-  O183  1  0.31864581  0.57161167  0.23549351  1
  O2-  O184  1  0.31751522  0.57012180  0.56941729  1
  O2-  O185  1  0.32109095  0.57218533  0.90137527  1
  O2-  O186  1  0.82427587  0.06901771  0.24658581  1
  O2-  O187  1  0.81809805  0.06902107  0.57522916  1
  O2-  O188  1  0.81958583  0.07178226  0.90182783  1
  O2-  O189  1  0.82113594  0.56991869  0.23422105  1
  O2-  O190  1  0.81871304  0.57559959  0.57980265  1
  O2-  O191  1  0.82093672  0.57272609  0.90621271  1
  O2-  O192  1  0.04057281  0.08210331  0.26182954  1
  O2-  O193  1  0.03686332  0.08393334  0.59700353  1
  O2-  O194  1  0.04339676  0.07974981  0.94128553  1
  O2-  O195  1  0.04147728  0.58635043  0.26831784  1
  O2-  O196  1  0.04634096  0.58196671  0.59860860  1
  O2-  O197  1  0.04575200  0.59028960  0.93582123  1
  O2-  O198  1  0.53554989  0.08498616  0.26175149  1
  O2-  O199  1  0.54424423  0.07909508  0.60095057  1
  O2-  O200  1  0.54735105  0.08258107  0.93897408  1
  O2-  O201  1  0.55336192  0.58183288  0.27379189  1
  O2-  O202  1  0.55098663  0.58250119  0.60600471  1
  O2-  O203  1  0.54465166  0.58908748  0.93543732  1
  O2-  O204  1  0.17036741  0.20800990  0.26282858  1
  O2-  O205  1  0.17238034  0.19869539  0.60314498  1
  O2-  O206  1  0.16455169  0.19677805  0.93533154  1
  O2-  O207  1  0.15908345  0.70840947  0.26457857  1
  O2-  O208  1  0.16806611  0.71303865  0.59677081  1
  O2-  O209  1  0.16449162  0.71066430  0.94053189  1
  O2-  O210  1  0.67087870  0.20500450  0.26490314  1
  O2-  O211  1  0.66467369  0.20931804  0.59809774  1
  O2-  O212  1  0.66463052  0.20405804  0.93859667  1
  O2-  O213  1  0.66599523  0.70844217  0.26901544  1
  O2-  O214  1  0.66709794  0.70125587  0.60327815  1
  O2-  O215  1  0.66410767  0.70697484  0.93587747  1
  O2-  O216  1  0.08623512  0.45985896  0.06228020  1
  O2-  O217  1  0.08354111  0.45690095  0.40155388  1
  O2-  O218  1  0.08062366  0.45422332  0.73026620  1
  O2-  O219  1  0.08281674  0.95344242  0.07054990  1
  O2-  O220  1  0.07972354  0.95146238  0.39226906  1
  O2-  O221  1  0.08099375  0.96049292  0.73112457  1
  O2-  O222  1  0.59234418  0.46414305  0.06253565  1
  O2-  O223  1  0.58306355  0.45522450  0.40592705  1
  O2-  O224  1  0.59177998  0.45861063  0.73338776  1
  O2-  O225  1  0.57637052  0.95154462  0.06594326  1
  O2-  O226  1  0.58184808  0.96267898  0.40033686  1
  O2-  O227  1  0.58547199  0.95601334  0.73066340  1
  O2-  O228  1  0.19589330  0.33032220  0.05523918  1
  O2-  O229  1  0.20648609  0.32879978  0.40004163  1
  O2-  O230  1  0.19611609  0.33097353  0.73128903  1
  O2-  O231  1  0.21263252  0.83496933  0.07131597  1
  O2-  O232  1  0.19965083  0.83340720  0.39256294  1
  O2-  O233  1  0.21320214  0.83702978  0.73334975  1
  O2-  O234  1  0.70285520  0.33725821  0.05919279  1
  O2-  O235  1  0.70765453  0.32672549  0.40249680  1
  O2-  O236  1  0.71046218  0.33597179  0.73066780  1
  O2-  O237  1  0.70832995  0.82991674  0.06891595  1
  O2-  O238  1  0.70906822  0.83642507  0.40316098  1
  O2-  O239  1  0.70212451  0.83430689  0.72801945  1
  O2-  O240  1  0.45460665  0.42001177  0.27572853  1
  O2-  O241  1  0.46454400  0.41996879  0.59827532  1
  O2-  O242  1  0.46531576  0.41879887  0.93382903  1
  O2-  O243  1  0.46198342  0.91397601  0.26190486  1
  O2-  O244  1  0.45954179  0.91442571  0.60095187  1
  O2-  O245  1  0.45135900  0.91309207  0.93726526  1
  O2-  O246  1  0.95494435  0.41762763  0.27296410  1
  O2-  O247  1  0.94525993  0.42354227  0.60115504  1
  O2-  O248  1  0.96033368  0.41681576  0.93076399  1
  O2-  O249  1  0.95338186  0.91118889  0.26598533  1
  O2-  O250  1  0.95302306  0.91963619  0.59740647  1
  O2-  O251  1  0.95205448  0.91431059  0.94460363  1
  O2-  O252  1  0.33757193  0.29555546  0.27149438  1
  O2-  O253  1  0.32646721  0.30795936  0.60297153  1
  O2-  O254  1  0.33218734  0.29718410  0.93222377  1
  O2-  O255  1  0.33023922  0.79085769  0.26204173  1
  O2-  O256  1  0.33493078  0.78760934  0.60057424  1
  O2-  O257  1  0.33635407  0.78771937  0.93854148  1
  O2-  O258  1  0.83677177  0.29647959  0.27138471  1
  O2-  O259  1  0.83241033  0.28782758  0.59560432  1
  O2-  O260  1  0.83148285  0.29348285  0.93352498  1
  O2-  O261  1  0.83385207  0.79065315  0.26901878  1
  O2-  O262  1  0.82855579  0.79288332  0.59963462  1
  O2-  O263  1  0.83708850  0.78982524  0.93892280  1
  O2-  O264  1  0.41452672  0.04756476  0.06150686  1
  O2-  O265  1  0.41463509  0.03426511  0.39987717  1
  O2-  O266  1  0.41569702  0.04253399  0.73294458  1
  O2-  O267  1  0.42051154  0.54337381  0.06796846  1
  O2-  O268  1  0.42178524  0.55522868  0.40112342  1
  O2-  O269  1  0.41924476  0.54150598  0.73449595  1
  O2-  O270  1  0.91612406  0.04348235  0.07224609  1
  O2-  O271  1  0.91668170  0.04009250  0.39692538  1
  O2-  O272  1  0.90974442  0.04281357  0.72892831  1
  O2-  O273  1  0.91725430  0.54665989  0.05684503  1
  O2-  O274  1  0.92052171  0.54793828  0.40258785  1
  O2-  O275  1  0.91586297  0.54870845  0.73023369  1
  O2-  O276  1  0.29673974  0.16893507  0.06046664  1
  O2-  O277  1  0.29378118  0.16529294  0.40022887  1
  O2-  O278  1  0.30439792  0.17049110  0.72674573  1
  O2-  O279  1  0.28729207  0.66287808  0.07027003  1
  O2-  O280  1  0.28545762  0.67110623  0.39900804  1
  O2-  O281  1  0.28672954  0.66521486  0.73615609  1
  O2-  O282  1  0.79402703  0.17223717  0.06995702  1
  O2-  O283  1  0.80409835  0.16678643  0.39553148  1
  O2-  O284  1  0.78835719  0.16159232  0.72748098  1
  O2-  O285  1  0.79293710  0.66008461  0.06099762  1
  O2-  O286  1  0.79111229  0.66830198  0.40307903  1
  O2-  O287  1  0.79100577  0.66327260  0.73368632  1
