# generated using pymatgen
data_Ca2Al2SiO7
_symmetry_space_group_name_H-M   'P 1'
_cell_length_a   15.45701948
_cell_length_b   15.45648760
_cell_length_c   15.28331000
_cell_angle_alpha   89.99692821
_cell_angle_beta   89.98946091
_cell_angle_gamma   90.00191034
_symmetry_Int_Tables_number   1
_chemical_formula_structural   Ca2Al2SiO7
_chemical_formula_sum   'Ca48 Al48 Si24 O168'
_cell_volume   3651.35432029
_cell_formula_units_Z   24
loop_
 _symmetry_equiv_pos_site_id
 _symmetry_equiv_pos_as_xyz
  1  'x, y, z'
loop_
 _atom_type_symbol
 _atom_type_oxidation_number
  Ca2+  2.0
  Al0+  0.0
  Si0+  0.0
  O2-  -2.0
loop_
 _atom_site_type_symbol
 _atom_site_label
 _atom_site_symmetry_multiplicity
 _atom_site_fract_x
 _atom_site_fract_y
 _atom_site_fract_z
 _atom_site_occupancy
  Ca2+  Ca0  1  0.16860874  0.08789281  0.17517444  1
  Ca2+  Ca1  1  0.17817142  0.09303805  0.49820028  1
  Ca2+  Ca2  1  0.17237901  0.08977399  0.83698876  1
  Ca2+  Ca3  1  0.17357059  0.56986436  0.17085935  1
  Ca2+  Ca4  1  0.17141876  0.57934360  0.49935306  1
  Ca2+  Ca5  1  0.16812887  0.57770117  0.84334780  1
  Ca2+  Ca6  1  0.67506434  0.08695562  0.17329205  1
  Ca2+  Ca7  1  0.65764583  0.07415726  0.49845688  1
  Ca2+  Ca8  1  0.67048801  0.08092177  0.83994007  1
  Ca2+  Ca9  1  0.67761064  0.58388991  0.16986802  1
  Ca2+  Ca10  1  0.67272271  0.58417262  0.49976772  1
  Ca2+  Ca11  1  0.67388272  0.57669735  0.84144771  1
  Ca2+  Ca12  1  0.08569382  0.32621600  0.16320931  1
  Ca2+  Ca13  1  0.07956787  0.32992077  0.49310008  1
  Ca2+  Ca14  1  0.07580406  0.33570870  0.83574138  1
  Ca2+  Ca15  1  0.07488019  0.83179775  0.15805209  1
  Ca2+  Ca16  1  0.08741566  0.82433489  0.49692382  1
  Ca2+  Ca17  1  0.07538700  0.82663425  0.83118924  1
  Ca2+  Ca18  1  0.58148850  0.32302172  0.16449718  1
  Ca2+  Ca19  1  0.56843364  0.32681908  0.48960633  1
  Ca2+  Ca20  1  0.58008615  0.32578969  0.82886831  1
  Ca2+  Ca21  1  0.57321058  0.84000993  0.16536756  1
  Ca2+  Ca22  1  0.58309382  0.83826271  0.49162246  1
  Ca2+  Ca23  1  0.58078397  0.83415699  0.83285534  1
  Ca2+  Ca24  1  0.32439408  0.41831825  0.17601645  1
  Ca2+  Ca25  1  0.32901402  0.40780508  0.50129154  1
  Ca2+  Ca26  1  0.32730278  0.42121227  0.84474823  1
  Ca2+  Ca27  1  0.33561311  0.91861239  0.17326737  1
  Ca2+  Ca28  1  0.34187462  0.93102174  0.49998617  1
  Ca2+  Ca29  1  0.33334703  0.92128913  0.83711819  1
  Ca2+  Ca30  1  0.84192827  0.42591583  0.16885048  1
  Ca2+  Ca31  1  0.83646956  0.41830932  0.50129530  1
  Ca2+  Ca32  1  0.84124579  0.41822866  0.84215919  1
  Ca2+  Ca33  1  0.83136882  0.92820941  0.17363929  1
  Ca2+  Ca34  1  0.82206340  0.92538284  0.50107492  1
  Ca2+  Ca35  1  0.82835571  0.91983575  0.84249851  1
  Ca2+  Ca36  1  0.42715156  0.16410922  0.16761013  1
  Ca2+  Ca37  1  0.41449721  0.17170974  0.48913323  1
  Ca2+  Ca38  1  0.42048785  0.17042227  0.82839276  1
  Ca2+  Ca39  1  0.40577642  0.67505631  0.16340433  1
  Ca2+  Ca40  1  0.41716152  0.67486818  0.48810131  1
  Ca2+  Ca41  1  0.40885854  0.67238651  0.83378217  1
  Ca2+  Ca42  1  0.92501139  0.16504991  0.15575798  1
  Ca2+  Ca43  1  0.92005916  0.16992469  0.49132452  1
  Ca2+  Ca44  1  0.91849178  0.17447476  0.83448981  1
  Ca2+  Ca45  1  0.91072626  0.67098796  0.16006517  1
  Ca2+  Ca46  1  0.92183944  0.66416314  0.49585061  1
  Ca2+  Ca47  1  0.91937662  0.66777384  0.83037770  1
  Al0+  Al48  1  0.00031450  -0.00090546  -0.00781302  1
  Al0+  Al49  1  -0.00086413  -0.00140037  0.33641372  1
  Al0+  Al50  1  0.00000828  -0.00077630  0.66608751  1
  Al0+  Al51  1  0.00185184  0.49943916  0.00666233  1
  Al0+  Al52  1  0.00204621  0.50039753  0.34109868  1
  Al0+  Al53  1  0.00175868  0.50030315  0.65862493  1
  Al0+  Al54  1  0.49895244  -0.00104741  -0.01004721  1
  Al0+  Al55  1  0.49939267  -0.00045393  0.33179773  1
  Al0+  Al56  1  0.50020360  -0.00086083  0.67753232  1
  Al0+  Al57  1  0.50147105  0.50230460  0.00507660  1
  Al0+  Al58  1  0.50103850  0.50242271  0.33114490  1
  Al0+  Al59  1  0.50080276  0.50087608  0.66394983  1
  Al0+  Al60  1  0.25140256  0.24910292  0.00064234  1
  Al0+  Al61  1  0.24727630  0.25041705  0.33323152  1
  Al0+  Al62  1  0.24939058  0.25117242  0.67100795  1
  Al0+  Al63  1  0.24944743  0.75211601  -0.00240489  1
  Al0+  Al64  1  0.24894310  0.74727549  0.33143193  1
  Al0+  Al65  1  0.24963966  0.75100378  0.66214297  1
  Al0+  Al66  1  0.74976613  0.24843112  -0.00472405  1
  Al0+  Al67  1  0.75092947  0.25331129  0.33416749  1
  Al0+  Al68  1  0.74969179  0.24948526  0.66087068  1
  Al0+  Al69  1  0.74648081  0.74991569  -0.00092793  1
  Al0+  Al70  1  0.75028576  0.74981413  0.34176458  1
  Al0+  Al71  1  0.74963039  0.75035788  0.67122217  1
  Al0+  Al72  1  0.42956684  0.81961310  0.32072071  1
  Al0+  Al73  1  0.07420253  0.17719908  0.98370136  1
  Al0+  Al74  1  0.17999152  0.42690248  0.01614582  1
  Al0+  Al75  1  0.82072078  0.57081809  0.01174579  1
  Al0+  Al76  1  0.82046815  0.57053605  0.34911449  1
  Al0+  Al77  1  0.32219595  0.57384747  0.01453333  1
  Al0+  Al78  1  0.42672766  0.32274690  0.31683097  1
  Al0+  Al79  1  0.68032229  0.92917108  0.68419674  1
  Al0+  Al80  1  0.42821746  0.81915735  0.98395979  1
  Al0+  Al81  1  0.92907260  0.32013136  0.65131345  1
  Al0+  Al82  1  0.31855484  0.07160906  0.68212892  1
  Al0+  Al83  1  0.82389556  0.07490619  0.34803825  1
  Al0+  Al84  1  0.32280857  0.57232366  0.34981428  1
  Al0+  Al85  1  0.42903575  0.32128439  0.65503948  1
  Al0+  Al86  1  0.57166920  0.17841005  0.31903343  1
  Al0+  Al87  1  0.18126235  0.42827508  0.35232813  1
  Al0+  Al88  1  0.57103193  0.17922752  0.98439561  1
  Al0+  Al89  1  0.93035810  0.32197954  0.98789599  1
  Al0+  Al90  1  0.31903850  0.06863792  0.34311541  1
  Al0+  Al91  1  0.92561467  0.82112299  0.98757620  1
  Al0+  Al92  1  0.82115558  0.07020945  0.01150710  1
  Al0+  Al93  1  0.07061759  0.68028988  0.65213614  1
  Al0+  Al94  1  0.67922166  0.93186820  0.34590331  1
  Al0+  Al95  1  0.06789290  0.17802035  0.32101955  1
  Si0+  Si96  1  0.57024806  0.17624576  0.64984066  1
  Si0+  Si97  1  0.67679627  0.42752260  0.35102690  1
  Si0+  Si98  1  0.82376075  0.07392336  0.68442175  1
  Si0+  Si99  1  0.42947183  0.32375328  0.98505998  1
  Si0+  Si100  1  0.43061016  0.82083442  0.65134155  1
  Si0+  Si101  1  0.17557921  0.92516343  0.34865110  1
  Si0+  Si102  1  0.07240520  0.17711136  0.64981548  1
  Si0+  Si103  1  0.82205584  0.56789283  0.68186690  1
  Si0+  Si104  1  0.67756577  0.42583809  0.01619805  1
  Si0+  Si105  1  0.57271879  0.67648673  0.98223894  1
  Si0+  Si106  1  0.17767218  0.92498566  0.68374470  1
  Si0+  Si107  1  0.17867422  0.92971220  0.01299317  1
  Si0+  Si108  1  0.67804727  0.42881030  0.68006070  1
  Si0+  Si109  1  0.92851168  0.32423318  0.31682393  1
  Si0+  Si110  1  0.32191070  0.06956710  0.01483555  1
  Si0+  Si111  1  0.92539766  0.82190837  0.64855661  1
  Si0+  Si112  1  0.17906425  0.43106690  0.68307705  1
  Si0+  Si113  1  0.32220209  0.57295947  0.68072670  1
  Si0+  Si114  1  0.57555949  0.67843795  0.31637927  1
  Si0+  Si115  1  0.07033490  0.67797215  0.31614910  1
  Si0+  Si116  1  0.92831161  0.81875406  0.32053520  1
  Si0+  Si117  1  0.57239885  0.67891343  0.65177188  1
  Si0+  Si118  1  0.06991825  0.67939041  0.98598269  1
  Si0+  Si119  1  0.67617115  0.92879228  0.01684717  1
  O2-  O120  1  0.24673431  0.00265375  0.05609393  1
  O2-  O121  1  0.24465641  -0.00606622  0.39185582  1
  O2-  O122  1  0.24182651  -0.00225711  0.72829488  1
  O2-  O123  1  0.25601295  0.49655906  0.06340495  1
  O2-  O124  1  0.25714410  0.49657844  0.40310013  1
  O2-  O125  1  0.25247137  0.50102556  0.72369608  1
  O2-  O126  1  0.74682261  -0.00446692  0.05954305  1
  O2-  O127  1  0.74752473  0.00686429  0.39755039  1
  O2-  O128  1  0.75634443  0.00362523  0.72858280  1
  O2-  O129  1  0.74847804  0.49369821  0.05850870  1
  O2-  O130  1  0.74646711  0.49547372  0.39618490  1
  O2-  O131  1  0.75299315  0.49517745  0.72432118  1
  O2-  O132  1  -0.00976083  0.24924579  0.27384865  1
  O2-  O133  1  -0.00007385  0.24152865  0.60570930  1
  O2-  O134  1  0.00186105  0.25028898  0.93591317  1
  O2-  O135  1  -0.00034244  0.74966546  0.27529445  1
  O2-  O136  1  -0.00317811  0.75607693  0.60421605  1
  O2-  O137  1  -0.00287137  0.74315385  0.94056503  1
  O2-  O138  1  0.50082338  0.25177056  0.26866739  1
  O2-  O139  1  0.50124220  0.24489288  0.60705356  1
  O2-  O140  1  0.49795827  0.25629405  0.93843118  1
  O2-  O141  1  0.50280386  0.74336934  0.27337602  1
  O2-  O142  1  0.50192187  0.75026206  0.60937679  1
  O2-  O143  1  0.50029266  0.74144736  0.93762966  1
  O2-  O144  1  0.07288707  0.17462730  0.09701087  1
  O2-  O145  1  0.06851596  0.18013315  0.43460315  1
  O2-  O146  1  0.07314678  0.17911852  0.75519366  1
  O2-  O147  1  0.07054271  0.68342472  0.09138493  1
  O2-  O148  1  0.07028217  0.67989243  0.42170637  1
  O2-  O149  1  0.06830355  0.67973340  0.76547693  1
  O2-  O150  1  0.57016062  0.17784303  0.09700960  1
  O2-  O151  1  0.56698995  0.17791752  0.43303990  1
  O2-  O152  1  0.57061398  0.17896816  0.75570611  1
  O2-  O153  1  0.57815559  0.67882962  0.08709281  1
  O2-  O154  1  0.57719227  0.68108358  0.42267269  1
  O2-  O155  1  0.57212636  0.67706998  0.75668220  1
  O2-  O156  1  0.17845669  0.43009580  0.23925883  1
  O2-  O157  1  0.17946291  0.43056634  0.57842979  1
  O2-  O158  1  0.17927309  0.43095923  0.90138310  1
  O2-  O159  1  0.17365872  0.92476668  0.24285585  1
  O2-  O160  1  0.18051349  0.92115022  0.57845609  1
  O2-  O161  1  0.18149796  0.92703319  0.90774080  1
  O2-  O162  1  0.67797864  0.42806315  0.24553636  1
  O2-  O163  1  0.67682391  0.43344986  0.57550150  1
  O2-  O164  1  0.67531377  0.42879843  0.90988437  1
  O2-  O165  1  0.68148729  0.92925386  0.23265143  1
  O2-  O166  1  0.67875426  0.92897093  0.57140352  1
  O2-  O167  1  0.67782170  0.92955507  0.91076980  1
  O2-  O168  1  0.43068597  0.32177759  0.09003901  1
  O2-  O169  1  0.42770087  0.31888019  0.43111578  1
  O2-  O170  1  0.43249130  0.32288759  0.76834813  1
  O2-  O171  1  0.42868685  0.82147853  0.09668069  1
  O2-  O172  1  0.43195624  0.82071589  0.43442800  1
  O2-  O173  1  0.42939752  0.81803294  0.75650136  1
  O2-  O174  1  0.93036580  0.32248500  0.10090869  1
  O2-  O175  1  0.93172091  0.32499784  0.42293382  1
  O2-  O176  1  0.93118592  0.32394576  0.76406550  1
  O2-  O177  1  0.92828843  0.82088173  0.10095633  1
  O2-  O178  1  0.93007000  0.81636367  0.42580234  1
  O2-  O179  1  0.92498937  0.81870185  0.75431381  1
  O2-  O180  1  0.31926418  0.06543312  0.22997910  1
  O2-  O181  1  0.31952030  0.07062566  0.56903537  1
  O2-  O182  1  0.32130797  0.06795815  0.90929762  1
  O2-  O183  1  0.31556341  0.57580112  0.23693635  1
  O2-  O184  1  0.32199000  0.57467396  0.57630241  1
  O2-  O185  1  0.31826357  0.57341551  0.89962548  1
  O2-  O186  1  0.82677393  0.07010543  0.23441839  1
  O2-  O187  1  0.82410290  0.07287380  0.57908198  1
  O2-  O188  1  0.81907034  0.06857933  0.89803863  1
  O2-  O189  1  0.81985787  0.57215664  0.23601432  1
  O2-  O190  1  0.81997914  0.56854819  0.57689406  1
  O2-  O191  1  0.81950910  0.57012502  0.89791738  1
  O2-  O192  1  0.04318365  0.07843874  0.26918147  1
  O2-  O193  1  0.05412340  0.08051234  0.60624628  1
  O2-  O194  1  0.04688149  0.07993222  0.92751805  1
  O2-  O195  1  0.03995601  0.58612142  0.27179781  1
  O2-  O196  1  0.03881887  0.58631039  0.59446427  1
  O2-  O197  1  0.04764925  0.58464813  0.94161857  1
  O2-  O198  1  0.54133742  0.08151331  0.26483853  1
  O2-  O199  1  0.54277738  0.08113311  0.60883145  1
  O2-  O200  1  0.53724784  0.08514440  0.92709605  1
  O2-  O201  1  0.55740086  0.58356249  0.27089547  1
  O2-  O202  1  0.54564814  0.58798257  0.60230129  1
  O2-  O203  1  0.55195175  0.58106484  0.93662280  1
  O2-  O204  1  0.16325416  0.21030251  0.26664280  1
  O2-  O205  1  0.16481654  0.20852967  0.60498318  1
  O2-  O206  1  0.17321152  0.20595363  0.93088220  1
  O2-  O207  1  0.16115279  0.70533511  0.26779566  1
  O2-  O208  1  0.16655676  0.71200738  0.59599206  1
  O2-  O209  1  0.16049779  0.71054772  0.93663959  1
  O2-  O210  1  0.67140890  0.20733312  0.26801157  1
  O2-  O211  1  0.66395066  0.19947245  0.60370102  1
  O2-  O212  1  0.66631804  0.20889213  0.92710927  1
  O2-  O213  1  0.66856884  0.70828313  0.27120443  1
  O2-  O214  1  0.66497043  0.70675389  0.60541462  1
  O2-  O215  1  0.66323446  0.70628628  0.93102296  1
  O2-  O216  1  0.08429564  0.45812206  0.07181462  1
  O2-  O217  1  0.08530571  0.46250812  0.40745546  1
  O2-  O218  1  0.08761603  0.46394746  0.72830657  1
  O2-  O219  1  0.08530279  0.95316142  0.05860559  1
  O2-  O220  1  0.08314268  0.94854110  0.39790503  1
  O2-  O221  1  0.08106631  0.94459104  0.72696939  1
  O2-  O222  1  0.58607934  0.45343422  0.06520291  1
  O2-  O223  1  0.58382513  0.45503921  0.39757229  1
  O2-  O224  1  0.58853489  0.46151799  0.73007397  1
  O2-  O225  1  0.58159768  0.95697064  0.05853418  1
  O2-  O226  1  0.58086028  0.95859205  0.40075501  1
  O2-  O227  1  0.58474485  0.95833734  0.74107920  1
  O2-  O228  1  0.20682240  0.32758842  0.06775327  1
  O2-  O229  1  0.20634341  0.32933568  0.40592049  1
  O2-  O230  1  0.20413651  0.33937106  0.73148762  1
  O2-  O231  1  0.20812824  0.83927686  0.06203816  1
  O2-  O232  1  0.20177973  0.83166682  0.39412911  1
  O2-  O233  1  0.20847460  0.83327022  0.73192531  1
  O2-  O234  1  0.70121332  0.33168084  0.06007302  1
  O2-  O235  1  0.70101981  0.33491800  0.39984290  1
  O2-  O236  1  0.70098234  0.33420822  0.72425270  1
  O2-  O237  1  0.69699009  0.83363770  0.06033881  1
  O2-  O238  1  0.70985537  0.83545853  0.40292162  1
  O2-  O239  1  0.70982388  0.83160326  0.73891744  1
  O2-  O240  1  0.45314070  0.42298903  0.26673283  1
  O2-  O241  1  0.46049561  0.41747332  0.60000393  1
  O2-  O242  1  0.45343513  0.41919476  0.94105235  1
  O2-  O243  1  0.46104820  0.91449648  0.26464818  1
  O2-  O244  1  0.46012043  0.91404505  0.60843656  1
  O2-  O245  1  0.46103742  0.91291024  0.92547827  1
  O2-  O246  1  0.96117089  0.41693069  0.27304508  1
  O2-  O247  1  0.96238844  0.41502116  0.59553038  1
  O2-  O248  1  0.96062654  0.42112412  0.93478924  1
  O2-  O249  1  0.95475553  0.91095067  0.27385587  1
  O2-  O250  1  0.94756561  0.91723932  0.60469692  1
  O2-  O251  1  0.96061330  0.91302203  0.92772699  1
  O2-  O252  1  0.32888582  0.29251876  0.26594539  1
  O2-  O253  1  0.33093368  0.29180682  0.60393911  1
  O2-  O254  1  0.33638635  0.29690953  0.93850105  1
  O2-  O255  1  0.33175451  0.79061066  0.26699655  1
  O2-  O256  1  0.33899011  0.79453993  0.60365626  1
  O2-  O257  1  0.33138155  0.79026536  0.92754327  1
  O2-  O258  1  0.83161954  0.31042109  0.27474748  1
  O2-  O259  1  0.83077950  0.29513206  0.59666842  1
  O2-  O260  1  0.83207422  0.29582160  0.93269923  1
  O2-  O261  1  0.83695995  0.78818219  0.27466737  1
  O2-  O262  1  0.83279431  0.79169714  0.60318798  1
  O2-  O263  1  0.82869196  0.79239145  0.93302110  1
  O2-  O264  1  0.41287575  0.03539729  0.05900768  1
  O2-  O265  1  0.41413393  0.03699997  0.39935728  1
  O2-  O266  1  0.41318511  0.03862456  0.73875148  1
  O2-  O267  1  0.42383332  0.55665778  0.06459836  1
  O2-  O268  1  0.42609843  0.55600359  0.39724166  1
  O2-  O269  1  0.41541242  0.54772483  0.72712690  1
  O2-  O270  1  0.91905878  0.03811137  0.06186102  1
  O2-  O271  1  0.91876308  0.03926292  0.40500737  1
  O2-  O272  1  0.91894775  0.05046634  0.72884586  1
  O2-  O273  1  0.91701468  0.54498724  0.06790554  1
  O2-  O274  1  0.91628346  0.54054597  0.40469331  1
  O2-  O275  1  0.91533058  0.54098322  0.72629933  1
  O2-  O276  1  0.30013417  0.16273711  0.06073050  1
  O2-  O277  1  0.28681443  0.16391100  0.39838985  1
  O2-  O278  1  0.28844604  0.16785205  0.73842060  1
  O2-  O279  1  0.28822194  0.67140998  0.06544751  1
  O2-  O280  1  0.28759409  0.66918537  0.40406037  1
  O2-  O281  1  0.29225046  0.66509645  0.72710190  1
  O2-  O282  1  0.79095754  0.16725664  0.06388466  1
  O2-  O283  1  0.80264851  0.17592304  0.39813386  1
  O2-  O284  1  0.79558684  0.16809997  0.72852461  1
  O2-  O285  1  0.78634201  0.66674562  0.06564074  1
  O2-  O286  1  0.78883927  0.66484258  0.40762782  1
  O2-  O287  1  0.79302494  0.65961949  0.72872585  1
