# generated using pymatgen
data_Ca2Al2SiO7
_symmetry_space_group_name_H-M   'P 1'
_cell_length_a   15.46728720
_cell_length_b   15.46991387
_cell_length_c   15.29268649
_cell_angle_alpha   90.02052374
_cell_angle_beta   90.02139637
_cell_angle_gamma   90.00783973
_symmetry_Int_Tables_number   1
_chemical_formula_structural   Ca2Al2SiO7
_chemical_formula_sum   'Ca48 Al48 Si24 O168'
_cell_volume   3659.19680830
_cell_formula_units_Z   24
loop_
 _symmetry_equiv_pos_site_id
 _symmetry_equiv_pos_as_xyz
  1  'x, y, z'
loop_
 _atom_type_symbol
 _atom_type_oxidation_number
  Ca2+  2.0
  Al0+  0.0
  Si0+  0.0
  O2-  -2.0
loop_
 _atom_site_type_symbol
 _atom_site_label
 _atom_site_symmetry_multiplicity
 _atom_site_fract_x
 _atom_site_fract_y
 _atom_site_fract_z
 _atom_site_occupancy
  Ca2+  Ca0  1  0.17663597  0.06999057  0.17491092  1
  Ca2+  Ca1  1  0.17280264  0.07138528  0.50066607  1
  Ca2+  Ca2  1  0.16892285  0.07066877  0.83621502  1
  Ca2+  Ca3  1  0.16567289  0.58452263  0.17408727  1
  Ca2+  Ca4  1  0.16980185  0.58550909  0.51080471  1
  Ca2+  Ca5  1  0.17130356  0.58724748  0.83074542  1
  Ca2+  Ca6  1  0.66791451  0.07734516  0.17257383  1
  Ca2+  Ca7  1  0.66460072  0.06993276  0.49692638  1
  Ca2+  Ca8  1  0.66965128  0.07321534  0.84066502  1
  Ca2+  Ca9  1  0.65574580  0.57546660  0.17015150  1
  Ca2+  Ca10  1  0.65921657  0.58227740  0.51052136  1
  Ca2+  Ca11  1  0.65272636  0.57213974  0.83262446  1
  Ca2+  Ca12  1  0.07883319  0.32790294  0.16230461  1
  Ca2+  Ca13  1  0.08547349  0.33378108  0.49736179  1
  Ca2+  Ca14  1  0.08367425  0.33112222  0.82509993  1
  Ca2+  Ca15  1  0.08163639  0.84111723  0.16632554  1
  Ca2+  Ca16  1  0.07755760  0.83427381  0.49381848  1
  Ca2+  Ca17  1  0.07689344  0.83573982  0.82192642  1
  Ca2+  Ca18  1  0.58857263  0.31849486  0.16082524  1
  Ca2+  Ca19  1  0.57901708  0.32966889  0.49681711  1
  Ca2+  Ca20  1  0.58679128  0.32877948  0.82718736  1
  Ca2+  Ca21  1  0.57305270  0.84641150  0.16353623  1
  Ca2+  Ca22  1  0.58458490  0.82558652  0.49040973  1
  Ca2+  Ca23  1  0.58021099  0.83505480  0.82616181  1
  Ca2+  Ca24  1  0.33349780  0.42032567  0.17094185  1
  Ca2+  Ca25  1  0.33080561  0.42498496  0.51459335  1
  Ca2+  Ca26  1  0.33754886  0.42196600  0.82759686  1
  Ca2+  Ca27  1  0.32832533  0.91070090  0.17554957  1
  Ca2+  Ca28  1  0.32509746  0.90771453  0.49901197  1
  Ca2+  Ca29  1  0.32072297  0.90363592  0.83767340  1
  Ca2+  Ca30  1  0.82715896  0.41872016  0.16788662  1
  Ca2+  Ca31  1  0.82499946  0.42286468  0.50643960  1
  Ca2+  Ca32  1  0.82129457  0.42087896  0.83692612  1
  Ca2+  Ca33  1  0.82332844  0.92545635  0.17509228  1
  Ca2+  Ca34  1  0.82729997  0.90962282  0.50167661  1
  Ca2+  Ca35  1  0.82170399  0.91423009  0.83690926  1
  Ca2+  Ca36  1  0.43139534  0.15282635  0.16681035  1
  Ca2+  Ca37  1  0.41631374  0.17231309  0.49282601  1
  Ca2+  Ca38  1  0.42441653  0.17282267  0.82862283  1
  Ca2+  Ca39  1  0.42144475  0.68073565  0.16964986  1
  Ca2+  Ca40  1  0.42452783  0.66807250  0.49742936  1
  Ca2+  Ca41  1  0.42088994  0.67020835  0.82926223  1
  Ca2+  Ca42  1  0.91092455  0.15842447  0.16292339  1
  Ca2+  Ca43  1  0.91330935  0.16734238  0.49403553  1
  Ca2+  Ca44  1  0.91364312  0.16337961  0.83172829  1
  Ca2+  Ca45  1  0.92085512  0.67621299  0.17074815  1
  Ca2+  Ca46  1  0.92670236  0.68003463  0.49632827  1
  Ca2+  Ca47  1  0.92396932  0.67513965  0.82155269  1
  Al0+  Al48  1  0.00150685  -0.00056481  0.00438459  1
  Al0+  Al49  1  0.00053755  0.00236848  0.33526830  1
  Al0+  Al50  1  0.00106214  0.00311094  0.66501996  1
  Al0+  Al51  1  -0.00009014  0.49901667  -0.00043535  1
  Al0+  Al52  1  -0.00260567  0.49876555  0.32897938  1
  Al0+  Al53  1  -0.00078442  0.49894472  0.66726502  1
  Al0+  Al54  1  0.49775916  0.00170855  -0.01201840  1
  Al0+  Al55  1  0.50098480  0.00224160  0.33503710  1
  Al0+  Al56  1  0.50099315  0.00181309  0.66946193  1
  Al0+  Al57  1  0.49774336  0.50024822  0.00715080  1
  Al0+  Al58  1  0.49707884  0.49919298  0.33020319  1
  Al0+  Al59  1  0.49818480  0.49890840  0.66812841  1
  Al0+  Al60  1  0.24882954  0.25085070  -0.00104904  1
  Al0+  Al61  1  0.24747886  0.25056022  0.33391753  1
  Al0+  Al62  1  0.25043026  0.25088086  0.66660088  1
  Al0+  Al63  1  0.25122903  0.74718392  0.00180988  1
  Al0+  Al64  1  0.25213842  0.74603230  0.33217781  1
  Al0+  Al65  1  0.25120812  0.74917341  0.67337048  1
  Al0+  Al66  1  0.75054154  0.25265268  0.00017434  1
  Al0+  Al67  1  0.74841347  0.25195260  0.33382259  1
  Al0+  Al68  1  0.75101436  0.25011262  0.66826709  1
  Al0+  Al69  1  0.75107051  0.74752770  0.00341161  1
  Al0+  Al70  1  0.75403557  0.74508236  0.32694026  1
  Al0+  Al71  1  0.75091588  0.75064027  0.66478266  1
  Al0+  Al72  1  0.18104993  0.92625965  0.34913738  1
  Al0+  Al73  1  0.82028612  0.06997922  0.01274802  1
  Al0+  Al74  1  0.18164799  0.92769579  0.01387822  1
  Al0+  Al75  1  0.43239587  0.82114666  0.32121072  1
  Al0+  Al76  1  0.43046601  0.31902257  0.65357002  1
  Al0+  Al77  1  0.92997995  0.82483270  0.31526009  1
  Al0+  Al78  1  0.67855259  0.43141099  0.01515688  1
  Al0+  Al79  1  0.17707735  0.42808884  0.68196369  1
  Al0+  Al80  1  0.42944248  0.82058635  0.98501615  1
  Al0+  Al81  1  0.07158949  0.67867932  0.31863759  1
  Al0+  Al82  1  0.57395551  0.67575414  0.31844657  1
  Al0+  Al83  1  0.57206711  0.18046172  0.98369753  1
  Al0+  Al84  1  0.32155957  0.57179701  0.68356221  1
  Al0+  Al85  1  0.82021388  0.07334111  0.34920472  1
  Al0+  Al86  1  0.67976816  0.92557344  0.34730325  1
  Al0+  Al87  1  0.92943930  0.82452775  0.65219738  1
  Al0+  Al88  1  0.07265628  0.67887741  0.65380127  1
  Al0+  Al89  1  0.67522966  0.92746478  0.01364685  1
  Al0+  Al90  1  0.57023927  0.18141667  0.32103450  1
  Al0+  Al91  1  0.67875472  0.42950297  0.67876629  1
  Al0+  Al92  1  0.56923455  0.68068308  0.65649277  1
  Al0+  Al93  1  0.67910238  0.92721635  0.67943783  1
  Al0+  Al94  1  0.18056412  0.93058249  0.68002496  1
  Al0+  Al95  1  0.32324236  0.07266770  0.34808211  1
  Si0+  Si96  1  0.32042408  0.56781316  0.34907258  1
  Si0+  Si97  1  0.82208756  0.07274629  0.68229875  1
  Si0+  Si98  1  0.07053473  0.17917101  0.98462439  1
  Si0+  Si99  1  0.17610490  0.42924847  0.34660581  1
  Si0+  Si100  1  0.92998035  0.32251142  0.98288150  1
  Si0+  Si101  1  0.92758920  0.32055313  0.65135367  1
  Si0+  Si102  1  0.32026931  0.07539404  0.01401825  1
  Si0+  Si103  1  0.17701394  0.42790510  0.01647504  1
  Si0+  Si104  1  0.82166236  0.57218681  0.68256462  1
  Si0+  Si105  1  0.82381915  0.56866352  0.34868647  1
  Si0+  Si106  1  0.82614650  0.57090723  0.01853448  1
  Si0+  Si107  1  0.42768646  0.82460055  0.65135360  1
  Si0+  Si108  1  0.93039094  0.82137359  0.98543888  1
  Si0+  Si109  1  0.67820437  0.43183021  0.34869894  1
  Si0+  Si110  1  0.31941329  0.56960779  0.01944450  1
  Si0+  Si111  1  0.07072649  0.67703130  0.98470680  1
  Si0+  Si112  1  0.92850908  0.31987256  0.31705263  1
  Si0+  Si113  1  0.57476394  0.17759507  0.64802018  1
  Si0+  Si114  1  0.07160333  0.18027298  0.65035797  1
  Si0+  Si115  1  0.42665859  0.32443862  0.98348066  1
  Si0+  Si116  1  0.42490739  0.32151752  0.31586378  1
  Si0+  Si117  1  0.57229783  0.67632489  0.98456407  1
  Si0+  Si118  1  0.32269477  0.07440861  0.68440253  1
  Si0+  Si119  1  0.07198412  0.17976901  0.31690277  1
  O2-  O120  1  0.25839430  0.00099746  0.05843734  1
  O2-  O121  1  0.25557162  -0.00326060  0.39814547  1
  O2-  O122  1  0.25909290  0.00081826  0.72858008  1
  O2-  O123  1  0.24749536  0.49788390  0.06015656  1
  O2-  O124  1  0.24676147  0.49875449  0.38953282  1
  O2-  O125  1  0.24641840  0.50157597  0.73331736  1
  O2-  O126  1  0.74673367  0.00050493  0.06293999  1
  O2-  O127  1  0.75453330  -0.00451785  0.39823221  1
  O2-  O128  1  0.75485189  0.00236005  0.72451781  1
  O2-  O129  1  0.75121485  0.50820056  0.06213146  1
  O2-  O130  1  0.74389016  0.50736240  0.39086838  1
  O2-  O131  1  0.75026422  0.50645625  0.72730486  1
  O2-  O132  1  -0.00361930  0.24630012  0.27449534  1
  O2-  O133  1  0.00028818  0.25185363  0.60854502  1
  O2-  O134  1  -0.00179749  0.24859237  0.94113385  1
  O2-  O135  1  0.00663799  0.75579871  0.26617948  1
  O2-  O136  1  0.00522410  0.75482984  0.60436495  1
  O2-  O137  1  0.00079454  0.74907492  0.94332859  1
  O2-  O138  1  0.49125948  0.25129062  0.27195914  1
  O2-  O139  1  0.50342698  0.24423860  0.60490860  1
  O2-  O140  1  0.49651671  0.25689911  0.94010271  1
  O2-  O141  1  0.51088510  0.75617022  0.26936522  1
  O2-  O142  1  0.49953013  0.75891355  0.60854066  1
  O2-  O143  1  0.51098174  0.75130621  0.94036018  1
  O2-  O144  1  0.07173821  0.18329997  0.08949763  1
  O2-  O145  1  0.07480067  0.18495939  0.42192113  1
  O2-  O146  1  0.06977442  0.17988019  0.75582856  1
  O2-  O147  1  0.06907281  0.67363571  0.08943654  1
  O2-  O148  1  0.06817745  0.67318522  0.43135318  1
  O2-  O149  1  0.06880024  0.67951265  0.76823550  1
  O2-  O150  1  0.57159919  0.18126763  0.09681863  1
  O2-  O151  1  0.57232741  0.18718686  0.43371802  1
  O2-  O152  1  0.57567961  0.18028750  0.75375812  1
  O2-  O153  1  0.56682311  0.67147284  0.08952472  1
  O2-  O154  1  0.56738363  0.66980711  0.43176047  1
  O2-  O155  1  0.56664688  0.67970020  0.76980805  1
  O2-  O156  1  0.17649429  0.42895457  0.24094008  1
  O2-  O157  1  0.17846825  0.42717430  0.56807764  1
  O2-  O158  1  0.17467969  0.42729661  0.91216770  1
  O2-  O159  1  0.18233217  0.92926821  0.23528160  1
  O2-  O160  1  0.17968129  0.93189748  0.56762049  1
  O2-  O161  1  0.17907333  0.92966912  0.90058343  1
  O2-  O162  1  0.68087054  0.43045758  0.24351492  1
  O2-  O163  1  0.68128531  0.42902744  0.56549809  1
  O2-  O164  1  0.67952402  0.43208718  0.90198485  1
  O2-  O165  1  0.67772207  0.93126065  0.23391055  1
  O2-  O166  1  0.67793145  0.92618491  0.56687862  1
  O2-  O167  1  0.67903774  0.92715881  0.89967631  1
  O2-  O168  1  0.42468603  0.32506572  0.08896848  1
  O2-  O169  1  0.42610217  0.32403285  0.42131871  1
  O2-  O170  1  0.43210649  0.31734087  0.76689637  1
  O2-  O171  1  0.42587721  0.81814428  0.09776800  1
  O2-  O172  1  0.42889338  0.81543714  0.43461149  1
  O2-  O173  1  0.42782354  0.82238113  0.75722812  1
  O2-  O174  1  0.93320874  0.32612292  0.08800226  1
  O2-  O175  1  0.93024817  0.32233314  0.42223000  1
  O2-  O176  1  0.92593051  0.31836266  0.75642276  1
  O2-  O177  1  0.93250983  0.82150942  0.08994314  1
  O2-  O178  1  0.93008933  0.82153102  0.42861774  1
  O2-  O179  1  0.92978329  0.82276128  0.76680615  1
  O2-  O180  1  0.31890423  0.07552256  0.23429329  1
  O2-  O181  1  0.31946332  0.07781626  0.57927869  1
  O2-  O182  1  0.31362795  0.08148548  0.90875304  1
  O2-  O183  1  0.32072548  0.56444845  0.24361508  1
  O2-  O184  1  0.32294186  0.56863951  0.56993858  1
  O2-  O185  1  0.31995762  0.56914790  0.91479439  1
  O2-  O186  1  0.81561090  0.07622417  0.23588366  1
  O2-  O187  1  0.82101407  0.07758377  0.57731889  1
  O2-  O188  1  0.82199143  0.06760320  0.89893990  1
  O2-  O189  1  0.82963234  0.56106474  0.24394773  1
  O2-  O190  1  0.82253730  0.56779615  0.57698781  1
  O2-  O191  1  0.83285795  0.56671696  0.91332768  1
  O2-  O192  1  0.04895969  0.08753817  0.26952483  1
  O2-  O193  1  0.04344834  0.09032389  0.60068476  1
  O2-  O194  1  0.04340737  0.08700241  0.93756595  1
  O2-  O195  1  0.03611806  0.58156530  0.26327700  1
  O2-  O196  1  0.04270924  0.57985802  0.60250083  1
  O2-  O197  1  0.04236625  0.58498181  0.93731273  1
  O2-  O198  1  0.54341046  0.08455068  0.26591842  1
  O2-  O199  1  0.55029457  0.08298581  0.60432319  1
  O2-  O200  1  0.54102618  0.08673440  0.92443088  1
  O2-  O201  1  0.53360301  0.58116168  0.26280512  1
  O2-  O202  1  0.53654923  0.58439664  0.60300110  1
  O2-  O203  1  0.53683104  0.58450881  0.93892246  1
  O2-  O204  1  0.16056686  0.21379668  0.26613765  1
  O2-  O205  1  0.16226934  0.20964365  0.60265061  1
  O2-  O206  1  0.16075327  0.21036784  0.93568325  1
  O2-  O207  1  0.17252010  0.69714726  0.26727705  1
  O2-  O208  1  0.17426976  0.70080889  0.60620164  1
  O2-  O209  1  0.16405496  0.70198477  0.94006710  1
  O2-  O210  1  0.66412987  0.21963684  0.26544139  1
  O2-  O211  1  0.66745700  0.20719134  0.60317205  1
  O2-  O212  1  0.66834396  0.21479180  0.93053665  1
  O2-  O213  1  0.67681218  0.68482018  0.26951828  1
  O2-  O214  1  0.66761263  0.70394099  0.60315103  1
  O2-  O215  1  0.67048836  0.68943823  0.94337976  1
  O2-  O216  1  0.08527541  0.45565515  0.06465071  1
  O2-  O217  1  0.08316433  0.45488824  0.39224885  1
  O2-  O218  1  0.07678109  0.45100573  0.73449353  1
  O2-  O219  1  0.08710599  0.96236623  0.06838034  1
  O2-  O220  1  0.08353742  0.95969804  0.39991269  1
  O2-  O221  1  0.08477691  0.96693797  0.73368636  1
  O2-  O222  1  0.58169115  0.45870826  0.07087269  1
  O2-  O223  1  0.58356768  0.45451713  0.39262525  1
  O2-  O224  1  0.58309539  0.45822733  0.73424893  1
  O2-  O225  1  0.57451834  0.95822790  0.05954866  1
  O2-  O226  1  0.58262639  0.95698814  0.40096106  1
  O2-  O227  1  0.58263363  0.95843901  0.73441645  1
  O2-  O228  1  0.20444898  0.33584947  0.06432865  1
  O2-  O229  1  0.20133798  0.33729193  0.39399581  1
  O2-  O230  1  0.20740785  0.33018511  0.73564227  1
  O2-  O231  1  0.20939055  0.82996700  0.06639364  1
  O2-  O232  1  0.20842304  0.82647306  0.39968517  1
  O2-  O233  1  0.20702940  0.83389070  0.73600774  1
  O2-  O234  1  0.71451025  0.33687195  0.06931686  1
  O2-  O235  1  0.71197317  0.34289459  0.39693924  1
  O2-  O236  1  0.71394807  0.33458500  0.73369168  1
  O2-  O237  1  0.70011449  0.82708931  0.06408391  1
  O2-  O238  1  0.70607225  0.82339797  0.39412848  1
  O2-  O239  1  0.71045320  0.83127704  0.73501041  1
  O2-  O240  1  0.45279236  0.41349882  0.26799992  1
  O2-  O241  1  0.46116861  0.41495874  0.59904571  1
  O2-  O242  1  0.45190585  0.41906547  0.93972966  1
  O2-  O243  1  0.45217939  0.92208090  0.26950055  1
  O2-  O244  1  0.44753725  0.92060288  0.60867699  1
  O2-  O245  1  0.44873843  0.91802990  0.92781466  1
  O2-  O246  1  0.96027920  0.40845995  0.26558939  1
  O2-  O247  1  0.95272904  0.41261072  0.60348206  1
  O2-  O248  1  0.96208552  0.41228250  0.93376988  1
  O2-  O249  1  0.95530019  0.92532668  0.26460900  1
  O2-  O250  1  0.95483333  0.92380033  0.60035320  1
  O2-  O251  1  0.96073299  0.91260937  0.93841867  1
  O2-  O252  1  0.32948206  0.30050378  0.27088725  1
  O2-  O253  1  0.33270873  0.29114530  0.59963362  1
  O2-  O254  1  0.33262609  0.29851508  0.93747317  1
  O2-  O255  1  0.33677729  0.78437363  0.26640907  1
  O2-  O256  1  0.33475031  0.79483404  0.60758176  1
  O2-  O257  1  0.33462018  0.78011137  0.93172225  1
  O2-  O258  1  0.83607838  0.29535171  0.26966411  1
  O2-  O259  1  0.83716298  0.29091910  0.60155301  1
  O2-  O260  1  0.83772076  0.29830848  0.93547364  1
  O2-  O261  1  0.83474119  0.78957650  0.25952309  1
  O2-  O262  1  0.83322865  0.79153494  0.59855792  1
  O2-  O263  1  0.83745599  0.79340314  0.93937278  1
  O2-  O264  1  0.41703056  0.05403530  0.05249552  1
  O2-  O265  1  0.42314004  0.05442593  0.40032630  1
  O2-  O266  1  0.41863841  0.05606512  0.72838900  1
  O2-  O267  1  0.40912532  0.54031211  0.06964118  1
  O2-  O268  1  0.41079576  0.53583414  0.39698566  1
  O2-  O269  1  0.41652822  0.53613771  0.73933109  1
  O2-  O270  1  0.91865852  0.04266725  0.06660803  1
  O2-  O271  1  0.92263604  0.05608205  0.39767183  1
  O2-  O272  1  0.91721056  0.05181860  0.72725197  1
  O2-  O273  1  0.91609605  0.53631058  0.06763210  1
  O2-  O274  1  0.91043261  0.52885190  0.39856694  1
  O2-  O275  1  0.91292574  0.54174551  0.73090336  1
  O2-  O276  1  0.29028702  0.16662905  0.06320896  1
  O2-  O277  1  0.28790067  0.17031679  0.40091031  1
  O2-  O278  1  0.29097201  0.16520277  0.73246791  1
  O2-  O279  1  0.28895982  0.65941850  0.06821704  1
  O2-  O280  1  0.29613221  0.65926858  0.39672042  1
  O2-  O281  1  0.29618700  0.66892350  0.74077817  1
  O2-  O282  1  0.79974489  0.17200983  0.06151160  1
  O2-  O283  1  0.78913176  0.17192925  0.40213408  1
  O2-  O284  1  0.79559573  0.16549952  0.73088578  1
  O2-  O285  1  0.80732719  0.66613126  0.06279671  1
  O2-  O286  1  0.80795656  0.66359835  0.39244135  1
  O2-  O287  1  0.80013891  0.66620446  0.72816393  1
