# generated using pymatgen
data_Ca2Al2SiO7
_symmetry_space_group_name_H-M   'P 1'
_cell_length_a   15.45300120
_cell_length_b   15.45313833
_cell_length_c   15.28033201
_cell_angle_alpha   89.99229095
_cell_angle_beta   90.00197302
_cell_angle_gamma   89.99917930
_symmetry_Int_Tables_number   1
_chemical_formula_structural   Ca2Al2SiO7
_chemical_formula_sum   'Ca48 Al48 Si24 O168'
_cell_volume   3648.90298726
_cell_formula_units_Z   24
loop_
 _symmetry_equiv_pos_site_id
 _symmetry_equiv_pos_as_xyz
  1  'x, y, z'
loop_
 _atom_type_symbol
 _atom_type_oxidation_number
  Ca2+  2.0
  Al0+  0.0
  Si0+  0.0
  O2-  -2.0
loop_
 _atom_site_type_symbol
 _atom_site_label
 _atom_site_symmetry_multiplicity
 _atom_site_fract_x
 _atom_site_fract_y
 _atom_site_fract_z
 _atom_site_occupancy
  Ca2+  Ca0  1  0.17232653  0.08874085  0.16367879  1
  Ca2+  Ca1  1  0.16777070  0.07980426  0.50474426  1
  Ca2+  Ca2  1  0.17233668  0.08218402  0.84414651  1
  Ca2+  Ca3  1  0.17150851  0.57815616  0.17176207  1
  Ca2+  Ca4  1  0.17617497  0.58257290  0.50340232  1
  Ca2+  Ca5  1  0.17625267  0.58637466  0.84060762  1
  Ca2+  Ca6  1  0.66469159  0.08167369  0.17165953  1
  Ca2+  Ca7  1  0.66532472  0.07400008  0.50603340  1
  Ca2+  Ca8  1  0.67504903  0.07767054  0.83862975  1
  Ca2+  Ca9  1  0.67219895  0.58564623  0.17089340  1
  Ca2+  Ca10  1  0.67022946  0.58203810  0.50827184  1
  Ca2+  Ca11  1  0.65445304  0.57949729  0.83417083  1
  Ca2+  Ca12  1  0.08119284  0.33942311  0.16230895  1
  Ca2+  Ca13  1  0.07757289  0.33581714  0.49221712  1
  Ca2+  Ca14  1  0.08948771  0.32941387  0.83517234  1
  Ca2+  Ca15  1  0.08032782  0.82463441  0.15899495  1
  Ca2+  Ca16  1  0.07766733  0.82675100  0.50302547  1
  Ca2+  Ca17  1  0.08193935  0.82230448  0.82545977  1
  Ca2+  Ca18  1  0.58569581  0.31956674  0.16113205  1
  Ca2+  Ca19  1  0.58251689  0.33199032  0.49970940  1
  Ca2+  Ca20  1  0.57841532  0.33038207  0.82573264  1
  Ca2+  Ca21  1  0.58074901  0.82892238  0.16451167  1
  Ca2+  Ca22  1  0.57671571  0.83797767  0.49668844  1
  Ca2+  Ca23  1  0.57924965  0.82179337  0.82470031  1
  Ca2+  Ca24  1  0.32239785  0.42760045  0.17168560  1
  Ca2+  Ca25  1  0.33706999  0.42787813  0.50691213  1
  Ca2+  Ca26  1  0.33343283  0.42791470  0.83999139  1
  Ca2+  Ca27  1  0.33846992  0.91970782  0.16861973  1
  Ca2+  Ca28  1  0.33875984  0.91286818  0.50352731  1
  Ca2+  Ca29  1  0.33695388  0.91942878  0.83593714  1
  Ca2+  Ca30  1  0.83609408  0.42236916  0.17431794  1
  Ca2+  Ca31  1  0.82976373  0.41928425  0.50118413  1
  Ca2+  Ca32  1  0.82409159  0.41599495  0.83300592  1
  Ca2+  Ca33  1  0.82555106  0.92339424  0.17250058  1
  Ca2+  Ca34  1  0.82057969  0.91971633  0.51198430  1
  Ca2+  Ca35  1  0.83398806  0.92070286  0.83323423  1
  Ca2+  Ca36  1  0.42772546  0.16295958  0.15952038  1
  Ca2+  Ca37  1  0.42313895  0.17581709  0.49431042  1
  Ca2+  Ca38  1  0.41860694  0.17198020  0.83000508  1
  Ca2+  Ca39  1  0.41352153  0.66860792  0.16283061  1
  Ca2+  Ca40  1  0.41748362  0.67191295  0.49962511  1
  Ca2+  Ca41  1  0.42082905  0.66485459  0.82382814  1
  Ca2+  Ca42  1  0.92003681  0.17429496  0.15877972  1
  Ca2+  Ca43  1  0.91207544  0.17190152  0.49640935  1
  Ca2+  Ca44  1  0.91816533  0.15881985  0.83219814  1
  Ca2+  Ca45  1  0.92070546  0.66467268  0.15976271  1
  Ca2+  Ca46  1  0.91739065  0.66509802  0.49808276  1
  Ca2+  Ca47  1  0.93165242  0.66980609  0.82486035  1
  Al0+  Al48  1  -0.00177631  0.00274446  0.00301965  1
  Al0+  Al49  1  0.00076609  -0.00020489  0.33239754  1
  Al0+  Al50  1  0.00188659  -0.00099636  0.66546330  1
  Al0+  Al51  1  -0.00188510  0.50051775  -0.00489295  1
  Al0+  Al52  1  -0.00022173  0.49949374  0.33722542  1
  Al0+  Al53  1  0.00108578  0.49663684  0.66369549  1
  Al0+  Al54  1  0.50107922  -0.00056408  -0.00155012  1
  Al0+  Al55  1  0.49949395  -0.00072461  0.32901260  1
  Al0+  Al56  1  0.50164464  -0.00013601  0.66948551  1
  Al0+  Al57  1  0.49953974  0.49942662  0.00518106  1
  Al0+  Al58  1  0.50002918  0.50001714  0.33471064  1
  Al0+  Al59  1  0.49961086  0.49925108  0.66606540  1
  Al0+  Al60  1  0.24866093  0.25022569  0.00536241  1
  Al0+  Al61  1  0.24980895  0.24937755  0.33718511  1
  Al0+  Al62  1  0.25007173  0.25062769  0.66027611  1
  Al0+  Al63  1  0.24903217  0.75157523  0.00033498  1
  Al0+  Al64  1  0.25001236  0.75135989  0.33176734  1
  Al0+  Al65  1  0.25004928  0.74972012  0.66323846  1
  Al0+  Al66  1  0.74990769  0.24888916  -0.00093604  1
  Al0+  Al67  1  0.75221124  0.25072008  0.32341362  1
  Al0+  Al68  1  0.75170401  0.25013041  0.67492006  1
  Al0+  Al69  1  0.74705669  0.75014990  -0.00465412  1
  Al0+  Al70  1  0.74970016  0.75141558  0.34126828  1
  Al0+  Al71  1  0.75173873  0.74991237  0.66639319  1
  Al0+  Al72  1  0.07063407  0.67872842  0.98740151  1
  Al0+  Al73  1  0.32202307  0.57302743  0.35097675  1
  Al0+  Al74  1  0.67847855  0.93157668  0.34662268  1
  Al0+  Al75  1  0.07074794  0.18056519  0.98705723  1
  Al0+  Al76  1  0.17716760  0.42992806  0.01409336  1
  Al0+  Al77  1  0.17905047  0.42838899  0.35091376  1
  Al0+  Al78  1  0.42862961  0.32058809  0.65380107  1
  Al0+  Al79  1  0.92992540  0.82205991  0.65124528  1
  Al0+  Al80  1  0.31847974  0.57064127  0.68067911  1
  Al0+  Al81  1  0.82203283  0.07047855  0.68170317  1
  Al0+  Al82  1  0.43027867  0.82254915  0.65227036  1
  Al0+  Al83  1  0.67960618  0.43105168  0.67987242  1
  Al0+  Al84  1  0.67665911  0.92620740  0.68491811  1
  Al0+  Al85  1  0.57220821  0.17750670  0.98326931  1
  Al0+  Al86  1  0.82105117  0.07111670  0.01730693  1
  Al0+  Al87  1  0.32249564  0.57362438  0.01612409  1
  Al0+  Al88  1  0.07175414  0.67623168  0.64917892  1
  Al0+  Al89  1  0.56897796  0.18058090  0.32060916  1
  Al0+  Al90  1  0.42915136  0.81922673  0.31720960  1
  Al0+  Al91  1  0.57166121  0.67705405  0.65069306  1
  Al0+  Al92  1  0.32202531  0.07024304  0.01270308  1
  Al0+  Al93  1  0.81999322  0.57094707  0.34608350  1
  Al0+  Al94  1  0.57004500  0.67766657  0.98744814  1
  Al0+  Al95  1  0.93161057  0.32085871  0.31953137  1
  Si0+  Si96  1  0.92662841  0.82214465  0.31828130  1
  Si0+  Si97  1  0.42584113  0.32406901  0.31534989  1
  Si0+  Si98  1  0.81931557  0.57115768  0.01109773  1
  Si0+  Si99  1  0.82495295  0.57190500  0.68440431  1
  Si0+  Si100  1  0.57359504  0.17948013  0.65234643  1
  Si0+  Si101  1  0.18055174  0.93020838  0.68070963  1
  Si0+  Si102  1  0.67888301  0.92691517  0.01783528  1
  Si0+  Si103  1  0.82305100  0.07302318  0.34815329  1
  Si0+  Si104  1  0.17717902  0.92892150  0.34848147  1
  Si0+  Si105  1  0.07189477  0.17870837  0.65143201  1
  Si0+  Si106  1  0.92736233  0.31907998  0.65233860  1
  Si0+  Si107  1  0.67839712  0.42823854  0.01579938  1
  Si0+  Si108  1  0.07391193  0.17524595  0.31606943  1
  Si0+  Si109  1  0.92698484  0.82277092  0.98537410  1
  Si0+  Si110  1  0.42768075  0.82154149  0.98352988  1
  Si0+  Si111  1  0.17698740  0.92863066  0.01674598  1
  Si0+  Si112  1  0.67885848  0.42519585  0.34707825  1
  Si0+  Si113  1  0.42875698  0.32024130  0.98612942  1
  Si0+  Si114  1  0.57421156  0.67711338  0.31776910  1
  Si0+  Si115  1  0.32131745  0.06928591  0.34859571  1
  Si0+  Si116  1  0.17664328  0.42554740  0.68389179  1
  Si0+  Si117  1  0.32083959  0.07351621  0.67940115  1
  Si0+  Si118  1  0.06876492  0.68101593  0.31831275  1
  Si0+  Si119  1  0.92707966  0.32307675  0.97993401  1
  O2-  O120  1  0.24758818  -0.00442358  0.06105648  1
  O2-  O121  1  0.24704744  0.00145382  0.39062103  1
  O2-  O122  1  0.25328182  -0.00030592  0.72217842  1
  O2-  O123  1  0.24675213  0.50412560  0.06389571  1
  O2-  O124  1  0.25432021  0.49653438  0.40094997  1
  O2-  O125  1  0.24220321  0.49678035  0.72709843  1
  O2-  O126  1  0.74562088  -0.00283540  0.06332749  1
  O2-  O127  1  0.75450936  0.00563494  0.39269270  1
  O2-  O128  1  0.75111864  -0.00229313  0.73232308  1
  O2-  O129  1  0.74905960  0.50070459  0.05594971  1
  O2-  O130  1  0.74234927  0.49847742  0.39133927  1
  O2-  O131  1  0.75105467  0.50867899  0.72867810  1
  O2-  O132  1  0.00716569  0.24646345  0.27368987  1
  O2-  O133  1  -0.00025045  0.24889640  0.61065191  1
  O2-  O134  1  -0.00325141  0.25422099  0.93728838  1
  O2-  O135  1  -0.00348344  0.75081965  0.27480993  1
  O2-  O136  1  -0.00464369  0.74447888  0.59948680  1
  O2-  O137  1  -0.00259358  0.75561478  0.94206154  1
  O2-  O138  1  0.49616085  0.25677201  0.27163824  1
  O2-  O139  1  0.50375082  0.24606513  0.60691078  1
  O2-  O140  1  0.49680306  0.25227374  0.93890519  1
  O2-  O141  1  0.50174505  0.74136323  0.27246243  1
  O2-  O142  1  0.50409570  0.75337843  0.60069532  1
  O2-  O143  1  0.49144570  0.74817643  0.94117788  1
  O2-  O144  1  0.06876106  0.18109752  0.09998370  1
  O2-  O145  1  0.07226086  0.17137441  0.42190058  1
  O2-  O146  1  0.07556471  0.17865665  0.75630541  1
  O2-  O147  1  0.06669661  0.67961158  0.10116027  1
  O2-  O148  1  0.06810000  0.68367627  0.42306765  1
  O2-  O149  1  0.07254255  0.67945211  0.76306727  1
  O2-  O150  1  0.57137343  0.17859784  0.09683039  1
  O2-  O151  1  0.56769105  0.18113051  0.43392265  1
  O2-  O152  1  0.57150793  0.18143933  0.75784928  1
  O2-  O153  1  0.57614837  0.68148009  0.10056472  1
  O2-  O154  1  0.57599116  0.67867337  0.42272254  1
  O2-  O155  1  0.56510762  0.67575996  0.76452356  1
  O2-  O156  1  0.17730937  0.43184596  0.23735940  1
  O2-  O157  1  0.17715414  0.42316050  0.57852690  1
  O2-  O158  1  0.18000112  0.42885403  0.90043412  1
  O2-  O159  1  0.17500530  0.92894284  0.24344512  1
  O2-  O160  1  0.17839105  0.93378542  0.57521753  1
  O2-  O161  1  0.17679873  0.92932489  0.91110795  1
  O2-  O162  1  0.68195404  0.42462071  0.24114736  1
  O2-  O163  1  0.68422553  0.42714349  0.56665683  1
  O2-  O164  1  0.67766627  0.42801389  0.91076575  1
  O2-  O165  1  0.68082262  0.93114484  0.23318340  1
  O2-  O166  1  0.67458982  0.93261064  0.57095986  1
  O2-  O167  1  0.68062976  0.92610675  0.91284612  1
  O2-  O168  1  0.43272747  0.31856265  0.09180234  1
  O2-  O169  1  0.42676525  0.32143911  0.42115198  1
  O2-  O170  1  0.42702533  0.31744270  0.76700637  1
  O2-  O171  1  0.42985787  0.82318825  0.08937790  1
  O2-  O172  1  0.43020946  0.82255850  0.42961862  1
  O2-  O173  1  0.42785059  0.82238714  0.76584906  1
  O2-  O174  1  0.92670944  0.32467147  0.08567081  1
  O2-  O175  1  0.92956561  0.31742440  0.43299951  1
  O2-  O176  1  0.92729027  0.31990801  0.75719370  1
  O2-  O177  1  0.92631350  0.81963318  0.09178498  1
  O2-  O178  1  0.92904585  0.82395496  0.42270707  1
  O2-  O179  1  0.93708910  0.82367736  0.76514413  1
  O2-  O180  1  0.32101251  0.06826752  0.24342582  1
  O2-  O181  1  0.31738222  0.07489679  0.57397949  1
  O2-  O182  1  0.31971232  0.06947787  0.89915843  1
  O2-  O183  1  0.31789813  0.57416082  0.23735339  1
  O2-  O184  1  0.31805759  0.57010261  0.56782397  1
  O2-  O185  1  0.32331047  0.57196504  0.90251918  1
  O2-  O186  1  0.82396192  0.07054465  0.24261338  1
  O2-  O187  1  0.82008749  0.07327805  0.56761307  1
  O2-  O188  1  0.82225213  0.06795478  0.90463263  1
  O2-  O189  1  0.82041256  0.57093730  0.23201578  1
  O2-  O190  1  0.82639547  0.56653475  0.57866025  1
  O2-  O191  1  0.81979730  0.56935700  0.90650912  1
  O2-  O192  1  0.04763538  0.08219019  0.26829249  1
  O2-  O193  1  0.04539158  0.08727806  0.60272229  1
  O2-  O194  1  0.04073028  0.08288542  0.93370802  1
  O2-  O195  1  0.04003170  0.58884612  0.27316701  1
  O2-  O196  1  0.04667210  0.57602493  0.59812087  1
  O2-  O197  1  0.03792798  0.58456410  0.93040337  1
  O2-  O198  1  0.53456617  0.08633161  0.26419722  1
  O2-  O199  1  0.54820553  0.08565679  0.60762735  1
  O2-  O200  1  0.54185303  0.08069199  0.93054091  1
  O2-  O201  1  0.55512814  0.58080099  0.27336849  1
  O2-  O202  1  0.54188087  0.57963315  0.59713398  1
  O2-  O203  1  0.54306760  0.57849008  0.93674254  1
  O2-  O204  1  0.16949870  0.19798699  0.27277199  1
  O2-  O205  1  0.16177364  0.20655961  0.59967726  1
  O2-  O206  1  0.16832238  0.20963085  0.93315440  1
  O2-  O207  1  0.15906391  0.71216699  0.27017235  1
  O2-  O208  1  0.16653115  0.71240087  0.59496893  1
  O2-  O209  1  0.16709050  0.71037743  0.93372858  1
  O2-  O210  1  0.66536874  0.20886538  0.26382345  1
  O2-  O211  1  0.66710377  0.20792175  0.60809762  1
  O2-  O212  1  0.66843062  0.20992744  0.93049910  1
  O2-  O213  1  0.66722109  0.70795230  0.27190761  1
  O2-  O214  1  0.67423949  0.69654861  0.60358889  1
  O2-  O215  1  0.66509143  0.70895970  0.93004620  1
  O2-  O216  1  0.07628515  0.45712774  0.06385718  1
  O2-  O217  1  0.08174936  0.45934585  0.40424384  1
  O2-  O218  1  0.08100073  0.44553546  0.72846008  1
  O2-  O219  1  0.08441753  0.95546095  0.06450370  1
  O2-  O220  1  0.08559371  0.95694703  0.39772103  1
  O2-  O221  1  0.09081048  0.96061517  0.72999305  1
  O2-  O222  1  0.58782529  0.45376406  0.06618980  1
  O2-  O223  1  0.58294904  0.44341352  0.39091133  1
  O2-  O224  1  0.58278464  0.45817534  0.73505960  1
  O2-  O225  1  0.58466955  0.95213268  0.06251035  1
  O2-  O226  1  0.58228135  0.96540839  0.39917677  1
  O2-  O227  1  0.57903165  0.95630621  0.73932932  1
  O2-  O228  1  0.20470530  0.33252299  0.06958459  1
  O2-  O229  1  0.19987173  0.32644718  0.40152989  1
  O2-  O230  1  0.20532910  0.33144605  0.72814359  1
  O2-  O231  1  0.20127722  0.83545595  0.06448231  1
  O2-  O232  1  0.20624523  0.83842755  0.39625984  1
  O2-  O233  1  0.20690414  0.83834657  0.72777782  1
  O2-  O234  1  0.70896145  0.33719507  0.06294023  1
  O2-  O235  1  0.71088542  0.33337893  0.39316286  1
  O2-  O236  1  0.71385148  0.33710972  0.73783264  1
  O2-  O237  1  0.70686895  0.83357840  0.06445442  1
  O2-  O238  1  0.70781418  0.83627392  0.40255734  1
  O2-  O239  1  0.70430552  0.82665006  0.73590193  1
  O2-  O240  1  0.44859541  0.41880401  0.27050894  1
  O2-  O241  1  0.46206229  0.41451591  0.59800285  1
  O2-  O242  1  0.45571077  0.41395361  0.94136754  1
  O2-  O243  1  0.46229478  0.91465631  0.26174841  1
  O2-  O244  1  0.45532018  0.92339544  0.60011960  1
  O2-  O245  1  0.45680200  0.91349439  0.93636722  1
  O2-  O246  1  0.96187637  0.41815836  0.26548872  1
  O2-  O247  1  0.95381598  0.41022806  0.60294909  1
  O2-  O248  1  0.95080301  0.41598474  0.93175396  1
  O2-  O249  1  0.95620603  0.91371811  0.26979981  1
  O2-  O250  1  0.96521633  0.91791454  0.59569523  1
  O2-  O251  1  0.95193548  0.91709051  0.94211440  1
  O2-  O252  1  0.33197965  0.29562362  0.27152555  1
  O2-  O253  1  0.33411522  0.28851757  0.59531322  1
  O2-  O254  1  0.33487294  0.29450910  0.94182982  1
  O2-  O255  1  0.33073109  0.79330155  0.26288395  1
  O2-  O256  1  0.33173593  0.79527915  0.59898023  1
  O2-  O257  1  0.33137656  0.80409223  0.94002212  1
  O2-  O258  1  0.83705836  0.29216340  0.25993195  1
  O2-  O259  1  0.83645128  0.28903347  0.60435529  1
  O2-  O260  1  0.83405262  0.29494454  0.93467731  1
  O2-  O261  1  0.83444646  0.79445361  0.27186190  1
  O2-  O262  1  0.82958628  0.80030763  0.60059633  1
  O2-  O263  1  0.83465587  0.79635505  0.93811284  1
  O2-  O264  1  0.41841393  0.03835298  0.06733949  1
  O2-  O265  1  0.41122780  0.03796108  0.39623810  1
  O2-  O266  1  0.41343385  0.05024762  0.72656071  1
  O2-  O267  1  0.41931018  0.54266675  0.07187036  1
  O2-  O268  1  0.42321023  0.54868817  0.40088789  1
  O2-  O269  1  0.41440064  0.53648639  0.73319148  1
  O2-  O270  1  0.91752121  0.04195428  0.07312393  1
  O2-  O271  1  0.91762935  0.04854739  0.39351712  1
  O2-  O272  1  0.92215745  0.04192577  0.73277493  1
  O2-  O273  1  0.91069625  0.54317580  0.05955609  1
  O2-  O274  1  0.91403422  0.53731119  0.40223783  1
  O2-  O275  1  0.91687255  0.53865511  0.73067974  1
  O2-  O276  1  0.29038288  0.16481036  0.06979874  1
  O2-  O277  1  0.29704844  0.16183816  0.39690586  1
  O2-  O278  1  0.28842999  0.16389209  0.72689282  1
  O2-  O279  1  0.29547132  0.67358864  0.06691104  1
  O2-  O280  1  0.28854565  0.67127968  0.40131829  1
  O2-  O281  1  0.28818214  0.66821457  0.73338132  1
  O2-  O282  1  0.79102490  0.16927494  0.06894618  1
  O2-  O283  1  0.79802880  0.16832197  0.39025019  1
  O2-  O284  1  0.79567481  0.16773157  0.73797493  1
  O2-  O285  1  0.79203003  0.66345643  0.05868743  1
  O2-  O286  1  0.79342800  0.66695778  0.40278099  1
  O2-  O287  1  0.80911380  0.66815987  0.72715340  1
