# generated using pymatgen
data_Ca2Al2SiO7
_symmetry_space_group_name_H-M   'P 1'
_cell_length_a   15.46187479
_cell_length_b   15.46248263
_cell_length_c   15.28568616
_cell_angle_alpha   90.01739102
_cell_angle_beta   90.00079097
_cell_angle_gamma   90.03625266
_symmetry_Int_Tables_number   1
_chemical_formula_structural   Ca2Al2SiO7
_chemical_formula_sum   'Ca48 Al48 Si24 O168'
_cell_volume   3654.48520928
_cell_formula_units_Z   24
loop_
 _symmetry_equiv_pos_site_id
 _symmetry_equiv_pos_as_xyz
  1  'x, y, z'
loop_
 _atom_type_symbol
 _atom_type_oxidation_number
  Ca2+  2.0
  Al0+  0.0
  Si0+  0.0
  O2-  -2.0
loop_
 _atom_site_type_symbol
 _atom_site_label
 _atom_site_symmetry_multiplicity
 _atom_site_fract_x
 _atom_site_fract_y
 _atom_site_fract_z
 _atom_site_occupancy
  Ca2+  Ca0  1  0.17235180  0.08173230  0.17377719  1
  Ca2+  Ca1  1  0.16490247  0.07786314  0.49861953  1
  Ca2+  Ca2  1  0.17332339  0.07134293  0.83969723  1
  Ca2+  Ca3  1  0.17113095  0.57584563  0.17046282  1
  Ca2+  Ca4  1  0.17268464  0.57940299  0.50405284  1
  Ca2+  Ca5  1  0.16268140  0.57048237  0.83529872  1
  Ca2+  Ca6  1  0.67299837  0.07404948  0.16797854  1
  Ca2+  Ca7  1  0.67048353  0.07214885  0.50642011  1
  Ca2+  Ca8  1  0.67338797  0.07653160  0.83712348  1
  Ca2+  Ca9  1  0.67101213  0.57168768  0.17552119  1
  Ca2+  Ca10  1  0.67620922  0.58148869  0.50145914  1
  Ca2+  Ca11  1  0.67026279  0.58253140  0.83310465  1
  Ca2+  Ca12  1  0.08017516  0.32666035  0.15969098  1
  Ca2+  Ca13  1  0.08073740  0.32874671  0.49613320  1
  Ca2+  Ca14  1  0.07429893  0.33567496  0.82618879  1
  Ca2+  Ca15  1  0.08123021  0.83913095  0.16576324  1
  Ca2+  Ca16  1  0.07714056  0.84082396  0.49124522  1
  Ca2+  Ca17  1  0.08723307  0.83515418  0.82856593  1
  Ca2+  Ca18  1  0.57933317  0.34064248  0.16341583  1
  Ca2+  Ca19  1  0.57842901  0.33313898  0.49050692  1
  Ca2+  Ca20  1  0.58583935  0.33227983  0.83068584  1
  Ca2+  Ca21  1  0.58628845  0.83657139  0.16243826  1
  Ca2+  Ca22  1  0.58669794  0.83227909  0.49785576  1
  Ca2+  Ca23  1  0.58078892  0.83539146  0.82172776  1
  Ca2+  Ca24  1  0.33041210  0.41861357  0.17515213  1
  Ca2+  Ca25  1  0.33199275  0.41961371  0.49989086  1
  Ca2+  Ca26  1  0.31806146  0.41341483  0.83719675  1
  Ca2+  Ca27  1  0.32241335  0.92781357  0.17263748  1
  Ca2+  Ca28  1  0.32400054  0.91769633  0.50470196  1
  Ca2+  Ca29  1  0.32764118  0.91536806  0.83840718  1
  Ca2+  Ca30  1  0.82415680  0.41516141  0.17056081  1
  Ca2+  Ca31  1  0.83744572  0.42569077  0.50593601  1
  Ca2+  Ca32  1  0.83558617  0.41993859  0.83926589  1
  Ca2+  Ca33  1  0.82621758  0.91505419  0.17337841  1
  Ca2+  Ca34  1  0.82680976  0.91833414  0.50515339  1
  Ca2+  Ca35  1  0.82426473  0.92809487  0.83790255  1
  Ca2+  Ca36  1  0.41279992  0.16532226  0.16641605  1
  Ca2+  Ca37  1  0.41453494  0.17206084  0.49001125  1
  Ca2+  Ca38  1  0.41613768  0.16322649  0.83229527  1
  Ca2+  Ca39  1  0.41622174  0.66539250  0.16346352  1
  Ca2+  Ca40  1  0.42085772  0.67038670  0.49717878  1
  Ca2+  Ca41  1  0.42810619  0.67547253  0.82080426  1
  Ca2+  Ca42  1  0.92206954  0.16690372  0.15966953  1
  Ca2+  Ca43  1  0.92065099  0.16749737  0.49618803  1
  Ca2+  Ca44  1  0.90493564  0.17621296  0.82968586  1
  Ca2+  Ca45  1  0.91113155  0.67108748  0.16973138  1
  Ca2+  Ca46  1  0.91281457  0.66953929  0.49336550  1
  Ca2+  Ca47  1  0.91687938  0.66739522  0.82667389  1
  Al0+  Al48  1  0.00027650  -0.00014919  0.00142038  1
  Al0+  Al49  1  -0.00074912  0.00020426  0.32569123  1
  Al0+  Al50  1  0.00190603  0.00216327  0.67557572  1
  Al0+  Al51  1  0.00100226  0.50088393  0.00180160  1
  Al0+  Al52  1  -0.00008820  0.50079701  0.33367101  1
  Al0+  Al53  1  -0.00063106  0.50018624  0.66881682  1
  Al0+  Al54  1  0.49976918  0.00072277  0.00452205  1
  Al0+  Al55  1  0.49920356  0.00023211  0.33917965  1
  Al0+  Al56  1  0.49858680  0.00107782  0.66355812  1
  Al0+  Al57  1  0.50052997  0.50054072  -0.00249666  1
  Al0+  Al58  1  0.49947489  0.49989170  0.33615797  1
  Al0+  Al59  1  0.50116442  0.50137806  0.66207935  1
  Al0+  Al60  1  0.24918100  0.25011038  0.00427165  1
  Al0+  Al61  1  0.25006224  0.24986255  0.32781584  1
  Al0+  Al62  1  0.24835366  0.24961412  0.67002015  1
  Al0+  Al63  1  0.25054086  0.74933759  0.00044877  1
  Al0+  Al64  1  0.24975972  0.74872021  0.33850706  1
  Al0+  Al65  1  0.25181603  0.74912490  0.66647245  1
  Al0+  Al66  1  0.74885045  0.25063372  0.00373331  1
  Al0+  Al67  1  0.74794575  0.24801047  0.33522492  1
  Al0+  Al68  1  0.74928336  0.25229298  0.66129388  1
  Al0+  Al69  1  0.75090244  0.74915279  -0.00035099  1
  Al0+  Al70  1  0.74977965  0.74848268  0.33428223  1
  Al0+  Al71  1  0.75077665  0.74837250  0.67058191  1
  Al0+  Al72  1  0.82131623  0.56894228  0.34789989  1
  Al0+  Al73  1  0.57419586  0.67915915  0.64838915  1
  Al0+  Al74  1  0.17877381  0.92563048  0.01598359  1
  Al0+  Al75  1  0.67948393  0.92867674  0.34787111  1
  Al0+  Al76  1  0.92889028  0.81887129  0.32051141  1
  Al0+  Al77  1  0.32138459  0.57136165  0.34709269  1
  Al0+  Al78  1  0.06895590  0.18035135  0.31877308  1
  Al0+  Al79  1  0.17987623  0.92764000  0.68050924  1
  Al0+  Al80  1  0.67835861  0.42645565  0.34945381  1
  Al0+  Al81  1  0.31979668  0.07271242  0.35039030  1
  Al0+  Al82  1  0.92876684  0.32182169  0.65206579  1
  Al0+  Al83  1  0.32129742  0.07114141  0.01529924  1
  Al0+  Al84  1  0.67868086  0.43042974  0.01181187  1
  Al0+  Al85  1  0.42828835  0.82285563  0.64918479  1
  Al0+  Al86  1  0.82070773  0.07279799  0.01578884  1
  Al0+  Al87  1  0.67993554  0.92744013  0.01457860  1
  Al0+  Al88  1  0.43160633  0.32092848  0.31877470  1
  Al0+  Al89  1  0.18021103  0.42956989  0.67857589  1
  Al0+  Al90  1  0.92931145  0.31974866  0.98700333  1
  Al0+  Al91  1  0.17717194  0.42924625  0.01468962  1
  Al0+  Al92  1  0.67839361  0.92919651  0.68086841  1
  Al0+  Al93  1  0.82103062  0.56998020  0.68183755  1
  Al0+  Al94  1  0.82177069  0.07394413  0.68041075  1
  Al0+  Al95  1  0.17705270  0.92994571  0.34838269  1
  Si0+  Si96  1  0.42705810  0.82174891  0.31720292  1
  Si0+  Si97  1  0.17804913  0.42755508  0.34890643  1
  Si0+  Si98  1  0.57087082  0.18003933  0.65113374  1
  Si0+  Si99  1  0.82351831  0.57262500  0.01715754  1
  Si0+  Si100  1  0.32426235  0.57140503  0.68398132  1
  Si0+  Si101  1  0.32177341  0.56955874  0.01362233  1
  Si0+  Si102  1  0.82335018  0.07152730  0.34902495  1
  Si0+  Si103  1  0.07198560  0.67990832  0.98438728  1
  Si0+  Si104  1  0.56941823  0.17951559  0.98554720  1
  Si0+  Si105  1  0.07374155  0.17713093  0.98059574  1
  Si0+  Si106  1  0.67636941  0.42829298  0.68251528  1
  Si0+  Si107  1  0.42770011  0.32304784  0.98352652  1
  Si0+  Si108  1  0.92629302  0.32417494  0.31671409  1
  Si0+  Si109  1  0.07453027  0.67608119  0.31648745  1
  Si0+  Si110  1  0.32177205  0.07323611  0.68256590  1
  Si0+  Si111  1  0.56934415  0.68074000  0.31655312  1
  Si0+  Si112  1  0.93209671  0.82229474  0.65526307  1
  Si0+  Si113  1  0.92795715  0.82127504  0.98297475  1
  Si0+  Si114  1  0.57173668  0.67759641  0.98513831  1
  Si0+  Si115  1  0.42661678  0.32014995  0.65322174  1
  Si0+  Si116  1  0.57253614  0.17497334  0.31523382  1
  Si0+  Si117  1  0.07108822  0.67812237  0.65262056  1
  Si0+  Si118  1  0.43062774  0.82061332  0.98704269  1
  Si0+  Si119  1  0.07288851  0.17810158  0.65113520  1
  O2-  O120  1  0.24593641  0.00244663  0.06419833  1
  O2-  O121  1  0.24973572  -0.00045880  0.40046701  1
  O2-  O122  1  0.25800593  -0.00039830  0.72562625  1
  O2-  O123  1  0.25547929  0.50040032  0.06004587  1
  O2-  O124  1  0.24488624  0.49804829  0.39290077  1
  O2-  O125  1  0.25588776  0.50250567  0.72793024  1
  O2-  O126  1  0.75497105  -0.00490085  0.06572780  1
  O2-  O127  1  0.75303734  0.00477312  0.39322935  1
  O2-  O128  1  0.74943065  0.00204967  0.73012073  1
  O2-  O129  1  0.75422421  0.50366603  0.05881795  1
  O2-  O130  1  0.75544779  0.49239609  0.39926923  1
  O2-  O131  1  0.74575792  0.49548450  0.72765780  1
  O2-  O132  1  -0.00611731  0.25516095  0.27208818  1
  O2-  O133  1  0.00180104  0.24472483  0.60725328  1
  O2-  O134  1  0.00315032  0.24472645  0.93723675  1
  O2-  O135  1  0.00577503  0.74540707  0.27326319  1
  O2-  O136  1  0.00497985  0.75375024  0.61147390  1
  O2-  O137  1  0.00174507  0.75185321  0.94166421  1
  O2-  O138  1  0.50697629  0.24710783  0.27082198  1
  O2-  O139  1  0.49841576  0.25064635  0.61061056  1
  O2-  O140  1  0.49746881  0.25030336  0.94211563  1
  O2-  O141  1  0.49871410  0.75178403  0.27296615  1
  O2-  O142  1  0.50290501  0.75288963  0.59937157  1
  O2-  O143  1  0.50444640  0.75264426  0.94405197  1
  O2-  O144  1  0.07416583  0.18005443  0.08623887  1
  O2-  O145  1  0.06742642  0.18123994  0.43242694  1
  O2-  O146  1  0.07726051  0.18074907  0.75635708  1
  O2-  O147  1  0.07326116  0.67879256  0.08913966  1
  O2-  O148  1  0.07484817  0.67406015  0.42210379  1
  O2-  O149  1  0.06927472  0.67680190  0.75825664  1
  O2-  O150  1  0.56852145  0.17976053  0.09020097  1
  O2-  O151  1  0.57086109  0.17537569  0.42108578  1
  O2-  O152  1  0.57062714  0.18111180  0.75672174  1
  O2-  O153  1  0.56902696  0.67459652  0.09017129  1
  O2-  O154  1  0.56935341  0.68189491  0.42120666  1
  O2-  O155  1  0.57087547  0.67758539  0.76291844  1
  O2-  O156  1  0.17893400  0.42963592  0.24309794  1
  O2-  O157  1  0.18269782  0.43042148  0.56563976  1
  O2-  O158  1  0.17720270  0.43139484  0.90130578  1
  O2-  O159  1  0.17906346  0.93063846  0.23513634  1
  O2-  O160  1  0.17623340  0.92987031  0.56810240  1
  O2-  O161  1  0.18422909  0.92308084  0.90208328  1
  O2-  O162  1  0.67728659  0.43064638  0.23544948  1
  O2-  O163  1  0.67555330  0.42847367  0.57745665  1
  O2-  O164  1  0.67667284  0.43272680  0.89870251  1
  O2-  O165  1  0.68077380  0.92836241  0.23472995  1
  O2-  O166  1  0.68133293  0.93026926  0.56735412  1
  O2-  O167  1  0.67824741  0.92868057  0.90126915  1
  O2-  O168  1  0.42955929  0.32763917  0.08808972  1
  O2-  O169  1  0.43146850  0.32007370  0.43253505  1
  O2-  O170  1  0.42604726  0.31878522  0.75874094  1
  O2-  O171  1  0.42980511  0.81735002  0.09211252  1
  O2-  O172  1  0.42730121  0.81954337  0.42187811  1
  O2-  O173  1  0.42807182  0.82016666  0.76389634  1
  O2-  O174  1  0.93085296  0.31946634  0.10003334  1
  O2-  O175  1  0.92964303  0.32488617  0.42235562  1
  O2-  O176  1  0.92966074  0.32298396  0.76543530  1
  O2-  O177  1  0.92469448  0.81776548  0.08783953  1
  O2-  O178  1  0.92919090  0.81850510  0.43413442  1
  O2-  O179  1  0.93395744  0.81964202  0.76064428  1
  O2-  O180  1  0.31897708  0.07106134  0.23705990  1
  O2-  O181  1  0.31910358  0.07833609  0.57769458  1
  O2-  O182  1  0.32335286  0.06814144  0.90113532  1
  O2-  O183  1  0.32077671  0.56999910  0.23335726  1
  O2-  O184  1  0.32306719  0.56996684  0.57845650  1
  O2-  O185  1  0.32093610  0.56814208  0.90810875  1
  O2-  O186  1  0.82214656  0.07061970  0.24346439  1
  O2-  O187  1  0.82170149  0.07119170  0.56668799  1
  O2-  O188  1  0.81501293  0.07378831  0.90229737  1
  O2-  O189  1  0.81759393  0.57013622  0.23401363  1
  O2-  O190  1  0.82341522  0.56934014  0.56938130  1
  O2-  O191  1  0.82358759  0.57330128  0.91138840  1
  O2-  O192  1  0.03888333  0.08544735  0.26124850  1
  O2-  O193  1  0.04755290  0.08354704  0.60679026  1
  O2-  O194  1  0.05192051  0.08137393  0.93684524  1
  O2-  O195  1  0.04786136  0.58297987  0.26824176  1
  O2-  O196  1  0.03927587  0.58870326  0.60376648  1
  O2-  O197  1  0.04223799  0.58864931  0.93604380  1
  O2-  O198  1  0.54314116  0.08223136  0.26897650  1
  O2-  O199  1  0.54422042  0.08869744  0.60271333  1
  O2-  O200  1  0.54062279  0.08790084  0.93699129  1
  O2-  O201  1  0.53908833  0.58897716  0.27004186  1
  O2-  O202  1  0.54400143  0.58084639  0.59505729  1
  O2-  O203  1  0.54014612  0.58846046  0.93380414  1
  O2-  O204  1  0.16432491  0.21222488  0.26293872  1
  O2-  O205  1  0.16514145  0.20721512  0.60318931  1
  O2-  O206  1  0.16787129  0.20439643  0.93568717  1
  O2-  O207  1  0.16865949  0.70040884  0.27025089  1
  O2-  O208  1  0.16535293  0.69912214  0.60754347  1
  O2-  O209  1  0.16423371  0.70567398  0.93540542  1
  O2-  O210  1  0.66799305  0.19600631  0.27041556  1
  O2-  O211  1  0.66062402  0.20839039  0.60053272  1
  O2-  O212  1  0.65982531  0.21014239  0.93721555  1
  O2-  O213  1  0.66088751  0.70795775  0.26841747  1
  O2-  O214  1  0.67415473  0.70560797  0.59783583  1
  O2-  O215  1  0.66550032  0.70042675  0.93905794  1
  O2-  O216  1  0.08364169  0.46444093  0.07070030  1
  O2-  O217  1  0.08405070  0.45157154  0.39415606  1
  O2-  O218  1  0.08592767  0.46420118  0.73411615  1
  O2-  O219  1  0.07741508  0.94676580  0.06349989  1
  O2-  O220  1  0.07796322  0.96089255  0.39819601  1
  O2-  O221  1  0.08618394  0.95988261  0.73905442  1
  O2-  O222  1  0.58208975  0.46294207  0.06541311  1
  O2-  O223  1  0.58229486  0.46025479  0.40233951  1
  O2-  O224  1  0.58233456  0.45401328  0.72869410  1
  O2-  O225  1  0.58273196  0.95769664  0.06771518  1
  O2-  O226  1  0.58304682  0.95732432  0.40202047  1
  O2-  O227  1  0.57850437  0.95808356  0.73097534  1
  O2-  O228  1  0.20568783  0.33292564  0.06789360  1
  O2-  O229  1  0.20652151  0.33526310  0.39401071  1
  O2-  O230  1  0.21029677  0.33392808  0.73524361  1
  O2-  O231  1  0.21025832  0.82825215  0.06910527  1
  O2-  O232  1  0.20160696  0.83010102  0.39953646  1
  O2-  O233  1  0.20793466  0.82938191  0.73353147  1
  O2-  O234  1  0.70571567  0.33464841  0.06741020  1
  O2-  O235  1  0.69699281  0.32478344  0.39930787  1
  O2-  O236  1  0.70024377  0.33392405  0.72694892  1
  O2-  O237  1  0.70528592  0.82726254  0.06582955  1
  O2-  O238  1  0.71169536  0.83264665  0.40038549  1
  O2-  O239  1  0.70597556  0.83114772  0.73356234  1
  O2-  O240  1  0.46182409  0.41831951  0.26449582  1
  O2-  O241  1  0.45229309  0.41265483  0.60647230  1
  O2-  O242  1  0.45700548  0.41359348  0.93343850  1
  O2-  O243  1  0.45516241  0.91451609  0.27201586  1
  O2-  O244  1  0.45072956  0.92311059  0.59745893  1
  O2-  O245  1  0.45581523  0.91345529  0.94049938  1
  O2-  O246  1  0.95124487  0.41808564  0.27042808  1
  O2-  O247  1  0.96468724  0.41729283  0.59866453  1
  O2-  O248  1  0.96050910  0.41824730  0.93515582  1
  O2-  O249  1  0.95699434  0.91425844  0.26305946  1
  O2-  O250  1  0.95861824  0.91547613  0.61006769  1
  O2-  O251  1  0.95261178  0.91428355  0.93634328  1
  O2-  O252  1  0.33512706  0.29188645  0.26366722  1
  O2-  O253  1  0.33526585  0.29127849  0.60554091  1
  O2-  O254  1  0.33502667  0.29509065  0.93725452  1
  O2-  O255  1  0.33532831  0.79147108  0.27052399  1
  O2-  O256  1  0.33043308  0.79009411  0.59655731  1
  O2-  O257  1  0.33982556  0.78970475  0.93840430  1
  O2-  O258  1  0.83079070  0.29950811  0.27387417  1
  O2-  O259  1  0.83156884  0.29608925  0.59657586  1
  O2-  O260  1  0.83078075  0.29104484  0.93416204  1
  O2-  O261  1  0.83381292  0.78359609  0.26432662  1
  O2-  O262  1  0.84046491  0.79254372  0.60959409  1
  O2-  O263  1  0.83733042  0.79023336  0.93380526  1
  O2-  O264  1  0.41819980  0.04224846  0.06984771  1
  O2-  O265  1  0.41860528  0.04707049  0.40272663  1
  O2-  O266  1  0.41716784  0.05279226  0.72672111  1
  O2-  O267  1  0.41566471  0.54576277  0.05950153  1
  O2-  O268  1  0.41551896  0.53847120  0.40287802  1
  O2-  O269  1  0.41832884  0.54599488  0.72895068  1
  O2-  O270  1  0.92199966  0.05087122  0.06364836  1
  O2-  O271  1  0.91595162  0.04351637  0.39398195  1
  O2-  O272  1  0.91913225  0.04854174  0.73630069  1
  O2-  O273  1  0.91689316  0.54916827  0.06320637  1
  O2-  O274  1  0.92239863  0.54827256  0.39951901  1
  O2-  O275  1  0.91671794  0.53894406  0.73753535  1
  O2-  O276  1  0.29780431  0.17091270  0.06681654  1
  O2-  O277  1  0.29012175  0.17196757  0.40050313  1
  O2-  O278  1  0.29262125  0.16427858  0.73267944  1
  O2-  O279  1  0.29517241  0.66231562  0.06022295  1
  O2-  O280  1  0.29243764  0.66640320  0.40405573  1
  O2-  O281  1  0.29852761  0.66449825  0.73022063  1
  O2-  O282  1  0.78754191  0.16802011  0.07103971  1
  O2-  O283  1  0.80110812  0.16599952  0.39456671  1
  O2-  O284  1  0.78978518  0.17286581  0.73047351  1
  O2-  O285  1  0.79682519  0.66567080  0.06277525  1
  O2-  O286  1  0.78757609  0.66508405  0.40116895  1
  O2-  O287  1  0.79171269  0.66560981  0.73843648  1
