# generated using pymatgen
data_Ca2Al2SiO7
_symmetry_space_group_name_H-M   'P 1'
_cell_length_a   15.46779448
_cell_length_b   15.46533667
_cell_length_c   15.28830730
_cell_angle_alpha   90.01464537
_cell_angle_beta   89.96890985
_cell_angle_gamma   90.02578035
_symmetry_Int_Tables_number   1
_chemical_formula_structural   Ca2Al2SiO7
_chemical_formula_sum   'Ca48 Al48 Si24 O168'
_cell_volume   3657.18603688
_cell_formula_units_Z   24
loop_
 _symmetry_equiv_pos_site_id
 _symmetry_equiv_pos_as_xyz
  1  'x, y, z'
loop_
 _atom_type_symbol
 _atom_type_oxidation_number
  Ca2+  2.0
  Al0+  0.0
  Si0+  0.0
  O2-  -2.0
loop_
 _atom_site_type_symbol
 _atom_site_label
 _atom_site_symmetry_multiplicity
 _atom_site_fract_x
 _atom_site_fract_y
 _atom_site_fract_z
 _atom_site_occupancy
  Ca2+  Ca0  1  0.17980505  0.08421276  0.17005638  1
  Ca2+  Ca1  1  0.17276651  0.07869409  0.50138549  1
  Ca2+  Ca2  1  0.17375015  0.07529265  0.83629682  1
  Ca2+  Ca3  1  0.17594901  0.57499649  0.16686123  1
  Ca2+  Ca4  1  0.17765426  0.57783285  0.49742072  1
  Ca2+  Ca5  1  0.17891318  0.58038263  0.83769526  1
  Ca2+  Ca6  1  0.66326321  0.07423785  0.17648081  1
  Ca2+  Ca7  1  0.66317595  0.08315587  0.49238065  1
  Ca2+  Ca8  1  0.66564147  0.07544946  0.84044195  1
  Ca2+  Ca9  1  0.67658902  0.57885662  0.16775630  1
  Ca2+  Ca10  1  0.67778669  0.58852436  0.50221469  1
  Ca2+  Ca11  1  0.67658913  0.57886796  0.83925035  1
  Ca2+  Ca12  1  0.07631084  0.34642862  0.16381207  1
  Ca2+  Ca13  1  0.07769346  0.33863079  0.49025257  1
  Ca2+  Ca14  1  0.08230297  0.33934990  0.83722986  1
  Ca2+  Ca15  1  0.08028212  0.82950122  0.16226327  1
  Ca2+  Ca16  1  0.07996125  0.83558826  0.49932057  1
  Ca2+  Ca17  1  0.07829802  0.83153143  0.82178967  1
  Ca2+  Ca18  1  0.58491411  0.32811443  0.16502997  1
  Ca2+  Ca19  1  0.57144411  0.32917267  0.49124661  1
  Ca2+  Ca20  1  0.58007911  0.33537402  0.82956791  1
  Ca2+  Ca21  1  0.57850401  0.83642312  0.16358444  1
  Ca2+  Ca22  1  0.57340699  0.83171246  0.49203708  1
  Ca2+  Ca23  1  0.57416892  0.83330059  0.83249759  1
  Ca2+  Ca24  1  0.32551932  0.42275308  0.17970518  1
  Ca2+  Ca25  1  0.33885414  0.42100857  0.50533345  1
  Ca2+  Ca26  1  0.33434545  0.42743409  0.84237047  1
  Ca2+  Ca27  1  0.34595650  0.92611012  0.17111656  1
  Ca2+  Ca28  1  0.33704025  0.92017769  0.50307719  1
  Ca2+  Ca29  1  0.33345693  0.91526071  0.83951585  1
  Ca2+  Ca30  1  0.83629697  0.42094496  0.17131934  1
  Ca2+  Ca31  1  0.83676156  0.42605412  0.50098427  1
  Ca2+  Ca32  1  0.83085552  0.42603269  0.84507613  1
  Ca2+  Ca33  1  0.81763290  0.92166455  0.17631082  1
  Ca2+  Ca34  1  0.82758016  0.91838145  0.50254324  1
  Ca2+  Ca35  1  0.82694279  0.91455699  0.83915049  1
  Ca2+  Ca36  1  0.41567760  0.16662038  0.16766929  1
  Ca2+  Ca37  1  0.41763462  0.17617225  0.48854620  1
  Ca2+  Ca38  1  0.41492132  0.17314759  0.83049440  1
  Ca2+  Ca39  1  0.40497255  0.67727726  0.16289673  1
  Ca2+  Ca40  1  0.40458332  0.67538611  0.49535752  1
  Ca2+  Ca41  1  0.41100550  0.67302571  0.82745614  1
  Ca2+  Ca42  1  0.91072563  0.17835279  0.16458819  1
  Ca2+  Ca43  1  0.91909571  0.17140493  0.48712159  1
  Ca2+  Ca44  1  0.91762195  0.17465045  0.83140671  1
  Ca2+  Ca45  1  0.91614484  0.65875737  0.16165678  1
  Ca2+  Ca46  1  0.91324706  0.66764163  0.49555815  1
  Ca2+  Ca47  1  0.91400318  0.66803465  0.82687541  1
  Al0+  Al48  1  0.00077464  0.00154762  -0.00195279  1
  Al0+  Al49  1  -0.00149937  0.00016570  0.33283254  1
  Al0+  Al50  1  0.00005704  0.00010030  0.66702556  1
  Al0+  Al51  1  0.00243836  0.50160655  -0.00215306  1
  Al0+  Al52  1  0.00118431  0.50151570  0.33751373  1
  Al0+  Al53  1  0.00180018  0.50130503  0.66983989  1
  Al0+  Al54  1  0.49979758  -0.00057241  0.00069282  1
  Al0+  Al55  1  0.49877163  -0.00055462  0.33684461  1
  Al0+  Al56  1  0.50171876  0.00014462  0.66411821  1
  Al0+  Al57  1  0.50339991  0.50310895  0.00724434  1
  Al0+  Al58  1  0.50131010  0.50309726  0.33289944  1
  Al0+  Al59  1  0.50283735  0.50040367  0.66688225  1
  Al0+  Al60  1  0.24848193  0.24776674  0.00433509  1
  Al0+  Al61  1  0.24707077  0.24814907  0.33770983  1
  Al0+  Al62  1  0.24922520  0.24877571  0.66353870  1
  Al0+  Al63  1  0.24655018  0.75056255  -0.00260128  1
  Al0+  Al64  1  0.24637298  0.74826197  0.33003607  1
  Al0+  Al65  1  0.24737336  0.74902574  0.66899558  1
  Al0+  Al66  1  0.75013223  0.25024381  -0.00604935  1
  Al0+  Al67  1  0.74970833  0.24952452  0.32969204  1
  Al0+  Al68  1  0.75131208  0.24875874  0.66568883  1
  Al0+  Al69  1  0.74816815  0.75020518  0.00647812  1
  Al0+  Al70  1  0.74765270  0.75084838  0.34014013  1
  Al0+  Al71  1  0.74977379  0.75157129  0.66734172  1
  Al0+  Al72  1  0.17942830  0.92995763  0.67917657  1
  Al0+  Al73  1  0.43002240  0.81955848  0.98584850  1
  Al0+  Al74  1  0.82140493  0.57106974  0.68094412  1
  Al0+  Al75  1  0.56880015  0.17997662  0.31719500  1
  Al0+  Al76  1  0.82142205  0.56995707  0.01446445  1
  Al0+  Al77  1  0.42814651  0.81770388  0.31972498  1
  Al0+  Al78  1  0.67738849  0.92938583  0.35204290  1
  Al0+  Al79  1  0.32056193  0.06879881  0.01233981  1
  Al0+  Al80  1  0.18160704  0.42872862  0.01372298  1
  Al0+  Al81  1  0.42619532  0.32354433  0.31736685  1
  Al0+  Al82  1  0.17998015  0.42891999  0.34901881  1
  Al0+  Al83  1  0.67823702  0.42548584  0.01548797  1
  Al0+  Al84  1  0.32308740  0.57186067  0.34838197  1
  Al0+  Al85  1  0.82092742  0.07238557  0.34762011  1
  Al0+  Al86  1  0.93118425  0.32152353  0.32044957  1
  Al0+  Al87  1  0.82042940  0.56938383  0.34793369  1
  Al0+  Al88  1  0.31990945  0.06921526  0.34831307  1
  Al0+  Al89  1  0.32309842  0.57404628  0.01437932  1
  Al0+  Al90  1  0.42738846  0.81964059  0.65324478  1
  Al0+  Al91  1  0.67974128  0.93051083  0.01272757  1
  Al0+  Al92  1  0.32255369  0.56932046  0.68040933  1
  Al0+  Al93  1  0.92802303  0.82096634  0.65261875  1
  Al0+  Al94  1  0.93080855  0.32099568  0.98481694  1
  Al0+  Al95  1  0.43010293  0.32127030  0.65610980  1
  Si0+  Si96  1  0.92735261  0.82194313  0.98689716  1
  Si0+  Si97  1  0.17540453  0.92608461  0.34819563  1
  Si0+  Si98  1  0.32353160  0.07177635  0.68311763  1
  Si0+  Si99  1  0.67881225  0.93028622  0.68351094  1
  Si0+  Si100  1  0.57241093  0.67886771  0.65068939  1
  Si0+  Si101  1  0.57536810  0.67777420  0.98267753  1
  Si0+  Si102  1  0.42778596  0.32227146  0.98844806  1
  Si0+  Si103  1  0.93059195  0.32176006  0.65199651  1
  Si0+  Si104  1  0.82367833  0.07279775  0.01419822  1
  Si0+  Si105  1  0.82234217  0.07183694  0.68294990  1
  Si0+  Si106  1  0.57602835  0.67848658  0.31530158  1
  Si0+  Si107  1  0.07445246  0.17574526  0.98032640  1
  Si0+  Si108  1  0.06944757  0.68057967  0.98195122  1
  Si0+  Si109  1  0.92650799  0.82207576  0.31789583  1
  Si0+  Si110  1  0.68045836  0.42596019  0.68216233  1
  Si0+  Si111  1  0.17871564  0.42518272  0.68409604  1
  Si0+  Si112  1  0.67749540  0.42636335  0.35077020  1
  Si0+  Si113  1  0.06772504  0.68019117  0.31654624  1
  Si0+  Si114  1  0.56982563  0.17877187  0.98437464  1
  Si0+  Si115  1  0.07158520  0.17438185  0.31512879  1
  Si0+  Si116  1  0.57438722  0.17690339  0.65000134  1
  Si0+  Si117  1  0.07097797  0.67718995  0.64738459  1
  Si0+  Si118  1  0.17541095  0.92744519  0.01609983  1
  Si0+  Si119  1  0.06990847  0.17813192  0.65125053  1
  O2-  O120  1  0.24642971  -0.00678221  0.05920468  1
  O2-  O121  1  0.24512481  -0.00677619  0.39257948  1
  O2-  O122  1  0.25860612  -0.00057818  0.72714233  1
  O2-  O123  1  0.26028382  0.49339247  0.06291264  1
  O2-  O124  1  0.26010360  0.49178536  0.39908393  1
  O2-  O125  1  0.25168661  0.49012280  0.72623738  1
  O2-  O126  1  0.75609840  0.00383735  0.05796686  1
  O2-  O127  1  0.75116441  0.00055068  0.40119186  1
  O2-  O128  1  0.75014537  0.00190699  0.72520612  1
  O2-  O129  1  0.75318128  0.49486401  0.06442536  1
  O2-  O130  1  0.74533044  0.49586046  0.39578937  1
  O2-  O131  1  0.75034265  0.49314761  0.72675363  1
  O2-  O132  1  0.00420732  0.24525142  0.27277249  1
  O2-  O133  1  0.00238256  0.25243307  0.60915543  1
  O2-  O134  1  0.00540459  0.24551322  0.93750845  1
  O2-  O135  1  -0.00413025  0.75082546  0.27386402  1
  O2-  O136  1  0.00026263  0.74475765  0.60395443  1
  O2-  O137  1  -0.00237484  0.75215058  0.94164416  1
  O2-  O138  1  0.49834012  0.25255863  0.26545507  1
  O2-  O139  1  0.50388092  0.24529106  0.60980458  1
  O2-  O140  1  0.50113310  0.25339830  0.94401112  1
  O2-  O141  1  0.50143912  0.74164439  0.27254973  1
  O2-  O142  1  0.49918304  0.74241604  0.60623059  1
  O2-  O143  1  0.50103440  0.74116414  0.93873850  1
  O2-  O144  1  0.07382694  0.16920038  0.08489270  1
  O2-  O145  1  0.06882707  0.17151759  0.42122917  1
  O2-  O146  1  0.06839800  0.17723776  0.75634496  1
  O2-  O147  1  0.06969931  0.68203381  0.08718448  1
  O2-  O148  1  0.06789712  0.68183916  0.42164288  1
  O2-  O149  1  0.07021527  0.67819482  0.75321126  1
  O2-  O150  1  0.57008389  0.17587868  0.08863229  1
  O2-  O151  1  0.56718182  0.18219128  0.43133866  1
  O2-  O152  1  0.57624429  0.17555190  0.75601981  1
  O2-  O153  1  0.58191443  0.68156866  0.08745683  1
  O2-  O154  1  0.58100130  0.68219162  0.42104485  1
  O2-  O155  1  0.57440462  0.68139023  0.75627693  1
  O2-  O156  1  0.17650966  0.43499203  0.23592751  1
  O2-  O157  1  0.17526383  0.42562034  0.57899943  1
  O2-  O158  1  0.18267474  0.43120402  0.89948130  1
  O2-  O159  1  0.17258593  0.92686495  0.24257356  1
  O2-  O160  1  0.17672519  0.93412167  0.56644187  1
  O2-  O161  1  0.17306433  0.92873488  0.91034748  1
  O2-  O162  1  0.68047060  0.42653375  0.24539073  1
  O2-  O163  1  0.68233077  0.42440524  0.57692868  1
  O2-  O164  1  0.67975534  0.42652018  0.90107077  1
  O2-  O165  1  0.67924103  0.92940425  0.23831838  1
  O2-  O166  1  0.67858881  0.93049240  0.57913981  1
  O2-  O167  1  0.68088395  0.93203881  0.89878185  1
  O2-  O168  1  0.42673520  0.31864833  0.09270987  1
  O2-  O169  1  0.42932467  0.32100421  0.43155955  1
  O2-  O170  1  0.43144684  0.31968511  0.77007439  1
  O2-  O171  1  0.43192900  0.82140321  0.09854410  1
  O2-  O172  1  0.42787884  0.81707604  0.43323892  1
  O2-  O173  1  0.43058179  0.82114817  0.76655597  1
  O2-  O174  1  0.93151929  0.32036948  0.09748710  1
  O2-  O175  1  0.93339100  0.32159810  0.43440552  1
  O2-  O176  1  0.93035559  0.32005426  0.75704259  1
  O2-  O177  1  0.93021180  0.82255529  0.09190842  1
  O2-  O178  1  0.92914153  0.82205329  0.42307220  1
  O2-  O179  1  0.92859572  0.82054574  0.76634689  1
  O2-  O180  1  0.31940497  0.06743781  0.23509064  1
  O2-  O181  1  0.32127439  0.07261151  0.57793803  1
  O2-  O182  1  0.31944661  0.06866979  0.89870152  1
  O2-  O183  1  0.31597399  0.57583980  0.23539020  1
  O2-  O184  1  0.31931498  0.56968065  0.56787580  1
  O2-  O185  1  0.31973340  0.57386172  0.90023179  1
  O2-  O186  1  0.82160750  0.06891101  0.23392095  1
  O2-  O187  1  0.82346253  0.07349901  0.57857318  1
  O2-  O188  1  0.82296380  0.07104393  0.90775036  1
  O2-  O189  1  0.82161537  0.56879853  0.23530303  1
  O2-  O190  1  0.82068802  0.57007253  0.56793724  1
  O2-  O191  1  0.81948644  0.57127307  0.90055828  1
  O2-  O192  1  0.04564192  0.08149168  0.26698342  1
  O2-  O193  1  0.03822428  0.08857835  0.60260068  1
  O2-  O194  1  0.04654528  0.08302487  0.93081887  1
  O2-  O195  1  0.03742880  0.58951735  0.26954315  1
  O2-  O196  1  0.04610062  0.58293782  0.60209906  1
  O2-  O197  1  0.04245872  0.58998161  0.93227772  1
  O2-  O198  1  0.53879215  0.08086364  0.26717837  1
  O2-  O199  1  0.55041183  0.08358026  0.60340019  1
  O2-  O200  1  0.53778531  0.08913784  0.93424971  1
  O2-  O201  1  0.55894746  0.58242230  0.27193626  1
  O2-  O202  1  0.55527944  0.58309151  0.60617022  1
  O2-  O203  1  0.55667382  0.58144544  0.93847262  1
  O2-  O204  1  0.16598403  0.19788049  0.27128013  1
  O2-  O205  1  0.16295813  0.20071835  0.60380242  1
  O2-  O206  1  0.16762008  0.20201545  0.93266383  1
  O2-  O207  1  0.15724492  0.70929214  0.26550744  1
  O2-  O208  1  0.16303270  0.70602484  0.60097457  1
  O2-  O209  1  0.15941050  0.71023714  0.93152768  1
  O2-  O210  1  0.66812900  0.20482041  0.26410807  1
  O2-  O211  1  0.66801500  0.20243852  0.60333967  1
  O2-  O212  1  0.66178711  0.20240539  0.93375549  1
  O2-  O213  1  0.66734246  0.71086419  0.26763255  1
  O2-  O214  1  0.66353441  0.71098954  0.60300209  1
  O2-  O215  1  0.66650166  0.71076818  0.93374190  1
  O2-  O216  1  0.08578179  0.46565453  0.06506107  1
  O2-  O217  1  0.08608157  0.46778019  0.40524220  1
  O2-  O218  1  0.08687177  0.45575939  0.73168549  1
  O2-  O219  1  0.08218870  0.95445855  0.06280715  1
  O2-  O220  1  0.08246037  0.95295545  0.39528053  1
  O2-  O221  1  0.08411073  0.96457301  0.73517966  1
  O2-  O222  1  0.58188978  0.45359024  0.07132143  1
  O2-  O223  1  0.58367899  0.45154505  0.39637407  1
  O2-  O224  1  0.58797890  0.45319652  0.72942494  1
  O2-  O225  1  0.58495018  0.96371596  0.06649279  1
  O2-  O226  1  0.58088549  0.96009029  0.40624529  1
  O2-  O227  1  0.58734692  0.95975572  0.73168863  1
  O2-  O228  1  0.19658943  0.32730135  0.06410476  1
  O2-  O229  1  0.19374823  0.32689361  0.39923688  1
  O2-  O230  1  0.19870149  0.32934943  0.72828621  1
  O2-  O231  1  0.19658068  0.83292663  0.06046342  1
  O2-  O232  1  0.19849331  0.83207207  0.39328080  1
  O2-  O233  1  0.20331521  0.83223668  0.73375275  1
  O2-  O234  1  0.70401472  0.32491402  0.06411772  1
  O2-  O235  1  0.70369880  0.33321001  0.39637488  1
  O2-  O236  1  0.70420680  0.33144198  0.72853240  1
  O2-  O237  1  0.70912882  0.83576145  0.06901888  1
  O2-  O238  1  0.70687662  0.83249903  0.40678222  1
  O2-  O239  1  0.70776636  0.83934629  0.73146104  1
  O2-  O240  1  0.45122682  0.42458323  0.26840515  1
  O2-  O241  1  0.46225677  0.41711575  0.60132972  1
  O2-  O242  1  0.45473046  0.41611067  0.94372741  1
  O2-  O243  1  0.46133949  0.91467572  0.26900180  1
  O2-  O244  1  0.45967631  0.91688561  0.60097311  1
  O2-  O245  1  0.46435530  0.91551792  0.93107417  1
  O2-  O246  1  0.96489312  0.41826061  0.26820229  1
  O2-  O247  1  0.95793454  0.41463998  0.60651330  1
  O2-  O248  1  0.96401700  0.41711595  0.92978140  1
  O2-  O249  1  0.95496377  0.91313740  0.26924579  1
  O2-  O250  1  0.96060016  0.91753075  0.59960518  1
  O2-  O251  1  0.95342353  0.91453279  0.93871024  1
  O2-  O252  1  0.32610408  0.29316920  0.26941840  1
  O2-  O253  1  0.33276444  0.29258274  0.60219275  1
  O2-  O254  1  0.33678013  0.29119781  0.94033471  1
  O2-  O255  1  0.33013342  0.79022805  0.26567353  1
  O2-  O256  1  0.32912072  0.79164034  0.60163060  1
  O2-  O257  1  0.33036056  0.79366465  0.93395848  1
  O2-  O258  1  0.83453652  0.29285314  0.26627930  1
  O2-  O259  1  0.83857400  0.29335225  0.60563274  1
  O2-  O260  1  0.83494548  0.28977202  0.92760636  1
  O2-  O261  1  0.83340404  0.79490681  0.27393359  1
  O2-  O262  1  0.83095312  0.79237706  0.59895701  1
  O2-  O263  1  0.83495287  0.79404086  0.94077139  1
  O2-  O264  1  0.41599141  0.03788798  0.06679637  1
  O2-  O265  1  0.41445523  0.03834835  0.40454173  1
  O2-  O266  1  0.41934866  0.05092217  0.72686061  1
  O2-  O267  1  0.42509535  0.56112428  0.06304169  1
  O2-  O268  1  0.42565044  0.55729436  0.39788181  1
  O2-  O269  1  0.42138190  0.54393352  0.73328297  1
  O2-  O270  1  0.91813020  0.05018031  0.05875271  1
  O2-  O271  1  0.91986242  0.04399078  0.40041911  1
  O2-  O272  1  0.91287244  0.04315439  0.73183362  1
  O2-  O273  1  0.92130833  0.54460830  0.06389721  1
  O2-  O274  1  0.91586302  0.53887261  0.40373054  1
  O2-  O275  1  0.91930956  0.54362422  0.73409388  1
  O2-  O276  1  0.28934807  0.16368169  0.06819797  1
  O2-  O277  1  0.28785341  0.16425642  0.40437574  1
  O2-  O278  1  0.29246283  0.16409354  0.72965343  1
  O2-  O279  1  0.28250381  0.66907123  0.06605312  1
  O2-  O280  1  0.28136439  0.66699521  0.40101003  1
  O2-  O281  1  0.28638706  0.66423424  0.73455390  1
  O2-  O282  1  0.79745582  0.16662712  0.05686454  1
  O2-  O283  1  0.79314329  0.17101926  0.40074404  1
  O2-  O284  1  0.79473384  0.16403535  0.73118390  1
  O2-  O285  1  0.79288760  0.66741802  0.06840106  1
  O2-  O286  1  0.79018797  0.66592862  0.40244749  1
  O2-  O287  1  0.78883894  0.66789100  0.73366402  1
