# generated using pymatgen
data_Ca2Al2SiO7
_symmetry_space_group_name_H-M   'P 1'
_cell_length_a   15.45697154
_cell_length_b   15.45719074
_cell_length_c   15.28321223
_cell_angle_alpha   89.99911011
_cell_angle_beta   90.00377213
_cell_angle_gamma   90.01435353
_symmetry_Int_Tables_number   1
_chemical_formula_structural   Ca2Al2SiO7
_chemical_formula_sum   'Ca48 Al48 Si24 O168'
_cell_volume   3651.48568814
_cell_formula_units_Z   24
loop_
 _symmetry_equiv_pos_site_id
 _symmetry_equiv_pos_as_xyz
  1  'x, y, z'
loop_
 _atom_type_symbol
 _atom_type_oxidation_number
  Ca2+  2.0
  Al0+  0.0
  Si0+  0.0
  O2-  -2.0
loop_
 _atom_site_type_symbol
 _atom_site_label
 _atom_site_symmetry_multiplicity
 _atom_site_fract_x
 _atom_site_fract_y
 _atom_site_fract_z
 _atom_site_occupancy
  Ca2+  Ca0  1  0.16569685  0.08622618  0.16558670  1
  Ca2+  Ca1  1  0.17381019  0.08665678  0.50627805  1
  Ca2+  Ca2  1  0.18003824  0.08051744  0.84326677  1
  Ca2+  Ca3  1  0.16984794  0.57334779  0.17165713  1
  Ca2+  Ca4  1  0.16902478  0.57116137  0.51199357  1
  Ca2+  Ca5  1  0.16809941  0.58357877  0.83018540  1
  Ca2+  Ca6  1  0.66299685  0.07388857  0.16851530  1
  Ca2+  Ca7  1  0.67554168  0.08631247  0.50649127  1
  Ca2+  Ca8  1  0.66633825  0.08406653  0.83918171  1
  Ca2+  Ca9  1  0.66847660  0.58324380  0.16332850  1
  Ca2+  Ca10  1  0.67203436  0.57376409  0.51106019  1
  Ca2+  Ca11  1  0.67128204  0.57580043  0.84385534  1
  Ca2+  Ca12  1  0.07977744  0.32235723  0.15982106  1
  Ca2+  Ca13  1  0.08695818  0.33051024  0.49283557  1
  Ca2+  Ca14  1  0.07801524  0.33437812  0.83253345  1
  Ca2+  Ca15  1  0.08143892  0.83423793  0.15839316  1
  Ca2+  Ca16  1  0.08334124  0.82478108  0.50019271  1
  Ca2+  Ca17  1  0.08564590  0.82940895  0.82756513  1
  Ca2+  Ca18  1  0.58006941  0.32849888  0.15776684  1
  Ca2+  Ca19  1  0.58008882  0.33118284  0.49947731  1
  Ca2+  Ca20  1  0.59309001  0.32486568  0.82970057  1
  Ca2+  Ca21  1  0.58466118  0.83251940  0.15400610  1
  Ca2+  Ca22  1  0.58013510  0.83567098  0.49959181  1
  Ca2+  Ca23  1  0.57583149  0.83441613  0.83250711  1
  Ca2+  Ca24  1  0.33004110  0.41216687  0.17502819  1
  Ca2+  Ca25  1  0.32399971  0.41513165  0.50674504  1
  Ca2+  Ca26  1  0.32897927  0.42021786  0.83344744  1
  Ca2+  Ca27  1  0.33447974  0.92243246  0.16040417  1
  Ca2+  Ca28  1  0.33438725  0.92262417  0.50969326  1
  Ca2+  Ca29  1  0.33645477  0.92202825  0.84069345  1
  Ca2+  Ca30  1  0.83222658  0.41364294  0.15939284  1
  Ca2+  Ca31  1  0.82648920  0.41942791  0.51171123  1
  Ca2+  Ca32  1  0.82598769  0.42304289  0.83842931  1
  Ca2+  Ca33  1  0.81997921  0.92176011  0.17292019  1
  Ca2+  Ca34  1  0.82900569  0.92885866  0.50114402  1
  Ca2+  Ca35  1  0.82805410  0.92334994  0.83894927  1
  Ca2+  Ca36  1  0.41898511  0.17160706  0.15941149  1
  Ca2+  Ca37  1  0.42144527  0.16994994  0.49942274  1
  Ca2+  Ca38  1  0.42754636  0.15653355  0.82960257  1
  Ca2+  Ca39  1  0.42684128  0.67569347  0.15386510  1
  Ca2+  Ca40  1  0.41002404  0.67169779  0.50079746  1
  Ca2+  Ca41  1  0.41455494  0.67836192  0.82741636  1
  Ca2+  Ca42  1  0.92545838  0.16564869  0.15891672  1
  Ca2+  Ca43  1  0.92052882  0.16308208  0.49325463  1
  Ca2+  Ca44  1  0.91783784  0.17006264  0.82972903  1
  Ca2+  Ca45  1  0.91592834  0.66613438  0.15858737  1
  Ca2+  Ca46  1  0.92137685  0.65878889  0.50236485  1
  Ca2+  Ca47  1  0.91733731  0.66201203  0.82720064  1
  Al0+  Al48  1  0.00246833  -0.00140781  -0.00238358  1
  Al0+  Al49  1  0.00018911  -0.00216746  0.33266157  1
  Al0+  Al50  1  -0.00127165  -0.00020866  0.66845148  1
  Al0+  Al51  1  0.00018740  0.49981641  0.00100327  1
  Al0+  Al52  1  0.00097328  0.49856124  0.33515412  1
  Al0+  Al53  1  -0.00089549  0.49890164  0.66783746  1
  Al0+  Al54  1  0.49884480  0.00184903  0.00239569  1
  Al0+  Al55  1  0.49851806  -0.00112827  0.33688688  1
  Al0+  Al56  1  0.50061237  0.00048272  0.65836370  1
  Al0+  Al57  1  0.50101982  0.50009974  0.00093303  1
  Al0+  Al58  1  0.50020917  0.50269311  0.32956433  1
  Al0+  Al59  1  0.49772550  0.49944491  0.67335722  1
  Al0+  Al60  1  0.25025639  0.25008827  -0.00050141  1
  Al0+  Al61  1  0.24949591  0.24978447  0.32953855  1
  Al0+  Al62  1  0.25056401  0.24875283  0.67640051  1
  Al0+  Al63  1  0.24972972  0.75074639  0.00187505  1
  Al0+  Al64  1  0.25046413  0.75065643  0.33025166  1
  Al0+  Al65  1  0.24784602  0.74853020  0.65802108  1
  Al0+  Al66  1  0.75108695  0.25294643  -0.00225920  1
  Al0+  Al67  1  0.75032353  0.25096768  0.33523299  1
  Al0+  Al68  1  0.75158659  0.24884512  0.66774990  1
  Al0+  Al69  1  0.75136948  0.74976161  0.00227073  1
  Al0+  Al70  1  0.74992006  0.75049916  0.33957067  1
  Al0+  Al71  1  0.74924000  0.75225133  0.66592167  1
  Al0+  Al72  1  0.06992494  0.17815111  0.32068357  1
  Al0+  Al73  1  0.67716670  0.42799021  0.68131408  1
  Al0+  Al74  1  0.31994525  0.57345626  0.68148071  1
  Al0+  Al75  1  0.18107505  0.42874937  0.34569735  1
  Al0+  Al76  1  0.07225002  0.17655325  0.98138873  1
  Al0+  Al77  1  0.42938718  0.82068039  0.98519014  1
  Al0+  Al78  1  0.06778709  0.67883955  0.65216611  1
  Al0+  Al79  1  0.57387433  0.67850393  0.98393216  1
  Al0+  Al80  1  0.56950023  0.18066218  0.98848362  1
  Al0+  Al81  1  0.93045568  0.32129572  0.98300244  1
  Al0+  Al82  1  0.32139550  0.07232071  0.01726156  1
  Al0+  Al83  1  0.17797988  0.42683348  0.68382794  1
  Al0+  Al84  1  0.82200130  0.07049359  0.68200763  1
  Al0+  Al85  1  0.43038899  0.32073815  0.32186798  1
  Al0+  Al86  1  0.67753871  0.42746166  0.01761726  1
  Al0+  Al87  1  0.67976211  0.93142284  0.01084870  1
  Al0+  Al88  1  0.32222388  0.06931527  0.67909190  1
  Al0+  Al89  1  0.42978644  0.81986520  0.65098336  1
  Al0+  Al90  1  0.67657241  0.92819736  0.35107922  1
  Al0+  Al91  1  0.82005130  0.57255210  0.68055043  1
  Al0+  Al92  1  0.17854258  0.92768583  0.01482904  1
  Al0+  Al93  1  0.57208236  0.18047494  0.65158171  1
  Al0+  Al94  1  0.82161893  0.07181910  0.34646938  1
  Al0+  Al95  1  0.82189695  0.57070176  0.01645355  1
  Si0+  Si96  1  0.32113061  0.57217491  0.01559453  1
  Si0+  Si97  1  0.93102159  0.31904569  0.65031431  1
  Si0+  Si98  1  0.17819173  0.92609168  0.34971091  1
  Si0+  Si99  1  0.42780137  0.82240356  0.31624820  1
  Si0+  Si100  1  0.42572650  0.32298376  0.65221842  1
  Si0+  Si101  1  0.07066233  0.67738733  0.31714270  1
  Si0+  Si102  1  0.32265750  0.57347092  0.34841966  1
  Si0+  Si103  1  0.57239616  0.67610508  0.65007375  1
  Si0+  Si104  1  0.07113284  0.67878736  0.98659292  1
  Si0+  Si105  1  0.67685930  0.42985952  0.34776571  1
  Si0+  Si106  1  0.82129527  0.57091648  0.34925429  1
  Si0+  Si107  1  0.57287017  0.17806494  0.31745289  1
  Si0+  Si108  1  0.92620264  0.32409578  0.31727106  1
  Si0+  Si109  1  0.17971427  0.43024164  0.01623671  1
  Si0+  Si110  1  0.92953396  0.81858632  0.31857083  1
  Si0+  Si111  1  0.82360312  0.07330249  0.01497800  1
  Si0+  Si112  1  0.42641181  0.32426084  0.98241349  1
  Si0+  Si113  1  0.67704014  0.92987337  0.68340332  1
  Si0+  Si114  1  0.57228603  0.68092299  0.31894211  1
  Si0+  Si115  1  0.92868345  0.82078029  0.98581693  1
  Si0+  Si116  1  0.92547300  0.82523194  0.64797334  1
  Si0+  Si117  1  0.07239612  0.17795355  0.65262064  1
  Si0+  Si118  1  0.31891501  0.07043388  0.34886475  1
  Si0+  Si119  1  0.17805031  0.92756838  0.67964915  1
  O2-  O120  1  0.24623534  0.00260348  0.06702919  1
  O2-  O121  1  0.24886377  -0.00234386  0.39121665  1
  O2-  O122  1  0.24705812  -0.00543501  0.72400293  1
  O2-  O123  1  0.25457411  0.49730443  0.05892344  1
  O2-  O124  1  0.25506963  0.50410594  0.39229892  1
  O2-  O125  1  0.24994711  0.50001248  0.73228214  1
  O2-  O126  1  0.75340856  0.00652353  0.05946290  1
  O2-  O127  1  0.74536440  0.00484167  0.39819391  1
  O2-  O128  1  0.74744937  -0.00399315  0.72794747  1
  O2-  O129  1  0.74869984  0.50082607  0.06806028  1
  O2-  O130  1  0.75178896  0.49754137  0.38931752  1
  O2-  O131  1  0.74315075  0.50640446  0.72958367  1
  O2-  O132  1  -0.00823556  0.25090736  0.27602430  1
  O2-  O133  1  0.00277337  0.24879251  0.60764852  1
  O2-  O134  1  -0.00075004  0.24709758  0.93117506  1
  O2-  O135  1  -0.00029130  0.74744363  0.27398486  1
  O2-  O136  1  -0.00865591  0.75243286  0.60455462  1
  O2-  O137  1  0.00102103  0.75052159  0.94489362  1
  O2-  O138  1  0.50607752  0.24825325  0.27337596  1
  O2-  O139  1  0.49719411  0.25704536  0.60741487  1
  O2-  O140  1  0.49631351  0.25652942  0.94003943  1
  O2-  O141  1  0.50181128  0.75306345  0.27696899  1
  O2-  O142  1  0.50290235  0.74311265  0.60320805  1
  O2-  O143  1  0.50023073  0.74841768  0.93412147  1
  O2-  O144  1  0.07030213  0.17875932  0.09570738  1
  O2-  O145  1  0.07179748  0.18012121  0.43434001  1
  O2-  O146  1  0.07018033  0.17715918  0.75694036  1
  O2-  O147  1  0.07038692  0.67868505  0.09245421  1
  O2-  O148  1  0.06997059  0.67743978  0.42196279  1
  O2-  O149  1  0.06832754  0.68218637  0.76535466  1
  O2-  O150  1  0.56720954  0.18052461  0.10226766  1
  O2-  O151  1  0.57225692  0.17973383  0.42310679  1
  O2-  O152  1  0.57123414  0.17840456  0.76430005  1
  O2-  O153  1  0.57199783  0.68133650  0.09879106  1
  O2-  O154  1  0.57113646  0.67856383  0.42393011  1
  O2-  O155  1  0.57364111  0.67960345  0.75481915  1
  O2-  O156  1  0.18177599  0.43149185  0.23243299  1
  O2-  O157  1  0.17929188  0.42553992  0.56957696  1
  O2-  O158  1  0.17865924  0.43327614  0.91157555  1
  O2-  O159  1  0.17833974  0.92267458  0.24522056  1
  O2-  O160  1  0.17798711  0.93000729  0.57321717  1
  O2-  O161  1  0.17998001  0.92412123  0.90142024  1
  O2-  O162  1  0.67527116  0.43090847  0.24329304  1
  O2-  O163  1  0.68006433  0.42828686  0.56616880  1
  O2-  O164  1  0.67947861  0.42750659  0.90472567  1
  O2-  O165  1  0.67801918  0.92590706  0.23742688  1
  O2-  O166  1  0.67858404  0.93136994  0.57752673  1
  O2-  O167  1  0.68188561  0.93198973  0.89796668  1
  O2-  O168  1  0.42585346  0.32340483  0.08879786  1
  O2-  O169  1  0.43065104  0.31942143  0.43493463  1
  O2-  O170  1  0.42343424  0.32158791  0.75725321  1
  O2-  O171  1  0.43006349  0.81824342  0.09958851  1
  O2-  O172  1  0.42412062  0.82068859  0.42125612  1
  O2-  O173  1  0.43010013  0.82126697  0.76332347  1
  O2-  O174  1  0.93452491  0.32152312  0.09733857  1
  O2-  O175  1  0.92700075  0.32788894  0.42291670  1
  O2-  O176  1  0.93149954  0.31874620  0.75484040  1
  O2-  O177  1  0.92913956  0.81978540  0.09150338  1
  O2-  O178  1  0.93206606  0.81721584  0.42346174  1
  O2-  O179  1  0.92739981  0.82841962  0.75334489  1
  O2-  O180  1  0.31986337  0.06936313  0.24429819  1
  O2-  O181  1  0.31899579  0.07025832  0.56493291  1
  O2-  O182  1  0.32314255  0.06850007  0.90386604  1
  O2-  O183  1  0.32076662  0.57464318  0.24265342  1
  O2-  O184  1  0.31700895  0.57246256  0.56715246  1
  O2-  O185  1  0.31698672  0.57420856  0.91102433  1
  O2-  O186  1  0.82324384  0.06750202  0.23314706  1
  O2-  O187  1  0.82391022  0.06994517  0.56873387  1
  O2-  O188  1  0.82326760  0.06968686  0.90925969  1
  O2-  O189  1  0.82184851  0.57435061  0.24469477  1
  O2-  O190  1  0.82035631  0.56722761  0.56578452  1
  O2-  O191  1  0.82371573  0.57030136  0.90362936  1
  O2-  O192  1  0.04306065  0.07975595  0.26731409  1
  O2-  O193  1  0.04479679  0.08552832  0.60495893  1
  O2-  O194  1  0.04810551  0.07651544  0.93004622  1
  O2-  O195  1  0.04312209  0.58526156  0.26982840  1
  O2-  O196  1  0.03688784  0.58180439  0.59690400  1
  O2-  O197  1  0.04312811  0.58793858  0.93896521  1
  O2-  O198  1  0.54427258  0.08366099  0.27447580  1
  O2-  O199  1  0.53958746  0.08630162  0.59343509  1
  O2-  O200  1  0.53760823  0.08505343  0.93399700  1
  O2-  O201  1  0.54456752  0.59027675  0.26878892  1
  O2-  O202  1  0.54824196  0.58079746  0.60576262  1
  O2-  O203  1  0.54772608  0.57836061  0.93509118  1
  O2-  O204  1  0.16434791  0.21161095  0.26450911  1
  O2-  O205  1  0.16565100  0.20568279  0.60739377  1
  O2-  O206  1  0.17125789  0.20683120  0.93163533  1
  O2-  O207  1  0.16284636  0.70558863  0.27003567  1
  O2-  O208  1  0.16158613  0.71023280  0.59216576  1
  O2-  O209  1  0.16264761  0.70639376  0.93952026  1
  O2-  O210  1  0.66756474  0.20120550  0.27266513  1
  O2-  O211  1  0.66902684  0.21161793  0.59701568  1
  O2-  O212  1  0.66715694  0.20803534  0.93532794  1
  O2-  O213  1  0.66528757  0.70818445  0.27345024  1
  O2-  O214  1  0.66571921  0.70332635  0.60185053  1
  O2-  O215  1  0.67257050  0.70718988  0.93306345  1
  O2-  O216  1  0.09040631  0.46284273  0.06540227  1
  O2-  O217  1  0.08420726  0.45906884  0.40007102  1
  O2-  O218  1  0.08055575  0.45810173  0.73506693  1
  O2-  O219  1  0.07863087  0.95265248  0.06808101  1
  O2-  O220  1  0.08590072  0.95097982  0.39677490  1
  O2-  O221  1  0.08445000  0.95114057  0.72578483  1
  O2-  O222  1  0.57800770  0.45417193  0.07081706  1
  O2-  O223  1  0.58655420  0.46252269  0.39576618  1
  O2-  O224  1  0.57668439  0.44574899  0.73233902  1
  O2-  O225  1  0.58457983  0.96169722  0.06761443  1
  O2-  O226  1  0.57625668  0.95150382  0.40260695  1
  O2-  O227  1  0.58391176  0.95822219  0.72659227  1
  O2-  O228  1  0.20446148  0.33717043  0.06221991  1
  O2-  O229  1  0.21248598  0.33233392  0.39945875  1
  O2-  O230  1  0.20568051  0.33048759  0.73986426  1
  O2-  O231  1  0.20758204  0.82996790  0.07127521  1
  O2-  O232  1  0.20768879  0.83401363  0.39712245  1
  O2-  O233  1  0.20137533  0.83262934  0.72178810  1
  O2-  O234  1  0.70957563  0.32998014  0.07194320  1
  O2-  O235  1  0.70068586  0.33696161  0.39490375  1
  O2-  O236  1  0.71333741  0.33251139  0.73299523  1
  O2-  O237  1  0.71222069  0.83584996  0.06631548  1
  O2-  O238  1  0.70968442  0.83170396  0.40627195  1
  O2-  O239  1  0.69933149  0.83482889  0.72727066  1
  O2-  O240  1  0.45689397  0.41893199  0.26735751  1
  O2-  O241  1  0.44677048  0.41826670  0.60634571  1
  O2-  O242  1  0.44874655  0.41915787  0.93842684  1
  O2-  O243  1  0.45259763  0.91583028  0.27102961  1
  O2-  O244  1  0.46259825  0.91417552  0.59274335  1
  O2-  O245  1  0.45805185  0.91926447  0.93504492  1
  O2-  O246  1  0.95607276  0.41616968  0.26966829  1
  O2-  O247  1  0.95759712  0.41101983  0.60211411  1
  O2-  O248  1  0.96401882  0.41901236  0.93114117  1
  O2-  O249  1  0.95801557  0.90917245  0.26983749  1
  O2-  O250  1  0.95723228  0.91651328  0.59906622  1
  O2-  O251  1  0.95553514  0.91168526  0.93659813  1
  O2-  O252  1  0.33559595  0.28810949  0.26545960  1
  O2-  O253  1  0.33270528  0.29208395  0.60619805  1
  O2-  O254  1  0.33256146  0.30012576  0.93714638  1
  O2-  O255  1  0.33667833  0.79297696  0.26752965  1
  O2-  O256  1  0.33331949  0.79036278  0.59400134  1
  O2-  O257  1  0.33034963  0.79078564  0.93410311  1
  O2-  O258  1  0.83092229  0.30320620  0.27214434  1
  O2-  O259  1  0.84002449  0.28981580  0.60185494  1
  O2-  O260  1  0.83110711  0.29819910  0.93104839  1
  O2-  O261  1  0.83663942  0.79015984  0.27325947  1
  O2-  O262  1  0.83081030  0.80409124  0.60160639  1
  O2-  O263  1  0.83859802  0.79218932  0.93692504  1
  O2-  O264  1  0.41712005  0.04035725  0.07353325  1
  O2-  O265  1  0.41079552  0.04370574  0.39701523  1
  O2-  O266  1  0.41926564  0.03667150  0.72920849  1
  O2-  O267  1  0.41424071  0.54884562  0.06244167  1
  O2-  O268  1  0.41751715  0.55122755  0.39308852  1
  O2-  O269  1  0.41843111  0.55073898  0.73530126  1
  O2-  O270  1  0.91690160  0.04454934  0.05952809  1
  O2-  O271  1  0.91868067  0.03718445  0.40055075  1
  O2-  O272  1  0.91811869  0.03920620  0.73664854  1
  O2-  O273  1  0.92037810  0.54081216  0.07102448  1
  O2-  O274  1  0.91405529  0.54405954  0.39561799  1
  O2-  O275  1  0.91680398  0.54096213  0.73263904  1
  O2-  O276  1  0.29461300  0.17226768  0.06922181  1
  O2-  O277  1  0.28857680  0.16138230  0.39564337  1
  O2-  O278  1  0.29354236  0.16359881  0.73632081  1
  O2-  O279  1  0.28929836  0.66143424  0.06598694  1
  O2-  O280  1  0.29502144  0.66723558  0.39368600  1
  O2-  O281  1  0.28570073  0.67117258  0.73215924  1
  O2-  O282  1  0.80227599  0.16811041  0.05864415  1
  O2-  O283  1  0.79933740  0.17246532  0.39933380  1
  O2-  O284  1  0.79213191  0.16653113  0.73503108  1
  O2-  O285  1  0.79524778  0.66943759  0.07068679  1
  O2-  O286  1  0.79318591  0.66133742  0.39886172  1
  O2-  O287  1  0.80164076  0.67518544  0.72808761  1
