# generated using pymatgen
data_Ca2Al2SiO7
_symmetry_space_group_name_H-M   'P 1'
_cell_length_a   15.46572371
_cell_length_b   15.46917181
_cell_length_c   15.29029573
_cell_angle_alpha   90.00353932
_cell_angle_beta   89.99380809
_cell_angle_gamma   89.99738929
_symmetry_Int_Tables_number   1
_chemical_formula_structural   Ca2Al2SiO7
_chemical_formula_sum   'Ca48 Al48 Si24 O168'
_cell_volume   3658.07993724
_cell_formula_units_Z   24
loop_
 _symmetry_equiv_pos_site_id
 _symmetry_equiv_pos_as_xyz
  1  'x, y, z'
loop_
 _atom_type_symbol
 _atom_type_oxidation_number
  Ca2+  2.0
  Al0+  0.0
  Si0+  0.0
  O2-  -2.0
loop_
 _atom_site_type_symbol
 _atom_site_label
 _atom_site_symmetry_multiplicity
 _atom_site_fract_x
 _atom_site_fract_y
 _atom_site_fract_z
 _atom_site_occupancy
  Ca2+  Ca0  1  0.17002487  0.08034539  0.17232298  1
  Ca2+  Ca1  1  0.17655129  0.07652684  0.51068549  1
  Ca2+  Ca2  1  0.17429794  0.08037701  0.83267671  1
  Ca2+  Ca3  1  0.16855684  0.57732997  0.16469523  1
  Ca2+  Ca4  1  0.16879597  0.57193548  0.50141859  1
  Ca2+  Ca5  1  0.17068218  0.57422149  0.84267374  1
  Ca2+  Ca6  1  0.67229002  0.08952090  0.17144903  1
  Ca2+  Ca7  1  0.66894273  0.09649473  0.49903057  1
  Ca2+  Ca8  1  0.66823883  0.09067783  0.84082742  1
  Ca2+  Ca9  1  0.67401062  0.58522994  0.17378641  1
  Ca2+  Ca10  1  0.67018798  0.56985857  0.50184539  1
  Ca2+  Ca11  1  0.66977086  0.57690990  0.84065073  1
  Ca2+  Ca12  1  0.07830957  0.34527693  0.16668738  1
  Ca2+  Ca13  1  0.07492438  0.34256707  0.49526453  1
  Ca2+  Ca14  1  0.07745381  0.34317385  0.82690468  1
  Ca2+  Ca15  1  0.07555945  0.82392492  0.16131812  1
  Ca2+  Ca16  1  0.08088874  0.83295752  0.49298778  1
  Ca2+  Ca17  1  0.08701563  0.82672020  0.83082032  1
  Ca2+  Ca18  1  0.59351386  0.32551625  0.16763713  1
  Ca2+  Ca19  1  0.57768852  0.32974885  0.49473005  1
  Ca2+  Ca20  1  0.58034558  0.32545697  0.82227855  1
  Ca2+  Ca21  1  0.57339338  0.82676093  0.15952002  1
  Ca2+  Ca22  1  0.57745286  0.83083794  0.49213616  1
  Ca2+  Ca23  1  0.58106996  0.82518439  0.83676918  1
  Ca2+  Ca24  1  0.32380684  0.41421214  0.17299803  1
  Ca2+  Ca25  1  0.32504502  0.40332692  0.50512546  1
  Ca2+  Ca26  1  0.32312590  0.41412337  0.83926550  1
  Ca2+  Ca27  1  0.33861520  0.91210497  0.17033781  1
  Ca2+  Ca28  1  0.33186179  0.92200438  0.50877292  1
  Ca2+  Ca29  1  0.33527907  0.91962886  0.83482942  1
  Ca2+  Ca30  1  0.82828605  0.42815770  0.17659457  1
  Ca2+  Ca31  1  0.82306042  0.40717006  0.49940928  1
  Ca2+  Ca32  1  0.82651008  0.41458129  0.83603875  1
  Ca2+  Ca33  1  0.83640349  0.92814723  0.17444725  1
  Ca2+  Ca34  1  0.83608112  0.92288223  0.49938657  1
  Ca2+  Ca35  1  0.82895379  0.92756806  0.84181701  1
  Ca2+  Ca36  1  0.42886659  0.17467822  0.16492404  1
  Ca2+  Ca37  1  0.42342040  0.17358683  0.49640040  1
  Ca2+  Ca38  1  0.42609443  0.17073679  0.82443745  1
  Ca2+  Ca39  1  0.41616089  0.67488625  0.15605461  1
  Ca2+  Ca40  1  0.41537133  0.67468825  0.49314469  1
  Ca2+  Ca41  1  0.41344005  0.66506850  0.83734374  1
  Ca2+  Ca42  1  0.90959215  0.17244769  0.16591501  1
  Ca2+  Ca43  1  0.91715580  0.17823443  0.49298227  1
  Ca2+  Ca44  1  0.91749211  0.17265957  0.82783692  1
  Ca2+  Ca45  1  0.91653916  0.66325412  0.15958361  1
  Ca2+  Ca46  1  0.91612403  0.67215476  0.48990743  1
  Ca2+  Ca47  1  0.92276015  0.65728815  0.83369484  1
  Al0+  Al48  1  -0.00001273  0.00161328  0.00332877  1
  Al0+  Al49  1  0.00035017  -0.00101722  0.33436479  1
  Al0+  Al50  1  -0.00064490  -0.00132016  0.67140491  1
  Al0+  Al51  1  -0.00273631  0.50043393  0.00158973  1
  Al0+  Al52  1  0.00244163  0.50150912  0.33628330  1
  Al0+  Al53  1  0.00156123  0.50245241  0.66286632  1
  Al0+  Al54  1  0.49969404  0.00100109  -0.00725631  1
  Al0+  Al55  1  0.50094015  0.00010552  0.32600776  1
  Al0+  Al56  1  0.50270863  -0.00213856  0.66733031  1
  Al0+  Al57  1  0.49748336  0.49910757  0.00051171  1
  Al0+  Al58  1  0.49898442  0.50129445  0.33384101  1
  Al0+  Al59  1  0.50143637  0.49987774  0.66647951  1
  Al0+  Al60  1  0.24757165  0.24605511  0.00511688  1
  Al0+  Al61  1  0.25074914  0.24779909  0.33487977  1
  Al0+  Al62  1  0.24967803  0.24711276  0.67465489  1
  Al0+  Al63  1  0.24639958  0.74955400  -0.00530417  1
  Al0+  Al64  1  0.24850926  0.74921889  0.32984365  1
  Al0+  Al65  1  0.24899878  0.74870570  0.66808581  1
  Al0+  Al66  1  0.75167759  0.25028262  -0.00032868  1
  Al0+  Al67  1  0.75337463  0.25070417  0.33286894  1
  Al0+  Al68  1  0.75201208  0.25121663  0.66493189  1
  Al0+  Al69  1  0.74743877  0.75259038  -0.00115196  1
  Al0+  Al70  1  0.75041479  0.75419460  0.33359998  1
  Al0+  Al71  1  0.75145776  0.75132903  0.66708615  1
  Al0+  Al72  1  0.57186579  0.18162320  0.31703786  1
  Al0+  Al73  1  0.93175360  0.32174434  0.31812306  1
  Al0+  Al74  1  0.42741209  0.82041363  0.98197803  1
  Al0+  Al75  1  0.67818717  0.42896638  0.34819424  1
  Al0+  Al76  1  0.18186820  0.42822880  0.34866840  1
  Al0+  Al77  1  0.42591351  0.32345985  0.31780118  1
  Al0+  Al78  1  0.82202392  0.07074729  0.34892557  1
  Al0+  Al79  1  0.82182342  0.57455185  0.34854031  1
  Al0+  Al80  1  0.57230463  0.67555046  0.98498020  1
  Al0+  Al81  1  0.82071564  0.07136157  0.01438438  1
  Al0+  Al82  1  0.57126179  0.18360871  0.98557579  1
  Al0+  Al83  1  0.32383190  0.06953219  0.68287203  1
  Al0+  Al84  1  0.17917169  0.42941500  0.67982591  1
  Al0+  Al85  1  0.42689833  0.32193991  0.65371122  1
  Al0+  Al86  1  0.06636717  0.67875931  0.98504550  1
  Al0+  Al87  1  0.92860757  0.82235424  0.31952997  1
  Al0+  Al88  1  0.32084878  0.57189878  0.01496575  1
  Al0+  Al89  1  0.81772445  0.57158263  0.01123306  1
  Al0+  Al90  1  0.42812053  0.82000965  0.32149292  1
  Al0+  Al91  1  0.68005779  0.42866347  0.68098481  1
  Al0+  Al92  1  0.57225912  0.17741770  0.65116380  1
  Al0+  Al93  1  0.17776100  0.92699760  0.68267333  1
  Al0+  Al94  1  0.17824246  0.42702727  0.01616509  1
  Al0+  Al95  1  0.93211978  0.32187942  0.65272267  1
  Si0+  Si96  1  0.67612172  0.92981894  0.01710074  1
  Si0+  Si97  1  0.17866784  0.92877846  0.01656804  1
  Si0+  Si98  1  0.67689924  0.42708827  0.01445106  1
  Si0+  Si99  1  0.57238660  0.67866510  0.31900690  1
  Si0+  Si100  1  0.32306307  0.57318391  0.68196453  1
  Si0+  Si101  1  0.93207628  0.31966389  0.98543129  1
  Si0+  Si102  1  0.81922087  0.07044137  0.68142525  1
  Si0+  Si103  1  0.92872039  0.82203830  0.65218506  1
  Si0+  Si104  1  0.67687214  0.93068978  0.34997935  1
  Si0+  Si105  1  0.07116100  0.17470055  0.65184817  1
  Si0+  Si106  1  0.32211876  0.06860327  0.01742246  1
  Si0+  Si107  1  0.42981548  0.81817769  0.65212306  1
  Si0+  Si108  1  0.07222252  0.17518247  0.98465816  1
  Si0+  Si109  1  0.92757902  0.82533495  0.98254795  1
  Si0+  Si110  1  0.18016791  0.92804204  0.34655635  1
  Si0+  Si111  1  0.07120511  0.67869774  0.31525981  1
  Si0+  Si112  1  0.67968530  0.92510134  0.68279511  1
  Si0+  Si113  1  0.82117097  0.57447471  0.68246648  1
  Si0+  Si114  1  0.07233554  0.17673476  0.31805159  1
  Si0+  Si115  1  0.32290032  0.06896584  0.34709678  1
  Si0+  Si116  1  0.42285617  0.32065057  0.98447880  1
  Si0+  Si117  1  0.57455532  0.67865574  0.65068645  1
  Si0+  Si118  1  0.32159201  0.57461716  0.34943388  1
  Si0+  Si119  1  0.07133081  0.68031299  0.64938407  1
  O2-  O120  1  0.25247903  -0.00401290  0.06015670  1
  O2-  O121  1  0.25199173  -0.00265799  0.38906248  1
  O2-  O122  1  0.25097187  -0.00266185  0.73294042  1
  O2-  O123  1  0.25379783  0.49562559  0.06545178  1
  O2-  O124  1  0.26070066  0.49954636  0.39466011  1
  O2-  O125  1  0.25932026  0.49899363  0.72428902  1
  O2-  O126  1  0.74623796  -0.00318325  0.06120423  1
  O2-  O127  1  0.74462688  -0.00085840  0.39647733  1
  O2-  O128  1  0.74536947  0.00212767  0.72338953  1
  O2-  O129  1  0.73658485  0.50427030  0.05718209  1
  O2-  O130  1  0.75158774  0.50084296  0.39814221  1
  O2-  O131  1  0.75450022  0.50437947  0.72671862  1
  O2-  O132  1  0.00672090  0.24695683  0.27141915  1
  O2-  O133  1  0.00871844  0.24805018  0.60671783  1
  O2-  O134  1  0.00491005  0.25005438  0.94341040  1
  O2-  O135  1  -0.00260804  0.74299395  0.27259296  1
  O2-  O136  1  0.00059748  0.75255430  0.60904711  1
  O2-  O137  1  -0.00909109  0.75277692  0.93653939  1
  O2-  O138  1  0.50341217  0.25748732  0.26726990  1
  O2-  O139  1  0.49907627  0.24956729  0.60399159  1
  O2-  O140  1  0.49732532  0.25876788  0.93965249  1
  O2-  O141  1  0.49964725  0.74305622  0.27519036  1
  O2-  O142  1  0.50031805  0.74726137  0.60904774  1
  O2-  O143  1  0.49746972  0.74501452  0.93378123  1
  O2-  O144  1  0.07191255  0.17012394  0.08936883  1
  O2-  O145  1  0.07101223  0.17442665  0.42358369  1
  O2-  O146  1  0.06568472  0.17115821  0.75755191  1
  O2-  O147  1  0.06489705  0.68063949  0.09796679  1
  O2-  O148  1  0.07545036  0.68304306  0.42113137  1
  O2-  O149  1  0.06992803  0.67898582  0.75436502  1
  O2-  O150  1  0.57277256  0.18361624  0.09821251  1
  O2-  O151  1  0.56811341  0.17905495  0.43026992  1
  O2-  O152  1  0.57282552  0.17942820  0.76506964  1
  O2-  O153  1  0.57490838  0.68157692  0.09839049  1
  O2-  O154  1  0.57162309  0.68252028  0.42519817  1
  O2-  O155  1  0.57756947  0.68130734  0.75533307  1
  O2-  O156  1  0.18010622  0.43100667  0.23597862  1
  O2-  O157  1  0.17747998  0.43334506  0.56693658  1
  O2-  O158  1  0.17700061  0.42851030  0.90230313  1
  O2-  O159  1  0.17985605  0.92879216  0.24138839  1
  O2-  O160  1  0.17877443  0.92716831  0.56842891  1
  O2-  O161  1  0.17641263  0.93209211  0.91174972  1
  O2-  O162  1  0.68150642  0.43069323  0.23427233  1
  O2-  O163  1  0.68056774  0.42957743  0.56844714  1
  O2-  O164  1  0.68234814  0.42381786  0.90869838  1
  O2-  O165  1  0.67727710  0.93074491  0.24470198  1
  O2-  O166  1  0.68224833  0.91789879  0.57828566  1
  O2-  O167  1  0.67848521  0.93065247  0.91087593  1
  O2-  O168  1  0.41932626  0.31521265  0.08960500  1
  O2-  O169  1  0.42239150  0.31637144  0.43097170  1
  O2-  O170  1  0.42859164  0.32165251  0.76760899  1
  O2-  O171  1  0.42959764  0.82094045  0.09573986  1
  O2-  O172  1  0.42822544  0.81988500  0.43531895  1
  O2-  O173  1  0.42990703  0.81700269  0.75671341  1
  O2-  O174  1  0.93168126  0.31904517  0.09024777  1
  O2-  O175  1  0.93295741  0.31915316  0.43126609  1
  O2-  O176  1  0.93136109  0.31992536  0.76649153  1
  O2-  O177  1  0.93231694  0.82758144  0.08787572  1
  O2-  O178  1  0.93401305  0.82368099  0.43328125  1
  O2-  O179  1  0.92730266  0.82208073  0.75707946  1
  O2-  O180  1  0.32079412  0.06767293  0.24174472  1
  O2-  O181  1  0.32238631  0.06541863  0.56867521  1
  O2-  O182  1  0.32018809  0.06869639  0.91263764  1
  O2-  O183  1  0.31631735  0.58054145  0.24467856  1
  O2-  O184  1  0.31910560  0.58083795  0.57659077  1
  O2-  O185  1  0.31648713  0.57100189  0.90102164  1
  O2-  O186  1  0.82280222  0.06859066  0.23593954  1
  O2-  O187  1  0.82196344  0.06772318  0.57666719  1
  O2-  O188  1  0.82097274  0.07115256  0.90061548  1
  O2-  O189  1  0.81937129  0.57437268  0.23470387  1
  O2-  O190  1  0.81839243  0.57988202  0.57749446  1
  O2-  O191  1  0.82110180  0.56542544  0.89788743  1
  O2-  O192  1  0.04557019  0.08374507  0.27092800  1
  O2-  O193  1  0.04129940  0.08230937  0.60456655  1
  O2-  O194  1  0.04018431  0.08572295  0.93483039  1
  O2-  O195  1  0.05009175  0.58435047  0.27067927  1
  O2-  O196  1  0.04277880  0.59051394  0.59903417  1
  O2-  O197  1  0.03385256  0.58262682  0.93011859  1
  O2-  O198  1  0.54138219  0.08417495  0.26280538  1
  O2-  O199  1  0.54878637  0.07627582  0.60061358  1
  O2-  O200  1  0.54145101  0.08680375  0.93189585  1
  O2-  O201  1  0.55360686  0.58381998  0.27446192  1
  O2-  O202  1  0.54956858  0.58650533  0.60370521  1
  O2-  O203  1  0.54809235  0.57540621  0.93243239  1
  O2-  O204  1  0.16688392  0.19838774  0.27264647  1
  O2-  O205  1  0.16803107  0.19299768  0.61139753  1
  O2-  O206  1  0.16554469  0.19853955  0.93819637  1
  O2-  O207  1  0.16143919  0.71087036  0.26639502  1
  O2-  O208  1  0.16292907  0.70846905  0.60148012  1
  O2-  O209  1  0.16091065  0.71117076  0.92881526  1
  O2-  O210  1  0.67176754  0.20748223  0.26599339  1
  O2-  O211  1  0.67074119  0.20714405  0.60018377  1
  O2-  O212  1  0.66894935  0.21298061  0.93184282  1
  O2-  O213  1  0.66388725  0.70985748  0.27253779  1
  O2-  O214  1  0.66459659  0.71174153  0.60275400  1
  O2-  O215  1  0.66909472  0.70921361  0.92877480  1
  O2-  O216  1  0.08093293  0.46138938  0.06746320  1
  O2-  O217  1  0.08705485  0.46382946  0.40324702  1
  O2-  O218  1  0.08372160  0.46696406  0.73302251  1
  O2-  O219  1  0.08857311  0.96044211  0.06531945  1
  O2-  O220  1  0.08963811  0.95674398  0.39556943  1
  O2-  O221  1  0.07958771  0.95475996  0.73706353  1
  O2-  O222  1  0.57961718  0.43969305  0.05608702  1
  O2-  O223  1  0.57856883  0.45576523  0.40088595  1
  O2-  O224  1  0.58319098  0.45889182  0.73480746  1
  O2-  O225  1  0.58224300  0.95700219  0.06082433  1
  O2-  O226  1  0.58233096  0.95514301  0.39552203  1
  O2-  O227  1  0.58652188  0.94662173  0.72937090  1
  O2-  O228  1  0.19987313  0.32620251  0.06799690  1
  O2-  O229  1  0.20706795  0.32916123  0.40140892  1
  O2-  O230  1  0.19992287  0.33073760  0.73412472  1
  O2-  O231  1  0.20253732  0.83571198  0.06203966  1
  O2-  O232  1  0.20647465  0.83592090  0.39420180  1
  O2-  O233  1  0.20616804  0.82845471  0.73487600  1
  O2-  O234  1  0.71428011  0.33845351  0.06260577  1
  O2-  O235  1  0.71040557  0.33158537  0.40059252  1
  O2-  O236  1  0.71484644  0.33316473  0.73553899  1
  O2-  O237  1  0.69882258  0.83570946  0.06251372  1
  O2-  O238  1  0.70288506  0.83799501  0.39802941  1
  O2-  O239  1  0.71420197  0.83718899  0.73453432  1
  O2-  O240  1  0.44402551  0.42608436  0.26987035  1
  O2-  O241  1  0.45220605  0.42174156  0.60131447  1
  O2-  O242  1  0.43934156  0.41748436  0.94291508  1
  O2-  O243  1  0.45917061  0.91443201  0.26450056  1
  O2-  O244  1  0.45834171  0.90955693  0.60486208  1
  O2-  O245  1  0.45920785  0.91735194  0.92782230  1
  O2-  O246  1  0.96317018  0.41939895  0.26638015  1
  O2-  O247  1  0.96110877  0.41875664  0.59855495  1
  O2-  O248  1  0.95824673  0.41103162  0.93700793  1
  O2-  O249  1  0.96527356  0.91645534  0.26442241  1
  O2-  O250  1  0.95585409  0.91437689  0.60520886  1
  O2-  O251  1  0.95919524  0.91735228  0.93570375  1
  O2-  O252  1  0.32979457  0.28693433  0.26413410  1
  O2-  O253  1  0.32706837  0.29091828  0.60435769  1
  O2-  O254  1  0.33098287  0.28764298  0.93813638  1
  O2-  O255  1  0.33118096  0.79206932  0.26654733  1
  O2-  O256  1  0.33721386  0.79081245  0.60519149  1
  O2-  O257  1  0.32788888  0.79571771  0.92995267  1
  O2-  O258  1  0.83643875  0.29025347  0.26343093  1
  O2-  O259  1  0.83735925  0.28729984  0.59887352  1
  O2-  O260  1  0.84163431  0.28866343  0.93693995  1
  O2-  O261  1  0.82946594  0.80122918  0.26702783  1
  O2-  O262  1  0.83761814  0.79361143  0.60349145  1
  O2-  O263  1  0.83137784  0.80718242  0.93974705  1
  O2-  O264  1  0.41477847  0.04113162  0.06260155  1
  O2-  O265  1  0.41434959  0.03938512  0.39315128  1
  O2-  O266  1  0.42184881  0.03827704  0.73547614  1
  O2-  O267  1  0.42233948  0.55336973  0.06576029  1
  O2-  O268  1  0.41821136  0.56045446  0.39287228  1
  O2-  O269  1  0.41908777  0.55529519  0.72531964  1
  O2-  O270  1  0.91718923  0.04109644  0.06886782  1
  O2-  O271  1  0.91763058  0.03589604  0.40339195  1
  O2-  O272  1  0.90932019  0.03959796  0.73102983  1
  O2-  O273  1  0.91152426  0.53638838  0.06708302  1
  O2-  O274  1  0.92210848  0.55102026  0.39901542  1
  O2-  O275  1  0.91645499  0.54939690  0.72445268  1
  O2-  O276  1  0.29082022  0.15805656  0.06694970  1
  O2-  O277  1  0.29374065  0.15888485  0.39634809  1
  O2-  O278  1  0.29453096  0.16542322  0.74015856  1
  O2-  O279  1  0.28634565  0.67012811  0.06544339  1
  O2-  O280  1  0.28743171  0.66549691  0.39877686  1
  O2-  O281  1  0.29105444  0.66349023  0.73117416  1
  O2-  O282  1  0.79001123  0.16801198  0.06775861  1
  O2-  O283  1  0.79420368  0.16784990  0.40215138  1
  O2-  O284  1  0.79455645  0.16266139  0.72893624  1
  O2-  O285  1  0.79582539  0.67208280  0.06193162  1
  O2-  O286  1  0.79378226  0.67408773  0.40067997  1
  O2-  O287  1  0.79543819  0.66735799  0.73092794  1
