# generated using pymatgen
data_Ca2Al2SiO7
_symmetry_space_group_name_H-M   'P 1'
_cell_length_a   15.46425984
_cell_length_b   15.46290200
_cell_length_c   15.28823575
_cell_angle_alpha   90.00246438
_cell_angle_beta   90.00298626
_cell_angle_gamma   90.00985164
_symmetry_Int_Tables_number   1
_chemical_formula_structural   Ca2Al2SiO7
_chemical_formula_sum   'Ca48 Al48 Si24 O168'
_cell_volume   3655.75855817
_cell_formula_units_Z   24
loop_
 _symmetry_equiv_pos_site_id
 _symmetry_equiv_pos_as_xyz
  1  'x, y, z'
loop_
 _atom_type_symbol
 _atom_type_oxidation_number
  Ca2+  2.0
  Al0+  0.0
  Si0+  0.0
  O2-  -2.0
loop_
 _atom_site_type_symbol
 _atom_site_label
 _atom_site_symmetry_multiplicity
 _atom_site_fract_x
 _atom_site_fract_y
 _atom_site_fract_z
 _atom_site_occupancy
  Ca2+  Ca0  1  0.18297982  0.07843341  0.17698110  1
  Ca2+  Ca1  1  0.17515567  0.08173022  0.50989569  1
  Ca2+  Ca2  1  0.18044344  0.09254365  0.83374353  1
  Ca2+  Ca3  1  0.17295154  0.58653118  0.16969060  1
  Ca2+  Ca4  1  0.16500705  0.57918952  0.50406182  1
  Ca2+  Ca5  1  0.17231662  0.57327099  0.83450104  1
  Ca2+  Ca6  1  0.65668914  0.07963036  0.17386510  1
  Ca2+  Ca7  1  0.65650341  0.07673075  0.50372127  1
  Ca2+  Ca8  1  0.65516031  0.08361497  0.83295585  1
  Ca2+  Ca9  1  0.66721488  0.57553473  0.17432595  1
  Ca2+  Ca10  1  0.67766253  0.58014804  0.50828369  1
  Ca2+  Ca11  1  0.66839458  0.56691725  0.83393409  1
  Ca2+  Ca12  1  0.07490592  0.33617103  0.16754097  1
  Ca2+  Ca13  1  0.07698700  0.33397855  0.50167846  1
  Ca2+  Ca14  1  0.07965607  0.33017371  0.81868068  1
  Ca2+  Ca15  1  0.09294792  0.82868864  0.16738062  1
  Ca2+  Ca16  1  0.08927256  0.82960231  0.49287901  1
  Ca2+  Ca17  1  0.08540035  0.83250380  0.82583547  1
  Ca2+  Ca18  1  0.58015250  0.32110456  0.15665681  1
  Ca2+  Ca19  1  0.58382062  0.32431029  0.49836658  1
  Ca2+  Ca20  1  0.57572135  0.32878195  0.82572683  1
  Ca2+  Ca21  1  0.58233693  0.82785724  0.16468412  1
  Ca2+  Ca22  1  0.58805007  0.83133080  0.49277390  1
  Ca2+  Ca23  1  0.57574313  0.83571733  0.82887735  1
  Ca2+  Ca24  1  0.34038120  0.42063373  0.16470927  1
  Ca2+  Ca25  1  0.32884186  0.41535012  0.51023983  1
  Ca2+  Ca26  1  0.33334944  0.41151237  0.83826759  1
  Ca2+  Ca27  1  0.33835584  0.92640078  0.17204225  1
  Ca2+  Ca28  1  0.32564202  0.92938084  0.50369297  1
  Ca2+  Ca29  1  0.33362500  0.92980700  0.83561586  1
  Ca2+  Ca30  1  0.82639002  0.41743416  0.17363032  1
  Ca2+  Ca31  1  0.83587946  0.42375000  0.50789537  1
  Ca2+  Ca32  1  0.81976271  0.40518860  0.83038245  1
  Ca2+  Ca33  1  0.82452262  0.92133126  0.17435374  1
  Ca2+  Ca34  1  0.81955485  0.91471156  0.50456869  1
  Ca2+  Ca35  1  0.82563763  0.91931661  0.83208167  1
  Ca2+  Ca36  1  0.42339442  0.16394581  0.16068136  1
  Ca2+  Ca37  1  0.41951592  0.16537044  0.50124298  1
  Ca2+  Ca38  1  0.42181276  0.17033892  0.82699386  1
  Ca2+  Ca39  1  0.41935652  0.67300460  0.15894292  1
  Ca2+  Ca40  1  0.42689110  0.66981144  0.49212489  1
  Ca2+  Ca41  1  0.40863721  0.67290911  0.83288117  1
  Ca2+  Ca42  1  0.91507256  0.17315365  0.16555041  1
  Ca2+  Ca43  1  0.91844625  0.17897338  0.49825940  1
  Ca2+  Ca44  1  0.92656698  0.17252714  0.82080482  1
  Ca2+  Ca45  1  0.91956811  0.66411010  0.17083614  1
  Ca2+  Ca46  1  0.91807167  0.66308152  0.49155688  1
  Ca2+  Ca47  1  0.91369489  0.66672118  0.82707507  1
  Al0+  Al48  1  -0.00190038  -0.00201197  0.00066934  1
  Al0+  Al49  1  -0.00072745  0.00060413  0.33505276  1
  Al0+  Al50  1  -0.00189752  -0.00302345  0.66405746  1
  Al0+  Al51  1  -0.00083801  0.50089031  -0.00129301  1
  Al0+  Al52  1  -0.00031800  0.50192002  0.32598502  1
  Al0+  Al53  1  0.00321342  0.50325686  0.67214486  1
  Al0+  Al54  1  0.49885414  -0.00367652  -0.00278341  1
  Al0+  Al55  1  0.49860775  0.00046847  0.33878179  1
  Al0+  Al56  1  0.49754937  -0.00100623  0.67033089  1
  Al0+  Al57  1  0.50098641  0.49881904  0.00633339  1
  Al0+  Al58  1  0.50073374  0.49982317  0.33075069  1
  Al0+  Al59  1  0.50218030  0.50284195  0.66586213  1
  Al0+  Al60  1  0.24863303  0.24890994  0.00661087  1
  Al0+  Al61  1  0.24932643  0.25248763  0.33601922  1
  Al0+  Al62  1  0.25025973  0.25097773  0.66704824  1
  Al0+  Al63  1  0.24929317  0.74711516  -0.00275560  1
  Al0+  Al64  1  0.25071636  0.74972919  0.33214006  1
  Al0+  Al65  1  0.24972221  0.75233566  0.66721711  1
  Al0+  Al66  1  0.75104731  0.24835792  0.00091039  1
  Al0+  Al67  1  0.74854459  0.24963992  0.32448436  1
  Al0+  Al68  1  0.75049805  0.24977729  0.66112991  1
  Al0+  Al69  1  0.75216162  0.74964278  -0.00045980  1
  Al0+  Al70  1  0.75135048  0.74911338  0.33395223  1
  Al0+  Al71  1  0.75019881  0.75121105  0.67626766  1
  Al0+  Al72  1  0.67820600  0.93039070  0.68213547  1
  Al0+  Al73  1  0.07130259  0.68107114  0.31896380  1
  Al0+  Al74  1  0.68074977  0.93041314  0.34522467  1
  Al0+  Al75  1  0.56709883  0.17902095  0.31958319  1
  Al0+  Al76  1  0.57426298  0.67812999  0.32046678  1
  Al0+  Al77  1  0.17650737  0.92787401  0.68219245  1
  Al0+  Al78  1  0.82021567  0.56806074  0.34548219  1
  Al0+  Al79  1  0.17837938  0.92761713  0.34717890  1
  Al0+  Al80  1  0.32111103  0.07361594  0.35077780  1
  Al0+  Al81  1  0.92956780  0.32351811  0.65227590  1
  Al0+  Al82  1  0.93020492  0.32102631  0.31854960  1
  Al0+  Al83  1  0.32123935  0.07019313  0.01552381  1
  Al0+  Al84  1  0.31932047  0.07175878  0.68390014  1
  Al0+  Al85  1  0.68016362  0.42735059  0.01573384  1
  Al0+  Al86  1  0.57141419  0.17728295  0.98424520  1
  Al0+  Al87  1  0.57013405  0.17767345  0.65011909  1
  Al0+  Al88  1  0.42901592  0.32467846  0.65166985  1
  Al0+  Al89  1  0.42794919  0.32170304  0.98642788  1
  Al0+  Al90  1  0.42900452  0.81796489  0.98567836  1
  Al0+  Al91  1  0.82294186  0.57105548  0.68267078  1
  Al0+  Al92  1  0.31995579  0.57032392  0.01379016  1
  Al0+  Al93  1  0.67847993  0.42650821  0.67971168  1
  Al0+  Al94  1  0.18176247  0.43044283  0.67841544  1
  Al0+  Al95  1  0.07220976  0.17668830  0.65187336  1
  Si0+  Si96  1  0.07151218  0.68169902  0.65196439  1
  Si0+  Si97  1  0.92842529  0.82135223  0.98354469  1
  Si0+  Si98  1  0.42459143  0.32405020  0.31616018  1
  Si0+  Si99  1  0.43003281  0.81946818  0.31804979  1
  Si0+  Si100  1  0.07040068  0.67900115  0.98221639  1
  Si0+  Si101  1  0.06920380  0.17775426  0.98837967  1
  Si0+  Si102  1  0.07337940  0.17734246  0.31603518  1
  Si0+  Si103  1  0.32430365  0.57401848  0.68049877  1
  Si0+  Si104  1  0.82305463  0.06939501  0.01480385  1
  Si0+  Si105  1  0.67949314  0.92844811  0.01485572  1
  Si0+  Si106  1  0.82244619  0.57313341  0.01916730  1
  Si0+  Si107  1  0.17530131  0.42762582  0.01859893  1
  Si0+  Si108  1  0.57284073  0.68156578  0.65330310  1
  Si0+  Si109  1  0.92681937  0.82367695  0.31670556  1
  Si0+  Si110  1  0.57469902  0.67701797  0.98276323  1
  Si0+  Si111  1  0.17823570  0.43220570  0.34675079  1
  Si0+  Si112  1  0.82262985  0.07547761  0.34968789  1
  Si0+  Si113  1  0.92993982  0.32122920  0.98441193  1
  Si0+  Si114  1  0.32284797  0.57125480  0.34768416  1
  Si0+  Si115  1  0.92594687  0.81969589  0.65105461  1
  Si0+  Si116  1  0.17633067  0.92763902  0.01584672  1
  Si0+  Si117  1  0.42831759  0.82019728  0.65005170  1
  Si0+  Si118  1  0.67713415  0.42584885  0.34978447  1
  Si0+  Si119  1  0.82209837  0.07210060  0.68133085  1
  O2-  O120  1  0.24540055  -0.00506071  0.06036279  1
  O2-  O121  1  0.24345242  0.00509391  0.39711824  1
  O2-  O122  1  0.24334992  0.00285293  0.73365319  1
  O2-  O123  1  0.24740663  0.49349708  0.06183970  1
  O2-  O124  1  0.25397623  0.49836848  0.38902325  1
  O2-  O125  1  0.26184560  0.49970887  0.72446827  1
  O2-  O126  1  0.74713943  0.00297046  0.05640905  1
  O2-  O127  1  0.75516627  0.00517961  0.39269046  1
  O2-  O128  1  0.74909366  0.00917453  0.72829857  1
  O2-  O129  1  0.75374300  0.50447828  0.06222515  1
  O2-  O130  1  0.74505020  0.49539683  0.39337275  1
  O2-  O131  1  0.75404619  0.49534934  0.73062377  1
  O2-  O132  1  0.00265755  0.24379321  0.27059038  1
  O2-  O133  1  0.00026444  0.24969356  0.60281530  1
  O2-  O134  1  0.00301394  0.25213041  0.94388343  1
  O2-  O135  1  0.00073272  0.76027357  0.27201779  1
  O2-  O136  1  -0.00032943  0.75148408  0.60953343  1
  O2-  O137  1  -0.00085804  0.75019563  0.94103190  1
  O2-  O138  1  0.49222748  0.25369464  0.27360209  1
  O2-  O139  1  0.50068765  0.25281858  0.60099033  1
  O2-  O140  1  0.49976996  0.25024723  0.93586097  1
  O2-  O141  1  0.49885915  0.75139666  0.27280424  1
  O2-  O142  1  0.50073322  0.75028121  0.60875829  1
  O2-  O143  1  0.50366360  0.74291124  0.93778097  1
  O2-  O144  1  0.06445499  0.17732881  0.09352521  1
  O2-  O145  1  0.07318314  0.17930021  0.42097141  1
  O2-  O146  1  0.06997299  0.17911598  0.76657352  1
  O2-  O147  1  0.07098713  0.67951171  0.08730230  1
  O2-  O148  1  0.07026260  0.67883483  0.43190996  1
  O2-  O149  1  0.07235749  0.68322427  0.75731364  1
  O2-  O150  1  0.57048644  0.17635317  0.09813028  1
  O2-  O151  1  0.56828227  0.17911657  0.43194242  1
  O2-  O152  1  0.56764312  0.17744860  0.76358979  1
  O2-  O153  1  0.57627856  0.68155270  0.08861463  1
  O2-  O154  1  0.57254398  0.67932938  0.43383797  1
  O2-  O155  1  0.57171079  0.68298953  0.75836725  1
  O2-  O156  1  0.17769896  0.43392220  0.24137979  1
  O2-  O157  1  0.17861672  0.43606079  0.56502312  1
  O2-  O158  1  0.17133187  0.42955171  0.91334675  1
  O2-  O159  1  0.18291489  0.92683648  0.23305039  1
  O2-  O160  1  0.18155352  0.92330033  0.56919141  1
  O2-  O161  1  0.17345322  0.92968112  0.91074255  1
  O2-  O162  1  0.67904532  0.42730720  0.24384810  1
  O2-  O163  1  0.67754853  0.43128374  0.56629787  1
  O2-  O164  1  0.68276599  0.42651049  0.90297217  1
  O2-  O165  1  0.68166119  0.93032940  0.23152410  1
  O2-  O166  1  0.68103053  0.92567023  0.56920616  1
  O2-  O167  1  0.68242391  0.92621259  0.90999401  1
  O2-  O168  1  0.43001823  0.32002486  0.10029590  1
  O2-  O169  1  0.42442800  0.32789474  0.42127748  1
  O2-  O170  1  0.42972574  0.32544734  0.76507483  1
  O2-  O171  1  0.43173826  0.81794692  0.09899215  1
  O2-  O172  1  0.42994548  0.81584751  0.42372718  1
  O2-  O173  1  0.42774795  0.81770203  0.75534745  1
  O2-  O174  1  0.93073502  0.32120968  0.08981010  1
  O2-  O175  1  0.93331208  0.32307947  0.43086379  1
  O2-  O176  1  0.93151705  0.32030800  0.76654226  1
  O2-  O177  1  0.92672899  0.82260957  0.08830806  1
  O2-  O178  1  0.92326313  0.81979553  0.42191712  1
  O2-  O179  1  0.92488602  0.81817358  0.75666148  1
  O2-  O180  1  0.32271293  0.07024583  0.23662513  1
  O2-  O181  1  0.32040927  0.06820744  0.57065609  1
  O2-  O182  1  0.31989975  0.07091895  0.90315442  1
  O2-  O183  1  0.32152107  0.57233553  0.24258029  1
  O2-  O184  1  0.32116296  0.57721373  0.57459743  1
  O2-  O185  1  0.31440273  0.57334310  0.90096583  1
  O2-  O186  1  0.82265058  0.07352137  0.24333730  1
  O2-  O187  1  0.82375519  0.06734756  0.57597950  1
  O2-  O188  1  0.82943452  0.06604710  0.91038227  1
  O2-  O189  1  0.81981049  0.56634595  0.23216452  1
  O2-  O190  1  0.82175941  0.57356305  0.56892373  1
  O2-  O191  1  0.82315971  0.57509456  0.91409702  1
  O2-  O192  1  0.05016598  0.08246235  0.27058434  1
  O2-  O193  1  0.04360361  0.07782267  0.59980460  1
  O2-  O194  1  0.03811077  0.08701011  0.94090057  1
  O2-  O195  1  0.03690157  0.58817801  0.25993260  1
  O2-  O196  1  0.04549227  0.58960164  0.60525846  1
  O2-  O197  1  0.04174432  0.58705133  0.93503611  1
  O2-  O198  1  0.53623602  0.08108548  0.26702179  1
  O2-  O199  1  0.53842545  0.07816571  0.60013508  1
  O2-  O200  1  0.54402071  0.07793116  0.93379501  1
  O2-  O201  1  0.54362219  0.58175714  0.26561331  1
  O2-  O202  1  0.54856062  0.59014662  0.60405934  1
  O2-  O203  1  0.55113283  0.58180420  0.94126877  1
  O2-  O204  1  0.16582512  0.20741836  0.26926042  1
  O2-  O205  1  0.16946377  0.20652633  0.59956869  1
  O2-  O206  1  0.16263243  0.20238472  0.94422188  1
  O2-  O207  1  0.16873861  0.70936463  0.26328685  1
  O2-  O208  1  0.16298413  0.70979837  0.60332107  1
  O2-  O209  1  0.16105811  0.70578900  0.93301319  1
  O2-  O210  1  0.66392807  0.20612650  0.26295519  1
  O2-  O211  1  0.67040702  0.19987877  0.59827638  1
  O2-  O212  1  0.67281236  0.20165386  0.93500535  1
  O2-  O213  1  0.66924204  0.71036589  0.26440276  1
  O2-  O214  1  0.66445765  0.71344018  0.60800303  1
  O2-  O215  1  0.66776425  0.70562189  0.93699765  1
  O2-  O216  1  0.08300508  0.45967777  0.06532440  1
  O2-  O217  1  0.08869711  0.46698615  0.39277691  1
  O2-  O218  1  0.08955516  0.46696693  0.73763708  1
  O2-  O219  1  0.08211993  0.95172787  0.06272683  1
  O2-  O220  1  0.07562019  0.94529889  0.39539774  1
  O2-  O221  1  0.07379109  0.94567340  0.73055259  1
  O2-  O222  1  0.58451356  0.45644773  0.07193594  1
  O2-  O223  1  0.58244615  0.45018377  0.39339801  1
  O2-  O224  1  0.58237479  0.46169075  0.73446131  1
  O2-  O225  1  0.58675695  0.95162091  0.06141386  1
  O2-  O226  1  0.58463583  0.95805634  0.40045001  1
  O2-  O227  1  0.58105215  0.95633488  0.73633167  1
  O2-  O228  1  0.19483228  0.33352318  0.06587983  1
  O2-  O229  1  0.19963864  0.33921163  0.39387793  1
  O2-  O230  1  0.20513667  0.33340830  0.73371124  1
  O2-  O231  1  0.20138030  0.83229697  0.05795681  1
  O2-  O232  1  0.21028678  0.82978030  0.39980284  1
  O2-  O233  1  0.20952128  0.83077696  0.73689839  1
  O2-  O234  1  0.71472541  0.33130820  0.06992852  1
  O2-  O235  1  0.70418254  0.33164384  0.39204432  1
  O2-  O236  1  0.70619293  0.32738692  0.73218510  1
  O2-  O237  1  0.71230887  0.83767172  0.06230456  1
  O2-  O238  1  0.71330036  0.83443731  0.39930417  1
  O2-  O239  1  0.71420662  0.83778830  0.74064282  1
  O2-  O240  1  0.45132677  0.41738116  0.26925952  1
  O2-  O241  1  0.45378378  0.42536205  0.59938722  1
  O2-  O242  1  0.45352952  0.42255392  0.93720512  1
  O2-  O243  1  0.45667384  0.91325201  0.27407119  1
  O2-  O244  1  0.45642261  0.91155047  0.60396257  1
  O2-  O245  1  0.46151601  0.91226717  0.92935099  1
  O2-  O246  1  0.96482184  0.41465876  0.26048385  1
  O2-  O247  1  0.96289938  0.42252575  0.60318219  1
  O2-  O248  1  0.95477792  0.41433382  0.93865246  1
  O2-  O249  1  0.94469453  0.91989463  0.27188066  1
  O2-  O250  1  0.94740107  0.91191398  0.60263327  1
  O2-  O251  1  0.95592003  0.91275590  0.93481522  1
  O2-  O252  1  0.32949859  0.30264629  0.27062656  1
  O2-  O253  1  0.33000439  0.29732767  0.59996128  1
  O2-  O254  1  0.32553244  0.29672280  0.93962618  1
  O2-  O255  1  0.33786327  0.79221305  0.27024360  1
  O2-  O256  1  0.33747172  0.79015584  0.60205743  1
  O2-  O257  1  0.33286060  0.78569120  0.93108680  1
  O2-  O258  1  0.83457470  0.29068778  0.26143373  1
  O2-  O259  1  0.83180403  0.29794604  0.59747168  1
  O2-  O260  1  0.83946139  0.28973770  0.93795062  1
  O2-  O261  1  0.83696000  0.79127876  0.26639005  1
  O2-  O262  1  0.83471151  0.78801534  0.60469568  1
  O2-  O263  1  0.83715000  0.79293370  0.93454247  1
  O2-  O264  1  0.41737019  0.03413281  0.06782264  1
  O2-  O265  1  0.41596953  0.03899124  0.40556199  1
  O2-  O266  1  0.41478961  0.03648554  0.73789501  1
  O2-  O267  1  0.41724404  0.54576387  0.06954850  1
  O2-  O268  1  0.41570821  0.54643575  0.39471473  1
  O2-  O269  1  0.41979035  0.55831121  0.72531636  1
  O2-  O270  1  0.91135634  0.03586113  0.06699258  1
  O2-  O271  1  0.91718950  0.05397626  0.39478622  1
  O2-  O272  1  0.91293958  0.04026111  0.73027295  1
  O2-  O273  1  0.91705654  0.54692188  0.06355950  1
  O2-  O274  1  0.91813307  0.53770005  0.39689022  1
  O2-  O275  1  0.92253879  0.55026269  0.73577258  1
  O2-  O276  1  0.28963921  0.16548098  0.07226038  1
  O2-  O277  1  0.29591588  0.17394326  0.40089969  1
  O2-  O278  1  0.29314900  0.17072789  0.73608962  1
  O2-  O279  1  0.28407114  0.66556493  0.06911923  1
  O2-  O280  1  0.29342994  0.66197600  0.39550180  1
  O2-  O281  1  0.29038094  0.66425882  0.72846094  1
  O2-  O282  1  0.80084628  0.16246702  0.06182319  1
  O2-  O283  1  0.79530172  0.16920553  0.39301653  1
  O2-  O284  1  0.80390288  0.16787771  0.72493962  1
  O2-  O285  1  0.79897004  0.66803383  0.06462348  1
  O2-  O286  1  0.79313946  0.66562238  0.39853424  1
  O2-  O287  1  0.79005003  0.66670020  0.73910487  1
