# generated using pymatgen
data_Ca2Al2SiO7
_symmetry_space_group_name_H-M   'P 1'
_cell_length_a   15.45843757
_cell_length_b   15.45829991
_cell_length_c   15.28439294
_cell_angle_alpha   90.00047269
_cell_angle_beta   90.00366463
_cell_angle_gamma   89.99272152
_symmetry_Int_Tables_number   1
_chemical_formula_structural   Ca2Al2SiO7
_chemical_formula_sum   'Ca48 Al48 Si24 O168'
_cell_volume   3652.37629328
_cell_formula_units_Z   24
loop_
 _symmetry_equiv_pos_site_id
 _symmetry_equiv_pos_as_xyz
  1  'x, y, z'
loop_
 _atom_type_symbol
 _atom_type_oxidation_number
  Ca2+  2.0
  Al0+  0.0
  Si0+  0.0
  O2-  -2.0
loop_
 _atom_site_type_symbol
 _atom_site_label
 _atom_site_symmetry_multiplicity
 _atom_site_fract_x
 _atom_site_fract_y
 _atom_site_fract_z
 _atom_site_occupancy
  Ca2+  Ca0  1  0.17125206  0.07084791  0.17021684  1
  Ca2+  Ca1  1  0.16782466  0.07577874  0.51172263  1
  Ca2+  Ca2  1  0.17490097  0.07937102  0.83750960  1
  Ca2+  Ca3  1  0.16576030  0.58866841  0.16732660  1
  Ca2+  Ca4  1  0.16888461  0.57854258  0.50346894  1
  Ca2+  Ca5  1  0.16360042  0.58355391  0.83882524  1
  Ca2+  Ca6  1  0.66564079  0.07979302  0.16917221  1
  Ca2+  Ca7  1  0.67104082  0.09389848  0.50013781  1
  Ca2+  Ca8  1  0.66082274  0.07973330  0.84153984  1
  Ca2+  Ca9  1  0.67095450  0.58082455  0.17750064  1
  Ca2+  Ca10  1  0.67228692  0.57461433  0.50587446  1
  Ca2+  Ca11  1  0.66859622  0.57910341  0.83594227  1
  Ca2+  Ca12  1  0.06669247  0.33469281  0.16009985  1
  Ca2+  Ca13  1  0.07871589  0.32338469  0.49586610  1
  Ca2+  Ca14  1  0.07744819  0.32689145  0.82856042  1
  Ca2+  Ca15  1  0.08085090  0.83274511  0.15783997  1
  Ca2+  Ca16  1  0.07972189  0.84096914  0.49964389  1
  Ca2+  Ca17  1  0.07593602  0.84326143  0.83075536  1
  Ca2+  Ca18  1  0.59318401  0.32124499  0.16542479  1
  Ca2+  Ca19  1  0.58807185  0.32929752  0.49860583  1
  Ca2+  Ca20  1  0.58018139  0.32026945  0.82431811  1
  Ca2+  Ca21  1  0.58543860  0.82295862  0.15465693  1
  Ca2+  Ca22  1  0.58246441  0.82528724  0.49373675  1
  Ca2+  Ca23  1  0.58154480  0.83510918  0.83593877  1
  Ca2+  Ca24  1  0.33047158  0.41871408  0.16832493  1
  Ca2+  Ca25  1  0.33835339  0.41592293  0.50734409  1
  Ca2+  Ca26  1  0.33556376  0.41357418  0.83456330  1
  Ca2+  Ca27  1  0.32722631  0.91249811  0.16464543  1
  Ca2+  Ca28  1  0.32119077  0.92285750  0.50851770  1
  Ca2+  Ca29  1  0.32856133  0.92697356  0.84441747  1
  Ca2+  Ca30  1  0.83096503  0.42112484  0.17861273  1
  Ca2+  Ca31  1  0.82480649  0.42270588  0.50310828  1
  Ca2+  Ca32  1  0.83077049  0.41835921  0.83552665  1
  Ca2+  Ca33  1  0.82969394  0.91857704  0.16865220  1
  Ca2+  Ca34  1  0.83370342  0.92156779  0.50374841  1
  Ca2+  Ca35  1  0.83114245  0.91378474  0.83924584  1
  Ca2+  Ca36  1  0.42699300  0.16089491  0.16100739  1
  Ca2+  Ca37  1  0.42530954  0.16688649  0.50118816  1
  Ca2+  Ca38  1  0.42170000  0.16214266  0.82593825  1
  Ca2+  Ca39  1  0.43018695  0.67201058  0.15923190  1
  Ca2+  Ca40  1  0.42465637  0.66733333  0.49248710  1
  Ca2+  Ca41  1  0.41921282  0.67485848  0.83560726  1
  Ca2+  Ca42  1  0.90452019  0.17831305  0.16589322  1
  Ca2+  Ca43  1  0.92012538  0.16733700  0.49273991  1
  Ca2+  Ca44  1  0.92153533  0.17039973  0.82895428  1
  Ca2+  Ca45  1  0.91992605  0.67203690  0.15680010  1
  Ca2+  Ca46  1  0.90727086  0.66941471  0.49992991  1
  Ca2+  Ca47  1  0.91815443  0.67860172  0.83107564  1
  Al0+  Al48  1  0.00067417  0.00339239  0.00246275  1
  Al0+  Al49  1  0.00026489  -0.00073993  0.33908761  1
  Al0+  Al50  1  -0.00215520  -0.00054682  0.66215693  1
  Al0+  Al51  1  -0.00151356  0.50011968  -0.00811120  1
  Al0+  Al52  1  0.00099529  0.50066066  0.33509234  1
  Al0+  Al53  1  0.00041840  0.50284132  0.67029087  1
  Al0+  Al54  1  0.50169019  -0.00167933  0.00272459  1
  Al0+  Al55  1  0.49695680  -0.00025549  0.33028709  1
  Al0+  Al56  1  0.49985112  -0.00063198  0.66239298  1
  Al0+  Al57  1  0.50039027  0.49814649  -0.00097723  1
  Al0+  Al58  1  0.49923627  0.49969635  0.33177478  1
  Al0+  Al59  1  0.50060705  0.49929842  0.66901316  1
  Al0+  Al60  1  0.24972687  0.25105474  0.00867467  1
  Al0+  Al61  1  0.25064763  0.24835305  0.33163032  1
  Al0+  Al62  1  0.25044008  0.24985715  0.66209476  1
  Al0+  Al63  1  0.25204387  0.74809824  -0.00242288  1
  Al0+  Al64  1  0.24869101  0.75005614  0.33915407  1
  Al0+  Al65  1  0.24756771  0.74902744  0.66923294  1
  Al0+  Al66  1  0.74853279  0.25138518  -0.01000110  1
  Al0+  Al67  1  0.74969790  0.24988738  0.33390914  1
  Al0+  Al68  1  0.75012501  0.25159655  0.66829914  1
  Al0+  Al69  1  0.75227318  0.74834500  -0.00336453  1
  Al0+  Al70  1  0.75077017  0.75084531  0.33218416  1
  Al0+  Al71  1  0.75168095  0.75057962  0.66575458  1
  Al0+  Al72  1  0.57184344  0.67952632  0.32075617  1
  Al0+  Al73  1  0.32313870  0.07224699  0.01771467  1
  Al0+  Al74  1  0.93057772  0.82457488  0.98670167  1
  Al0+  Al75  1  0.82334955  0.57351800  0.34758639  1
  Al0+  Al76  1  0.17661669  0.92898263  0.68411566  1
  Al0+  Al77  1  0.43047842  0.82049232  0.98523147  1
  Al0+  Al78  1  0.57021894  0.17999040  0.31796234  1
  Al0+  Al79  1  0.93154891  0.32000819  0.32208682  1
  Al0+  Al80  1  0.68174051  0.92777744  0.01247361  1
  Al0+  Al81  1  0.17793799  0.92802305  0.01566746  1
  Al0+  Al82  1  0.06912185  0.17983079  0.65386624  1
  Al0+  Al83  1  0.57375429  0.67568190  0.98366025  1
  Al0+  Al84  1  0.92786187  0.32077954  0.98455145  1
  Al0+  Al85  1  0.92927889  0.81969730  0.65006386  1
  Al0+  Al86  1  0.81827594  0.06993754  0.34584738  1
  Al0+  Al87  1  0.56859872  0.17920679  0.98662547  1
  Al0+  Al88  1  0.67866149  0.42851490  0.68540398  1
  Al0+  Al89  1  0.42964892  0.32164834  0.65205373  1
  Al0+  Al90  1  0.07211082  0.67935478  0.98534348  1
  Al0+  Al91  1  0.57267365  0.17640212  0.64992672  1
  Al0+  Al92  1  0.67804645  0.42875498  0.34770628  1
  Al0+  Al93  1  0.82143260  0.57301123  0.68569568  1
  Al0+  Al94  1  0.18032979  0.92908200  0.34944911  1
  Al0+  Al95  1  0.32149456  0.07103973  0.68119731  1
  Si0+  Si96  1  0.82040329  0.07154306  0.68058597  1
  Si0+  Si97  1  0.07419432  0.18010074  0.98589254  1
  Si0+  Si98  1  0.17664613  0.43031987  0.01516504  1
  Si0+  Si99  1  0.92985219  0.82232074  0.31857906  1
  Si0+  Si100  1  0.17948795  0.42891848  0.68091123  1
  Si0+  Si101  1  0.42519998  0.32175572  0.98570664  1
  Si0+  Si102  1  0.67905509  0.42819504  0.01524114  1
  Si0+  Si103  1  0.82166282  0.07549491  0.01437596  1
  Si0+  Si104  1  0.07346380  0.67654752  0.64712467  1
  Si0+  Si105  1  0.17840319  0.42749989  0.34735006  1
  Si0+  Si106  1  0.07211571  0.67931766  0.32048256  1
  Si0+  Si107  1  0.32249882  0.57010961  0.01548591  1
  Si0+  Si108  1  0.67884280  0.92882378  0.67904008  1
  Si0+  Si109  1  0.92837673  0.32473421  0.64904030  1
  Si0+  Si110  1  0.56982209  0.68017530  0.65209475  1
  Si0+  Si111  1  0.82110641  0.56870850  0.01486528  1
  Si0+  Si112  1  0.07300048  0.17542239  0.31520880  1
  Si0+  Si113  1  0.67585222  0.92733198  0.34887822  1
  Si0+  Si114  1  0.32185810  0.57152058  0.68235365  1
  Si0+  Si115  1  0.32346076  0.07344235  0.35253778  1
  Si0+  Si116  1  0.42589410  0.81973191  0.31813925  1
  Si0+  Si117  1  0.42653277  0.82041095  0.65112157  1
  Si0+  Si118  1  0.42531747  0.32316333  0.31401063  1
  Si0+  Si119  1  0.31963344  0.56923056  0.34752029  1
  O2-  O120  1  0.25083375  -0.00087326  0.06634638  1
  O2-  O121  1  0.25247958  0.00651411  0.39524175  1
  O2-  O122  1  0.25141980  -0.00179708  0.73248402  1
  O2-  O123  1  0.24820700  0.50138286  0.05733872  1
  O2-  O124  1  0.25284117  0.49456313  0.39064474  1
  O2-  O125  1  0.25052883  0.50005291  0.72341892  1
  O2-  O126  1  0.75717901  0.00256896  0.05827423  1
  O2-  O127  1  0.74185348  -0.00246457  0.39455491  1
  O2-  O128  1  0.74465654  0.00497885  0.72066580  1
  O2-  O129  1  0.74829659  0.50037826  0.05824485  1
  O2-  O130  1  0.74868404  0.50338073  0.39604819  1
  O2-  O131  1  0.75175957  0.49918154  0.73620205  1
  O2-  O132  1  0.00536688  0.24550660  0.27157900  1
  O2-  O133  1  -0.00516056  0.25414807  0.60494926  1
  O2-  O134  1  0.00322147  0.24577247  0.94053017  1
  O2-  O135  1  -0.00111584  0.74797321  0.27896951  1
  O2-  O136  1  0.00501324  0.74525105  0.60309399  1
  O2-  O137  1  0.00672657  0.75710301  0.93587940  1
  O2-  O138  1  0.49440727  0.25456925  0.27116931  1
  O2-  O139  1  0.50214097  0.25107760  0.60147757  1
  O2-  O140  1  0.48963066  0.25001799  0.94185232  1
  O2-  O141  1  0.50031915  0.75732406  0.27432519  1
  O2-  O142  1  0.49738464  0.74924626  0.60830214  1
  O2-  O143  1  0.50391162  0.75004488  0.93399478  1
  O2-  O144  1  0.07483689  0.18378629  0.09153847  1
  O2-  O145  1  0.07282465  0.17747692  0.42101356  1
  O2-  O146  1  0.06747802  0.18288101  0.76713783  1
  O2-  O147  1  0.06783117  0.67588739  0.09977639  1
  O2-  O148  1  0.07614958  0.67888618  0.42519195  1
  O2-  O149  1  0.07471672  0.67418514  0.75205164  1
  O2-  O150  1  0.57233790  0.18241595  0.09985960  1
  O2-  O151  1  0.56923168  0.18091359  0.43047830  1
  O2-  O152  1  0.57076601  0.17464096  0.76340230  1
  O2-  O153  1  0.57169636  0.67417165  0.09762164  1
  O2-  O154  1  0.56791781  0.68037624  0.43447792  1
  O2-  O155  1  0.56830744  0.68158684  0.75679849  1
  O2-  O156  1  0.17757578  0.43093006  0.24221171  1
  O2-  O157  1  0.17918050  0.43154754  0.57537924  1
  O2-  O158  1  0.17821834  0.42900286  0.91006346  1
  O2-  O159  1  0.18157545  0.92573342  0.23670387  1
  O2-  O160  1  0.17928691  0.93000260  0.56995818  1
  O2-  O161  1  0.17756774  0.93184487  0.90277818  1
  O2-  O162  1  0.68092690  0.42942161  0.23343858  1
  O2-  O163  1  0.67848528  0.43090925  0.57175130  1
  O2-  O164  1  0.67971441  0.42866981  0.91058268  1
  O2-  O165  1  0.67903713  0.92541542  0.24349735  1
  O2-  O166  1  0.68056646  0.92519145  0.57369803  1
  O2-  O167  1  0.68187136  0.93006903  0.89887475  1
  O2-  O168  1  0.42626445  0.32510609  0.09131096  1
  O2-  O169  1  0.42167386  0.32410774  0.41906372  1
  O2-  O170  1  0.42883478  0.32214621  0.76562892  1
  O2-  O171  1  0.43048430  0.81542316  0.09919393  1
  O2-  O172  1  0.42501695  0.81545866  0.42428328  1
  O2-  O173  1  0.42760394  0.81967714  0.75569379  1
  O2-  O174  1  0.92754339  0.32239957  0.09803475  1
  O2-  O175  1  0.93581522  0.31881824  0.43484867  1
  O2-  O176  1  0.93129062  0.32308798  0.75489991  1
  O2-  O177  1  0.92896882  0.82083595  0.10091963  1
  O2-  O178  1  0.92993661  0.82305020  0.42359734  1
  O2-  O179  1  0.92857427  0.82095211  0.76262795  1
  O2-  O180  1  0.32342801  0.07349620  0.24718954  1
  O2-  O181  1  0.32038672  0.06849948  0.56725940  1
  O2-  O182  1  0.32070742  0.07484374  0.90433631  1
  O2-  O183  1  0.31704281  0.57037500  0.24252878  1
  O2-  O184  1  0.32126952  0.57202912  0.57663537  1
  O2-  O185  1  0.32422136  0.56722442  0.91044597  1
  O2-  O186  1  0.81829474  0.06847178  0.23268970  1
  O2-  O187  1  0.82136668  0.07018105  0.57519253  1
  O2-  O188  1  0.82046803  0.07678680  0.90861580  1
  O2-  O189  1  0.82540055  0.57240370  0.23356572  1
  O2-  O190  1  0.81785507  0.57267514  0.57191679  1
  O2-  O191  1  0.82131812  0.56670010  0.91020926  1
  O2-  O192  1  0.04542303  0.08166451  0.27158912  1
  O2-  O193  1  0.03653689  0.08522878  0.59750734  1
  O2-  O194  1  0.05130332  0.08631621  0.94046396  1
  O2-  O195  1  0.04887064  0.58645203  0.27300873  1
  O2-  O196  1  0.04850912  0.58208617  0.60112355  1
  O2-  O197  1  0.03953084  0.58374841  0.92911082  1
  O2-  O198  1  0.54072422  0.08153510  0.26531924  1
  O2-  O199  1  0.54489618  0.07830973  0.59464549  1
  O2-  O200  1  0.54299200  0.08100718  0.93529252  1
  O2-  O201  1  0.53781230  0.58407843  0.26646485  1
  O2-  O202  1  0.54126018  0.58828742  0.60579529  1
  O2-  O203  1  0.54028290  0.57848039  0.93112994  1
  O2-  O204  1  0.16751888  0.19948720  0.27040270  1
  O2-  O205  1  0.16412966  0.21163487  0.59736487  1
  O2-  O206  1  0.16660957  0.21077847  0.94036683  1
  O2-  O207  1  0.16348316  0.70913315  0.27242666  1
  O2-  O208  1  0.16822195  0.69991629  0.60084363  1
  O2-  O209  1  0.17387315  0.69487534  0.93575954  1
  O2-  O210  1  0.66676671  0.21099235  0.26407579  1
  O2-  O211  1  0.67260305  0.20590376  0.59993468  1
  O2-  O212  1  0.66198424  0.21284684  0.92885786  1
  O2-  O213  1  0.66894274  0.70804559  0.26647458  1
  O2-  O214  1  0.66048488  0.71083927  0.60479075  1
  O2-  O215  1  0.67191106  0.70193373  0.93128904  1
  O2-  O216  1  0.08475296  0.46068773  0.06136087  1
  O2-  O217  1  0.09010135  0.45934621  0.39842192  1
  O2-  O218  1  0.08869744  0.45700699  0.73018958  1
  O2-  O219  1  0.07963317  0.95779976  0.07028437  1
  O2-  O220  1  0.08371315  0.95850711  0.40366036  1
  O2-  O221  1  0.07770587  0.96104728  0.73251728  1
  O2-  O222  1  0.58582535  0.45220832  0.06193384  1
  O2-  O223  1  0.57773134  0.45469173  0.39853231  1
  O2-  O224  1  0.58021269  0.45861783  0.73779709  1
  O2-  O225  1  0.58624710  0.95654065  0.06887715  1
  O2-  O226  1  0.57965032  0.94789642  0.39188211  1
  O2-  O227  1  0.58527392  0.95175111  0.72477104  1
  O2-  O228  1  0.20312407  0.34072084  0.06753268  1
  O2-  O229  1  0.20218609  0.33361624  0.39272859  1
  O2-  O230  1  0.20725225  0.33771640  0.72841242  1
  O2-  O231  1  0.20658987  0.82737519  0.06569601  1
  O2-  O232  1  0.21203203  0.83320611  0.40580337  1
  O2-  O233  1  0.19942257  0.82742463  0.73242694  1
  O2-  O234  1  0.71061251  0.33631663  0.06032560  1
  O2-  O235  1  0.70940901  0.33219096  0.40123764  1
  O2-  O236  1  0.70670137  0.32941794  0.73781448  1
  O2-  O237  1  0.71254634  0.83031816  0.06626676  1
  O2-  O238  1  0.70447734  0.83513560  0.39654816  1
  O2-  O239  1  0.71091865  0.83950668  0.72788363  1
  O2-  O240  1  0.44814091  0.41776021  0.26841841  1
  O2-  O241  1  0.45600408  0.42191931  0.59948141  1
  O2-  O242  1  0.45248686  0.41399740  0.93821125  1
  O2-  O243  1  0.44242646  0.91562771  0.27467672  1
  O2-  O244  1  0.45497545  0.91042163  0.60104220  1
  O2-  O245  1  0.45907170  0.91835445  0.93292281  1
  O2-  O246  1  0.96460804  0.41660254  0.26760676  1
  O2-  O247  1  0.95715756  0.41833824  0.60538847  1
  O2-  O248  1  0.96191408  0.41433244  0.92786030  1
  O2-  O249  1  0.96067386  0.91316271  0.27164493  1
  O2-  O250  1  0.95892803  0.91579397  0.59425339  1
  O2-  O251  1  0.95225681  0.92575393  0.93574274  1
  O2-  O252  1  0.33093042  0.29848226  0.26711048  1
  O2-  O253  1  0.33113131  0.29656215  0.59708415  1
  O2-  O254  1  0.32879756  0.30213888  0.94284252  1
  O2-  O255  1  0.33473044  0.78557549  0.27229389  1
  O2-  O256  1  0.33471141  0.79037275  0.60430194  1
  O2-  O257  1  0.33423401  0.78857975  0.93053272  1
  O2-  O258  1  0.83535588  0.28927570  0.26771930  1
  O2-  O259  1  0.83369912  0.30117307  0.60606467  1
  O2-  O260  1  0.83412071  0.28999831  0.92649988  1
  O2-  O261  1  0.83730207  0.79797242  0.27119402  1
  O2-  O262  1  0.83278922  0.78825940  0.59465352  1
  O2-  O263  1  0.83506396  0.79067909  0.93183694  1
  O2-  O264  1  0.42058254  0.04138372  0.07072135  1
  O2-  O265  1  0.41641237  0.04535177  0.39869557  1
  O2-  O266  1  0.42109948  0.04147341  0.73112277  1
  O2-  O267  1  0.41247729  0.53810489  0.06531238  1
  O2-  O268  1  0.41181164  0.54450225  0.39556669  1
  O2-  O269  1  0.41261951  0.54437497  0.73104751  1
  O2-  O270  1  0.91678569  0.05822975  0.06051816  1
  O2-  O271  1  0.91412626  0.03875838  0.40152545  1
  O2-  O272  1  0.90992433  0.03878143  0.72854982  1
  O2-  O273  1  0.91318904  0.53827648  0.06074141  1
  O2-  O274  1  0.92159176  0.54488139  0.40149752  1
  O2-  O275  1  0.92189443  0.54820301  0.73635286  1
  O2-  O276  1  0.29543861  0.17079903  0.07297629  1
  O2-  O277  1  0.30018812  0.16882848  0.39641791  1
  O2-  O278  1  0.29299420  0.17071898  0.73120867  1
  O2-  O279  1  0.29729618  0.66135288  0.06461720  1
  O2-  O280  1  0.28840246  0.65830215  0.39852403  1
  O2-  O281  1  0.29322620  0.66229722  0.73079272  1
  O2-  O282  1  0.78898759  0.16798294  0.05957337  1
  O2-  O283  1  0.78961476  0.16592106  0.40144172  1
  O2-  O284  1  0.80017226  0.16517568  0.72739686  1
  O2-  O285  1  0.79680342  0.66164243  0.06132968  1
  O2-  O286  1  0.79602699  0.67285346  0.39946400  1
  O2-  O287  1  0.78999576  0.67142652  0.73673755  1
