# generated using pymatgen
data_Ca2Al2SiO7
_symmetry_space_group_name_H-M   'P 1'
_cell_length_a   15.46038517
_cell_length_b   15.46144933
_cell_length_c   15.28596262
_cell_angle_alpha   90.01029282
_cell_angle_beta   90.00423070
_cell_angle_gamma   89.99150647
_symmetry_Int_Tables_number   1
_chemical_formula_structural   Ca2Al2SiO7
_chemical_formula_sum   'Ca48 Al48 Si24 O168'
_cell_volume   3653.95581307
_cell_formula_units_Z   24
loop_
 _symmetry_equiv_pos_site_id
 _symmetry_equiv_pos_as_xyz
  1  'x, y, z'
loop_
 _atom_type_symbol
 _atom_type_oxidation_number
  Ca2+  2.0
  Al0+  0.0
  Si0+  0.0
  O2-  -2.0
loop_
 _atom_site_type_symbol
 _atom_site_label
 _atom_site_symmetry_multiplicity
 _atom_site_fract_x
 _atom_site_fract_y
 _atom_site_fract_z
 _atom_site_occupancy
  Ca2+  Ca0  1  0.16599356  0.08483803  0.16388339  1
  Ca2+  Ca1  1  0.16642399  0.08090673  0.50475721  1
  Ca2+  Ca2  1  0.16654625  0.07453359  0.84069139  1
  Ca2+  Ca3  1  0.15990744  0.57661065  0.17136468  1
  Ca2+  Ca4  1  0.16515170  0.57117195  0.50687729  1
  Ca2+  Ca5  1  0.15989156  0.57606256  0.83799473  1
  Ca2+  Ca6  1  0.67552328  0.07116141  0.17519556  1
  Ca2+  Ca7  1  0.67468040  0.07275082  0.50992294  1
  Ca2+  Ca8  1  0.66916715  0.07668179  0.83553317  1
  Ca2+  Ca9  1  0.66964365  0.58851176  0.16182801  1
  Ca2+  Ca10  1  0.66666956  0.58440181  0.50585015  1
  Ca2+  Ca11  1  0.67081783  0.58959476  0.84173682  1
  Ca2+  Ca12  1  0.08980491  0.32166844  0.16363359  1
  Ca2+  Ca13  1  0.08243016  0.33087970  0.49640852  1
  Ca2+  Ca14  1  0.07970124  0.32649143  0.82773764  1
  Ca2+  Ca15  1  0.06994034  0.83365162  0.15557590  1
  Ca2+  Ca16  1  0.06969451  0.84687519  0.49808727  1
  Ca2+  Ca17  1  0.07555792  0.83944784  0.82982701  1
  Ca2+  Ca18  1  0.57497942  0.32952680  0.15707307  1
  Ca2+  Ca19  1  0.58269543  0.32309069  0.50265201  1
  Ca2+  Ca20  1  0.57050923  0.32681712  0.82286775  1
  Ca2+  Ca21  1  0.58270571  0.83745646  0.16139904  1
  Ca2+  Ca22  1  0.58648383  0.83429787  0.49682570  1
  Ca2+  Ca23  1  0.59550414  0.82654910  0.83027372  1
  Ca2+  Ca24  1  0.32940354  0.41842341  0.17111144  1
  Ca2+  Ca25  1  0.32271967  0.41210961  0.50688200  1
  Ca2+  Ca26  1  0.33278459  0.41040710  0.83541152  1
  Ca2+  Ca27  1  0.32971022  0.91874941  0.16843856  1
  Ca2+  Ca28  1  0.32632794  0.91297768  0.50687800  1
  Ca2+  Ca29  1  0.32055042  0.92132104  0.84246714  1
  Ca2+  Ca30  1  0.83880527  0.42777189  0.16756256  1
  Ca2+  Ca31  1  0.83638248  0.41882560  0.50883094  1
  Ca2+  Ca32  1  0.83515461  0.42314905  0.83741519  1
  Ca2+  Ca33  1  0.82645618  0.91158329  0.17159960  1
  Ca2+  Ca34  1  0.83258682  0.92461947  0.50663010  1
  Ca2+  Ca35  1  0.82795130  0.91234133  0.83360620  1
  Ca2+  Ca36  1  0.41181336  0.17239460  0.15667752  1
  Ca2+  Ca37  1  0.42268069  0.16436277  0.50202478  1
  Ca2+  Ca38  1  0.41667220  0.17118515  0.83021094  1
  Ca2+  Ca39  1  0.42235397  0.67553977  0.16209691  1
  Ca2+  Ca40  1  0.42270340  0.67441135  0.49745400  1
  Ca2+  Ca41  1  0.43106095  0.66609957  0.82825785  1
  Ca2+  Ca42  1  0.92775482  0.15914746  0.16568670  1
  Ca2+  Ca43  1  0.91741430  0.16496058  0.49586763  1
  Ca2+  Ca44  1  0.91943186  0.16701100  0.82593132  1
  Ca2+  Ca45  1  0.91826550  0.67614892  0.15699581  1
  Ca2+  Ca46  1  0.91725311  0.68196348  0.49764152  1
  Ca2+  Ca47  1  0.91701327  0.67775639  0.83516369  1
  Al0+  Al48  1  -0.00081876  0.00085754  -0.00543488  1
  Al0+  Al49  1  0.00041705  0.00122766  0.32658282  1
  Al0+  Al50  1  -0.00004683  0.00103008  0.67029091  1
  Al0+  Al51  1  -0.00090706  0.50114371  0.00325693  1
  Al0+  Al52  1  -0.00043046  0.49901376  0.33967454  1
  Al0+  Al53  1  0.00086198  0.49935073  0.66795469  1
  Al0+  Al54  1  0.49889800  0.00168547  0.00745931  1
  Al0+  Al55  1  0.50021562  -0.00032294  0.33254529  1
  Al0+  Al56  1  0.50022245  -0.00144493  0.66759876  1
  Al0+  Al57  1  0.49832543  0.50024506  -0.00608014  1
  Al0+  Al58  1  0.50013584  0.50050090  0.33404739  1
  Al0+  Al59  1  0.49916932  0.50020332  0.65633285  1
  Al0+  Al60  1  0.24826557  0.24985420  -0.00531053  1
  Al0+  Al61  1  0.24963684  0.25003542  0.33517314  1
  Al0+  Al62  1  0.24911252  0.25064678  0.66766018  1
  Al0+  Al63  1  0.24926958  0.74773983  0.00128898  1
  Al0+  Al64  1  0.25269474  0.74902645  0.33053150  1
  Al0+  Al65  1  0.25098512  0.74638725  0.67205229  1
  Al0+  Al66  1  0.74847731  0.25016476  0.00229734  1
  Al0+  Al67  1  0.75086552  0.25171893  0.33302137  1
  Al0+  Al68  1  0.75028779  0.25116533  0.66323037  1
  Al0+  Al69  1  0.75076147  0.74951272  0.00246391  1
  Al0+  Al70  1  0.74979562  0.74736800  0.33334777  1
  Al0+  Al71  1  0.75238473  0.75006775  0.65974020  1
  Al0+  Al72  1  0.07129424  0.18078656  0.31974284  1
  Al0+  Al73  1  0.42691878  0.32004045  0.64834278  1
  Al0+  Al74  1  0.57232272  0.68079117  0.65193500  1
  Al0+  Al75  1  0.18080972  0.42918211  0.34741426  1
  Al0+  Al76  1  0.67838354  0.92772678  0.34975305  1
  Al0+  Al77  1  0.17924418  0.92792524  0.67888258  1
  Al0+  Al78  1  0.56882673  0.68269269  0.98762117  1
  Al0+  Al79  1  0.42887756  0.82234594  0.31904892  1
  Al0+  Al80  1  0.92988931  0.82031898  0.31893965  1
  Al0+  Al81  1  0.42914047  0.32037491  0.98681043  1
  Al0+  Al82  1  0.67909949  0.92705492  0.68226747  1
  Al0+  Al83  1  0.82071668  0.07344889  0.68287116  1
  Al0+  Al84  1  0.06883595  0.18040287  0.98427504  1
  Al0+  Al85  1  0.07284498  0.67661963  0.98589462  1
  Al0+  Al86  1  0.82351550  0.07095321  0.34792493  1
  Al0+  Al87  1  0.92880894  0.82123021  0.98357492  1
  Al0+  Al88  1  0.17918294  0.42908581  0.68344080  1
  Al0+  Al89  1  0.92965509  0.32225450  0.65410808  1
  Al0+  Al90  1  0.17647211  0.92680118  0.01696418  1
  Al0+  Al91  1  0.57178449  0.17602610  0.65194696  1
  Al0+  Al92  1  0.31832621  0.07166040  0.01506472  1
  Al0+  Al93  1  0.93231571  0.82132560  0.65181861  1
  Al0+  Al94  1  0.82009423  0.56931475  0.01334034  1
  Al0+  Al95  1  0.68108277  0.92947728  0.01404122  1
  Si0+  Si96  1  0.57230736  0.17930763  0.31735210  1
  Si0+  Si97  1  0.07063176  0.17842093  0.64992611  1
  Si0+  Si98  1  0.32391799  0.57270278  0.35119536  1
  Si0+  Si99  1  0.57293390  0.17641896  0.98515245  1
  Si0+  Si100  1  0.67514273  0.42789736  0.01470196  1
  Si0+  Si101  1  0.82013524  0.57072836  0.68103151  1
  Si0+  Si102  1  0.92688381  0.32482231  0.31574679  1
  Si0+  Si103  1  0.82053940  0.56941216  0.35093402  1
  Si0+  Si104  1  0.18036040  0.92829964  0.34581692  1
  Si0+  Si105  1  0.57154606  0.67630253  0.31483964  1
  Si0+  Si106  1  0.92628119  0.32339099  0.98580489  1
  Si0+  Si107  1  0.67733013  0.42978964  0.68002829  1
  Si0+  Si108  1  0.32273893  0.07188520  0.68240327  1
  Si0+  Si109  1  0.42675639  0.82518622  0.98350141  1
  Si0+  Si110  1  0.32121102  0.07209159  0.34876399  1
  Si0+  Si111  1  0.67674226  0.42877890  0.34873778  1
  Si0+  Si112  1  0.32479071  0.57068411  0.01501349  1
  Si0+  Si113  1  0.82246411  0.07629979  0.01710810  1
  Si0+  Si114  1  0.17975920  0.43063263  0.01508191  1
  Si0+  Si115  1  0.42529226  0.82093060  0.65296843  1
  Si0+  Si116  1  0.07158170  0.67575455  0.31975729  1
  Si0+  Si117  1  0.07372688  0.67702408  0.65018653  1
  Si0+  Si118  1  0.32392225  0.57020477  0.68478563  1
  Si0+  Si119  1  0.42999775  0.31960473  0.31864954  1
  O2-  O120  1  0.24960714  -0.00218493  0.06775296  1
  O2-  O121  1  0.25254333  -0.00200654  0.38939418  1
  O2-  O122  1  0.25597429  0.00077259  0.72461963  1
  O2-  O123  1  0.24903336  0.50388874  0.05715278  1
  O2-  O124  1  0.25339531  0.50583102  0.39477568  1
  O2-  O125  1  0.25535834  0.50212615  0.73030803  1
  O2-  O126  1  0.75489449  0.00578386  0.05975710  1
  O2-  O127  1  0.75166022  -0.00090191  0.39828392  1
  O2-  O128  1  0.74818421  0.00170836  0.73219549  1
  O2-  O129  1  0.74649734  0.49275719  0.06074252  1
  O2-  O130  1  0.74921758  0.49789390  0.39196537  1
  O2-  O131  1  0.74722631  0.50118537  0.72319312  1
  O2-  O132  1  -0.00561554  0.25462925  0.27316483  1
  O2-  O133  1  0.00201105  0.24681363  0.60544553  1
  O2-  O134  1  -0.01049021  0.25139801  0.94012123  1
  O2-  O135  1  0.00642951  0.74606240  0.27439115  1
  O2-  O136  1  0.01158787  0.75057676  0.60469027  1
  O2-  O137  1  0.00704934  0.75377019  0.93568163  1
  O2-  O138  1  0.50104836  0.25027978  0.27428753  1
  O2-  O139  1  0.49828244  0.24661208  0.59990383  1
  O2-  O140  1  0.50506131  0.24642472  0.94203249  1
  O2-  O141  1  0.50629457  0.74928181  0.27328434  1
  O2-  O142  1  0.49843374  0.75736269  0.60751375  1
  O2-  O143  1  0.49674683  0.75841675  0.93859251  1
  O2-  O144  1  0.07108399  0.18429255  0.09766845  1
  O2-  O145  1  0.07392391  0.18251379  0.43262600  1
  O2-  O146  1  0.07037139  0.18038047  0.75538071  1
  O2-  O147  1  0.06781437  0.67210567  0.09986859  1
  O2-  O148  1  0.06940298  0.67367642  0.42528666  1
  O2-  O149  1  0.07039701  0.67443684  0.75529721  1
  O2-  O150  1  0.57328769  0.17992400  0.09124025  1
  O2-  O151  1  0.57078298  0.18114883  0.42210384  1
  O2-  O152  1  0.57058166  0.17971167  0.76559727  1
  O2-  O153  1  0.56624459  0.68070363  0.10077335  1
  O2-  O154  1  0.56952069  0.67234176  0.42029591  1
  O2-  O155  1  0.57255868  0.67884565  0.76498126  1
  O2-  O156  1  0.18355456  0.42958653  0.23387418  1
  O2-  O157  1  0.17909234  0.43097959  0.57002909  1
  O2-  O158  1  0.17941345  0.43117288  0.91022498  1
  O2-  O159  1  0.18162801  0.92812192  0.24128624  1
  O2-  O160  1  0.18021379  0.93080157  0.56467165  1
  O2-  O161  1  0.17894750  0.92910208  0.90327956  1
  O2-  O162  1  0.67406439  0.42986001  0.24364322  1
  O2-  O163  1  0.67943915  0.43162082  0.57436651  1
  O2-  O164  1  0.67477352  0.42887425  0.90935858  1
  O2-  O165  1  0.67860563  0.92965487  0.23592316  1
  O2-  O166  1  0.68150896  0.92656810  0.56881019  1
  O2-  O167  1  0.68214276  0.92903673  0.90132954  1
  O2-  O168  1  0.43014032  0.32117695  0.10090679  1
  O2-  O169  1  0.43071054  0.31822759  0.42311195  1
  O2-  O170  1  0.42878130  0.31990762  0.76193175  1
  O2-  O171  1  0.42820139  0.82234159  0.08944612  1
  O2-  O172  1  0.42504874  0.81899212  0.43218181  1
  O2-  O173  1  0.42159350  0.81699972  0.75802708  1
  O2-  O174  1  0.92893709  0.32533886  0.09149684  1
  O2-  O175  1  0.92751832  0.32782680  0.42109844  1
  O2-  O176  1  0.93185236  0.32485388  0.76718838  1
  O2-  O177  1  0.92726258  0.81718088  0.09756019  1
  O2-  O178  1  0.93203305  0.82026237  0.43220892  1
  O2-  O179  1  0.93034664  0.81770001  0.76409127  1
  O2-  O180  1  0.32007962  0.07589409  0.24412180  1
  O2-  O181  1  0.32137253  0.07150955  0.57602335  1
  O2-  O182  1  0.31741545  0.07173420  0.90158667  1
  O2-  O183  1  0.32658050  0.57004820  0.24548710  1
  O2-  O184  1  0.32154039  0.57127019  0.57897422  1
  O2-  O185  1  0.32937021  0.56676746  0.91044287  1
  O2-  O186  1  0.82149027  0.07090691  0.23415443  1
  O2-  O187  1  0.82236599  0.07163470  0.56919850  1
  O2-  O188  1  0.81901892  0.08295844  0.91221299  1
  O2-  O189  1  0.82163870  0.56831139  0.24588224  1
  O2-  O190  1  0.81945272  0.56880654  0.57541792  1
  O2-  O191  1  0.81867600  0.56792435  0.90017552  1
  O2-  O192  1  0.04288963  0.08549694  0.26231240  1
  O2-  O193  1  0.04565644  0.08506735  0.60387037  1
  O2-  O194  1  0.04289845  0.08378034  0.92962967  1
  O2-  O195  1  0.04286417  0.58230642  0.27415596  1
  O2-  O196  1  0.04111309  0.58596080  0.60250815  1
  O2-  O197  1  0.03812094  0.57976883  0.93238550  1
  O2-  O198  1  0.54463110  0.08770928  0.27078888  1
  O2-  O199  1  0.54353745  0.07751059  0.59782558  1
  O2-  O200  1  0.54528592  0.08348155  0.94028263  1
  O2-  O201  1  0.54179359  0.58374660  0.26738439  1
  O2-  O202  1  0.54035128  0.58604683  0.59435421  1
  O2-  O203  1  0.53800478  0.58656939  0.93248329  1
  O2-  O204  1  0.16731220  0.21530227  0.26524048  1
  O2-  O205  1  0.16443474  0.20420246  0.60471969  1
  O2-  O206  1  0.16231559  0.21613360  0.92846759  1
  O2-  O207  1  0.16761517  0.69501015  0.27612491  1
  O2-  O208  1  0.17073084  0.69397876  0.60775776  1
  O2-  O209  1  0.17511391  0.69295571  0.93604262  1
  O2-  O210  1  0.66350648  0.20903474  0.26950183  1
  O2-  O211  1  0.66737666  0.21014444  0.59652044  1
  O2-  O212  1  0.66683391  0.20112312  0.93950191  1
  O2-  O213  1  0.66695458  0.69634226  0.27106888  1
  O2-  O214  1  0.66797883  0.70828625  0.59473991  1
  O2-  O215  1  0.66617605  0.71067892  0.93513891  1
  O2-  O216  1  0.08812129  0.45648643  0.06411038  1
  O2-  O217  1  0.08358469  0.45723156  0.40230201  1
  O2-  O218  1  0.08323341  0.46233814  0.73745576  1
  O2-  O219  1  0.07725925  0.95824551  0.06651886  1
  O2-  O220  1  0.08920547  0.95968962  0.39156657  1
  O2-  O221  1  0.08509265  0.96127914  0.73421860  1
  O2-  O222  1  0.58291370  0.45810539  0.06199668  1
  O2-  O223  1  0.58589011  0.45821577  0.39773357  1
  O2-  O224  1  0.58384561  0.45695592  0.72370254  1
  O2-  O225  1  0.58372946  0.95792721  0.06854168  1
  O2-  O226  1  0.57903839  0.95693013  0.40093592  1
  O2-  O227  1  0.57794696  0.94891658  0.73298225  1
  O2-  O228  1  0.21147416  0.33979312  0.06135305  1
  O2-  O229  1  0.21470228  0.33429401  0.40265003  1
  O2-  O230  1  0.20817519  0.33169635  0.73644406  1
  O2-  O231  1  0.20197817  0.82629214  0.06827201  1
  O2-  O232  1  0.20682700  0.83553838  0.39274972  1
  O2-  O233  1  0.20587244  0.82997560  0.73238133  1
  O2-  O234  1  0.69599456  0.33342940  0.06210175  1
  O2-  O235  1  0.70271098  0.33657751  0.39575248  1
  O2-  O236  1  0.70468090  0.33867755  0.72755939  1
  O2-  O237  1  0.71230764  0.83376649  0.06956903  1
  O2-  O238  1  0.70194730  0.82593212  0.39777709  1
  O2-  O239  1  0.71333563  0.82839342  0.73203555  1
  O2-  O240  1  0.45675855  0.41302293  0.27279168  1
  O2-  O241  1  0.45544427  0.41724238  0.59327569  1
  O2-  O242  1  0.45934644  0.41534576  0.93039146  1
  O2-  O243  1  0.45592968  0.91983102  0.26466242  1
  O2-  O244  1  0.44394009  0.91638594  0.60853173  1
  O2-  O245  1  0.44914834  0.92069280  0.94128110  1
  O2-  O246  1  0.95569777  0.41832398  0.27027193  1
  O2-  O247  1  0.96259129  0.41804202  0.59818030  1
  O2-  O248  1  0.95587550  0.41538601  0.93955131  1
  O2-  O249  1  0.95983141  0.91567744  0.26361374  1
  O2-  O250  1  0.96323850  0.91888543  0.59918415  1
  O2-  O251  1  0.95021716  0.92081373  0.93135732  1
  O2-  O252  1  0.33850690  0.29097886  0.27160576  1
  O2-  O253  1  0.32786442  0.29131516  0.59681656  1
  O2-  O254  1  0.33405150  0.28943332  0.93160416  1
  O2-  O255  1  0.33391551  0.78842078  0.26195907  1
  O2-  O256  1  0.33389209  0.78920769  0.60358313  1
  O2-  O257  1  0.33315560  0.79777055  0.93935728  1
  O2-  O258  1  0.83184412  0.30465481  0.26971731  1
  O2-  O259  1  0.83238738  0.29779908  0.59871626  1
  O2-  O260  1  0.82950325  0.30474226  0.94284193  1
  O2-  O261  1  0.83340246  0.78542711  0.26720131  1
  O2-  O262  1  0.83907127  0.78556904  0.59491735  1
  O2-  O263  1  0.83321299  0.78365892  0.93160004  1
  O2-  O264  1  0.41742001  0.04921717  0.07039939  1
  O2-  O265  1  0.41383868  0.04656566  0.39513234  1
  O2-  O266  1  0.41686603  0.05040337  0.72830183  1
  O2-  O267  1  0.41359936  0.53701806  0.06577185  1
  O2-  O268  1  0.41683132  0.54511257  0.39819460  1
  O2-  O269  1  0.41856180  0.54264093  0.72772233  1
  O2-  O270  1  0.91728834  0.05121669  0.05926685  1
  O2-  O271  1  0.92339303  0.04344854  0.39867252  1
  O2-  O272  1  0.91879545  0.04491269  0.73549918  1
  O2-  O273  1  0.91510335  0.53764562  0.07161070  1
  O2-  O274  1  0.91132378  0.54188105  0.40061020  1
  O2-  O275  1  0.91084361  0.54055261  0.72829482  1
  O2-  O276  1  0.28573238  0.17032515  0.06752503  1
  O2-  O277  1  0.29069746  0.16188339  0.39854908  1
  O2-  O278  1  0.29511131  0.16477491  0.72808025  1
  O2-  O279  1  0.30303308  0.66377011  0.06249639  1
  O2-  O280  1  0.30024496  0.66696013  0.39683941  1
  O2-  O281  1  0.30159314  0.66324190  0.73307971  1
  O2-  O282  1  0.79730422  0.16939422  0.06685429  1
  O2-  O283  1  0.79809630  0.17268524  0.39661169  1
  O2-  O284  1  0.79384043  0.17357520  0.73365777  1
  O2-  O285  1  0.78564383  0.66276369  0.07052004  1
  O2-  O286  1  0.79153173  0.66025758  0.39908092  1
  O2-  O287  1  0.79221560  0.66245810  0.72653144  1
