# generated using pymatgen
data_Ca2Al2SiO7
_symmetry_space_group_name_H-M   'P 1'
_cell_length_a   15.45686259
_cell_length_b   15.45742357
_cell_length_c   15.28280821
_cell_angle_alpha   90.00710872
_cell_angle_beta   89.99284503
_cell_angle_gamma   90.01236594
_symmetry_Int_Tables_number   1
_chemical_formula_structural   Ca2Al2SiO7
_chemical_formula_sum   'Ca48 Al48 Si24 O168'
_cell_volume   3651.41840277
_cell_formula_units_Z   24
loop_
 _symmetry_equiv_pos_site_id
 _symmetry_equiv_pos_as_xyz
  1  'x, y, z'
loop_
 _atom_type_symbol
 _atom_type_oxidation_number
  Ca2+  2.0
  Al0+  0.0
  Si0+  0.0
  O2-  -2.0
loop_
 _atom_site_type_symbol
 _atom_site_label
 _atom_site_symmetry_multiplicity
 _atom_site_fract_x
 _atom_site_fract_y
 _atom_site_fract_z
 _atom_site_occupancy
  Ca2+  Ca0  1  0.16125623  0.07027458  0.17533482  1
  Ca2+  Ca1  1  0.16681166  0.07865000  0.50087842  1
  Ca2+  Ca2  1  0.17578574  0.08004242  0.83733331  1
  Ca2+  Ca3  1  0.16905592  0.57904447  0.17302543  1
  Ca2+  Ca4  1  0.17376021  0.58648214  0.50621431  1
  Ca2+  Ca5  1  0.16538207  0.57379626  0.82906798  1
  Ca2+  Ca6  1  0.67236388  0.07681324  0.17060164  1
  Ca2+  Ca7  1  0.66708300  0.08502088  0.50190535  1
  Ca2+  Ca8  1  0.66380128  0.08158549  0.83647211  1
  Ca2+  Ca9  1  0.67594353  0.58410315  0.17000682  1
  Ca2+  Ca10  1  0.67856140  0.57915208  0.50697788  1
  Ca2+  Ca11  1  0.67620462  0.57179996  0.83813746  1
  Ca2+  Ca12  1  0.08736705  0.32666905  0.16286703  1
  Ca2+  Ca13  1  0.08074812  0.33342991  0.49793657  1
  Ca2+  Ca14  1  0.07910169  0.34392223  0.82530455  1
  Ca2+  Ca15  1  0.08425282  0.82930883  0.16729692  1
  Ca2+  Ca16  1  0.08239844  0.82096168  0.48954020  1
  Ca2+  Ca17  1  0.08422164  0.82568431  0.82891992  1
  Ca2+  Ca18  1  0.57934150  0.33846975  0.16456829  1
  Ca2+  Ca19  1  0.57357403  0.33887859  0.49988191  1
  Ca2+  Ca20  1  0.58379524  0.33175182  0.82082227  1
  Ca2+  Ca21  1  0.57220171  0.83663876  0.15965403  1
  Ca2+  Ca22  1  0.57347376  0.82908734  0.49327617  1
  Ca2+  Ca23  1  0.58000291  0.83499212  0.83224281  1
  Ca2+  Ca24  1  0.32995848  0.42066030  0.17536590  1
  Ca2+  Ca25  1  0.33149551  0.42364912  0.50843464  1
  Ca2+  Ca26  1  0.32558684  0.41586883  0.83390494  1
  Ca2+  Ca27  1  0.32434043  0.90873235  0.17221493  1
  Ca2+  Ca28  1  0.32755608  0.91765642  0.50328640  1
  Ca2+  Ca29  1  0.33170367  0.92254291  0.83913542  1
  Ca2+  Ca30  1  0.82843869  0.42739980  0.16929228  1
  Ca2+  Ca31  1  0.83378130  0.42514262  0.50982433  1
  Ca2+  Ca32  1  0.82875464  0.42154598  0.83528933  1
  Ca2+  Ca33  1  0.82937807  0.91604523  0.17665821  1
  Ca2+  Ca34  1  0.84316872  0.92225694  0.49707332  1
  Ca2+  Ca35  1  0.82467441  0.91869795  0.84007196  1
  Ca2+  Ca36  1  0.41517162  0.17437598  0.16568795  1
  Ca2+  Ca37  1  0.41413347  0.17768730  0.50112014  1
  Ca2+  Ca38  1  0.42306025  0.17256041  0.82003846  1
  Ca2+  Ca39  1  0.40901175  0.67659875  0.16609310  1
  Ca2+  Ca40  1  0.41201268  0.66628650  0.49046670  1
  Ca2+  Ca41  1  0.41099543  0.67226932  0.82946243  1
  Ca2+  Ca42  1  0.92125766  0.16023437  0.16934735  1
  Ca2+  Ca43  1  0.91904743  0.17412086  0.49237379  1
  Ca2+  Ca44  1  0.92034714  0.17649290  0.82437926  1
  Ca2+  Ca45  1  0.91645954  0.66360503  0.16764645  1
  Ca2+  Ca46  1  0.92679372  0.66328077  0.49301217  1
  Ca2+  Ca47  1  0.91974577  0.65931218  0.82557804  1
  Al0+  Al48  1  0.00253572  -0.00081645  -0.00148252  1
  Al0+  Al49  1  -0.00105299  -0.00065305  0.33572829  1
  Al0+  Al50  1  -0.00131453  -0.00069490  0.67004996  1
  Al0+  Al51  1  0.00199897  0.49928071  0.00800076  1
  Al0+  Al52  1  -0.00104915  0.49828640  0.33122634  1
  Al0+  Al53  1  0.00204410  0.50145730  0.66266402  1
  Al0+  Al54  1  0.50023733  0.00212970  -0.00007658  1
  Al0+  Al55  1  0.49942655  0.00137718  0.32892853  1
  Al0+  Al56  1  0.49932503  0.00055172  0.66526400  1
  Al0+  Al57  1  0.50055349  0.50212261  0.00148069  1
  Al0+  Al58  1  0.49918484  0.49986005  0.33094367  1
  Al0+  Al59  1  0.50111967  0.50251589  0.67088832  1
  Al0+  Al60  1  0.25115516  0.24977398  0.00165449  1
  Al0+  Al61  1  0.24962410  0.24816538  0.32397194  1
  Al0+  Al62  1  0.25069479  0.24752472  0.67115223  1
  Al0+  Al63  1  0.24909300  0.75147884  -0.00394424  1
  Al0+  Al64  1  0.24867935  0.74870297  0.33326202  1
  Al0+  Al65  1  0.24824831  0.75002982  0.66713577  1
  Al0+  Al66  1  0.75138852  0.25155486  0.00369280  1
  Al0+  Al67  1  0.74854409  0.24819880  0.33531912  1
  Al0+  Al68  1  0.75176508  0.24836300  0.66103814  1
  Al0+  Al69  1  0.74922746  0.75182126  0.00629328  1
  Al0+  Al70  1  0.74910662  0.74878034  0.33634315  1
  Al0+  Al71  1  0.74916596  0.75282614  0.66893950  1
  Al0+  Al72  1  0.06974335  0.68067110  0.65332698  1
  Al0+  Al73  1  0.93134584  0.32087961  0.65365302  1
  Al0+  Al74  1  0.82124018  0.57062439  0.34999064  1
  Al0+  Al75  1  0.82190303  0.57137259  0.01602989  1
  Al0+  Al76  1  0.18025255  0.92923062  0.01395992  1
  Al0+  Al77  1  0.57189378  0.17719016  0.65047746  1
  Al0+  Al78  1  0.67706560  0.42726217  0.01615107  1
  Al0+  Al79  1  0.67994321  0.42732422  0.67962722  1
  Al0+  Al80  1  0.81998283  0.06952792  0.34790548  1
  Al0+  Al81  1  0.82238541  0.57240149  0.68050436  1
  Al0+  Al82  1  0.06950698  0.17955319  0.32019066  1
  Al0+  Al83  1  0.32111274  0.06945917  0.67909134  1
  Al0+  Al84  1  0.32314684  0.57400226  0.68216845  1
  Al0+  Al85  1  0.42804784  0.32354287  0.65348562  1
  Al0+  Al86  1  0.42882926  0.82120781  0.32065079  1
  Al0+  Al87  1  0.31898269  0.56920722  0.34515238  1
  Al0+  Al88  1  0.42974585  0.32144214  0.31863348  1
  Al0+  Al89  1  0.17976093  0.92880210  0.34798765  1
  Al0+  Al90  1  0.42876779  0.82085297  0.98407711  1
  Al0+  Al91  1  0.92884119  0.82010764  0.31859204  1
  Al0+  Al92  1  0.07120665  0.67675244  0.31575934  1
  Al0+  Al93  1  0.18028634  0.42806719  0.67819290  1
  Al0+  Al94  1  0.67815267  0.93085182  0.01372230  1
  Al0+  Al95  1  0.18076228  0.42852371  0.01544127  1
  Si0+  Si96  1  0.07209655  0.17713933  0.98339406  1
  Si0+  Si97  1  0.67751244  0.93042411  0.68102097  1
  Si0+  Si98  1  0.92499356  0.82403273  0.65138583  1
  Si0+  Si99  1  0.17705452  0.92795011  0.68394662  1
  Si0+  Si100  1  0.92526323  0.32152643  0.31438388  1
  Si0+  Si101  1  0.57187613  0.18152543  0.98612329  1
  Si0+  Si102  1  0.93176828  0.32064636  0.98640370  1
  Si0+  Si103  1  0.17838249  0.42411165  0.34857834  1
  Si0+  Si104  1  0.06940993  0.67822945  0.98393342  1
  Si0+  Si105  1  0.32159011  0.57301165  0.01608123  1
  Si0+  Si106  1  0.32258913  0.07194484  0.01848960  1
  Si0+  Si107  1  0.42882250  0.32283319  0.98440718  1
  Si0+  Si108  1  0.57416572  0.67907558  0.98213583  1
  Si0+  Si109  1  0.67503641  0.92800318  0.35115244  1
  Si0+  Si110  1  0.82343800  0.07209240  0.01512001  1
  Si0+  Si111  1  0.57323974  0.17812610  0.31355432  1
  Si0+  Si112  1  0.67737862  0.42768222  0.35100718  1
  Si0+  Si113  1  0.32288925  0.07357740  0.34903568  1
  Si0+  Si114  1  0.57288993  0.68016482  0.65324459  1
  Si0+  Si115  1  0.07263693  0.17429042  0.65176300  1
  Si0+  Si116  1  0.82208694  0.07114326  0.68206535  1
  Si0+  Si117  1  0.57198222  0.67782608  0.31678691  1
  Si0+  Si118  1  0.42930943  0.82028011  0.65212954  1
  Si0+  Si119  1  0.92748440  0.82214702  0.98493496  1
  O2-  O120  1  0.25436799  0.00328356  0.06252317  1
  O2-  O121  1  0.25641862  0.00273437  0.39310940  1
  O2-  O122  1  0.24510850  -0.00286060  0.72784426  1
  O2-  O123  1  0.25750662  0.50080963  0.06136429  1
  O2-  O124  1  0.24478666  0.49457967  0.39215609  1
  O2-  O125  1  0.25482908  0.49716820  0.72993792  1
  O2-  O126  1  0.75627857  0.00215639  0.05929284  1
  O2-  O127  1  0.74558404  -0.00545464  0.39576902  1
  O2-  O128  1  0.74939337  0.00125110  0.72299291  1
  O2-  O129  1  0.74665775  0.50182414  0.06507492  1
  O2-  O130  1  0.74848269  0.49340834  0.39506964  1
  O2-  O131  1  0.75195390  0.49896213  0.73035711  1
  O2-  O132  1  -0.00411531  0.25425210  0.27035930  1
  O2-  O133  1  0.00664019  0.24556757  0.60847809  1
  O2-  O134  1  0.00253863  0.24968190  0.94218754  1
  O2-  O135  1  -0.00249736  0.74721470  0.26507371  1
  O2-  O136  1  -0.00695556  0.75459667  0.60917054  1
  O2-  O137  1  -0.00467690  0.74789198  0.94283745  1
  O2-  O138  1  0.50498985  0.24754114  0.27004971  1
  O2-  O139  1  0.50229629  0.25303397  0.60315678  1
  O2-  O140  1  0.50402486  0.25537101  0.94366150  1
  O2-  O141  1  0.50459752  0.74806912  0.27273149  1
  O2-  O142  1  0.49633187  0.74548243  0.61026114  1
  O2-  O143  1  0.50376537  0.74635445  0.93687696  1
  O2-  O144  1  0.06997370  0.17510443  0.08836143  1
  O2-  O145  1  0.06926695  0.18167326  0.43334459  1
  O2-  O146  1  0.06824883  0.16989349  0.75771511  1
  O2-  O147  1  0.07112425  0.67921667  0.08868244  1
  O2-  O148  1  0.07213332  0.67851452  0.42923674  1
  O2-  O149  1  0.06942750  0.68230367  0.76733958  1
  O2-  O150  1  0.57027264  0.18027491  0.09112708  1
  O2-  O151  1  0.57353480  0.17668267  0.41858822  1
  O2-  O152  1  0.56997462  0.17444522  0.76487370  1
  O2-  O153  1  0.57393925  0.68082011  0.08770031  1
  O2-  O154  1  0.57065313  0.67863226  0.42281151  1
  O2-  O155  1  0.57629519  0.68595707  0.75802839  1
  O2-  O156  1  0.18174512  0.42397762  0.24241398  1
  O2-  O157  1  0.17989681  0.42847746  0.56490637  1
  O2-  O158  1  0.17897315  0.42900456  0.90265569  1
  O2-  O159  1  0.18079866  0.92977831  0.23461229  1
  O2-  O160  1  0.17715100  0.92836487  0.57855204  1
  O2-  O161  1  0.18029055  0.93187743  0.90062883  1
  O2-  O162  1  0.67807733  0.42910459  0.24511422  1
  O2-  O163  1  0.68025258  0.43086173  0.56610133  1
  O2-  O164  1  0.68010058  0.42349313  0.90298147  1
  O2-  O165  1  0.67402936  0.93090279  0.24541203  1
  O2-  O166  1  0.67599154  0.92909238  0.57627819  1
  O2-  O167  1  0.67899484  0.93370555  0.89998842  1
  O2-  O168  1  0.42762306  0.31982789  0.08965443  1
  O2-  O169  1  0.42917727  0.32173659  0.43124799  1
  O2-  O170  1  0.42845985  0.31960328  0.76765242  1
  O2-  O171  1  0.42850235  0.81905638  0.09702400  1
  O2-  O172  1  0.43057553  0.82100844  0.43423387  1
  O2-  O173  1  0.43171376  0.82227972  0.75737784  1
  O2-  O174  1  0.93234223  0.31802870  0.09134569  1
  O2-  O175  1  0.92529876  0.32042015  0.41999690  1
  O2-  O176  1  0.93132805  0.31844184  0.76765380  1
  O2-  O177  1  0.92873248  0.82581687  0.08939206  1
  O2-  O178  1  0.93207439  0.82030592  0.43236058  1
  O2-  O179  1  0.92462215  0.82708311  0.75748896  1
  O2-  O180  1  0.32186723  0.07359852  0.24316619  1
  O2-  O181  1  0.32087488  0.06643443  0.56614586  1
  O2-  O182  1  0.32176647  0.07174528  0.91267443  1
  O2-  O183  1  0.31863252  0.56811756  0.23164697  1
  O2-  O184  1  0.32046624  0.57716749  0.56875507  1
  O2-  O185  1  0.31989459  0.57258068  0.91067729  1
  O2-  O186  1  0.81738927  0.06846557  0.23434122  1
  O2-  O187  1  0.82582092  0.06878886  0.57749268  1
  O2-  O188  1  0.82247784  0.07244532  0.90913147  1
  O2-  O189  1  0.81808054  0.56984903  0.23683142  1
  O2-  O190  1  0.82022353  0.57238156  0.56718224  1
  O2-  O191  1  0.82337003  0.56835554  0.90249662  1
  O2-  O192  1  0.03503956  0.08405078  0.26590933  1
  O2-  O193  1  0.04320436  0.08162710  0.60507761  1
  O2-  O194  1  0.04377600  0.08639417  0.93349762  1
  O2-  O195  1  0.04475200  0.57696126  0.26369667  1
  O2-  O196  1  0.04250156  0.58533411  0.59676259  1
  O2-  O197  1  0.04203127  0.58492426  0.93907103  1
  O2-  O198  1  0.54680009  0.08521393  0.26566429  1
  O2-  O199  1  0.54007198  0.07993074  0.59616653  1
  O2-  O200  1  0.54214971  0.09071544  0.93742045  1
  O2-  O201  1  0.54649177  0.58517219  0.26933044  1
  O2-  O202  1  0.55185506  0.58685371  0.60699482  1
  O2-  O203  1  0.55034076  0.58420191  0.93725737  1
  O2-  O204  1  0.16475509  0.20620454  0.26072002  1
  O2-  O205  1  0.16783823  0.19486392  0.60864899  1
  O2-  O206  1  0.16569542  0.20339465  0.93854395  1
  O2-  O207  1  0.16828344  0.70860618  0.26237053  1
  O2-  O208  1  0.16555969  0.71444709  0.59883666  1
  O2-  O209  1  0.15940463  0.70967654  0.93513104  1
  O2-  O210  1  0.66698104  0.20299682  0.26670946  1
  O2-  O211  1  0.67185256  0.19832575  0.59845759  1
  O2-  O212  1  0.66610510  0.20470731  0.94027418  1
  O2-  O213  1  0.66552409  0.70307961  0.27113273  1
  O2-  O214  1  0.66182398  0.71462238  0.60301059  1
  O2-  O215  1  0.66733187  0.70792768  0.93649764  1
  O2-  O216  1  0.08612852  0.45854158  0.07224788  1
  O2-  O217  1  0.08220738  0.44488767  0.38995467  1
  O2-  O218  1  0.08391024  0.46249365  0.73267004  1
  O2-  O219  1  0.08325456  0.96048024  0.06689429  1
  O2-  O220  1  0.08468340  0.96185700  0.40232137  1
  O2-  O221  1  0.08305966  0.95222787  0.73102017  1
  O2-  O222  1  0.57758079  0.45422525  0.06821255  1
  O2-  O223  1  0.58435351  0.45668089  0.39556417  1
  O2-  O224  1  0.58254418  0.45551516  0.73434730  1
  O2-  O225  1  0.58317818  0.96527946  0.06847533  1
  O2-  O226  1  0.58204495  0.95756269  0.39709017  1
  O2-  O227  1  0.58685695  0.95921831  0.73010978  1
  O2-  O228  1  0.20955120  0.33048551  0.06823179  1
  O2-  O229  1  0.20543538  0.33012362  0.39197783  1
  O2-  O230  1  0.20124437  0.32853535  0.73338830  1
  O2-  O231  1  0.21085543  0.83218918  0.06619795  1
  O2-  O232  1  0.21148093  0.83309620  0.40195052  1
  O2-  O233  1  0.20478479  0.83588519  0.73107254  1
  O2-  O234  1  0.70775114  0.33014237  0.07144515  1
  O2-  O235  1  0.69813229  0.33215731  0.39412957  1
  O2-  O236  1  0.70810735  0.32723618  0.72982941  1
  O2-  O237  1  0.70407795  0.83471011  0.06932728  1
  O2-  O238  1  0.69632196  0.83336229  0.39612749  1
  O2-  O239  1  0.70538907  0.84014048  0.73165705  1
  O2-  O240  1  0.46093592  0.41713141  0.26213148  1
  O2-  O241  1  0.45426918  0.42390712  0.60278218  1
  O2-  O242  1  0.45038364  0.41735289  0.94022071  1
  O2-  O243  1  0.45726897  0.91812576  0.26518067  1
  O2-  O244  1  0.46155512  0.90972368  0.60350116  1
  O2-  O245  1  0.46084521  0.91893664  0.93228897  1
  O2-  O246  1  0.94918249  0.41489719  0.26797989  1
  O2-  O247  1  0.96243059  0.41569782  0.59752647  1
  O2-  O248  1  0.96159280  0.41259973  0.94061842  1
  O2-  O249  1  0.95627657  0.91901449  0.26653120  1
  O2-  O250  1  0.95241858  0.91774101  0.60591260  1
  O2-  O251  1  0.95799344  0.91280653  0.93494100  1
  O2-  O252  1  0.33536732  0.28864142  0.26076806  1
  O2-  O253  1  0.33019807  0.29011291  0.60165042  1
  O2-  O254  1  0.33787944  0.29068037  0.93732001  1
  O2-  O255  1  0.33382429  0.78745781  0.26611727  1
  O2-  O256  1  0.33563147  0.79710153  0.60700120  1
  O2-  O257  1  0.33246855  0.79063421  0.92819056  1
  O2-  O258  1  0.83204306  0.29259550  0.26907673  1
  O2-  O259  1  0.83713536  0.28820353  0.59706658  1
  O2-  O260  1  0.83938016  0.29239167  0.93963853  1
  O2-  O261  1  0.82732983  0.79544553  0.26915695  1
  O2-  O262  1  0.83044816  0.80311382  0.60549069  1
  O2-  O263  1  0.83330607  0.79900362  0.93942629  1
  O2-  O264  1  0.41658173  0.04865543  0.06362165  1
  O2-  O265  1  0.41809934  0.05118066  0.39258329  1
  O2-  O266  1  0.41650003  0.03582114  0.73485298  1
  O2-  O267  1  0.41721286  0.55430802  0.06043703  1
  O2-  O268  1  0.41721988  0.54098093  0.39744491  1
  O2-  O269  1  0.42318293  0.55471672  0.73507636  1
  O2-  O270  1  0.91776003  0.04682486  0.05896360  1
  O2-  O271  1  0.91524255  0.03943922  0.40415766  1
  O2-  O272  1  0.91231301  0.04245757  0.73367633  1
  O2-  O273  1  0.91786453  0.53933555  0.07112372  1
  O2-  O274  1  0.91934629  0.53976352  0.40068073  1
  O2-  O275  1  0.92098290  0.54373226  0.73125040  1
  O2-  O276  1  0.29656766  0.16541479  0.06409796  1
  O2-  O277  1  0.29283936  0.16639395  0.39362216  1
  O2-  O278  1  0.29293273  0.16430484  0.73778891  1
  O2-  O279  1  0.29061361  0.66561738  0.06048152  1
  O2-  O280  1  0.28943576  0.66532291  0.39977764  1
  O2-  O281  1  0.28930451  0.67090167  0.73652683  1
  O2-  O282  1  0.79750595  0.16443566  0.06282755  1
  O2-  O283  1  0.78945698  0.16627937  0.40212774  1
  O2-  O284  1  0.79573966  0.16276390  0.72978856  1
  O2-  O285  1  0.79613082  0.67057361  0.06831086  1
  O2-  O286  1  0.78970663  0.66709594  0.40386223  1
  O2-  O287  1  0.79356028  0.67162174  0.73287030  1
