# generated using pymatgen
data_Ca2Al2SiO7
_symmetry_space_group_name_H-M   'P 1'
_cell_length_a   15.46832890
_cell_length_b   15.46659576
_cell_length_c   15.29152404
_cell_angle_alpha   89.99309431
_cell_angle_beta   90.00277716
_cell_angle_gamma   90.01932335
_symmetry_Int_Tables_number   1
_chemical_formula_structural   Ca2Al2SiO7
_chemical_formula_sum   'Ca48 Al48 Si24 O168'
_cell_volume   3658.38052169
_cell_formula_units_Z   24
loop_
 _symmetry_equiv_pos_site_id
 _symmetry_equiv_pos_as_xyz
  1  'x, y, z'
loop_
 _atom_type_symbol
 _atom_type_oxidation_number
  Ca2+  2.0
  Al0+  0.0
  Si0+  0.0
  O2-  -2.0
loop_
 _atom_site_type_symbol
 _atom_site_label
 _atom_site_symmetry_multiplicity
 _atom_site_fract_x
 _atom_site_fract_y
 _atom_site_fract_z
 _atom_site_occupancy
  Ca2+  Ca0  1  0.16454605  0.07332118  0.17147937  1
  Ca2+  Ca1  1  0.15293072  0.07932914  0.50039441  1
  Ca2+  Ca2  1  0.16942977  0.07835841  0.84280729  1
  Ca2+  Ca3  1  0.16871438  0.58262253  0.16539695  1
  Ca2+  Ca4  1  0.15900693  0.57677420  0.50309573  1
  Ca2+  Ca5  1  0.16782316  0.58937269  0.84406619  1
  Ca2+  Ca6  1  0.67482836  0.07648493  0.16605584  1
  Ca2+  Ca7  1  0.68204878  0.07874223  0.50153798  1
  Ca2+  Ca8  1  0.67563986  0.08302301  0.84470208  1
  Ca2+  Ca9  1  0.66224886  0.57405608  0.16691350  1
  Ca2+  Ca10  1  0.67572156  0.57776712  0.50439583  1
  Ca2+  Ca11  1  0.67997183  0.57828234  0.84460637  1
  Ca2+  Ca12  1  0.07905337  0.32929010  0.16207994  1
  Ca2+  Ca13  1  0.07651291  0.32343781  0.49424414  1
  Ca2+  Ca14  1  0.06822639  0.32751997  0.82689474  1
  Ca2+  Ca15  1  0.08038612  0.83522600  0.16191711  1
  Ca2+  Ca16  1  0.07737568  0.82871490  0.49194345  1
  Ca2+  Ca17  1  0.08674360  0.82445530  0.83498454  1
  Ca2+  Ca18  1  0.59114885  0.32952517  0.15666564  1
  Ca2+  Ca19  1  0.58412261  0.33486779  0.49333351  1
  Ca2+  Ca20  1  0.58811233  0.33090804  0.83890459  1
  Ca2+  Ca21  1  0.58089085  0.83459510  0.15272345  1
  Ca2+  Ca22  1  0.58473764  0.83472820  0.49221509  1
  Ca2+  Ca23  1  0.58226406  0.83671835  0.83901012  1
  Ca2+  Ca24  1  0.32915582  0.42417682  0.17018495  1
  Ca2+  Ca25  1  0.32314761  0.41391377  0.49938962  1
  Ca2+  Ca26  1  0.32748243  0.42507774  0.84198138  1
  Ca2+  Ca27  1  0.32467307  0.91526989  0.16249898  1
  Ca2+  Ca28  1  0.32441227  0.91702976  0.50041179  1
  Ca2+  Ca29  1  0.32693796  0.91911798  0.84740632  1
  Ca2+  Ca30  1  0.82881761  0.41961916  0.16163398  1
  Ca2+  Ca31  1  0.83231343  0.41768592  0.50527276  1
  Ca2+  Ca32  1  0.83832874  0.42157029  0.84174322  1
  Ca2+  Ca33  1  0.83001380  0.92447285  0.17450132  1
  Ca2+  Ca34  1  0.84273949  0.92638411  0.49863912  1
  Ca2+  Ca35  1  0.83141973  0.93135653  0.84233868  1
  Ca2+  Ca36  1  0.42479235  0.16445453  0.15571044  1
  Ca2+  Ca37  1  0.42065410  0.16844207  0.49455556  1
  Ca2+  Ca38  1  0.42505527  0.15588840  0.83658203  1
  Ca2+  Ca39  1  0.42307216  0.67219283  0.15225462  1
  Ca2+  Ca40  1  0.42080199  0.66855273  0.49563305  1
  Ca2+  Ca41  1  0.42155430  0.66803189  0.83960300  1
  Ca2+  Ca42  1  0.91390258  0.16809164  0.16188020  1
  Ca2+  Ca43  1  0.92096518  0.16283720  0.49666911  1
  Ca2+  Ca44  1  0.90926240  0.17609406  0.82964105  1
  Ca2+  Ca45  1  0.91964136  0.67245457  0.15821908  1
  Ca2+  Ca46  1  0.91693452  0.67044216  0.49764657  1
  Ca2+  Ca47  1  0.92485476  0.65900738  0.82959199  1
  Al0+  Al48  1  0.00126746  0.00021590  0.00572906  1
  Al0+  Al49  1  0.00187022  -0.00110296  0.33275769  1
  Al0+  Al50  1  -0.00078948  -0.00163458  0.67218988  1
  Al0+  Al51  1  -0.00047442  0.49920653  -0.00265466  1
  Al0+  Al52  1  0.00150507  0.49902724  0.33644269  1
  Al0+  Al53  1  -0.00034454  0.49768510  0.66129411  1
  Al0+  Al54  1  0.49947978  0.00123131  -0.00311492  1
  Al0+  Al55  1  0.50006554  0.00108900  0.33590704  1
  Al0+  Al56  1  0.49753712  -0.00097798  0.66257814  1
  Al0+  Al57  1  0.49915128  0.50059087  0.00148324  1
  Al0+  Al58  1  0.49988541  0.50078099  0.33871534  1
  Al0+  Al59  1  0.49793766  0.50093677  0.66474820  1
  Al0+  Al60  1  0.25073327  0.25046891  0.00221754  1
  Al0+  Al61  1  0.25051229  0.25198086  0.33264730  1
  Al0+  Al62  1  0.25137553  0.24919249  0.66451988  1
  Al0+  Al63  1  0.25037096  0.74995003  0.00116647  1
  Al0+  Al64  1  0.25281414  0.75108469  0.33786964  1
  Al0+  Al65  1  0.25056740  0.74952568  0.66091887  1
  Al0+  Al66  1  0.74991364  0.25120697  -0.00182160  1
  Al0+  Al67  1  0.75011383  0.25093256  0.34114087  1
  Al0+  Al68  1  0.74650525  0.24894398  0.66473025  1
  Al0+  Al69  1  0.75165394  0.75057111  -0.00089188  1
  Al0+  Al70  1  0.74959044  0.74873311  0.33157762  1
  Al0+  Al71  1  0.74838912  0.74799959  0.66987270  1
  Al0+  Al72  1  0.82036691  0.07010889  0.68232561  1
  Al0+  Al73  1  0.67923381  0.92880570  0.01212004  1
  Al0+  Al74  1  0.67993484  0.43109332  0.01281940  1
  Al0+  Al75  1  0.06864810  0.68101195  0.98925740  1
  Al0+  Al76  1  0.07215341  0.17753621  0.65308894  1
  Al0+  Al77  1  0.82160105  0.56891708  0.68028089  1
  Al0+  Al78  1  0.42997261  0.82085534  0.98499410  1
  Al0+  Al79  1  0.32024618  0.57061282  0.01238733  1
  Al0+  Al80  1  0.92971561  0.81905991  0.31981061  1
  Al0+  Al81  1  0.67732972  0.92681863  0.34778786  1
  Al0+  Al82  1  0.17921787  0.92845058  0.01504128  1
  Al0+  Al83  1  0.57469875  0.67664897  0.98437187  1
  Al0+  Al84  1  0.56956384  0.18067707  0.98723005  1
  Al0+  Al85  1  0.93035577  0.31846061  0.98808386  1
  Al0+  Al86  1  0.82208125  0.06981745  0.34916844  1
  Al0+  Al87  1  0.92630970  0.31967705  0.64949942  1
  Al0+  Al88  1  0.07195384  0.67928765  0.65211088  1
  Al0+  Al89  1  0.82156618  0.07295430  0.01521861  1
  Al0+  Al90  1  0.18058097  0.92942077  0.34903864  1
  Al0+  Al91  1  0.07071263  0.17980833  0.31763261  1
  Al0+  Al92  1  0.32186040  0.07321838  0.01421443  1
  Al0+  Al93  1  0.82538082  0.57265297  0.01468376  1
  Al0+  Al94  1  0.67928257  0.43032367  0.34795459  1
  Al0+  Al95  1  0.17863884  0.42854413  0.34739155  1
  Si0+  Si96  1  0.92656328  0.82070699  0.65245754  1
  Si0+  Si97  1  0.18024912  0.92775983  0.68119797  1
  Si0+  Si98  1  0.18031916  0.42806664  0.68132335  1
  Si0+  Si99  1  0.42918609  0.32318783  0.65027366  1
  Si0+  Si100  1  0.56854708  0.17776906  0.64937392  1
  Si0+  Si101  1  0.32216401  0.07345691  0.35082635  1
  Si0+  Si102  1  0.57040157  0.67833433  0.65005303  1
  Si0+  Si103  1  0.32009680  0.57207710  0.68174311  1
  Si0+  Si104  1  0.07423874  0.17615929  0.98499784  1
  Si0+  Si105  1  0.32225808  0.07070145  0.68052277  1
  Si0+  Si106  1  0.32161823  0.57148079  0.35223384  1
  Si0+  Si107  1  0.42976065  0.32275670  0.31806255  1
  Si0+  Si108  1  0.67443347  0.92794838  0.68336498  1
  Si0+  Si109  1  0.42934188  0.82073563  0.64867566  1
  Si0+  Si110  1  0.42504759  0.32390464  0.98341625  1
  Si0+  Si111  1  0.17676862  0.42766104  0.01485201  1
  Si0+  Si112  1  0.67449107  0.42842996  0.68336776  1
  Si0+  Si113  1  0.07417653  0.67665926  0.31678256  1
  Si0+  Si114  1  0.42943618  0.82222515  0.31826764  1
  Si0+  Si115  1  0.92725562  0.82560555  0.98297995  1
  Si0+  Si116  1  0.82315368  0.57249166  0.34961389  1
  Si0+  Si117  1  0.92623415  0.32324566  0.31540872  1
  Si0+  Si118  1  0.56954335  0.67826418  0.31958706  1
  Si0+  Si119  1  0.57097392  0.18083481  0.31913472  1
  O2-  O120  1  0.24772720  0.00453894  0.06430337  1
  O2-  O121  1  0.25223917  0.00707603  0.39700918  1
  O2-  O122  1  0.24750865  0.00342057  0.72107527  1
  O2-  O123  1  0.24751666  0.49445450  0.05873451  1
  O2-  O124  1  0.24989353  0.50617979  0.39653398  1
  O2-  O125  1  0.24681291  0.50355341  0.72377912  1
  O2-  O126  1  0.75478039  -0.00459537  0.06355252  1
  O2-  O127  1  0.75178046  -0.00491627  0.39915314  1
  O2-  O128  1  0.74452196  -0.00499508  0.72626742  1
  O2-  O129  1  0.74713255  0.50697512  0.06388272  1
  O2-  O130  1  0.75623809  0.50206813  0.39446309  1
  O2-  O131  1  0.74852375  0.49159822  0.72530669  1
  O2-  O132  1  -0.00536786  0.25373259  0.27225925  1
  O2-  O133  1  -0.00254385  0.24574878  0.60099241  1
  O2-  O134  1  0.00377865  0.24237746  0.94093702  1
  O2-  O135  1  0.00474864  0.74406103  0.27347071  1
  O2-  O136  1  -0.00540132  0.75154330  0.60697095  1
  O2-  O137  1  -0.00707367  0.75317076  0.93960441  1
  O2-  O138  1  0.50084105  0.25260921  0.27626158  1
  O2-  O139  1  0.50071319  0.25268552  0.60780577  1
  O2-  O140  1  0.49196620  0.25329214  0.93942149  1
  O2-  O141  1  0.50425044  0.75467067  0.27826633  1
  O2-  O142  1  0.50280934  0.75229335  0.60643111  1
  O2-  O143  1  0.50449997  0.75127742  0.93421040  1
  O2-  O144  1  0.07597179  0.17916118  0.09046831  1
  O2-  O145  1  0.06968189  0.18140408  0.43094166  1
  O2-  O146  1  0.07796021  0.18127090  0.76612816  1
  O2-  O147  1  0.06920716  0.68069537  0.10231860  1
  O2-  O148  1  0.07313079  0.67749971  0.42281372  1
  O2-  O149  1  0.07705567  0.68206503  0.76476932  1
  O2-  O150  1  0.56926850  0.18294299  0.10051232  1
  O2-  O151  1  0.56695488  0.18196733  0.42483217  1
  O2-  O152  1  0.56608839  0.17542603  0.75401087  1
  O2-  O153  1  0.56846699  0.67431329  0.09828319  1
  O2-  O154  1  0.56556935  0.67697846  0.42538650  1
  O2-  O155  1  0.56758054  0.67542125  0.75413783  1
  O2-  O156  1  0.18201284  0.42961607  0.23462456  1
  O2-  O157  1  0.18473210  0.42806752  0.57616336  1
  O2-  O158  1  0.17827049  0.42826665  0.90885389  1
  O2-  O159  1  0.18418904  0.92635157  0.23703184  1
  O2-  O160  1  0.18267651  0.92646424  0.57597367  1
  O2-  O161  1  0.18100193  0.92809485  0.90058550  1
  O2-  O162  1  0.67449288  0.43116081  0.23598857  1
  O2-  O163  1  0.67075344  0.43274790  0.57746367  1
  O2-  O164  1  0.68129087  0.42961400  0.89907972  1
  O2-  O165  1  0.67374099  0.92994943  0.23528697  1
  O2-  O166  1  0.67137214  0.92981468  0.57776560  1
  O2-  O167  1  0.67980377  0.93400527  0.89796545  1
  O2-  O168  1  0.42448154  0.32483955  0.08901045  1
  O2-  O169  1  0.43074026  0.32167805  0.42393022  1
  O2-  O170  1  0.42792762  0.32627727  0.75463402  1
  O2-  O171  1  0.42939249  0.81849174  0.09884371  1
  O2-  O172  1  0.42843347  0.81970091  0.42421470  1
  O2-  O173  1  0.42722673  0.82171751  0.75291500  1
  O2-  O174  1  0.93208518  0.31953044  0.10124948  1
  O2-  O175  1  0.92718872  0.32406774  0.42106597  1
  O2-  O176  1  0.92896238  0.32034309  0.76295393  1
  O2-  O177  1  0.92993594  0.82631677  0.08854749  1
  O2-  O178  1  0.93200910  0.81690554  0.43374429  1
  O2-  O179  1  0.92806700  0.82105451  0.75761409  1
  O2-  O180  1  0.32453241  0.07227560  0.24606404  1
  O2-  O181  1  0.32746231  0.06834852  0.57551667  1
  O2-  O182  1  0.31944824  0.07148216  0.89962818  1
  O2-  O183  1  0.32422196  0.57035229  0.24718539  1
  O2-  O184  1  0.32245814  0.57060192  0.57652666  1
  O2-  O185  1  0.31822218  0.56929451  0.89859338  1
  O2-  O186  1  0.81875181  0.07179151  0.23639080  1
  O2-  O187  1  0.82055472  0.06794344  0.56931036  1
  O2-  O188  1  0.81908460  0.07375137  0.90121556  1
  O2-  O189  1  0.82260829  0.57274696  0.24468308  1
  O2-  O190  1  0.81703735  0.57115495  0.56677865  1
  O2-  O191  1  0.82778968  0.56631644  0.90096404  1
  O2-  O192  1  0.04365683  0.08187775  0.26605283  1
  O2-  O193  1  0.04471473  0.07654437  0.60396795  1
  O2-  O194  1  0.05228646  0.08107824  0.94090731  1
  O2-  O195  1  0.05139927  0.58143734  0.27323371  1
  O2-  O196  1  0.04364657  0.58213223  0.59831354  1
  O2-  O197  1  0.04158629  0.58406159  0.93331666  1
  O2-  O198  1  0.54120930  0.08908846  0.27338912  1
  O2-  O199  1  0.53531130  0.08821636  0.59988796  1
  O2-  O200  1  0.53833895  0.08629224  0.92894043  1
  O2-  O201  1  0.53480002  0.58822075  0.27320091  1
  O2-  O202  1  0.53731750  0.58847885  0.60015069  1
  O2-  O203  1  0.53980593  0.58002139  0.93036236  1
  O2-  O204  1  0.16838450  0.21182682  0.26617238  1
  O2-  O205  1  0.17107425  0.20607076  0.59880567  1
  O2-  O206  1  0.16805226  0.20266911  0.93887443  1
  O2-  O207  1  0.16969756  0.70287328  0.27539004  1
  O2-  O208  1  0.16763691  0.71051318  0.59508020  1
  O2-  O209  1  0.16467705  0.71275247  0.93420971  1
  O2-  O210  1  0.66347690  0.20915533  0.27524428  1
  O2-  O211  1  0.66004657  0.20284979  0.60080921  1
  O2-  O212  1  0.66330861  0.21534723  0.93022211  1
  O2-  O213  1  0.66350759  0.69633199  0.27432416  1
  O2-  O214  1  0.66298640  0.70352514  0.60258613  1
  O2-  O215  1  0.67408192  0.70115893  0.93115359  1
  O2-  O216  1  0.08579890  0.45665067  0.06221760  1
  O2-  O217  1  0.08236354  0.45650980  0.40405071  1
  O2-  O218  1  0.08648739  0.45123123  0.72481619  1
  O2-  O219  1  0.08160249  0.95392791  0.06972382  1
  O2-  O220  1  0.08425294  0.95830725  0.40362816  1
  O2-  O221  1  0.08798629  0.94927946  0.72927253  1
  O2-  O222  1  0.57984645  0.45321493  0.06517544  1
  O2-  O223  1  0.58357662  0.46327028  0.40477958  1
  O2-  O224  1  0.58176163  0.45857097  0.72873260  1
  O2-  O225  1  0.58162722  0.96044832  0.06331089  1
  O2-  O226  1  0.57967388  0.95827471  0.40312334  1
  O2-  O227  1  0.58015555  0.95567340  0.72721891  1
  O2-  O228  1  0.20071481  0.33438947  0.06168877  1
  O2-  O229  1  0.21529093  0.33452060  0.40366753  1
  O2-  O230  1  0.21418751  0.33835400  0.72874457  1
  O2-  O231  1  0.21222714  0.83267318  0.06922247  1
  O2-  O232  1  0.21503073  0.83411021  0.40546837  1
  O2-  O233  1  0.21486663  0.83714459  0.72667291  1
  O2-  O234  1  0.71287955  0.33491699  0.06650257  1
  O2-  O235  1  0.70611539  0.33439269  0.40521290  1
  O2-  O236  1  0.69181902  0.33130183  0.72390591  1
  O2-  O237  1  0.69778774  0.82750957  0.06169235  1
  O2-  O238  1  0.70031106  0.82574611  0.39868485  1
  O2-  O239  1  0.69557465  0.83248651  0.72649863  1
  O2-  O240  1  0.45662979  0.41612804  0.27386403  1
  O2-  O241  1  0.45585181  0.41466503  0.60001160  1
  O2-  O242  1  0.45268090  0.41595962  0.93534646  1
  O2-  O243  1  0.45228929  0.91619925  0.27412481  1
  O2-  O244  1  0.45441186  0.91274893  0.59907752  1
  O2-  O245  1  0.45570353  0.91903616  0.92985469  1
  O2-  O246  1  0.95396521  0.41728125  0.27123123  1
  O2-  O247  1  0.95719961  0.41647153  0.59461443  1
  O2-  O248  1  0.96401901  0.41310368  0.93165159  1
  O2-  O249  1  0.96175628  0.91479594  0.26662575  1
  O2-  O250  1  0.95541375  0.91359336  0.60668552  1
  O2-  O251  1  0.95821724  0.91797215  0.93616189  1
  O2-  O252  1  0.33812718  0.29708847  0.27078747  1
  O2-  O253  1  0.33889645  0.29267830  0.60076326  1
  O2-  O254  1  0.33075191  0.30132533  0.93623951  1
  O2-  O255  1  0.33867279  0.79055016  0.27181091  1
  O2-  O256  1  0.33997979  0.78892908  0.59813714  1
  O2-  O257  1  0.33331528  0.78750924  0.93107092  1
  O2-  O258  1  0.83118638  0.29758578  0.27296595  1
  O2-  O259  1  0.82526762  0.29597433  0.59902819  1
  O2-  O260  1  0.83486013  0.28922730  0.93161392  1
  O2-  O261  1  0.83227068  0.79051802  0.26620537  1
  O2-  O262  1  0.83211139  0.79605743  0.60673765  1
  O2-  O263  1  0.83268089  0.80655652  0.93707902  1
  O2-  O264  1  0.41927949  0.04324607  0.06632947  1
  O2-  O265  1  0.41446600  0.04546199  0.39960342  1
  O2-  O266  1  0.41229723  0.03790707  0.72878764  1
  O2-  O267  1  0.41537168  0.54053837  0.06828908  1
  O2-  O268  1  0.41258734  0.54134518  0.40221040  1
  O2-  O269  1  0.41127761  0.54113101  0.72840446  1
  O2-  O270  1  0.92133022  0.05048954  0.06642461  1
  O2-  O271  1  0.92017353  0.03961142  0.40177934  1
  O2-  O272  1  0.91650806  0.04026828  0.73775872  1
  O2-  O273  1  0.92040785  0.53709659  0.06977842  1
  O2-  O274  1  0.91730174  0.54921451  0.39598975  1
  O2-  O275  1  0.92035550  0.54021890  0.73079946  1
  O2-  O276  1  0.30132920  0.17375882  0.06641525  1
  O2-  O277  1  0.30036143  0.16847339  0.39578101  1
  O2-  O278  1  0.30104016  0.16477608  0.72571015  1
  O2-  O279  1  0.28821280  0.66476245  0.06840896  1
  O2-  O280  1  0.30046003  0.66579261  0.39902923  1
  O2-  O281  1  0.29438190  0.66524772  0.72652563  1
  O2-  O282  1  0.78721009  0.16882059  0.06753155  1
  O2-  O283  1  0.79102968  0.16666983  0.40433288  1
  O2-  O284  1  0.78617565  0.16748164  0.73266907  1
  O2-  O285  1  0.80636203  0.67434109  0.06241336  1
  O2-  O286  1  0.79436282  0.66444406  0.39742727  1
  O2-  O287  1  0.79001311  0.66527041  0.73423755  1
