# generated using pymatgen
data_Ca2Al2SiO7
_symmetry_space_group_name_H-M   'P 1'
_cell_length_a   15.46635079
_cell_length_b   15.46403899
_cell_length_c   15.28929581
_cell_angle_alpha   90.00736465
_cell_angle_beta   90.02097656
_cell_angle_gamma   90.01874023
_symmetry_Int_Tables_number   1
_chemical_formula_structural   Ca2Al2SiO7
_chemical_formula_sum   'Ca48 Al48 Si24 O168'
_cell_volume   3656.77483187
_cell_formula_units_Z   24
loop_
 _symmetry_equiv_pos_site_id
 _symmetry_equiv_pos_as_xyz
  1  'x, y, z'
loop_
 _atom_type_symbol
 _atom_type_oxidation_number
  Ca2+  2.0
  Al0+  0.0
  Si0+  0.0
  O2-  -2.0
loop_
 _atom_site_type_symbol
 _atom_site_label
 _atom_site_symmetry_multiplicity
 _atom_site_fract_x
 _atom_site_fract_y
 _atom_site_fract_z
 _atom_site_occupancy
  Ca2+  Ca0  1  0.15455604  0.07471855  0.17169422  1
  Ca2+  Ca1  1  0.16340044  0.07667753  0.50665319  1
  Ca2+  Ca2  1  0.16356554  0.07233358  0.83872620  1
  Ca2+  Ca3  1  0.16391683  0.57461156  0.16331059  1
  Ca2+  Ca4  1  0.16636445  0.57143849  0.50840881  1
  Ca2+  Ca5  1  0.16564850  0.58138529  0.84019780  1
  Ca2+  Ca6  1  0.66981029  0.08480903  0.17526981  1
  Ca2+  Ca7  1  0.67127039  0.08517557  0.49617014  1
  Ca2+  Ca8  1  0.66918703  0.08495005  0.84023023  1
  Ca2+  Ca9  1  0.66811088  0.57539714  0.16718318  1
  Ca2+  Ca10  1  0.67583875  0.57563090  0.51222310  1
  Ca2+  Ca11  1  0.67403243  0.57340000  0.83595438  1
  Ca2+  Ca12  1  0.07638270  0.32985600  0.15939787  1
  Ca2+  Ca13  1  0.08193431  0.33180289  0.48793359  1
  Ca2+  Ca14  1  0.08493836  0.33750981  0.83064772  1
  Ca2+  Ca15  1  0.09108600  0.82993022  0.15800769  1
  Ca2+  Ca16  1  0.08733903  0.83149558  0.50210124  1
  Ca2+  Ca17  1  0.08808401  0.82368113  0.82644314  1
  Ca2+  Ca18  1  0.58626111  0.32252496  0.15801975  1
  Ca2+  Ca19  1  0.58095876  0.33121336  0.49412001  1
  Ca2+  Ca20  1  0.58715043  0.33478566  0.83216230  1
  Ca2+  Ca21  1  0.57683595  0.83518373  0.16000772  1
  Ca2+  Ca22  1  0.58218428  0.83347624  0.49307504  1
  Ca2+  Ca23  1  0.57270727  0.83196125  0.83032065  1
  Ca2+  Ca24  1  0.31997269  0.41620310  0.16700636  1
  Ca2+  Ca25  1  0.32124555  0.41808461  0.50828726  1
  Ca2+  Ca26  1  0.32007863  0.42890524  0.83757333  1
  Ca2+  Ca27  1  0.32410708  0.91501942  0.16655073  1
  Ca2+  Ca28  1  0.32063163  0.92536939  0.50516808  1
  Ca2+  Ca29  1  0.32426086  0.91719723  0.83707354  1
  Ca2+  Ca30  1  0.83451997  0.40591682  0.16642191  1
  Ca2+  Ca31  1  0.83098908  0.41897761  0.50657628  1
  Ca2+  Ca32  1  0.82824227  0.41515158  0.83762985  1
  Ca2+  Ca33  1  0.82715315  0.92839399  0.17902603  1
  Ca2+  Ca34  1  0.83365856  0.92125990  0.50269260  1
  Ca2+  Ca35  1  0.83725426  0.91530464  0.83516483  1
  Ca2+  Ca36  1  0.43021792  0.16120789  0.16243335  1
  Ca2+  Ca37  1  0.42031189  0.16332764  0.49620681  1
  Ca2+  Ca38  1  0.42255368  0.16212211  0.82883850  1
  Ca2+  Ca39  1  0.41082467  0.67379386  0.15633137  1
  Ca2+  Ca40  1  0.41337067  0.66409577  0.49959318  1
  Ca2+  Ca41  1  0.40628131  0.66698247  0.83089800  1
  Ca2+  Ca42  1  0.92453560  0.17254868  0.16560625  1
  Ca2+  Ca43  1  0.92249896  0.17432481  0.48904999  1
  Ca2+  Ca44  1  0.92511042  0.17205468  0.83809643  1
  Ca2+  Ca45  1  0.92530296  0.67217247  0.15940621  1
  Ca2+  Ca46  1  0.91931388  0.66803350  0.50355865  1
  Ca2+  Ca47  1  0.92818895  0.66898733  0.82356945  1
  Al0+  Al48  1  -0.00162233  0.00229808  0.00180485  1
  Al0+  Al49  1  -0.00270234  -0.00053914  0.34038871  1
  Al0+  Al50  1  -0.00206607  0.00060025  0.66753849  1
  Al0+  Al51  1  -0.00142152  0.50184343  -0.00364622  1
  Al0+  Al52  1  -0.00002334  0.50226066  0.33234094  1
  Al0+  Al53  1  -0.00236419  0.50085756  0.66747199  1
  Al0+  Al54  1  0.49967278  -0.00150190  -0.00924692  1
  Al0+  Al55  1  0.49869543  -0.00206982  0.33264532  1
  Al0+  Al56  1  0.50169963  -0.00086610  0.66633731  1
  Al0+  Al57  1  0.50306273  0.50015922  0.00880697  1
  Al0+  Al58  1  0.50077678  0.50147827  0.33122483  1
  Al0+  Al59  1  0.49922905  0.49758084  0.67153883  1
  Al0+  Al60  1  0.25349037  0.24851888  0.00059149  1
  Al0+  Al61  1  0.25100269  0.24933174  0.33207246  1
  Al0+  Al62  1  0.25397149  0.24966400  0.67256245  1
  Al0+  Al63  1  0.24994140  0.75236626  -0.00129832  1
  Al0+  Al64  1  0.25101028  0.75118554  0.33716345  1
  Al0+  Al65  1  0.25041522  0.75138602  0.66288321  1
  Al0+  Al66  1  0.75072454  0.24916930  -0.00438046  1
  Al0+  Al67  1  0.74925074  0.24999553  0.33180830  1
  Al0+  Al68  1  0.75085367  0.24629709  0.66876869  1
  Al0+  Al69  1  0.74766905  0.74950860  0.00070763  1
  Al0+  Al70  1  0.74914444  0.74889515  0.33475844  1
  Al0+  Al71  1  0.74924181  0.75021554  0.66686529  1
  Al0+  Al72  1  0.07267022  0.67805773  0.64883742  1
  Al0+  Al73  1  0.67716934  0.92800233  0.34778890  1
  Al0+  Al74  1  0.93006042  0.32388294  0.31957038  1
  Al0+  Al75  1  0.42984443  0.81845545  0.98487578  1
  Al0+  Al76  1  0.32002056  0.57247821  0.01538929  1
  Al0+  Al77  1  0.68216894  0.42816982  0.01610148  1
  Al0+  Al78  1  0.06947654  0.68185912  0.98770269  1
  Al0+  Al79  1  0.07297281  0.17630210  0.32087288  1
  Al0+  Al80  1  0.17938016  0.93261028  0.01345431  1
  Al0+  Al81  1  0.56974567  0.18023544  0.98440411  1
  Al0+  Al82  1  0.92743854  0.82252066  0.65020149  1
  Al0+  Al83  1  0.67995118  0.42600843  0.68079107  1
  Al0+  Al84  1  0.32398456  0.07081753  0.68201995  1
  Al0+  Al85  1  0.82078829  0.57283561  0.68244735  1
  Al0+  Al86  1  0.17791732  0.92899185  0.34783120  1
  Al0+  Al87  1  0.17915109  0.42910907  0.34532887  1
  Al0+  Al88  1  0.93109520  0.32055573  0.98323190  1
  Al0+  Al89  1  0.17631239  0.42675849  0.01590910  1
  Al0+  Al90  1  0.81955747  0.07278827  0.35010429  1
  Al0+  Al91  1  0.32083863  0.57124580  0.67922732  1
  Al0+  Al92  1  0.17632431  0.42825336  0.68022116  1
  Al0+  Al93  1  0.17743642  0.93131697  0.68279952  1
  Al0+  Al94  1  0.07453034  0.17719970  0.98497401  1
  Al0+  Al95  1  0.56809859  0.17999128  0.32087931  1
  Si0+  Si96  1  0.42899063  0.32508902  0.98286940  1
  Si0+  Si97  1  0.92811475  0.31951111  0.65251741  1
  Si0+  Si98  1  0.32317760  0.07147482  0.34732734  1
  Si0+  Si99  1  0.07252909  0.18068537  0.65383875  1
  Si0+  Si100  1  0.32621929  0.07112343  0.01672756  1
  Si0+  Si101  1  0.67863528  0.42942007  0.34728642  1
  Si0+  Si102  1  0.56919504  0.67778450  0.65210505  1
  Si0+  Si103  1  0.81910182  0.06979756  0.01533917  1
  Si0+  Si104  1  0.92476521  0.82358204  0.98701045  1
  Si0+  Si105  1  0.57329646  0.67771113  0.31747595  1
  Si0+  Si106  1  0.92652090  0.82042750  0.31908714  1
  Si0+  Si107  1  0.67873426  0.92814215  0.68280326  1
  Si0+  Si108  1  0.42999473  0.82238095  0.64779112  1
  Si0+  Si109  1  0.42758916  0.32542971  0.31548205  1
  Si0+  Si110  1  0.07164195  0.68199297  0.31799871  1
  Si0+  Si111  1  0.57388725  0.67591459  0.98222904  1
  Si0+  Si112  1  0.42968527  0.81814532  0.31811536  1
  Si0+  Si113  1  0.57264302  0.17710450  0.64941700  1
  Si0+  Si114  1  0.32268679  0.57204615  0.34924911  1
  Si0+  Si115  1  0.82181690  0.57419216  0.01834543  1
  Si0+  Si116  1  0.82018846  0.07038282  0.68443345  1
  Si0+  Si117  1  0.67694208  0.92868110  0.01285663  1
  Si0+  Si118  1  0.43089655  0.32055816  0.65203197  1
  Si0+  Si119  1  0.82092161  0.57223597  0.34790500  1
  O2-  O120  1  0.25037052  0.01089292  0.06147452  1
  O2-  O121  1  0.24675280  0.01109302  0.39089826  1
  O2-  O122  1  0.24969715  0.00274493  0.73294760  1
  O2-  O123  1  0.25024921  0.49831816  0.06517826  1
  O2-  O124  1  0.25699714  0.50069612  0.39218462  1
  O2-  O125  1  0.24201343  0.50707035  0.72839121  1
  O2-  O126  1  0.75015508  -0.00423761  0.05590688  1
  O2-  O127  1  0.74859786  -0.00116943  0.40003776  1
  O2-  O128  1  0.75102146  -0.00313280  0.72581367  1
  O2-  O129  1  0.75662241  0.50272855  0.06405013  1
  O2-  O130  1  0.75072389  0.49922263  0.38892856  1
  O2-  O131  1  0.75238935  0.49697499  0.73105174  1
  O2-  O132  1  0.00431293  0.25250826  0.27225666  1
  O2-  O133  1  0.00607867  0.25595849  0.61102515  1
  O2-  O134  1  0.01036070  0.25597324  0.93347459  1
  O2-  O135  1  0.00237102  0.75546598  0.27583934  1
  O2-  O136  1  0.00033533  0.75145233  0.59960431  1
  O2-  O137  1  -0.00714516  0.75551953  0.94296445  1
  O2-  O138  1  0.49495597  0.25484856  0.27208359  1
  O2-  O139  1  0.50143558  0.24846389  0.60891974  1
  O2-  O140  1  0.49484252  0.25386601  0.93701341  1
  O2-  O141  1  0.50114984  0.74748258  0.27563956  1
  O2-  O142  1  0.49825962  0.74760265  0.60645777  1
  O2-  O143  1  0.50177279  0.74063865  0.93798149  1
  O2-  O144  1  0.06633655  0.17232909  0.09795634  1
  O2-  O145  1  0.07124742  0.17857754  0.43527565  1
  O2-  O146  1  0.06918978  0.17928980  0.75860721  1
  O2-  O147  1  0.06830398  0.68406647  0.10179990  1
  O2-  O148  1  0.07061691  0.68068416  0.42261631  1
  O2-  O149  1  0.07221294  0.68021393  0.76227882  1
  O2-  O150  1  0.56994963  0.17829864  0.09771493  1
  O2-  O151  1  0.56665730  0.18214552  0.43434830  1
  O2-  O152  1  0.57325142  0.17529728  0.75425442  1
  O2-  O153  1  0.57778315  0.68068222  0.08810998  1
  O2-  O154  1  0.57327868  0.67599857  0.42262630  1
  O2-  O155  1  0.56926050  0.68056672  0.75687100  1
  O2-  O156  1  0.17830620  0.43242926  0.23283049  1
  O2-  O157  1  0.17994769  0.42532472  0.56601088  1
  O2-  O158  1  0.17720168  0.43039277  0.90277335  1
  O2-  O159  1  0.18217428  0.92451877  0.23483268  1
  O2-  O160  1  0.17919886  0.93420695  0.56877716  1
  O2-  O161  1  0.18033003  0.93072948  0.90105504  1
  O2-  O162  1  0.67734605  0.43083455  0.24247064  1
  O2-  O163  1  0.68020899  0.42699983  0.56627933  1
  O2-  O164  1  0.68353822  0.42906056  0.90334941  1
  O2-  O165  1  0.67828170  0.92764406  0.23387197  1
  O2-  O166  1  0.67622282  0.92961607  0.57786338  1
  O2-  O167  1  0.67776885  0.92933776  0.90757215  1
  O2-  O168  1  0.43242357  0.32332134  0.08882029  1
  O2-  O169  1  0.43065120  0.32814254  0.42133502  1
  O2-  O170  1  0.43335260  0.32094362  0.75655111  1
  O2-  O171  1  0.43299692  0.81991644  0.09861819  1
  O2-  O172  1  0.43052238  0.81654959  0.42321702  1
  O2-  O173  1  0.43328740  0.82470593  0.75256727  1
  O2-  O174  1  0.92802447  0.31551123  0.09664408  1
  O2-  O175  1  0.92936400  0.32460621  0.43386798  1
  O2-  O176  1  0.92402041  0.31477468  0.75704261  1
  O2-  O177  1  0.92261687  0.82230512  0.09302184  1
  O2-  O178  1  0.92286672  0.81627900  0.42353125  1
  O2-  O179  1  0.92619312  0.82187204  0.76395910  1
  O2-  O180  1  0.33034115  0.06587342  0.24234183  1
  O2-  O181  1  0.32563947  0.06906294  0.56792897  1
  O2-  O182  1  0.33080791  0.06512807  0.91165551  1
  O2-  O183  1  0.32261227  0.57498915  0.24416492  1
  O2-  O184  1  0.32484456  0.56456646  0.56523554  1
  O2-  O185  1  0.31769611  0.57226907  0.90221165  1
  O2-  O186  1  0.81741315  0.07087592  0.23623705  1
  O2-  O187  1  0.81755198  0.07371175  0.57966359  1
  O2-  O188  1  0.81846725  0.06798656  0.90978760  1
  O2-  O189  1  0.81853210  0.57653348  0.24305297  1
  O2-  O190  1  0.81729916  0.57141876  0.56789062  1
  O2-  O191  1  0.81735587  0.57813295  0.91348470  1
  O2-  O192  1  0.03907146  0.07793495  0.27010179  1
  O2-  O193  1  0.03904480  0.09060900  0.60656846  1
  O2-  O194  1  0.03449274  0.08230129  0.92995940  1
  O2-  O195  1  0.04014083  0.59196753  0.26972672  1
  O2-  O196  1  0.04094556  0.57928208  0.59607492  1
  O2-  O197  1  0.04025366  0.58617951  0.93270208  1
  O2-  O198  1  0.53786792  0.08241664  0.26730291  1
  O2-  O199  1  0.54446044  0.08531286  0.60160586  1
  O2-  O200  1  0.54069390  0.08402913  0.92835110  1
  O2-  O201  1  0.54735281  0.58583369  0.26860899  1
  O2-  O202  1  0.54208122  0.58504249  0.60522077  1
  O2-  O203  1  0.55359331  0.57985171  0.94070550  1
  O2-  O204  1  0.17423419  0.19527250  0.26986341  1
  O2-  O205  1  0.16752444  0.20195995  0.60977482  1
  O2-  O206  1  0.17798633  0.19176927  0.93778713  1
  O2-  O207  1  0.16454329  0.70978859  0.27280488  1
  O2-  O208  1  0.17123276  0.70609814  0.59420888  1
  O2-  O209  1  0.16430055  0.71510017  0.93371166  1
  O2-  O210  1  0.66440099  0.20998420  0.26685312  1
  O2-  O211  1  0.66472542  0.20523341  0.60255783  1
  O2-  O212  1  0.66548648  0.21081291  0.92941011  1
  O2-  O213  1  0.66415248  0.70614649  0.26846709  1
  O2-  O214  1  0.66030010  0.70696083  0.60376716  1
  O2-  O215  1  0.66533082  0.70643483  0.93384101  1
  O2-  O216  1  0.07755641  0.45893393  0.06667682  1
  O2-  O217  1  0.08337772  0.46364727  0.39904614  1
  O2-  O218  1  0.07554583  0.44827141  0.72929189  1
  O2-  O219  1  0.08067190  0.95866642  0.06725934  1
  O2-  O220  1  0.07989236  0.95133779  0.40171233  1
  O2-  O221  1  0.07859493  0.95905975  0.73449842  1
  O2-  O222  1  0.58725011  0.45823125  0.07383678  1
  O2-  O223  1  0.58682712  0.45890909  0.39484153  1
  O2-  O224  1  0.58290047  0.45523446  0.73416790  1
  O2-  O225  1  0.58587487  0.95967535  0.05917947  1
  O2-  O226  1  0.57870017  0.95578805  0.40095381  1
  O2-  O227  1  0.58840267  0.95872353  0.73096384  1
  O2-  O228  1  0.20494654  0.32689428  0.06739967  1
  O2-  O229  1  0.20712972  0.33084781  0.39825850  1
  O2-  O230  1  0.21074829  0.33288279  0.73447351  1
  O2-  O231  1  0.21518907  0.83790488  0.06783153  1
  O2-  O232  1  0.21651944  0.83550217  0.40370576  1
  O2-  O233  1  0.20763309  0.83180873  0.73023028  1
  O2-  O234  1  0.71382867  0.33040148  0.06780197  1
  O2-  O235  1  0.70373550  0.33758941  0.39477415  1
  O2-  O236  1  0.70761678  0.32721261  0.73289876  1
  O2-  O237  1  0.69911343  0.83527666  0.06017583  1
  O2-  O238  1  0.70437514  0.82873879  0.40019187  1
  O2-  O239  1  0.70273286  0.83602212  0.73045314  1
  O2-  O240  1  0.45490428  0.41835266  0.26855496  1
  O2-  O241  1  0.46056687  0.41116025  0.60225631  1
  O2-  O242  1  0.46030294  0.41809902  0.93944506  1
  O2-  O243  1  0.45719071  0.90931433  0.26995646  1
  O2-  O244  1  0.46462803  0.91197302  0.59939732  1
  O2-  O245  1  0.46550271  0.91125230  0.92684364  1
  O2-  O246  1  0.95489715  0.42299232  0.26570808  1
  O2-  O247  1  0.94553847  0.41440875  0.60770972  1
  O2-  O248  1  0.94823576  0.42213969  0.93316421  1
  O2-  O249  1  0.94807288  0.91503195  0.27567658  1
  O2-  O250  1  0.95381820  0.92253718  0.59814091  1
  O2-  O251  1  0.94830043  0.91754466  0.94220270  1
  O2-  O252  1  0.33386353  0.30127816  0.27022740  1
  O2-  O253  1  0.33928311  0.29252262  0.60327296  1
  O2-  O254  1  0.33426482  0.30396401  0.93821745  1
  O2-  O255  1  0.33825271  0.78866507  0.27036466  1
  O2-  O256  1  0.33808353  0.79891934  0.59902796  1
  O2-  O257  1  0.33387109  0.79026502  0.93003498  1
  O2-  O258  1  0.83142488  0.29388134  0.26806989  1
  O2-  O259  1  0.83871287  0.28367882  0.60377277  1
  O2-  O260  1  0.83605704  0.28275625  0.92883645  1
  O2-  O261  1  0.83632767  0.78853533  0.26960508  1
  O2-  O262  1  0.82764630  0.79418958  0.59787495  1
  O2-  O263  1  0.83044844  0.79924259  0.94071440  1
  O2-  O264  1  0.41724989  0.03512157  0.06340320  1
  O2-  O265  1  0.41224102  0.03696945  0.39792307  1
  O2-  O266  1  0.42223716  0.03894320  0.73393155  1
  O2-  O267  1  0.42085825  0.55058246  0.06760298  1
  O2-  O268  1  0.41871734  0.55026591  0.39336710  1
  O2-  O269  1  0.41640993  0.53897056  0.73503294  1
  O2-  O270  1  0.90994511  0.04382231  0.06474002  1
  O2-  O271  1  0.91606802  0.04432068  0.40606536  1
  O2-  O272  1  0.91141772  0.04401220  0.73262012  1
  O2-  O273  1  0.91632471  0.55247715  0.06288948  1
  O2-  O274  1  0.91268198  0.54625357  0.39536957  1
  O2-  O275  1  0.91937901  0.54836908  0.73394909  1
  O2-  O276  1  0.31422063  0.16825323  0.05918905  1
  O2-  O277  1  0.30895734  0.16833909  0.39072179  1
  O2-  O278  1  0.30444405  0.17042744  0.73444615  1
  O2-  O279  1  0.28936374  0.67042559  0.06827249  1
  O2-  O280  1  0.29578384  0.66442127  0.39708130  1
  O2-  O281  1  0.30367498  0.67414639  0.72504634  1
  O2-  O282  1  0.78619394  0.15966157  0.06142976  1
  O2-  O283  1  0.78729960  0.17020171  0.40389236  1
  O2-  O284  1  0.78805934  0.15918659  0.73448947  1
  O2-  O285  1  0.79193733  0.66677393  0.06679274  1
  O2-  O286  1  0.78983573  0.66173285  0.39763835  1
  O2-  O287  1  0.78836285  0.66975523  0.73540075  1
