# generated using pymatgen
data_Ca2Al2SiO7
_symmetry_space_group_name_H-M   'P 1'
_cell_length_a   15.46093326
_cell_length_b   15.46000456
_cell_length_c   15.28563960
_cell_angle_alpha   90.00984783
_cell_angle_beta   90.00252025
_cell_angle_gamma   90.01802034
_symmetry_Int_Tables_number   1
_chemical_formula_structural   Ca2Al2SiO7
_chemical_formula_sum   'Ca48 Al48 Si24 O168'
_cell_volume   3653.66656149
_cell_formula_units_Z   24
loop_
 _symmetry_equiv_pos_site_id
 _symmetry_equiv_pos_as_xyz
  1  'x, y, z'
loop_
 _atom_type_symbol
 _atom_type_oxidation_number
  Ca2+  2.0
  Al0+  0.0
  Si0+  0.0
  O2-  -2.0
loop_
 _atom_site_type_symbol
 _atom_site_label
 _atom_site_symmetry_multiplicity
 _atom_site_fract_x
 _atom_site_fract_y
 _atom_site_fract_z
 _atom_site_occupancy
  Ca2+  Ca0  1  0.16104472  0.07528247  0.17479744  1
  Ca2+  Ca1  1  0.17353542  0.08483598  0.49768472  1
  Ca2+  Ca2  1  0.16903304  0.08417335  0.83903212  1
  Ca2+  Ca3  1  0.15859479  0.57775537  0.17121010  1
  Ca2+  Ca4  1  0.16243699  0.58061813  0.50349069  1
  Ca2+  Ca5  1  0.15868786  0.57018447  0.83391647  1
  Ca2+  Ca6  1  0.67656753  0.07856631  0.17157800  1
  Ca2+  Ca7  1  0.68041390  0.07907798  0.50563715  1
  Ca2+  Ca8  1  0.67645457  0.07370198  0.83282451  1
  Ca2+  Ca9  1  0.67380646  0.57480907  0.17618422  1
  Ca2+  Ca10  1  0.67336655  0.58019394  0.50261329  1
  Ca2+  Ca11  1  0.67498089  0.57441527  0.83534444  1
  Ca2+  Ca12  1  0.07875115  0.32023656  0.15636536  1
  Ca2+  Ca13  1  0.07690065  0.32931977  0.49653010  1
  Ca2+  Ca14  1  0.07518077  0.33514430  0.82875712  1
  Ca2+  Ca15  1  0.08208041  0.83284830  0.16137937  1
  Ca2+  Ca16  1  0.07899033  0.82914689  0.49197503  1
  Ca2+  Ca17  1  0.07117454  0.83853888  0.83191279  1
  Ca2+  Ca18  1  0.58645278  0.33665933  0.16228497  1
  Ca2+  Ca19  1  0.58539088  0.33822466  0.49631059  1
  Ca2+  Ca20  1  0.58680552  0.33632893  0.82869868  1
  Ca2+  Ca21  1  0.58226134  0.83213815  0.16376320  1
  Ca2+  Ca22  1  0.58066275  0.83163598  0.49178581  1
  Ca2+  Ca23  1  0.58825595  0.83760733  0.82649468  1
  Ca2+  Ca24  1  0.32567298  0.41626485  0.16730212  1
  Ca2+  Ca25  1  0.32368295  0.41791169  0.50582362  1
  Ca2+  Ca26  1  0.31804078  0.41472583  0.83639844  1
  Ca2+  Ca27  1  0.32148244  0.92024974  0.17644669  1
  Ca2+  Ca28  1  0.33086697  0.92169043  0.49989483  1
  Ca2+  Ca29  1  0.32564730  0.92366593  0.83841988  1
  Ca2+  Ca30  1  0.82668279  0.41555831  0.17372984  1
  Ca2+  Ca31  1  0.82819616  0.42742867  0.50804229  1
  Ca2+  Ca32  1  0.83312952  0.41559274  0.83644632  1
  Ca2+  Ca33  1  0.83481973  0.91875018  0.16918818  1
  Ca2+  Ca34  1  0.83510647  0.92655253  0.50824248  1
  Ca2+  Ca35  1  0.82971884  0.91202159  0.83710948  1
  Ca2+  Ca36  1  0.41741965  0.16324234  0.16665036  1
  Ca2+  Ca37  1  0.41500101  0.16261623  0.49544965  1
  Ca2+  Ca38  1  0.41869166  0.16430046  0.82708356  1
  Ca2+  Ca39  1  0.42214172  0.67164047  0.16853887  1
  Ca2+  Ca40  1  0.42550226  0.67501549  0.48636480  1
  Ca2+  Ca41  1  0.42102667  0.66759812  0.82862255  1
  Ca2+  Ca42  1  0.92517306  0.16630093  0.16055788  1
  Ca2+  Ca43  1  0.91266639  0.17008671  0.49525430  1
  Ca2+  Ca44  1  0.91904688  0.17552497  0.82875763  1
  Ca2+  Ca45  1  0.91766083  0.66938812  0.16658539  1
  Ca2+  Ca46  1  0.91341872  0.66937351  0.49650033  1
  Ca2+  Ca47  1  0.90991054  0.67647160  0.82777922  1
  Al0+  Al48  1  0.00172936  -0.00037413  -0.00564073  1
  Al0+  Al49  1  0.00034698  0.00051768  0.33907196  1
  Al0+  Al50  1  0.00247442  0.00107269  0.66427810  1
  Al0+  Al51  1  0.00082121  0.50023722  0.00244846  1
  Al0+  Al52  1  -0.00339197  0.50055683  0.33269903  1
  Al0+  Al53  1  -0.00066426  0.49938454  0.66984892  1
  Al0+  Al54  1  0.50119552  -0.00049748  0.00260444  1
  Al0+  Al55  1  0.49838496  0.00215882  0.32993195  1
  Al0+  Al56  1  0.49934239  0.00113512  0.67216457  1
  Al0+  Al57  1  0.50160154  0.50075810  0.00178719  1
  Al0+  Al58  1  0.49740244  0.50000306  0.33096376  1
  Al0+  Al59  1  0.49937502  0.50037528  0.66744929  1
  Al0+  Al60  1  0.25295618  0.25171488  0.00087026  1
  Al0+  Al61  1  0.24901984  0.24885222  0.33143294  1
  Al0+  Al62  1  0.25129551  0.25021956  0.67341997  1
  Al0+  Al63  1  0.25290827  0.75105574  0.00062502  1
  Al0+  Al64  1  0.24836680  0.74888828  0.32862297  1
  Al0+  Al65  1  0.25129886  0.75074400  0.66640676  1
  Al0+  Al66  1  0.74950838  0.24901844  -0.00043984  1
  Al0+  Al67  1  0.74673279  0.24937380  0.33967460  1
  Al0+  Al68  1  0.74948661  0.24814496  0.66814737  1
  Al0+  Al69  1  0.74891117  0.74868267  0.00121833  1
  Al0+  Al70  1  0.74936013  0.74801630  0.33097529  1
  Al0+  Al71  1  0.74975283  0.74876302  0.66685928  1
  Al0+  Al72  1  0.92804654  0.32130813  0.98586741  1
  Al0+  Al73  1  0.57218857  0.67822911  0.31644001  1
  Al0+  Al74  1  0.92844163  0.82152203  0.65197464  1
  Al0+  Al75  1  0.17917887  0.42996257  0.67844640  1
  Al0+  Al76  1  0.17791041  0.92604667  0.34955648  1
  Al0+  Al77  1  0.82156754  0.06987198  0.34568591  1
  Al0+  Al78  1  0.67755218  0.42878555  0.68220953  1
  Al0+  Al79  1  0.68052032  0.42826764  0.01439446  1
  Al0+  Al80  1  0.82205821  0.57161949  0.34913363  1
  Al0+  Al81  1  0.68111567  0.92939468  0.67857520  1
  Al0+  Al82  1  0.42899169  0.82364933  0.31670907  1
  Al0+  Al83  1  0.17865818  0.93042184  0.01286695  1
  Al0+  Al84  1  0.92782494  0.32048062  0.65112144  1
  Al0+  Al85  1  0.07026712  0.17988035  0.32077977  1
  Al0+  Al86  1  0.07343466  0.17835276  0.98371513  1
  Al0+  Al87  1  0.67627759  0.42897152  0.34911368  1
  Al0+  Al88  1  0.06969149  0.67746791  0.32027873  1
  Al0+  Al89  1  0.92930314  0.81855773  0.98738819  1
  Al0+  Al90  1  0.31977088  0.06965489  0.68117736  1
  Al0+  Al91  1  0.82568603  0.07206011  0.68319450  1
  Al0+  Al92  1  0.67930766  0.92757631  0.01545007  1
  Al0+  Al93  1  0.82172989  0.57112351  0.68352816  1
  Al0+  Al94  1  0.32080529  0.07177757  0.34752532  1
  Al0+  Al95  1  0.17853106  0.42995866  0.01598411  1
  Si0+  Si96  1  0.56911618  0.17816298  0.65164946  1
  Si0+  Si97  1  0.07558116  0.67776441  0.98278301  1
  Si0+  Si98  1  0.32311899  0.07242252  0.01744042  1
  Si0+  Si99  1  0.31947414  0.57053054  0.34696266  1
  Si0+  Si100  1  0.17852886  0.42836863  0.34669148  1
  Si0+  Si101  1  0.92574257  0.32067839  0.31853514  1
  Si0+  Si102  1  0.42846130  0.32101472  0.65219150  1
  Si0+  Si103  1  0.92824424  0.82324110  0.31805196  1
  Si0+  Si104  1  0.32372097  0.57204222  0.01747741  1
  Si0+  Si105  1  0.42913586  0.82253104  0.65234339  1
  Si0+  Si106  1  0.56961820  0.67831911  0.65173439  1
  Si0+  Si107  1  0.07271355  0.67839235  0.65173006  1
  Si0+  Si108  1  0.42992270  0.82200352  0.98242108  1
  Si0+  Si109  1  0.32240066  0.57374273  0.68153477  1
  Si0+  Si110  1  0.57148880  0.18020047  0.31827676  1
  Si0+  Si111  1  0.57035697  0.17738099  0.98419257  1
  Si0+  Si112  1  0.07551309  0.17954777  0.64893378  1
  Si0+  Si113  1  0.82212289  0.57261785  0.01772954  1
  Si0+  Si114  1  0.43136918  0.32276497  0.98398299  1
  Si0+  Si115  1  0.82185432  0.07064673  0.01547892  1
  Si0+  Si116  1  0.42712730  0.32121598  0.31797629  1
  Si0+  Si117  1  0.67752208  0.92789673  0.34685561  1
  Si0+  Si118  1  0.17881083  0.92470132  0.68393499  1
  Si0+  Si119  1  0.56966797  0.67910145  0.98269991  1
  O2-  O120  1  0.25031615  0.00807635  0.05983861  1
  O2-  O121  1  0.25135672  -0.00205542  0.39789613  1
  O2-  O122  1  0.24429987  -0.00323581  0.72781890  1
  O2-  O123  1  0.25093416  0.50776447  0.06202551  1
  O2-  O124  1  0.24676167  0.50179922  0.38997304  1
  O2-  O125  1  0.25190675  0.50738518  0.72541208  1
  O2-  O126  1  0.75576486  -0.00005636  0.06129683  1
  O2-  O127  1  0.74913425  -0.00772678  0.39149945  1
  O2-  O128  1  0.75808105  -0.00547532  0.73131593  1
  O2-  O129  1  0.75889525  0.49820415  0.06072017  1
  O2-  O130  1  0.74825179  0.50076297  0.39783684  1
  O2-  O131  1  0.75280141  0.49592072  0.73349239  1
  O2-  O132  1  -0.00612038  0.25226650  0.27356315  1
  O2-  O133  1  0.00171918  0.24348182  0.60527074  1
  O2-  O134  1  0.00294486  0.25243283  0.93486306  1
  O2-  O135  1  -0.00314447  0.75408845  0.27409690  1
  O2-  O136  1  0.00498385  0.74732754  0.60708852  1
  O2-  O137  1  0.00559105  0.74520517  0.93927880  1
  O2-  O138  1  0.50061500  0.25220395  0.27652436  1
  O2-  O139  1  0.50155144  0.25311304  0.60916190  1
  O2-  O140  1  0.50080659  0.25032344  0.94177787  1
  O2-  O141  1  0.50365575  0.75401448  0.26606629  1
  O2-  O142  1  0.49955393  0.75113429  0.61047113  1
  O2-  O143  1  0.50121474  0.75203705  0.93841230  1
  O2-  O144  1  0.07118678  0.17787123  0.09762617  1
  O2-  O145  1  0.07398831  0.18510451  0.43361329  1
  O2-  O146  1  0.07889514  0.18333712  0.75437961  1
  O2-  O147  1  0.07571618  0.67881378  0.08838980  1
  O2-  O148  1  0.07004176  0.67648697  0.43341367  1
  O2-  O149  1  0.07571745  0.68017830  0.75731868  1
  O2-  O150  1  0.56875232  0.17696205  0.08951676  1
  O2-  O151  1  0.57075141  0.17927116  0.42321240  1
  O2-  O152  1  0.56537667  0.17684006  0.75699751  1
  O2-  O153  1  0.56674591  0.67855224  0.08722095  1
  O2-  O154  1  0.56793974  0.67834406  0.43052136  1
  O2-  O155  1  0.56582417  0.67684601  0.75719192  1
  O2-  O156  1  0.18216636  0.42847331  0.24171834  1
  O2-  O157  1  0.18235810  0.43011596  0.56490279  1
  O2-  O158  1  0.18122866  0.43066996  0.90278517  1
  O2-  O159  1  0.17753279  0.92774366  0.23569873  1
  O2-  O160  1  0.18282477  0.91941350  0.57893924  1
  O2-  O161  1  0.18281476  0.92992420  0.89953994  1
  O2-  O162  1  0.67823674  0.42781648  0.23523067  1
  O2-  O163  1  0.67278782  0.43404357  0.56928875  1
  O2-  O164  1  0.67658655  0.43173409  0.90190227  1
  O2-  O165  1  0.67819519  0.93134316  0.24094251  1
  O2-  O166  1  0.67660288  0.93268831  0.56505078  1
  O2-  O167  1  0.67770617  0.92965012  0.90270507  1
  O2-  O168  1  0.43135332  0.32331106  0.08928590  1
  O2-  O169  1  0.42448605  0.32191469  0.42314257  1
  O2-  O170  1  0.42781801  0.32035317  0.75736197  1
  O2-  O171  1  0.43021518  0.82105161  0.08682277  1
  O2-  O172  1  0.43102893  0.82172420  0.43117557  1
  O2-  O173  1  0.42818301  0.82051262  0.75773584  1
  O2-  O174  1  0.92712782  0.31793445  0.09984707  1
  O2-  O175  1  0.92821207  0.32050508  0.42413180  1
  O2-  O176  1  0.93071566  0.32098127  0.76410702  1
  O2-  O177  1  0.92922805  0.81760143  0.10051575  1
  O2-  O178  1  0.92872739  0.82270043  0.42354766  1
  O2-  O179  1  0.92914166  0.81925126  0.76537534  1
  O2-  O180  1  0.31928493  0.07348843  0.23413470  1
  O2-  O181  1  0.32113204  0.06944644  0.56859359  1
  O2-  O182  1  0.32631255  0.06974214  0.91155032  1
  O2-  O183  1  0.32095342  0.56724320  0.24194655  1
  O2-  O184  1  0.32374866  0.57290313  0.57588685  1
  O2-  O185  1  0.32670614  0.56964952  0.91161296  1
  O2-  O186  1  0.81976926  0.07039966  0.23227352  1
  O2-  O187  1  0.82040600  0.07209554  0.56938163  1
  O2-  O188  1  0.81843557  0.07108867  0.91034249  1
  O2-  O189  1  0.82308589  0.56892357  0.23528127  1
  O2-  O190  1  0.81913721  0.57221944  0.57029597  1
  O2-  O191  1  0.81824090  0.57569933  0.91242567  1
  O2-  O192  1  0.04051109  0.08172376  0.26953885  1
  O2-  O193  1  0.05840723  0.08328891  0.60539361  1
  O2-  O194  1  0.04601424  0.08107320  0.92872967  1
  O2-  O195  1  0.03744473  0.58154158  0.26376976  1
  O2-  O196  1  0.04873774  0.58408983  0.60705280  1
  O2-  O197  1  0.05055994  0.58321174  0.93882909  1
  O2-  O198  1  0.54329185  0.09003038  0.26746015  1
  O2-  O199  1  0.53504144  0.08844166  0.60380542  1
  O2-  O200  1  0.53917685  0.08664320  0.93603776  1
  O2-  O201  1  0.53663946  0.58155444  0.26284310  1
  O2-  O202  1  0.53846964  0.58784312  0.60332894  1
  O2-  O203  1  0.53766777  0.58838195  0.93459578  1
  O2-  O204  1  0.16565561  0.21217293  0.26456776  1
  O2-  O205  1  0.16800790  0.21212466  0.60348023  1
  O2-  O206  1  0.17466310  0.20513338  0.93481705  1
  O2-  O207  1  0.16668577  0.70224859  0.26413229  1
  O2-  O208  1  0.16774391  0.70236254  0.60544313  1
  O2-  O209  1  0.17011869  0.70196421  0.93728843  1
  O2-  O210  1  0.66261913  0.20822797  0.26910175  1
  O2-  O211  1  0.66165037  0.20173161  0.60453617  1
  O2-  O212  1  0.66204847  0.20351284  0.93675740  1
  O2-  O213  1  0.67124515  0.70191564  0.26258574  1
  O2-  O214  1  0.66109531  0.70466227  0.60456136  1
  O2-  O215  1  0.66195740  0.70511737  0.93624583  1
  O2-  O216  1  0.08199397  0.45800786  0.07117338  1
  O2-  O217  1  0.08576483  0.45403206  0.39194848  1
  O2-  O218  1  0.08456123  0.45988991  0.73525526  1
  O2-  O219  1  0.08077133  0.95747372  0.06565673  1
  O2-  O220  1  0.08146735  0.95545944  0.40441628  1
  O2-  O221  1  0.08422653  0.94876865  0.72696468  1
  O2-  O222  1  0.58417844  0.46201339  0.06790536  1
  O2-  O223  1  0.57555850  0.45554526  0.39856382  1
  O2-  O224  1  0.57875313  0.45940154  0.73525356  1
  O2-  O225  1  0.58336531  0.96081191  0.06941697  1
  O2-  O226  1  0.58453627  0.95699503  0.39128458  1
  O2-  O227  1  0.58480380  0.96248742  0.73449065  1
  O2-  O228  1  0.21537652  0.33476817  0.06955801  1
  O2-  O229  1  0.21138188  0.33902108  0.39477855  1
  O2-  O230  1  0.21563357  0.33752994  0.73595707  1
  O2-  O231  1  0.21218776  0.83372748  0.06552887  1
  O2-  O232  1  0.20641538  0.82656623  0.40030615  1
  O2-  O233  1  0.20827465  0.83305689  0.73281700  1
  O2-  O234  1  0.70448641  0.32900084  0.06677461  1
  O2-  O235  1  0.70080273  0.33034714  0.40251139  1
  O2-  O236  1  0.69907726  0.32782727  0.73111062  1
  O2-  O237  1  0.70674177  0.82997863  0.06846668  1
  O2-  O238  1  0.69658951  0.83206020  0.38958123  1
  O2-  O239  1  0.70224440  0.82947461  0.73093733  1
  O2-  O240  1  0.45168344  0.41276763  0.26839588  1
  O2-  O241  1  0.45249546  0.41430037  0.60469367  1
  O2-  O242  1  0.46010731  0.41426895  0.93640413  1
  O2-  O243  1  0.45366869  0.92274777  0.26291552  1
  O2-  O244  1  0.45778584  0.91457380  0.60655740  1
  O2-  O245  1  0.45790827  0.91462784  0.93609443  1
  O2-  O246  1  0.95060972  0.41408292  0.27256333  1
  O2-  O247  1  0.96143783  0.41763328  0.59891600  1
  O2-  O248  1  0.95462504  0.42188396  0.93582091  1
  O2-  O249  1  0.95446441  0.91666695  0.27250600  1
  O2-  O250  1  0.95826086  0.91901202  0.59862180  1
  O2-  O251  1  0.95856759  0.91456400  0.93162856  1
  O2-  O252  1  0.33752001  0.29045142  0.26755426  1
  O2-  O253  1  0.33745908  0.29062438  0.60443482  1
  O2-  O254  1  0.33953340  0.29602303  0.93600182  1
  O2-  O255  1  0.33239830  0.78986305  0.26353333  1
  O2-  O256  1  0.33754506  0.79493494  0.60414312  1
  O2-  O257  1  0.33876581  0.79302230  0.93337932  1
  O2-  O258  1  0.83085600  0.29458206  0.27544371  1
  O2-  O259  1  0.82988341  0.29089484  0.59856687  1
  O2-  O260  1  0.82965191  0.29154017  0.93264625  1
  O2-  O261  1  0.83430881  0.79892120  0.27167900  1
  O2-  O262  1  0.83151343  0.79044201  0.59848927  1
  O2-  O263  1  0.83217264  0.78639663  0.93379169  1
  O2-  O264  1  0.41500805  0.04249561  0.06438645  1
  O2-  O265  1  0.42101557  0.04700939  0.39916151  1
  O2-  O266  1  0.41446255  0.03781005  0.73844223  1
  O2-  O267  1  0.41462598  0.54065609  0.06556787  1
  O2-  O268  1  0.40962167  0.54028059  0.39604245  1
  O2-  O269  1  0.41396690  0.54548931  0.72996209  1
  O2-  O270  1  0.91654724  0.04599106  0.05858918  1
  O2-  O271  1  0.91670950  0.04338929  0.40307463  1
  O2-  O272  1  0.92732782  0.05176429  0.73170579  1
  O2-  O273  1  0.91824697  0.55467241  0.06087636  1
  O2-  O274  1  0.91966885  0.54241717  0.40367297  1
  O2-  O275  1  0.92102066  0.54778350  0.73605357  1
  O2-  O276  1  0.30602317  0.16880926  0.06026056  1
  O2-  O277  1  0.29095949  0.17017945  0.40112019  1
  O2-  O278  1  0.29315144  0.16632001  0.73722383  1
  O2-  O279  1  0.30380733  0.66755291  0.06113008  1
  O2-  O280  1  0.29416474  0.66251053  0.39410506  1
  O2-  O281  1  0.30044503  0.66790049  0.72867111  1
  O2-  O282  1  0.79193629  0.16232639  0.06287113  1
  O2-  O283  1  0.78579934  0.16359741  0.40183086  1
  O2-  O284  1  0.78966927  0.16708823  0.73709400  1
  O2-  O285  1  0.78917579  0.66268126  0.06613479  1
  O2-  O286  1  0.79463400  0.67134744  0.40023182  1
  O2-  O287  1  0.78761940  0.66745773  0.73696545  1
