# generated using pymatgen
data_Ca2Al2SiO7
_symmetry_space_group_name_H-M   'P 1'
_cell_length_a   15.46110294
_cell_length_b   15.46076629
_cell_length_c   15.28567984
_cell_angle_alpha   89.99808862
_cell_angle_beta   89.99376048
_cell_angle_gamma   89.99659063
_symmetry_Int_Tables_number   1
_chemical_formula_structural   Ca2Al2SiO7
_chemical_formula_sum   'Ca48 Al48 Si24 O168'
_cell_volume   3653.89650874
_cell_formula_units_Z   24
loop_
 _symmetry_equiv_pos_site_id
 _symmetry_equiv_pos_as_xyz
  1  'x, y, z'
loop_
 _atom_type_symbol
 _atom_type_oxidation_number
  Ca2+  2.0
  Al0+  0.0
  Si0+  0.0
  O2-  -2.0
loop_
 _atom_site_type_symbol
 _atom_site_label
 _atom_site_symmetry_multiplicity
 _atom_site_fract_x
 _atom_site_fract_y
 _atom_site_fract_z
 _atom_site_occupancy
  Ca2+  Ca0  1  0.17203905  0.07622884  0.18003077  1
  Ca2+  Ca1  1  0.16114262  0.07525618  0.50272472  1
  Ca2+  Ca2  1  0.15935214  0.07829108  0.83229536  1
  Ca2+  Ca3  1  0.16593148  0.58640366  0.17346013  1
  Ca2+  Ca4  1  0.17633419  0.58653570  0.50627736  1
  Ca2+  Ca5  1  0.16570344  0.57997593  0.83544798  1
  Ca2+  Ca6  1  0.67764266  0.08797708  0.16926175  1
  Ca2+  Ca7  1  0.68030461  0.07522754  0.50750723  1
  Ca2+  Ca8  1  0.67702443  0.08604360  0.83770055  1
  Ca2+  Ca9  1  0.66797797  0.58018757  0.16935904  1
  Ca2+  Ca10  1  0.66529222  0.57869047  0.51123860  1
  Ca2+  Ca11  1  0.66310021  0.57975275  0.83097650  1
  Ca2+  Ca12  1  0.08066074  0.32281373  0.16147315  1
  Ca2+  Ca13  1  0.08676187  0.32289924  0.50055365  1
  Ca2+  Ca14  1  0.07213479  0.32873208  0.82133149  1
  Ca2+  Ca15  1  0.08020750  0.82872284  0.16683770  1
  Ca2+  Ca16  1  0.08355726  0.83461134  0.49109710  1
  Ca2+  Ca17  1  0.08107630  0.83248893  0.83223759  1
  Ca2+  Ca18  1  0.57415497  0.32492053  0.15684570  1
  Ca2+  Ca19  1  0.58482021  0.33458972  0.49973693  1
  Ca2+  Ca20  1  0.58209220  0.33112504  0.83130251  1
  Ca2+  Ca21  1  0.56870784  0.83874504  0.16282430  1
  Ca2+  Ca22  1  0.58040795  0.83177894  0.49783631  1
  Ca2+  Ca23  1  0.57866486  0.83286697  0.82467439  1
  Ca2+  Ca24  1  0.33381977  0.42275903  0.17304534  1
  Ca2+  Ca25  1  0.32509829  0.42856074  0.50860624  1
  Ca2+  Ca26  1  0.33036325  0.41968334  0.83418708  1
  Ca2+  Ca27  1  0.33045657  0.91723716  0.17793033  1
  Ca2+  Ca28  1  0.32169555  0.91443332  0.49947703  1
  Ca2+  Ca29  1  0.32738376  0.91185860  0.83595737  1
  Ca2+  Ca30  1  0.83530781  0.41350324  0.16617447  1
  Ca2+  Ca31  1  0.82943957  0.41771989  0.50913293  1
  Ca2+  Ca32  1  0.83172737  0.40745816  0.83660017  1
  Ca2+  Ca33  1  0.84164141  0.92360627  0.17090827  1
  Ca2+  Ca34  1  0.83733650  0.92499753  0.50644946  1
  Ca2+  Ca35  1  0.83324212  0.92810264  0.83912255  1
  Ca2+  Ca36  1  0.42229875  0.16599202  0.15709007  1
  Ca2+  Ca37  1  0.41559704  0.16535379  0.49368247  1
  Ca2+  Ca38  1  0.42249875  0.16998193  0.83176602  1
  Ca2+  Ca39  1  0.40750506  0.67916380  0.16659112  1
  Ca2+  Ca40  1  0.41662830  0.66642011  0.49665453  1
  Ca2+  Ca41  1  0.41955519  0.67019246  0.82717615  1
  Ca2+  Ca42  1  0.91945576  0.16362472  0.16429089  1
  Ca2+  Ca43  1  0.92445073  0.16199322  0.49926408  1
  Ca2+  Ca44  1  0.91407875  0.17179210  0.82564670  1
  Ca2+  Ca45  1  0.92785983  0.67893936  0.16052089  1
  Ca2+  Ca46  1  0.92529454  0.67631481  0.48892617  1
  Ca2+  Ca47  1  0.91988155  0.67232558  0.83174350  1
  Al0+  Al48  1  0.00033144  -0.00227287  0.00326196  1
  Al0+  Al49  1  0.00064571  0.00205982  0.33285145  1
  Al0+  Al50  1  0.00094277  0.00078716  0.67285122  1
  Al0+  Al51  1  0.00028269  0.49834167  -0.00452714  1
  Al0+  Al52  1  -0.00222539  0.49827268  0.33145838  1
  Al0+  Al53  1  0.00037646  0.50139862  0.66433103  1
  Al0+  Al54  1  0.50052649  -0.00073049  -0.01005754  1
  Al0+  Al55  1  0.50243416  0.00043220  0.33284232  1
  Al0+  Al56  1  0.49869404  0.00033448  0.66655548  1
  Al0+  Al57  1  0.49841787  0.50021509  0.00023161  1
  Al0+  Al58  1  0.49974771  0.49891337  0.33593244  1
  Al0+  Al59  1  0.50135748  0.50182673  0.67077407  1
  Al0+  Al60  1  0.25034536  0.25060618  -0.00255094  1
  Al0+  Al61  1  0.25044702  0.25169343  0.33154587  1
  Al0+  Al62  1  0.24983690  0.25110085  0.66615846  1
  Al0+  Al63  1  0.25067582  0.74842391  -0.00708342  1
  Al0+  Al64  1  0.25187760  0.74914266  0.33469157  1
  Al0+  Al65  1  0.25079422  0.75250060  0.67524708  1
  Al0+  Al66  1  0.74963825  0.24865703  0.00039020  1
  Al0+  Al67  1  0.74894056  0.24909531  0.33776383  1
  Al0+  Al68  1  0.74852194  0.25181640  0.66896479  1
  Al0+  Al69  1  0.74995308  0.74974031  -0.00036759  1
  Al0+  Al70  1  0.74940258  0.74864303  0.32818558  1
  Al0+  Al71  1  0.74778560  0.74968855  0.66494021  1
  Al0+  Al72  1  0.07101494  0.67875646  0.98305840  1
  Al0+  Al73  1  0.17755375  0.42838722  0.68233715  1
  Al0+  Al74  1  0.82013331  0.07034854  0.01657930  1
  Al0+  Al75  1  0.93049893  0.31847701  0.98784331  1
  Al0+  Al76  1  0.32472189  0.07376379  0.34600585  1
  Al0+  Al77  1  0.82013347  0.06979373  0.68303570  1
  Al0+  Al78  1  0.31967184  0.57019720  0.34635290  1
  Al0+  Al79  1  0.17973336  0.93082742  0.68236043  1
  Al0+  Al80  1  0.82086140  0.07012665  0.34808224  1
  Al0+  Al81  1  0.67732601  0.92697890  0.68124438  1
  Al0+  Al82  1  0.32085366  0.57129752  0.68464431  1
  Al0+  Al83  1  0.92746298  0.82311526  0.31940401  1
  Al0+  Al84  1  0.18057672  0.92998936  0.34666751  1
  Al0+  Al85  1  0.68047271  0.43013979  0.68156414  1
  Al0+  Al86  1  0.07108903  0.17805380  0.65115015  1
  Al0+  Al87  1  0.92819195  0.82260791  0.98313016  1
  Al0+  Al88  1  0.57095422  0.17943566  0.98384210  1
  Al0+  Al89  1  0.07182957  0.18037286  0.31908898  1
  Al0+  Al90  1  0.92652150  0.32264386  0.64971000  1
  Al0+  Al91  1  0.56965824  0.68003532  0.65276839  1
  Al0+  Al92  1  0.42700679  0.32317428  0.98396898  1
  Al0+  Al93  1  0.42963401  0.82051034  0.98501606  1
  Al0+  Al94  1  0.07243332  0.67752972  0.32088095  1
  Al0+  Al95  1  0.43178959  0.82006077  0.32236825  1
  Si0+  Si96  1  0.32190114  0.07106833  0.01234508  1
  Si0+  Si97  1  0.07271313  0.68048102  0.65190931  1
  Si0+  Si98  1  0.67723425  0.92582327  0.34804497  1
  Si0+  Si99  1  0.67615323  0.92633499  0.01710266  1
  Si0+  Si100  1  0.42990970  0.32238351  0.32025397  1
  Si0+  Si101  1  0.07334122  0.17630857  0.98472969  1
  Si0+  Si102  1  0.67970816  0.43014665  0.34750247  1
  Si0+  Si103  1  0.18116728  0.92771559  0.01645335  1
  Si0+  Si104  1  0.92461738  0.32060445  0.31681353  1
  Si0+  Si105  1  0.82111773  0.57172468  0.34648424  1
  Si0+  Si106  1  0.32336470  0.07448476  0.68408178  1
  Si0+  Si107  1  0.17754190  0.42852549  0.01600281  1
  Si0+  Si108  1  0.57209049  0.67404711  0.31552945  1
  Si0+  Si109  1  0.67870493  0.42994671  0.01632624  1
  Si0+  Si110  1  0.82315658  0.57350684  0.68234949  1
  Si0+  Si111  1  0.82299240  0.57145104  0.01561789  1
  Si0+  Si112  1  0.92946916  0.82037113  0.65330283  1
  Si0+  Si113  1  0.42614403  0.82323926  0.64770794  1
  Si0+  Si114  1  0.17501648  0.42679754  0.34873841  1
  Si0+  Si115  1  0.32032727  0.57038380  0.01677857  1
  Si0+  Si116  1  0.57144877  0.18016824  0.32000126  1
  Si0+  Si117  1  0.57036589  0.17880595  0.64937009  1
  Si0+  Si118  1  0.42993652  0.32175011  0.65034407  1
  Si0+  Si119  1  0.57309078  0.67686994  0.98444015  1
  O2-  O120  1  0.25141461  0.00079937  0.05672328  1
  O2-  O121  1  0.25126205  0.00403634  0.39651397  1
  O2-  O122  1  0.25412804  0.00659096  0.72857747  1
  O2-  O123  1  0.24923708  0.49905154  0.05895017  1
  O2-  O124  1  0.24044524  0.49949797  0.39135050  1
  O2-  O125  1  0.24773490  0.50070901  0.73507227  1
  O2-  O126  1  0.74622678  -0.00686311  0.06246976  1
  O2-  O127  1  0.75133243  -0.01113846  0.39150355  1
  O2-  O128  1  0.74751973  -0.00145160  0.73358671  1
  O2-  O129  1  0.74993327  0.50122651  0.05828682  1
  O2-  O130  1  0.74919546  0.50223734  0.38958424  1
  O2-  O131  1  0.75912706  0.50082391  0.72786919  1
  O2-  O132  1  -0.00397713  0.25475097  0.27309106  1
  O2-  O133  1  -0.00082937  0.25079088  0.60089841  1
  O2-  O134  1  0.00369700  0.24355705  0.94101820  1
  O2-  O135  1  -0.00003375  0.74968514  0.27185574  1
  O2-  O136  1  0.00036380  0.74983509  0.60996077  1
  O2-  O137  1  -0.00084428  0.75033883  0.93221655  1
  O2-  O138  1  0.49545210  0.24629722  0.27807473  1
  O2-  O139  1  0.49793812  0.24839858  0.60624257  1
  O2-  O140  1  0.49848405  0.25121919  0.93372890  1
  O2-  O141  1  0.50576465  0.74524004  0.27254511  1
  O2-  O142  1  0.49643394  0.75531763  0.60501091  1
  O2-  O143  1  0.50775565  0.74846321  0.94091797  1
  O2-  O144  1  0.07540189  0.17906902  0.09060441  1
  O2-  O145  1  0.07207290  0.18108159  0.43149708  1
  O2-  O146  1  0.06939787  0.17823267  0.76506795  1
  O2-  O147  1  0.07150331  0.67935936  0.09673424  1
  O2-  O148  1  0.07021893  0.67739305  0.43479409  1
  O2-  O149  1  0.07085934  0.68088202  0.75687789  1
  O2-  O150  1  0.56941815  0.18150150  0.09842413  1
  O2-  O151  1  0.57328380  0.18366813  0.42499338  1
  O2-  O152  1  0.56917221  0.18043940  0.75420198  1
  O2-  O153  1  0.57182349  0.67433233  0.09032441  1
  O2-  O154  1  0.57208872  0.67072652  0.42072404  1
  O2-  O155  1  0.56795062  0.67970588  0.76593361  1
  O2-  O156  1  0.17751052  0.42490967  0.24267854  1
  O2-  O157  1  0.18123075  0.42968753  0.56839749  1
  O2-  O158  1  0.17742043  0.42908938  0.91152220  1
  O2-  O159  1  0.18341395  0.92960843  0.23257572  1
  O2-  O160  1  0.17987120  0.92777890  0.56963544  1
  O2-  O161  1  0.18123991  0.92898522  0.91123608  1
  O2-  O162  1  0.67885350  0.42961922  0.24216344  1
  O2-  O163  1  0.67848440  0.43261396  0.56775398  1
  O2-  O164  1  0.67787222  0.43121530  0.91172336  1
  O2-  O165  1  0.67250378  0.92965626  0.24256272  1
  O2-  O166  1  0.67938501  0.92862552  0.56714628  1
  O2-  O167  1  0.67639885  0.92679777  0.91191552  1
  O2-  O168  1  0.42918749  0.32340817  0.09836176  1
  O2-  O169  1  0.43395335  0.32559686  0.42516270  1
  O2-  O170  1  0.43173355  0.32050311  0.75529423  1
  O2-  O171  1  0.42778305  0.81990177  0.09852897  1
  O2-  O172  1  0.43343520  0.81881523  0.43489879  1
  O2-  O173  1  0.42677130  0.82204013  0.75349369  1
  O2-  O174  1  0.93254596  0.31931738  0.10141691  1
  O2-  O175  1  0.92116149  0.32143756  0.42164524  1
  O2-  O176  1  0.92658091  0.31975623  0.76350747  1
  O2-  O177  1  0.93085536  0.82181357  0.09655921  1
  O2-  O178  1  0.92621733  0.81977594  0.43355946  1
  O2-  O179  1  0.93011273  0.81806117  0.75824655  1
  O2-  O180  1  0.32560449  0.07196315  0.23171522  1
  O2-  O181  1  0.32554120  0.07327648  0.57864695  1
  O2-  O182  1  0.31980298  0.07115817  0.90740440  1
  O2-  O183  1  0.32225785  0.56713648  0.23289957  1
  O2-  O184  1  0.31999031  0.57039297  0.57063564  1
  O2-  O185  1  0.32177519  0.56911150  0.91227098  1
  O2-  O186  1  0.81689413  0.07427168  0.23497499  1
  O2-  O187  1  0.82032712  0.06735992  0.56921355  1
  O2-  O188  1  0.81871333  0.07205363  0.90413363  1
  O2-  O189  1  0.81974445  0.56938952  0.24125236  1
  O2-  O190  1  0.81986856  0.57439282  0.57631407  1
  O2-  O191  1  0.82209934  0.57132942  0.91081198  1
  O2-  O192  1  0.04195113  0.08458375  0.26398924  1
  O2-  O193  1  0.04075244  0.07882269  0.60008039  1
  O2-  O194  1  0.04943496  0.08157556  0.94212254  1
  O2-  O195  1  0.04353196  0.57862528  0.26750032  1
  O2-  O196  1  0.04850144  0.58840119  0.60393351  1
  O2-  O197  1  0.04168081  0.58070904  0.93071098  1
  O2-  O198  1  0.54972932  0.08766112  0.27181707  1
  O2-  O199  1  0.54366625  0.08651377  0.60205440  1
  O2-  O200  1  0.54438089  0.08264906  0.92816748  1
  O2-  O201  1  0.54427107  0.58092323  0.26859174  1
  O2-  O202  1  0.53838067  0.58298907  0.59883267  1
  O2-  O203  1  0.54368772  0.58465420  0.93817498  1
  O2-  O204  1  0.16843886  0.21175606  0.26325069  1
  O2-  O205  1  0.17088030  0.20537279  0.59912830  1
  O2-  O206  1  0.16632901  0.20149975  0.93808308  1
  O2-  O207  1  0.17078389  0.70465429  0.26795437  1
  O2-  O208  1  0.16516912  0.71139668  0.60809947  1
  O2-  O209  1  0.16837153  0.70651931  0.92884913  1
  O2-  O210  1  0.66051290  0.21490919  0.27095839  1
  O2-  O211  1  0.66095268  0.20993225  0.60215179  1
  O2-  O212  1  0.66753057  0.21205178  0.93161537  1
  O2-  O213  1  0.66627968  0.69547523  0.26872472  1
  O2-  O214  1  0.66684884  0.70714750  0.59635558  1
  O2-  O215  1  0.66808555  0.69631692  0.93949927  1
  O2-  O216  1  0.08579969  0.45643168  0.06396613  1
  O2-  O217  1  0.07923116  0.44588316  0.39254611  1
  O2-  O218  1  0.07806015  0.45653898  0.73339847  1
  O2-  O219  1  0.08918795  0.95322991  0.06410517  1
  O2-  O220  1  0.08215100  0.95754889  0.39895604  1
  O2-  O221  1  0.08475517  0.96083069  0.73964959  1
  O2-  O222  1  0.58699890  0.45885709  0.06499908  1
  O2-  O223  1  0.58831901  0.45671916  0.39637337  1
  O2-  O224  1  0.58648769  0.46478676  0.73750488  1
  O2-  O225  1  0.58149615  0.95503422  0.06071328  1
  O2-  O226  1  0.58718431  0.95713865  0.39765572  1
  O2-  O227  1  0.57714125  0.95346737  0.73131471  1
  O2-  O228  1  0.20591190  0.33601631  0.06323612  1
  O2-  O229  1  0.20631771  0.33591374  0.39632253  1
  O2-  O230  1  0.20709908  0.33021602  0.73503049  1
  O2-  O231  1  0.21198978  0.83526028  0.06027214  1
  O2-  O232  1  0.21083939  0.83259844  0.40035775  1
  O2-  O233  1  0.21173591  0.83672660  0.74059403  1
  O2-  O234  1  0.70709189  0.33884278  0.06472075  1
  O2-  O235  1  0.70753061  0.33941949  0.39665242  1
  O2-  O236  1  0.70555968  0.33325550  0.73676717  1
  O2-  O237  1  0.69688447  0.83094666  0.06270014  1
  O2-  O238  1  0.69535769  0.82859170  0.38996740  1
  O2-  O239  1  0.70261255  0.82748887  0.73284087  1
  O2-  O240  1  0.46427560  0.41109571  0.26977542  1
  O2-  O241  1  0.46258779  0.41260612  0.60441529  1
  O2-  O242  1  0.45740747  0.42107045  0.93205719  1
  O2-  O243  1  0.46282785  0.91664922  0.26645017  1
  O2-  O244  1  0.44949015  0.91780941  0.60275284  1
  O2-  O245  1  0.45570730  0.91607658  0.92766141  1
  O2-  O246  1  0.94610855  0.41540709  0.27083115  1
  O2-  O247  1  0.95211908  0.42314433  0.59823140  1
  O2-  O248  1  0.95831955  0.41455088  0.93268536  1
  O2-  O249  1  0.95667573  0.92058951  0.26661220  1
  O2-  O250  1  0.95887087  0.91247633  0.60863263  1
  O2-  O251  1  0.95923531  0.92057439  0.93138727  1
  O2-  O252  1  0.33666535  0.30284160  0.27273148  1
  O2-  O253  1  0.33749268  0.29723724  0.60296804  1
  O2-  O254  1  0.32888702  0.29579810  0.93084137  1
  O2-  O255  1  0.33631360  0.78825134  0.26680805  1
  O2-  O256  1  0.33236251  0.79442355  0.60433340  1
  O2-  O257  1  0.33604029  0.78620979  0.92870759  1
  O2-  O258  1  0.83150436  0.29206602  0.26994379  1
  O2-  O259  1  0.82604974  0.29672038  0.59916664  1
  O2-  O260  1  0.83275324  0.29075537  0.93623892  1
  O2-  O261  1  0.82915476  0.79506462  0.26448748  1
  O2-  O262  1  0.83775057  0.79326131  0.60581315  1
  O2-  O263  1  0.82853885  0.79469481  0.93279562  1
  O2-  O264  1  0.41552091  0.04384677  0.05655487  1
  O2-  O265  1  0.42362679  0.04692404  0.39888896  1
  O2-  O266  1  0.41659501  0.04839263  0.73076814  1
  O2-  O267  1  0.41235327  0.54327262  0.06510463  1
  O2-  O268  1  0.41549380  0.53570038  0.40073713  1
  O2-  O269  1  0.41811688  0.54029410  0.73735521  1
  O2-  O270  1  0.91812145  0.04038416  0.06970801  1
  O2-  O271  1  0.91841342  0.04394435  0.40066335  1
  O2-  O272  1  0.91726335  0.04163647  0.73726906  1
  O2-  O273  1  0.91357195  0.53957643  0.06326614  1
  O2-  O274  1  0.91214801  0.54368481  0.39533959  1
  O2-  O275  1  0.91847471  0.55431566  0.72645131  1
  O2-  O276  1  0.29705871  0.16432931  0.05951969  1
  O2-  O277  1  0.30080536  0.17444073  0.39635313  1
  O2-  O278  1  0.30066413  0.16881670  0.72930895  1
  O2-  O279  1  0.29076969  0.66293420  0.06211944  1
  O2-  O280  1  0.29396796  0.66646096  0.40202597  1
  O2-  O281  1  0.29484698  0.66965618  0.73764424  1
  O2-  O282  1  0.78638222  0.16663331  0.07116909  1
  O2-  O283  1  0.78370485  0.16438890  0.40310944  1
  O2-  O284  1  0.78929547  0.16838761  0.73328939  1
  O2-  O285  1  0.79530132  0.66304695  0.06431418  1
  O2-  O286  1  0.79531805  0.66432621  0.39330127  1
  O2-  O287  1  0.79196435  0.66456702  0.72993642  1
