# generated using pymatgen
data_Ca2Al2SiO7
_symmetry_space_group_name_H-M   'P 1'
_cell_length_a   15.45769855
_cell_length_b   15.45815294
_cell_length_c   15.28342602
_cell_angle_alpha   89.99397225
_cell_angle_beta   90.00182243
_cell_angle_gamma   89.99401188
_symmetry_Int_Tables_number   1
_chemical_formula_structural   Ca2Al2SiO7
_chemical_formula_sum   'Ca48 Al48 Si24 O168'
_cell_volume   3651.93591121
_cell_formula_units_Z   24
loop_
 _symmetry_equiv_pos_site_id
 _symmetry_equiv_pos_as_xyz
  1  'x, y, z'
loop_
 _atom_type_symbol
 _atom_type_oxidation_number
  Ca2+  2.0
  Al0+  0.0
  Si0+  0.0
  O2-  -2.0
loop_
 _atom_site_type_symbol
 _atom_site_label
 _atom_site_symmetry_multiplicity
 _atom_site_fract_x
 _atom_site_fract_y
 _atom_site_fract_z
 _atom_site_occupancy
  Ca2+  Ca0  1  0.17064617  0.09203010  0.17094413  1
  Ca2+  Ca1  1  0.16240288  0.08571473  0.50168068  1
  Ca2+  Ca2  1  0.16955605  0.09202873  0.84069319  1
  Ca2+  Ca3  1  0.17173320  0.57403009  0.18253082  1
  Ca2+  Ca4  1  0.17282918  0.58649016  0.50324459  1
  Ca2+  Ca5  1  0.17100130  0.58522616  0.83196399  1
  Ca2+  Ca6  1  0.66832183  0.07307341  0.17855023  1
  Ca2+  Ca7  1  0.66472122  0.08407035  0.49969505  1
  Ca2+  Ca8  1  0.66425659  0.07969845  0.83857862  1
  Ca2+  Ca9  1  0.66657356  0.58075979  0.17042672  1
  Ca2+  Ca10  1  0.67974405  0.57713896  0.50615641  1
  Ca2+  Ca11  1  0.66895308  0.57254872  0.83814200  1
  Ca2+  Ca12  1  0.08664166  0.32626832  0.16662631  1
  Ca2+  Ca13  1  0.08240035  0.32832697  0.49538194  1
  Ca2+  Ca14  1  0.07655610  0.32406103  0.82660795  1
  Ca2+  Ca15  1  0.07671818  0.82810503  0.17056505  1
  Ca2+  Ca16  1  0.07736734  0.81912166  0.49099264  1
  Ca2+  Ca17  1  0.08067672  0.82778297  0.82574108  1
  Ca2+  Ca18  1  0.57279596  0.33772572  0.16235235  1
  Ca2+  Ca19  1  0.58492246  0.32644764  0.49469089  1
  Ca2+  Ca20  1  0.58230525  0.33597954  0.82776506  1
  Ca2+  Ca21  1  0.58575763  0.83167395  0.16525168  1
  Ca2+  Ca22  1  0.57706099  0.83249330  0.48935525  1
  Ca2+  Ca23  1  0.58786699  0.82800395  0.83542670  1
  Ca2+  Ca24  1  0.33223586  0.41714273  0.17692271  1
  Ca2+  Ca25  1  0.33104951  0.42219908  0.49736707  1
  Ca2+  Ca26  1  0.33667929  0.41981565  0.83678607  1
  Ca2+  Ca27  1  0.33743502  0.92416842  0.17218949  1
  Ca2+  Ca28  1  0.33332399  0.91495932  0.50223066  1
  Ca2+  Ca29  1  0.32877410  0.92828076  0.84054608  1
  Ca2+  Ca30  1  0.82600489  0.42131773  0.17306165  1
  Ca2+  Ca31  1  0.83492198  0.42329510  0.50784397  1
  Ca2+  Ca32  1  0.82517828  0.41254398  0.83116821  1
  Ca2+  Ca33  1  0.82382612  0.91746150  0.17809510  1
  Ca2+  Ca34  1  0.83559260  0.92002064  0.49408079  1
  Ca2+  Ca35  1  0.82743572  0.92008784  0.84051702  1
  Ca2+  Ca36  1  0.41813413  0.17797310  0.16417598  1
  Ca2+  Ca37  1  0.43018062  0.17328054  0.49023079  1
  Ca2+  Ca38  1  0.42026609  0.17239373  0.83132980  1
  Ca2+  Ca39  1  0.41899009  0.67093701  0.16512839  1
  Ca2+  Ca40  1  0.41287533  0.66822153  0.49197387  1
  Ca2+  Ca41  1  0.42434137  0.66239398  0.83032273  1
  Ca2+  Ca42  1  0.92745378  0.15565683  0.16744462  1
  Ca2+  Ca43  1  0.92195887  0.17215566  0.49373054  1
  Ca2+  Ca44  1  0.92525497  0.17121586  0.82385938  1
  Ca2+  Ca45  1  0.91361158  0.66605577  0.17049638  1
  Ca2+  Ca46  1  0.92202842  0.66207261  0.49114473  1
  Ca2+  Ca47  1  0.92082230  0.66569568  0.82446270  1
  Al0+  Al48  1  0.00159606  -0.00250126  -0.00553331  1
  Al0+  Al49  1  -0.00046335  -0.00166215  0.32967117  1
  Al0+  Al50  1  -0.00093409  -0.00212855  0.66557751  1
  Al0+  Al51  1  0.00041182  0.49979019  -0.00130329  1
  Al0+  Al52  1  0.00089343  0.49629881  0.33544576  1
  Al0+  Al53  1  0.00241444  0.50008688  0.66529859  1
  Al0+  Al54  1  0.49810394  0.00092135  0.00807237  1
  Al0+  Al55  1  0.49979903  -0.00074388  0.33042743  1
  Al0+  Al56  1  0.49835801  0.00091428  0.66583685  1
  Al0+  Al57  1  0.50076884  0.50149829  -0.00418846  1
  Al0+  Al58  1  0.49913032  0.50028281  0.33516391  1
  Al0+  Al59  1  0.49948571  0.50171585  0.67175312  1
  Al0+  Al60  1  0.25083047  0.25173549  -0.00514769  1
  Al0+  Al61  1  0.25079865  0.25062020  0.33292799  1
  Al0+  Al62  1  0.25159849  0.25079563  0.66396160  1
  Al0+  Al63  1  0.24984886  0.75205953  -0.00067093  1
  Al0+  Al64  1  0.25028160  0.75099824  0.32634635  1
  Al0+  Al65  1  0.24931767  0.75135003  0.67043685  1
  Al0+  Al66  1  0.75038044  0.25091411  0.00686098  1
  Al0+  Al67  1  0.75171232  0.24709052  0.33170505  1
  Al0+  Al68  1  0.75013851  0.24847114  0.66377994  1
  Al0+  Al69  1  0.75012241  0.75056550  -0.00178450  1
  Al0+  Al70  1  0.74913982  0.74998485  0.33925801  1
  Al0+  Al71  1  0.74884357  0.75051492  0.67008449  1
  Al0+  Al72  1  0.07080511  0.67526080  0.31748000  1
  Al0+  Al73  1  0.82408344  0.57220318  0.68289820  1
  Al0+  Al74  1  0.32120413  0.57322172  0.34676261  1
  Al0+  Al75  1  0.06989891  0.17917034  0.31939514  1
  Al0+  Al76  1  0.67720064  0.92941262  0.35135458  1
  Al0+  Al77  1  0.07133756  0.68064758  0.65386338  1
  Al0+  Al78  1  0.56956293  0.17804940  0.65438644  1
  Al0+  Al79  1  0.17949690  0.42617085  0.34932068  1
  Al0+  Al80  1  0.92881239  0.32040003  0.65136148  1
  Al0+  Al81  1  0.57394329  0.17836379  0.31589078  1
  Al0+  Al82  1  0.43132209  0.32155981  0.31934618  1
  Al0+  Al83  1  0.57047003  0.68118244  0.98589398  1
  Al0+  Al84  1  0.06916858  0.18015572  0.98603542  1
  Al0+  Al85  1  0.31934517  0.57277797  0.68272036  1
  Al0+  Al86  1  0.68004444  0.92939859  0.01393005  1
  Al0+  Al87  1  0.92768314  0.81867995  0.31843714  1
  Al0+  Al88  1  0.07280307  0.17730796  0.65054250  1
  Al0+  Al89  1  0.43070562  0.32145237  0.98413600  1
  Al0+  Al90  1  0.31799648  0.07290173  0.01470722  1
  Al0+  Al91  1  0.68016206  0.42735187  0.68084505  1
  Al0+  Al92  1  0.81997704  0.56933465  0.34589239  1
  Al0+  Al93  1  0.42767992  0.82115841  0.31960734  1
  Al0+  Al94  1  0.67798090  0.42911931  0.01509735  1
  Al0+  Al95  1  0.82325336  0.07078498  0.34935045  1
  Si0+  Si96  1  0.82116067  0.06893709  0.68194796  1
  Si0+  Si97  1  0.17658508  0.92649253  0.01834106  1
  Si0+  Si98  1  0.43036713  0.82038682  0.65464879  1
  Si0+  Si99  1  0.32104564  0.57247681  0.01431453  1
  Si0+  Si100  1  0.07254252  0.67752712  0.98445377  1
  Si0+  Si101  1  0.57275388  0.17728188  0.98562380  1
  Si0+  Si102  1  0.57125107  0.67865269  0.65178979  1
  Si0+  Si103  1  0.32114117  0.07136276  0.68034396  1
  Si0+  Si104  1  0.92701200  0.32264560  0.31497382  1
  Si0+  Si105  1  0.67494003  0.92980135  0.68304247  1
  Si0+  Si106  1  0.92458188  0.82155860  0.64996877  1
  Si0+  Si107  1  0.92967055  0.81900133  0.98357798  1
  Si0+  Si108  1  0.92578494  0.32439135  0.98377173  1
  Si0+  Si109  1  0.17911773  0.92913500  0.34729162  1
  Si0+  Si110  1  0.17954034  0.42592128  0.68566776  1
  Si0+  Si111  1  0.82458323  0.07165653  0.01489696  1
  Si0+  Si112  1  0.57205143  0.67823427  0.31953866  1
  Si0+  Si113  1  0.67671501  0.42669048  0.34887524  1
  Si0+  Si114  1  0.32030660  0.07098989  0.34926886  1
  Si0+  Si115  1  0.42661093  0.82460554  0.98180745  1
  Si0+  Si116  1  0.82315456  0.57177566  0.01604605  1
  Si0+  Si117  1  0.17911484  0.43124884  0.01302364  1
  Si0+  Si118  1  0.17887395  0.93007295  0.68091917  1
  Si0+  Si119  1  0.42878101  0.32534285  0.64917061  1
  O2-  O120  1  0.24338330  -0.00270858  0.06134274  1
  O2-  O121  1  0.24983942  -0.00058715  0.39189741  1
  O2-  O122  1  0.24385150  0.00685917  0.72310936  1
  O2-  O123  1  0.24752179  0.50450582  0.05546714  1
  O2-  O124  1  0.24753347  0.50335436  0.39740143  1
  O2-  O125  1  0.24774226  0.49543153  0.73065994  1
  O2-  O126  1  0.75193535  0.00724161  0.05848493  1
  O2-  O127  1  0.74773776  0.00297743  0.40118466  1
  O2-  O128  1  0.74870035  -0.00121004  0.72448267  1
  O2-  O129  1  0.75500685  0.50258295  0.05969865  1
  O2-  O130  1  0.74779767  0.49261032  0.39283346  1
  O2-  O131  1  0.75216322  0.49959991  0.73214179  1
  O2-  O132  1  -0.00599584  0.25169454  0.27111697  1
  O2-  O133  1  0.00202796  0.24966920  0.60108172  1
  O2-  O134  1  -0.00934806  0.25109174  0.94070375  1
  O2-  O135  1  -0.00386109  0.74415428  0.26645684  1
  O2-  O136  1  -0.01012538  0.74847836  0.60870859  1
  O2-  O137  1  0.00115364  0.74816452  0.94177375  1
  O2-  O138  1  0.50532880  0.25352789  0.26645414  1
  O2-  O139  1  0.49906708  0.25691464  0.60814176  1
  O2-  O140  1  0.50800272  0.24823203  0.93858567  1
  O2-  O141  1  0.50235700  0.74584325  0.27491495  1
  O2-  O142  1  0.50017806  0.74982483  0.61046605  1
  O2-  O143  1  0.49517169  0.75601143  0.93746308  1
  O2-  O144  1  0.06972196  0.18117686  0.09882685  1
  O2-  O145  1  0.06964895  0.17937020  0.43209675  1
  O2-  O146  1  0.07110485  0.17773552  0.76466209  1
  O2-  O147  1  0.07304073  0.67680936  0.08875480  1
  O2-  O148  1  0.07233294  0.67969433  0.43104270  1
  O2-  O149  1  0.07301288  0.68668429  0.76791858  1
  O2-  O150  1  0.56959542  0.17744978  0.09037207  1
  O2-  O151  1  0.56998760  0.17909121  0.43004407  1
  O2-  O152  1  0.56519704  0.17237197  0.76773022  1
  O2-  O153  1  0.56913556  0.68182744  0.09879886  1
  O2-  O154  1  0.57120250  0.67928629  0.42547963  1
  O2-  O155  1  0.57091313  0.68077223  0.75710041  1
  O2-  O156  1  0.18231791  0.42542478  0.23462856  1
  O2-  O157  1  0.18211840  0.42385497  0.58075046  1
  O2-  O158  1  0.17811876  0.43327350  0.90786299  1
  O2-  O159  1  0.18019930  0.93036037  0.24213425  1
  O2-  O160  1  0.18208429  0.92700004  0.57619780  1
  O2-  O161  1  0.17768849  0.92426112  0.91210789  1
  O2-  O162  1  0.67571881  0.43092385  0.24295419  1
  O2-  O163  1  0.67936283  0.43025023  0.56744347  1
  O2-  O164  1  0.67888415  0.42942226  0.90218997  1
  O2-  O165  1  0.67881445  0.92831868  0.23757768  1
  O2-  O166  1  0.67060858  0.92974844  0.57895836  1
  O2-  O167  1  0.68250326  0.93003137  0.89976862  1
  O2-  O168  1  0.42856485  0.32224903  0.09654805  1
  O2-  O169  1  0.43188250  0.31985019  0.43312522  1
  O2-  O170  1  0.42776606  0.32309507  0.75527157  1
  O2-  O171  1  0.42424909  0.82245406  0.08688615  1
  O2-  O172  1  0.42738833  0.82103925  0.43359260  1
  O2-  O173  1  0.43232188  0.82226951  0.75975992  1
  O2-  O174  1  0.92855801  0.32966732  0.08882381  1
  O2-  O175  1  0.92747374  0.32301843  0.42030595  1
  O2-  O176  1  0.92871912  0.31547336  0.76578862  1
  O2-  O177  1  0.92930025  0.81966825  0.08798595  1
  O2-  O178  1  0.93182594  0.81885598  0.43203155  1
  O2-  O179  1  0.92687455  0.82471782  0.75633051  1
  O2-  O180  1  0.31800205  0.07098022  0.24412813  1
  O2-  O181  1  0.32432702  0.06668790  0.57564285  1
  O2-  O182  1  0.31710223  0.07083636  0.90059377  1
  O2-  O183  1  0.32126106  0.57231373  0.23254645  1
  O2-  O184  1  0.31810608  0.57698140  0.57053503  1
  O2-  O185  1  0.31911478  0.57248515  0.90888473  1
  O2-  O186  1  0.82519178  0.06532135  0.23540223  1
  O2-  O187  1  0.82385693  0.06651571  0.57769263  1
  O2-  O188  1  0.82527743  0.06907066  0.90860244  1
  O2-  O189  1  0.81645561  0.56865498  0.23210325  1
  O2-  O190  1  0.82073860  0.57384249  0.56959802  1
  O2-  O191  1  0.82480651  0.57202363  0.91073602  1
  O2-  O192  1  0.04187505  0.08226116  0.26414625  1
  O2-  O193  1  0.04508911  0.07717139  0.60131299  1
  O2-  O194  1  0.04503257  0.08098771  0.93195702  1
  O2-  O195  1  0.04556578  0.57549183  0.26624819  1
  O2-  O196  1  0.05168762  0.58135178  0.60281261  1
  O2-  O197  1  0.04553731  0.58585112  0.93586747  1
  O2-  O198  1  0.54081656  0.08122974  0.26458641  1
  O2-  O199  1  0.53338344  0.08365107  0.59848242  1
  O2-  O200  1  0.54328326  0.08370844  0.94034942  1
  O2-  O201  1  0.54738008  0.58481888  0.27308307  1
  O2-  O202  1  0.54290491  0.58708384  0.60565723  1
  O2-  O203  1  0.53771018  0.58681909  0.92888608  1
  O2-  O204  1  0.16643436  0.21143126  0.26625539  1
  O2-  O205  1  0.17303205  0.20230855  0.60016376  1
  O2-  O206  1  0.16367302  0.21505622  0.93060923  1
  O2-  O207  1  0.16648820  0.70901601  0.26227371  1
  O2-  O208  1  0.16567247  0.72006157  0.60098083  1
  O2-  O209  1  0.16425749  0.70724511  0.93660105  1
  O2-  O210  1  0.67491466  0.19781731  0.26522267  1
  O2-  O211  1  0.66723750  0.20226997  0.60115882  1
  O2-  O212  1  0.66953437  0.19790114  0.94312137  1
  O2-  O213  1  0.66443832  0.70556782  0.27286826  1
  O2-  O214  1  0.66325018  0.70722588  0.60567047  1
  O2-  O215  1  0.66662981  0.71294671  0.93023060  1
  O2-  O216  1  0.08664941  0.45660846  0.06092289  1
  O2-  O217  1  0.07968006  0.44787195  0.40060538  1
  O2-  O218  1  0.08601561  0.45146141  0.73165036  1
  O2-  O219  1  0.08143403  0.94942453  0.06151718  1
  O2-  O220  1  0.08790141  0.95651396  0.39510571  1
  O2-  O221  1  0.08488555  0.95089331  0.72844378  1
  O2-  O222  1  0.58214675  0.46535677  0.06728340  1
  O2-  O223  1  0.58462269  0.45369269  0.39659865  1
  O2-  O224  1  0.58212854  0.45763927  0.73455487  1
  O2-  O225  1  0.58198780  0.95374407  0.06703594  1
  O2-  O226  1  0.57731943  0.95726835  0.40263351  1
  O2-  O227  1  0.58439587  0.96037362  0.73250656  1
  O2-  O228  1  0.20956982  0.33995602  0.05851907  1
  O2-  O229  1  0.21321533  0.33030054  0.40448380  1
  O2-  O230  1  0.20707331  0.33230404  0.73283539  1
  O2-  O231  1  0.20332520  0.83325088  0.06470951  1
  O2-  O232  1  0.20845043  0.83758518  0.39408722  1
  O2-  O233  1  0.21271563  0.84265514  0.73369751  1
  O2-  O234  1  0.70471053  0.33229452  0.07106845  1
  O2-  O235  1  0.69959044  0.33116694  0.39086161  1
  O2-  O236  1  0.70721662  0.32774266  0.73407303  1
  O2-  O237  1  0.71391180  0.83332429  0.06660713  1
  O2-  O238  1  0.70551346  0.83174415  0.40559108  1
  O2-  O239  1  0.70167878  0.83755150  0.73084466  1
  O2-  O240  1  0.45597055  0.42142509  0.26640405  1
  O2-  O241  1  0.45227646  0.42018164  0.60564862  1
  O2-  O242  1  0.46009805  0.41801596  0.92928491  1
  O2-  O243  1  0.45830493  0.91649507  0.26402761  1
  O2-  O244  1  0.45743938  0.91158987  0.60580714  1
  O2-  O245  1  0.45260791  0.91913629  0.93748601  1
  O2-  O246  1  0.95459913  0.41446452  0.26665729  1
  O2-  O247  1  0.95592130  0.41961754  0.60091543  1
  O2-  O248  1  0.95592289  0.41587564  0.93475282  1
  O2-  O249  1  0.96075703  0.91434298  0.26294013  1
  O2-  O250  1  0.95485072  0.91306521  0.60331867  1
  O2-  O251  1  0.95795164  0.90962895  0.93268818  1
  O2-  O252  1  0.33434360  0.28887888  0.26621979  1
  O2-  O253  1  0.33593185  0.29817948  0.60365070  1
  O2-  O254  1  0.33565303  0.28879864  0.92761269  1
  O2-  O255  1  0.33299623  0.79387340  0.26055431  1
  O2-  O256  1  0.33778345  0.79363546  0.60896261  1
  O2-  O257  1  0.33223121  0.80001268  0.93510406  1
  O2-  O258  1  0.83286108  0.29981908  0.26890120  1
  O2-  O259  1  0.83150599  0.29148774  0.59779674  1
  O2-  O260  1  0.83033609  0.30113287  0.94025370  1
  O2-  O261  1  0.82786205  0.79156859  0.26763727  1
  O2-  O262  1  0.82885799  0.80197605  0.60653011  1
  O2-  O263  1  0.83868718  0.79182460  0.93407770  1
  O2-  O264  1  0.41320277  0.04246315  0.07063425  1
  O2-  O265  1  0.41169356  0.04136076  0.39578000  1
  O2-  O266  1  0.40929634  0.03630443  0.73132056  1
  O2-  O267  1  0.41262143  0.54374647  0.05954431  1
  O2-  O268  1  0.41912905  0.54502189  0.40164862  1
  O2-  O269  1  0.41640018  0.54410516  0.73744065  1
  O2-  O270  1  0.91738371  0.03982839  0.05896837  1
  O2-  O271  1  0.92056548  0.03681508  0.40243649  1
  O2-  O272  1  0.91222940  0.03855675  0.73166800  1
  O2-  O273  1  0.91749374  0.54700620  0.06186802  1
  O2-  O274  1  0.91723049  0.54045062  0.39845093  1
  O2-  O275  1  0.92426363  0.54694431  0.73440873  1
  O2-  O276  1  0.28544118  0.16966445  0.06684488  1
  O2-  O277  1  0.29204872  0.16160569  0.39754576  1
  O2-  O278  1  0.29946628  0.16530080  0.72676233  1
  O2-  O279  1  0.29671853  0.66667554  0.05887868  1
  O2-  O280  1  0.29395137  0.67351001  0.39710342  1
  O2-  O281  1  0.28620336  0.66838598  0.73940693  1
  O2-  O282  1  0.80767183  0.16693703  0.06008317  1
  O2-  O283  1  0.79998502  0.17120865  0.40071435  1
  O2-  O284  1  0.79424342  0.16046100  0.72959527  1
  O2-  O285  1  0.79604576  0.66539135  0.06057713  1
  O2-  O286  1  0.78961240  0.66434116  0.40224477  1
  O2-  O287  1  0.79435498  0.67144325  0.73616140  1
