# generated using pymatgen
data_Ca2Al2SiO7
_symmetry_space_group_name_H-M   'P 1'
_cell_length_a   15.45625251
_cell_length_b   15.45691969
_cell_length_c   15.28276306
_cell_angle_alpha   89.99318679
_cell_angle_beta   89.99547578
_cell_angle_gamma   89.98292239
_symmetry_Int_Tables_number   1
_chemical_formula_structural   Ca2Al2SiO7
_chemical_formula_sum   'Ca48 Al48 Si24 O168'
_cell_volume   3651.14441112
_cell_formula_units_Z   24
loop_
 _symmetry_equiv_pos_site_id
 _symmetry_equiv_pos_as_xyz
  1  'x, y, z'
loop_
 _atom_type_symbol
 _atom_type_oxidation_number
  Ca2+  2.0
  Al0+  0.0
  Si0+  0.0
  O2-  -2.0
loop_
 _atom_site_type_symbol
 _atom_site_label
 _atom_site_symmetry_multiplicity
 _atom_site_fract_x
 _atom_site_fract_y
 _atom_site_fract_z
 _atom_site_occupancy
  Ca2+  Ca0  1  0.17098836  0.08544647  0.16890563  1
  Ca2+  Ca1  1  0.16678360  0.08458862  0.50919424  1
  Ca2+  Ca2  1  0.17644511  0.08798003  0.83532978  1
  Ca2+  Ca3  1  0.16674824  0.58168417  0.16846148  1
  Ca2+  Ca4  1  0.16174947  0.58537246  0.50516158  1
  Ca2+  Ca5  1  0.17178681  0.57983673  0.84321338  1
  Ca2+  Ca6  1  0.66165987  0.06990131  0.16992470  1
  Ca2+  Ca7  1  0.67494496  0.07512445  0.50647385  1
  Ca2+  Ca8  1  0.66978959  0.07603008  0.84073522  1
  Ca2+  Ca9  1  0.67169514  0.59318494  0.16722009  1
  Ca2+  Ca10  1  0.66929924  0.58849789  0.50678170  1
  Ca2+  Ca11  1  0.67354969  0.59168694  0.83811723  1
  Ca2+  Ca12  1  0.07549005  0.33329152  0.16363237  1
  Ca2+  Ca13  1  0.07720454  0.31977965  0.49446352  1
  Ca2+  Ca14  1  0.08205606  0.33295583  0.83207247  1
  Ca2+  Ca15  1  0.07633509  0.82798383  0.16208143  1
  Ca2+  Ca16  1  0.07890766  0.82402183  0.49896444  1
  Ca2+  Ca17  1  0.07140839  0.82809019  0.82494864  1
  Ca2+  Ca18  1  0.58500441  0.32216839  0.15804209  1
  Ca2+  Ca19  1  0.57619490  0.33468873  0.50040439  1
  Ca2+  Ca20  1  0.57653102  0.32700762  0.83015799  1
  Ca2+  Ca21  1  0.58611723  0.82949056  0.16255446  1
  Ca2+  Ca22  1  0.57842440  0.82833934  0.49653428  1
  Ca2+  Ca23  1  0.58254221  0.82485247  0.83048052  1
  Ca2+  Ca24  1  0.32911754  0.42377837  0.16399229  1
  Ca2+  Ca25  1  0.33156473  0.41735703  0.50859862  1
  Ca2+  Ca26  1  0.32783041  0.42037770  0.84211544  1
  Ca2+  Ca27  1  0.33944202  0.92221438  0.17078894  1
  Ca2+  Ca28  1  0.33561243  0.91742738  0.50704861  1
  Ca2+  Ca29  1  0.33874444  0.92465678  0.83577948  1
  Ca2+  Ca30  1  0.84037419  0.41955478  0.16802950  1
  Ca2+  Ca31  1  0.83411328  0.42090538  0.50510302  1
  Ca2+  Ca32  1  0.83807097  0.43035246  0.83989824  1
  Ca2+  Ca33  1  0.82140719  0.90839815  0.16785056  1
  Ca2+  Ca34  1  0.82917016  0.91517669  0.50754318  1
  Ca2+  Ca35  1  0.83303966  0.91587179  0.83867676  1
  Ca2+  Ca36  1  0.42193901  0.16418099  0.15741253  1
  Ca2+  Ca37  1  0.41050800  0.17106595  0.50238038  1
  Ca2+  Ca38  1  0.41643791  0.16587975  0.82948637  1
  Ca2+  Ca39  1  0.42686763  0.67067771  0.16059841  1
  Ca2+  Ca40  1  0.42653355  0.67877690  0.49321066  1
  Ca2+  Ca41  1  0.42620082  0.66640395  0.82541978  1
  Ca2+  Ca42  1  0.91695238  0.17907647  0.16049915  1
  Ca2+  Ca43  1  0.92488076  0.16410255  0.49488176  1
  Ca2+  Ca44  1  0.92012479  0.17163831  0.82532209  1
  Ca2+  Ca45  1  0.91918378  0.66852206  0.15900707  1
  Ca2+  Ca46  1  0.92322836  0.66515342  0.50281864  1
  Ca2+  Ca47  1  0.91277338  0.67433082  0.82754369  1
  Al0+  Al48  1  0.00086566  0.00136060  -0.00249408  1
  Al0+  Al49  1  0.00261522  -0.00016215  0.32899758  1
  Al0+  Al50  1  -0.00052169  -0.00038543  0.66397779  1
  Al0+  Al51  1  0.00023962  0.49899046  0.00446857  1
  Al0+  Al52  1  0.00111123  0.49946845  0.32898244  1
  Al0+  Al53  1  -0.00167781  0.49884709  0.66840451  1
  Al0+  Al54  1  0.50134165  -0.00041791  0.00350493  1
  Al0+  Al55  1  0.50022665  0.00095174  0.33911582  1
  Al0+  Al56  1  0.50055242  0.00076343  0.66754817  1
  Al0+  Al57  1  0.50071628  0.49881667  0.00084296  1
  Al0+  Al58  1  0.50058883  0.50127953  0.33069517  1
  Al0+  Al59  1  0.49941622  0.49735681  0.65971117  1
  Al0+  Al60  1  0.24978141  0.25020945  0.01065045  1
  Al0+  Al61  1  0.24905815  0.25178608  0.33014157  1
  Al0+  Al62  1  0.24920819  0.24978861  0.66353910  1
  Al0+  Al63  1  0.25088810  0.75186879  0.00440561  1
  Al0+  Al64  1  0.25103248  0.75187401  0.32619375  1
  Al0+  Al65  1  0.24995094  0.74961125  0.66266335  1
  Al0+  Al66  1  0.75117166  0.25053921  -0.01077872  1
  Al0+  Al67  1  0.74912883  0.25190768  0.33250782  1
  Al0+  Al68  1  0.74822930  0.24983213  0.67095245  1
  Al0+  Al69  1  0.74974242  0.75023793  0.00052612  1
  Al0+  Al70  1  0.74969302  0.74964509  0.33881694  1
  Al0+  Al71  1  0.74988446  0.74932386  0.66350174  1
  Al0+  Al72  1  0.31952612  0.07078519  0.67964739  1
  Al0+  Al73  1  0.57107621  0.67804417  0.65142769  1
  Al0+  Al74  1  0.57072843  0.17633904  0.98620759  1
  Al0+  Al75  1  0.43052659  0.82384318  0.31623740  1
  Al0+  Al76  1  0.07128217  0.67609104  0.65489219  1
  Al0+  Al77  1  0.92808877  0.82163532  0.65103431  1
  Al0+  Al78  1  0.57257520  0.67918000  0.31603280  1
  Al0+  Al79  1  0.07277255  0.17677231  0.31574934  1
  Al0+  Al80  1  0.93000922  0.32232444  0.98285376  1
  Al0+  Al81  1  0.56957019  0.67864696  0.98581122  1
  Al0+  Al82  1  0.82315585  0.07143522  0.68034414  1
  Al0+  Al83  1  0.67953208  0.92878524  0.35035069  1
  Al0+  Al84  1  0.32441040  0.57396909  0.01505471  1
  Al0+  Al85  1  0.06993489  0.18036572  0.65540833  1
  Al0+  Al86  1  0.92927728  0.82036562  0.98756541  1
  Al0+  Al87  1  0.42867430  0.82341843  0.65333240  1
  Al0+  Al88  1  0.81843205  0.57042484  0.01443980  1
  Al0+  Al89  1  0.17862210  0.42980654  0.01721159  1
  Al0+  Al90  1  0.92787106  0.31970714  0.31894583  1
  Al0+  Al91  1  0.42868273  0.31865494  0.65473001  1
  Al0+  Al92  1  0.07074691  0.67924423  0.31819789  1
  Al0+  Al93  1  0.68189125  0.93045016  0.01276115  1
  Al0+  Al94  1  0.32021027  0.06851756  0.01441322  1
  Al0+  Al95  1  0.81922057  0.56930134  0.68028485  1
  Si0+  Si96  1  0.67711371  0.42685895  0.34856610  1
  Si0+  Si97  1  0.32146971  0.57162639  0.34952770  1
  Si0+  Si98  1  0.92606005  0.32210046  0.65136319  1
  Si0+  Si99  1  0.67413219  0.42703124  0.68460019  1
  Si0+  Si100  1  0.17967790  0.43053208  0.35122866  1
  Si0+  Si101  1  0.07366047  0.17894367  0.98253115  1
  Si0+  Si102  1  0.57345875  0.17750639  0.64890572  1
  Si0+  Si103  1  0.42703813  0.82298750  0.98376776  1
  Si0+  Si104  1  0.82185239  0.56909297  0.34900173  1
  Si0+  Si105  1  0.07337186  0.67814772  0.98477795  1
  Si0+  Si106  1  0.17965225  0.42906486  0.67942067  1
  Si0+  Si107  1  0.17751072  0.92550906  0.68261624  1
  Si0+  Si108  1  0.92760714  0.82188719  0.31712009  1
  Si0+  Si109  1  0.17495913  0.92808627  0.01740990  1
  Si0+  Si110  1  0.42771535  0.32266147  0.31699308  1
  Si0+  Si111  1  0.82184951  0.07362373  0.34723384  1
  Si0+  Si112  1  0.56953115  0.18099976  0.32111286  1
  Si0+  Si113  1  0.67816453  0.42535678  0.01562971  1
  Si0+  Si114  1  0.31989872  0.07256532  0.35018871  1
  Si0+  Si115  1  0.82407745  0.07469617  0.01574449  1
  Si0+  Si116  1  0.67908314  0.92867355  0.68462559  1
  Si0+  Si117  1  0.42726582  0.32005631  0.98550853  1
  Si0+  Si118  1  0.17880207  0.92806330  0.34867431  1
  Si0+  Si119  1  0.32165447  0.57105973  0.67800585  1
  O2-  O120  1  0.24608431  -0.00577741  0.06252243  1
  O2-  O121  1  0.24800738  0.00168883  0.39083336  1
  O2-  O122  1  0.24763394  -0.00658902  0.72660203  1
  O2-  O123  1  0.24897903  0.50511861  0.06570166  1
  O2-  O124  1  0.25032653  0.50146715  0.39455879  1
  O2-  O125  1  0.24733175  0.50370686  0.72055872  1
  O2-  O126  1  0.75633026  0.00584837  0.06102213  1
  O2-  O127  1  0.75774684  0.00194515  0.39382173  1
  O2-  O128  1  0.74919953  -0.00349334  0.72788764  1
  O2-  O129  1  0.74488722  0.49453155  0.06228272  1
  O2-  O130  1  0.74802067  0.49906219  0.38925226  1
  O2-  O131  1  0.74285628  0.49595934  0.72745653  1
  O2-  O132  1  -0.00261623  0.24590878  0.26788407  1
  O2-  O133  1  -0.01013837  0.24895717  0.60769469  1
  O2-  O134  1  0.00392295  0.24596393  0.93778865  1
  O2-  O135  1  -0.00467010  0.75293651  0.27212309  1
  O2-  O136  1  0.00076167  0.74883234  0.60339190  1
  O2-  O137  1  0.00593019  0.74751303  0.94084200  1
  O2-  O138  1  0.49838907  0.25085919  0.27653962  1
  O2-  O139  1  0.50358132  0.24540579  0.60496078  1
  O2-  O140  1  0.49547729  0.25139992  0.94092068  1
  O2-  O141  1  0.50243996  0.75249982  0.26575291  1
  O2-  O142  1  0.49922715  0.75064209  0.60278550  1
  O2-  O143  1  0.48960422  0.74854478  0.94031765  1
  O2-  O144  1  0.07212461  0.17889852  0.08807654  1
  O2-  O145  1  0.07406353  0.17877984  0.42968181  1
  O2-  O146  1  0.07332231  0.18574109  0.76815869  1
  O2-  O147  1  0.07130162  0.67989739  0.09073460  1
  O2-  O148  1  0.06895186  0.67878788  0.43120758  1
  O2-  O149  1  0.07232580  0.67602499  0.76822860  1
  O2-  O150  1  0.56876186  0.17744555  0.10028563  1
  O2-  O151  1  0.56933710  0.18356984  0.42615001  1
  O2-  O152  1  0.57278824  0.17808399  0.75431285  1
  O2-  O153  1  0.57119853  0.68226804  0.09864668  1
  O2-  O154  1  0.57021160  0.67750388  0.42931950  1
  O2-  O155  1  0.56963097  0.67795259  0.76510190  1
  O2-  O156  1  0.18151629  0.43090504  0.24660846  1
  O2-  O157  1  0.18109431  0.42804945  0.57396446  1
  O2-  O158  1  0.18145610  0.42877509  0.90277693  1
  O2-  O159  1  0.17885349  0.92863558  0.24364861  1
  O2-  O160  1  0.17773890  0.92631547  0.57667409  1
  O2-  O161  1  0.17393289  0.92896556  0.91203358  1
  O2-  O162  1  0.67597263  0.42194107  0.24401223  1
  O2-  O163  1  0.67466150  0.42549781  0.57841820  1
  O2-  O164  1  0.67773696  0.42565262  0.91027035  1
  O2-  O165  1  0.67974101  0.93041132  0.23711686  1
  O2-  O166  1  0.67919772  0.93144100  0.57869610  1
  O2-  O167  1  0.68199490  0.93109819  0.89990526  1
  O2-  O168  1  0.42964907  0.31867521  0.09161450  1
  O2-  O169  1  0.42679756  0.32200828  0.42231618  1
  O2-  O170  1  0.42831026  0.31849480  0.76755286  1
  O2-  O171  1  0.43011508  0.82527042  0.08923491  1
  O2-  O172  1  0.43006371  0.82278480  0.42971831  1
  O2-  O173  1  0.42922748  0.82240179  0.76699839  1
  O2-  O174  1  0.92940514  0.32034108  0.09596465  1
  O2-  O175  1  0.92898938  0.31958118  0.43286908  1
  O2-  O176  1  0.93025624  0.32415621  0.75664315  1
  O2-  O177  1  0.93009403  0.81753247  0.10112424  1
  O2-  O178  1  0.92942041  0.82238309  0.42248900  1
  O2-  O179  1  0.92872621  0.82045066  0.76472630  1
  O2-  O180  1  0.32145121  0.07249344  0.24508104  1
  O2-  O181  1  0.31590664  0.07287055  0.56628800  1
  O2-  O182  1  0.31927272  0.06967364  0.90129999  1
  O2-  O183  1  0.32160538  0.56778493  0.24479473  1
  O2-  O184  1  0.32152280  0.56798111  0.57267249  1
  O2-  O185  1  0.32364542  0.57099434  0.90062904  1
  O2-  O186  1  0.81720870  0.07614764  0.24183580  1
  O2-  O187  1  0.82033277  0.07221430  0.56666807  1
  O2-  O188  1  0.82351373  0.07301580  0.91015388  1
  O2-  O189  1  0.82188862  0.56912415  0.24390354  1
  O2-  O190  1  0.82110987  0.56480977  0.56664426  1
  O2-  O191  1  0.81751078  0.57092116  0.90149252  1
  O2-  O192  1  0.05137558  0.07688602  0.26311464  1
  O2-  O193  1  0.04496096  0.08293473  0.60083839  1
  O2-  O194  1  0.05174768  0.08467312  0.93659581  1
  O2-  O195  1  0.04100166  0.58302250  0.26399499  1
  O2-  O196  1  0.04054456  0.57843696  0.59999227  1
  O2-  O197  1  0.04871024  0.58364472  0.94209197  1
  O2-  O198  1  0.54094164  0.08917829  0.27520579  1
  O2-  O199  1  0.54823176  0.08438829  0.60277089  1
  O2-  O200  1  0.53809214  0.08096359  0.93205656  1
  O2-  O201  1  0.54481825  0.57980384  0.26405092  1
  O2-  O202  1  0.54435222  0.57951320  0.59784288  1
  O2-  O203  1  0.54486818  0.57924524  0.93408768  1
  O2-  O204  1  0.16982410  0.21023566  0.26281232  1
  O2-  O205  1  0.16285192  0.21613662  0.59746645  1
  O2-  O206  1  0.16809845  0.20798164  0.94021933  1
  O2-  O207  1  0.16637007  0.70990913  0.26329911  1
  O2-  O208  1  0.16927618  0.70189635  0.59945697  1
  O2-  O209  1  0.16873991  0.70173848  0.94122145  1
  O2-  O210  1  0.66023497  0.20930439  0.27242387  1
  O2-  O211  1  0.66635558  0.20545275  0.60206546  1
  O2-  O212  1  0.66563832  0.20603523  0.92939350  1
  O2-  O213  1  0.67309041  0.70690484  0.26758785  1
  O2-  O214  1  0.66847984  0.70630313  0.59780076  1
  O2-  O215  1  0.66433813  0.71504044  0.93249855  1
  O2-  O216  1  0.08114948  0.45692412  0.07223740  1
  O2-  O217  1  0.08707553  0.45814809  0.39736991  1
  O2-  O218  1  0.08709477  0.45262252  0.72699431  1
  O2-  O219  1  0.08280186  0.95700438  0.06588851  1
  O2-  O220  1  0.08585435  0.95350177  0.39609909  1
  O2-  O221  1  0.08425792  0.95235235  0.72802087  1
  O2-  O222  1  0.58362576  0.44618868  0.06204127  1
  O2-  O223  1  0.58444911  0.45416861  0.39602004  1
  O2-  O224  1  0.57940145  0.45121779  0.72919223  1
  O2-  O225  1  0.58661269  0.96218770  0.06918118  1
  O2-  O226  1  0.58478290  0.96425451  0.40571899  1
  O2-  O227  1  0.58613961  0.95622294  0.73072117  1
  O2-  O228  1  0.20935948  0.33404183  0.07455574  1
  O2-  O229  1  0.20927578  0.33798855  0.39744353  1
  O2-  O230  1  0.21247865  0.33977050  0.72790733  1
  O2-  O231  1  0.19686210  0.83387525  0.06407368  1
  O2-  O232  1  0.20850851  0.83634637  0.39564523  1
  O2-  O233  1  0.20123901  0.83136540  0.72894760  1
  O2-  O234  1  0.70592311  0.33096007  0.06008681  1
  O2-  O235  1  0.70510011  0.33631023  0.39973684  1
  O2-  O236  1  0.69723502  0.33307834  0.73096042  1
  O2-  O237  1  0.71472068  0.83567329  0.06882224  1
  O2-  O238  1  0.70912248  0.83238497  0.40560432  1
  O2-  O239  1  0.70387507  0.83414905  0.72805150  1
  O2-  O240  1  0.45581503  0.41382977  0.26983553  1
  O2-  O241  1  0.45864997  0.41281893  0.59484115  1
  O2-  O242  1  0.45226939  0.41334121  0.93913712  1
  O2-  O243  1  0.45858664  0.92442833  0.26724872  1
  O2-  O244  1  0.45672787  0.92203730  0.59992227  1
  O2-  O245  1  0.45908962  0.91438916  0.93761002  1
  O2-  O246  1  0.96012806  0.41624194  0.26523103  1
  O2-  O247  1  0.95645522  0.41300125  0.60317491  1
  O2-  O248  1  0.96368850  0.41908622  0.93089705  1
  O2-  O249  1  0.95243800  0.91513206  0.27022761  1
  O2-  O250  1  0.95578358  0.91924140  0.59657355  1
  O2-  O251  1  0.95723669  0.91848295  0.93451795  1
  O2-  O252  1  0.33652593  0.29531927  0.26926480  1
  O2-  O253  1  0.33434645  0.28690216  0.59639151  1
  O2-  O254  1  0.33290884  0.29344660  0.94239917  1
  O2-  O255  1  0.33234256  0.79729883  0.26268801  1
  O2-  O256  1  0.33015907  0.79728984  0.59956564  1
  O2-  O257  1  0.33005677  0.80606561  0.94114698  1
  O2-  O258  1  0.82809288  0.29566393  0.26557965  1
  O2-  O259  1  0.82962673  0.30224294  0.60888608  1
  O2-  O260  1  0.83420356  0.29505486  0.92623878  1
  O2-  O261  1  0.83370424  0.79457109  0.27377466  1
  O2-  O262  1  0.83104306  0.79255514  0.59709937  1
  O2-  O263  1  0.83439899  0.78740323  0.93311770  1
  O2-  O264  1  0.41619444  0.03787718  0.07015769  1
  O2-  O265  1  0.41144479  0.04674237  0.39909170  1
  O2-  O266  1  0.41831591  0.04524441  0.73259828  1
  O2-  O267  1  0.42060673  0.53973575  0.07015027  1
  O2-  O268  1  0.41349997  0.54191052  0.39628785  1
  O2-  O269  1  0.41235455  0.53840196  0.72462969  1
  O2-  O270  1  0.91879931  0.05190605  0.06084348  1
  O2-  O271  1  0.91852876  0.05129870  0.38884608  1
  O2-  O272  1  0.92054578  0.04354362  0.73409962  1
  O2-  O273  1  0.91520377  0.54061999  0.06847580  1
  O2-  O274  1  0.91334595  0.53796690  0.39568891  1
  O2-  O275  1  0.91527735  0.53715051  0.73569080  1
  O2-  O276  1  0.29180932  0.16414091  0.07196036  1
  O2-  O277  1  0.29217954  0.16614360  0.39519749  1
  O2-  O278  1  0.28546327  0.16695413  0.73340857  1
  O2-  O279  1  0.30043386  0.67346469  0.06834685  1
  O2-  O280  1  0.29352210  0.66515576  0.39306000  1
  O2-  O281  1  0.29852934  0.66392662  0.72498644  1
  O2-  O282  1  0.79675220  0.16929715  0.05850205  1
  O2-  O283  1  0.79271815  0.16587046  0.39526511  1
  O2-  O284  1  0.79282521  0.16838696  0.73480196  1
  O2-  O285  1  0.78643467  0.66566363  0.06999033  1
  O2-  O286  1  0.79633893  0.66076584  0.39755211  1
  O2-  O287  1  0.79001903  0.66732177  0.73232099  1
