# generated using pymatgen
data_Ca2Al2SiO7
_symmetry_space_group_name_H-M   'P 1'
_cell_length_a   15.45694126
_cell_length_b   15.45679914
_cell_length_c   15.28239331
_cell_angle_alpha   90.00903742
_cell_angle_beta   89.99444156
_cell_angle_gamma   90.00078338
_symmetry_Int_Tables_number   1
_chemical_formula_structural   Ca2Al2SiO7
_chemical_formula_sum   'Ca48 Al48 Si24 O168'
_cell_volume   3651.19043437
_cell_formula_units_Z   24
loop_
 _symmetry_equiv_pos_site_id
 _symmetry_equiv_pos_as_xyz
  1  'x, y, z'
loop_
 _atom_type_symbol
 _atom_type_oxidation_number
  Ca2+  2.0
  Al0+  0.0
  Si0+  0.0
  O2-  -2.0
loop_
 _atom_site_type_symbol
 _atom_site_label
 _atom_site_symmetry_multiplicity
 _atom_site_fract_x
 _atom_site_fract_y
 _atom_site_fract_z
 _atom_site_occupancy
  Ca2+  Ca0  1  0.17086088  0.07544989  0.17804147  1
  Ca2+  Ca1  1  0.17422943  0.08262758  0.50056593  1
  Ca2+  Ca2  1  0.17421161  0.07710930  0.83627373  1
  Ca2+  Ca3  1  0.17174298  0.57835673  0.17012426  1
  Ca2+  Ca4  1  0.16752272  0.57432830  0.50742158  1
  Ca2+  Ca5  1  0.17490649  0.58446539  0.83080679  1
  Ca2+  Ca6  1  0.67179012  0.08233985  0.17544654  1
  Ca2+  Ca7  1  0.66047461  0.07909258  0.49796452  1
  Ca2+  Ca8  1  0.67400069  0.08387459  0.83764516  1
  Ca2+  Ca9  1  0.67035255  0.57524686  0.17545009  1
  Ca2+  Ca10  1  0.66542353  0.57378288  0.50703755  1
  Ca2+  Ca11  1  0.65718937  0.57754014  0.82906912  1
  Ca2+  Ca12  1  0.07973739  0.33022734  0.16752220  1
  Ca2+  Ca13  1  0.07878748  0.33606249  0.49034663  1
  Ca2+  Ca14  1  0.07183932  0.34063004  0.82487612  1
  Ca2+  Ca15  1  0.08332950  0.84294612  0.16536176  1
  Ca2+  Ca16  1  0.08407982  0.82764079  0.49309930  1
  Ca2+  Ca17  1  0.08894099  0.82790064  0.82904456  1
  Ca2+  Ca18  1  0.58935750  0.32759520  0.16920967  1
  Ca2+  Ca19  1  0.57891145  0.33278560  0.49581020  1
  Ca2+  Ca20  1  0.57687671  0.33326139  0.82311945  1
  Ca2+  Ca21  1  0.57052463  0.84205714  0.16602961  1
  Ca2+  Ca22  1  0.57463270  0.83049250  0.49371543  1
  Ca2+  Ca23  1  0.56974284  0.82520882  0.82321960  1
  Ca2+  Ca24  1  0.33046778  0.42631331  0.17473251  1
  Ca2+  Ca25  1  0.32124295  0.41671774  0.51199140  1
  Ca2+  Ca26  1  0.33639178  0.42932477  0.83252500  1
  Ca2+  Ca27  1  0.32548139  0.91563404  0.17544704  1
  Ca2+  Ca28  1  0.34224283  0.92669475  0.50022780  1
  Ca2+  Ca29  1  0.33273712  0.91444410  0.83606212  1
  Ca2+  Ca30  1  0.83434169  0.41303974  0.17353096  1
  Ca2+  Ca31  1  0.82481893  0.40391450  0.50327980  1
  Ca2+  Ca32  1  0.83067099  0.41031528  0.83289915  1
  Ca2+  Ca33  1  0.83028141  0.92336421  0.17766943  1
  Ca2+  Ca34  1  0.82827400  0.91085102  0.50044193  1
  Ca2+  Ca35  1  0.83145919  0.92481711  0.84157613  1
  Ca2+  Ca36  1  0.42183370  0.15914235  0.17085032  1
  Ca2+  Ca37  1  0.41391385  0.16877643  0.49369329  1
  Ca2+  Ca38  1  0.41597008  0.17158576  0.82379895  1
  Ca2+  Ca39  1  0.41041772  0.67763933  0.16225331  1
  Ca2+  Ca40  1  0.41444554  0.67369702  0.50023672  1
  Ca2+  Ca41  1  0.41100395  0.67331619  0.82431884  1
  Ca2+  Ca42  1  0.91890227  0.17432032  0.16398415  1
  Ca2+  Ca43  1  0.92761050  0.17644810  0.49184062  1
  Ca2+  Ca44  1  0.91694530  0.17338445  0.83050402  1
  Ca2+  Ca45  1  0.91722623  0.67431395  0.16875908  1
  Ca2+  Ca46  1  0.92471166  0.66825091  0.49621690  1
  Ca2+  Ca47  1  0.92736382  0.66706852  0.82453343  1
  Al0+  Al48  1  -0.00042047  0.00256360  0.00606166  1
  Al0+  Al49  1  0.00102294  0.00045324  0.33183629  1
  Al0+  Al50  1  -0.00090049  0.00134012  0.66817036  1
  Al0+  Al51  1  -0.00196863  0.50009391  -0.00348325  1
  Al0+  Al52  1  0.00085939  0.50248188  0.33093502  1
  Al0+  Al53  1  -0.00324950  0.50122098  0.66119387  1
  Al0+  Al54  1  0.50027219  -0.00009618  -0.00759787  1
  Al0+  Al55  1  0.50154371  0.00030115  0.33174413  1
  Al0+  Al56  1  0.50085034  -0.00033272  0.67078742  1
  Al0+  Al57  1  0.50003582  0.49957047  0.00707732  1
  Al0+  Al58  1  0.50245424  0.50102339  0.33646775  1
  Al0+  Al59  1  0.49937493  0.49868547  0.66629804  1
  Al0+  Al60  1  0.24999040  0.24926322  -0.00043768  1
  Al0+  Al61  1  0.24979239  0.25170981  0.33361211  1
  Al0+  Al62  1  0.24813245  0.24759347  0.67424798  1
  Al0+  Al63  1  0.24976808  0.74971428  0.00415424  1
  Al0+  Al64  1  0.25050987  0.74972364  0.33227371  1
  Al0+  Al65  1  0.24823405  0.75025638  0.65900803  1
  Al0+  Al66  1  0.75088071  0.24920861  -0.00052928  1
  Al0+  Al67  1  0.74942534  0.25020701  0.33099505  1
  Al0+  Al68  1  0.75061520  0.24898437  0.66788980  1
  Al0+  Al69  1  0.74889278  0.74757463  -0.00071648  1
  Al0+  Al70  1  0.75145018  0.74941793  0.33307180  1
  Al0+  Al71  1  0.74831358  0.74875887  0.66690833  1
  Al0+  Al72  1  0.42706776  0.31939722  0.65521240  1
  Al0+  Al73  1  0.57124646  0.67730132  0.65038771  1
  Al0+  Al74  1  0.07010511  0.68008158  0.65257643  1
  Al0+  Al75  1  0.17445960  0.42774924  0.68228970  1
  Al0+  Al76  1  0.56924624  0.18022247  0.32063680  1
  Al0+  Al77  1  0.92952727  0.32163271  0.31747317  1
  Al0+  Al78  1  0.93014758  0.32000385  0.98368706  1
  Al0+  Al79  1  0.43069590  0.81987843  0.31803517  1
  Al0+  Al80  1  0.32039108  0.56982161  0.01470259  1
  Al0+  Al81  1  0.31975054  0.57126594  0.67977773  1
  Al0+  Al82  1  0.68099705  0.42776329  0.34776405  1
  Al0+  Al83  1  0.92920322  0.82096177  0.32036378  1
  Al0+  Al84  1  0.67986378  0.42809437  0.68084915  1
  Al0+  Al85  1  0.42801193  0.82247033  0.64933421  1
  Al0+  Al86  1  0.68003719  0.92899955  0.34640953  1
  Al0+  Al87  1  0.18156368  0.93018976  0.01291081  1
  Al0+  Al88  1  0.32176742  0.07010355  0.34721419  1
  Al0+  Al89  1  0.32238362  0.07037591  0.68187676  1
  Al0+  Al90  1  0.92931063  0.31959337  0.65202738  1
  Al0+  Al91  1  0.81914584  0.07118511  0.01551664  1
  Al0+  Al92  1  0.07447391  0.17909470  0.31785361  1
  Al0+  Al93  1  0.17691268  0.92751171  0.35047071  1
  Al0+  Al94  1  0.42865057  0.81914528  0.98547436  1
  Al0+  Al95  1  0.17992764  0.43081794  0.34513823  1
  Si0+  Si96  1  0.82088813  0.06953198  0.68162769  1
  Si0+  Si97  1  0.68030649  0.42963987  0.01507268  1
  Si0+  Si98  1  0.07277135  0.67880374  0.31361255  1
  Si0+  Si99  1  0.67895028  0.92673800  0.68352225  1
  Si0+  Si100  1  0.17520723  0.42795137  0.01544901  1
  Si0+  Si101  1  0.17633941  0.92867484  0.68209296  1
  Si0+  Si102  1  0.92724477  0.82322742  0.98650379  1
  Si0+  Si103  1  0.32495156  0.07403641  0.01650719  1
  Si0+  Si104  1  0.57259530  0.17831582  0.65141483  1
  Si0+  Si105  1  0.57321085  0.67658272  0.31530063  1
  Si0+  Si106  1  0.92691753  0.82463240  0.65309571  1
  Si0+  Si107  1  0.07307448  0.17645303  0.98165477  1
  Si0+  Si108  1  0.82248444  0.57254260  0.35052274  1
  Si0+  Si109  1  0.82375881  0.57188368  0.01502069  1
  Si0+  Si110  1  0.06912366  0.68037370  0.98580692  1
  Si0+  Si111  1  0.57291902  0.67458712  0.98404755  1
  Si0+  Si112  1  0.32359619  0.57269915  0.35099014  1
  Si0+  Si113  1  0.82224422  0.07270330  0.35150559  1
  Si0+  Si114  1  0.42865608  0.32292902  0.98672172  1
  Si0+  Si115  1  0.57083531  0.18055464  0.98402081  1
  Si0+  Si116  1  0.07194459  0.17571453  0.65153732  1
  Si0+  Si117  1  0.82066028  0.57366186  0.68426705  1
  Si0+  Si118  1  0.42764661  0.32469026  0.31682410  1
  Si0+  Si119  1  0.67784595  0.92703066  0.01492912  1
  O2-  O120  1  0.25607355  0.00546893  0.05880210  1
  O2-  O121  1  0.24945291  -0.00068264  0.39911537  1
  O2-  O122  1  0.24792219  -0.00589837  0.72686386  1
  O2-  O123  1  0.24787523  0.49211006  0.06006775  1
  O2-  O124  1  0.25695086  0.50180307  0.39320701  1
  O2-  O125  1  0.24892054  0.49817329  0.73174945  1
  O2-  O126  1  0.74755618  -0.00691948  0.06101784  1
  O2-  O127  1  0.75623640  0.00116019  0.39592526  1
  O2-  O128  1  0.75162786  -0.00324507  0.72494630  1
  O2-  O129  1  0.75128155  0.50160626  0.05571025  1
  O2-  O130  1  0.75654634  0.50147373  0.39409854  1
  O2-  O131  1  0.75244967  0.50454678  0.72926589  1
  O2-  O132  1  0.00127815  0.24998110  0.26683179  1
  O2-  O133  1  0.00974348  0.25048436  0.60801211  1
  O2-  O134  1  0.00803592  0.24854827  0.93675812  1
  O2-  O135  1  0.00729040  0.75149230  0.27008282  1
  O2-  O136  1  -0.00464527  0.75656307  0.60911743  1
  O2-  O137  1  -0.00160126  0.75293041  0.94365414  1
  O2-  O138  1  0.49574580  0.25540269  0.27154521  1
  O2-  O139  1  0.50055309  0.24343358  0.60851069  1
  O2-  O140  1  0.49646478  0.24873337  0.94390347  1
  O2-  O141  1  0.50450296  0.74419788  0.26975308  1
  O2-  O142  1  0.50013801  0.74967920  0.60059666  1
  O2-  O143  1  0.50515930  0.74457835  0.94119630  1
  O2-  O144  1  0.07220749  0.17666383  0.08673442  1
  O2-  O145  1  0.07312392  0.18091135  0.43171955  1
  O2-  O146  1  0.06624736  0.16970539  0.75721194  1
  O2-  O147  1  0.06658118  0.67893988  0.09064273  1
  O2-  O148  1  0.06986637  0.67666966  0.41894812  1
  O2-  O149  1  0.06956173  0.68268514  0.76675855  1
  O2-  O150  1  0.57249587  0.18022165  0.08892089  1
  O2-  O151  1  0.56891256  0.18090335  0.43350655  1
  O2-  O152  1  0.57458804  0.18022098  0.75787612  1
  O2-  O153  1  0.57557052  0.67281277  0.08936689  1
  O2-  O154  1  0.57308331  0.67623236  0.42041836  1
  O2-  O155  1  0.57252863  0.68127277  0.76471786  1
  O2-  O156  1  0.18104589  0.43401080  0.23119680  1
  O2-  O157  1  0.17513186  0.42977266  0.56871710  1
  O2-  O158  1  0.17345941  0.43119866  0.91028548  1
  O2-  O159  1  0.17985326  0.92852142  0.23640327  1
  O2-  O160  1  0.17005391  0.93240347  0.57759810  1
  O2-  O161  1  0.18220652  0.92923737  0.89933572  1
  O2-  O162  1  0.68171196  0.43004867  0.23363960  1
  O2-  O163  1  0.68278987  0.42564591  0.56838706  1
  O2-  O164  1  0.67869084  0.42973657  0.91009225  1
  O2-  O165  1  0.68084366  0.93194972  0.23285406  1
  O2-  O166  1  0.67944647  0.92703498  0.57860349  1
  O2-  O167  1  0.68045821  0.92894279  0.90902319  1
  O2-  O168  1  0.43095925  0.32486446  0.09167578  1
  O2-  O169  1  0.42864032  0.32495336  0.42220324  1
  O2-  O170  1  0.43169484  0.31882272  0.76937355  1
  O2-  O171  1  0.43007749  0.81985358  0.09847908  1
  O2-  O172  1  0.43332347  0.82023881  0.43045396  1
  O2-  O173  1  0.42914942  0.82137150  0.76365771  1
  O2-  O174  1  0.92906117  0.32022361  0.09614083  1
  O2-  O175  1  0.92948036  0.31918669  0.43086149  1
  O2-  O176  1  0.92710481  0.31567689  0.76567655  1
  O2-  O177  1  0.92561549  0.82088674  0.09123091  1
  O2-  O178  1  0.92684153  0.81538512  0.43342067  1
  O2-  O179  1  0.92755151  0.82524393  0.75942163  1
  O2-  O180  1  0.32292404  0.06709999  0.23306020  1
  O2-  O181  1  0.32364419  0.07115806  0.56949632  1
  O2-  O182  1  0.32469308  0.07506080  0.91093971  1
  O2-  O183  1  0.32247893  0.57175279  0.24455837  1
  O2-  O184  1  0.31741913  0.57014490  0.56663167  1
  O2-  O185  1  0.32046454  0.57023425  0.90201011  1
  O2-  O186  1  0.81870024  0.07232837  0.24552223  1
  O2-  O187  1  0.82153835  0.06847980  0.57712195  1
  O2-  O188  1  0.81688963  0.07023252  0.90160265  1
  O2-  O189  1  0.82050568  0.57402673  0.24409121  1
  O2-  O190  1  0.81998967  0.57660170  0.57919017  1
  O2-  O191  1  0.82678797  0.57399010  0.91045663  1
  O2-  O192  1  0.04668758  0.08033822  0.26561076  1
  O2-  O193  1  0.03891533  0.08529578  0.60255786  1
  O2-  O194  1  0.04214649  0.08406761  0.93529151  1
  O2-  O195  1  0.04171486  0.58826921  0.26383062  1
  O2-  O196  1  0.03540348  0.58642358  0.59600515  1
  O2-  O197  1  0.03886258  0.59015382  0.93664567  1
  O2-  O198  1  0.53966992  0.08502119  0.26275980  1
  O2-  O199  1  0.55142043  0.08259183  0.60926265  1
  O2-  O200  1  0.54763513  0.08835708  0.93428950  1
  O2-  O201  1  0.54854090  0.58231386  0.26877812  1
  O2-  O202  1  0.54539038  0.57835506  0.59916627  1
  O2-  O203  1  0.54561551  0.58053318  0.93943785  1
  O2-  O204  1  0.17178089  0.20881109  0.26232452  1
  O2-  O205  1  0.16824281  0.19360072  0.61050355  1
  O2-  O206  1  0.16914012  0.19678386  0.93721389  1
  O2-  O207  1  0.16749319  0.69977943  0.26833550  1
  O2-  O208  1  0.16383691  0.70925452  0.59429785  1
  O2-  O209  1  0.16063835  0.70933564  0.93931152  1
  O2-  O210  1  0.66482582  0.21157517  0.26394501  1
  O2-  O211  1  0.66486039  0.20577484  0.60486346  1
  O2-  O212  1  0.66101182  0.21194837  0.93528818  1
  O2-  O213  1  0.66738553  0.70125850  0.26976951  1
  O2-  O214  1  0.67080026  0.70498611  0.59879130  1
  O2-  O215  1  0.66751876  0.69708995  0.93688669  1
  O2-  O216  1  0.08303370  0.45878003  0.06184242  1
  O2-  O217  1  0.08359228  0.46443025  0.39777938  1
  O2-  O218  1  0.07594853  0.46146752  0.73292545  1
  O2-  O219  1  0.08415823  0.95901823  0.06630813  1
  O2-  O220  1  0.07704585  0.95289401  0.40166941  1
  O2-  O221  1  0.08342709  0.95596279  0.73165727  1
  O2-  O222  1  0.58967704  0.45590464  0.06562332  1
  O2-  O223  1  0.58419002  0.45824760  0.40131295  1
  O2-  O224  1  0.58343077  0.45811962  0.73605400  1
  O2-  O225  1  0.58398749  0.95625501  0.05803558  1
  O2-  O226  1  0.58578821  0.96318657  0.40130231  1
  O2-  O227  1  0.58927703  0.95654773  0.73376979  1
  O2-  O228  1  0.19686188  0.33187239  0.05823500  1
  O2-  O229  1  0.20623690  0.33392767  0.39912884  1
  O2-  O230  1  0.19636075  0.32816100  0.73544726  1
  O2-  O231  1  0.20977343  0.83412908  0.06863685  1
  O2-  O232  1  0.20319529  0.82697966  0.39912837  1
  O2-  O233  1  0.20071864  0.83386960  0.72566297  1
  O2-  O234  1  0.70977653  0.33804616  0.06128052  1
  O2-  O235  1  0.71002898  0.33088385  0.40134839  1
  O2-  O236  1  0.71268815  0.33202565  0.73676893  1
  O2-  O237  1  0.69902664  0.83139182  0.05873105  1
  O2-  O238  1  0.71027402  0.83187750  0.39971693  1
  O2-  O239  1  0.70586286  0.83510212  0.73233515  1
  O2-  O240  1  0.45649996  0.41810700  0.27057620  1
  O2-  O241  1  0.45798016  0.41457156  0.60056260  1
  O2-  O242  1  0.46132552  0.41364981  0.93974738  1
  O2-  O243  1  0.46433645  0.91532800  0.26353049  1
  O2-  O244  1  0.46226995  0.92089551  0.60023032  1
  O2-  O245  1  0.45812115  0.91595661  0.92980980  1
  O2-  O246  1  0.95614705  0.42150770  0.26562823  1
  O2-  O247  1  0.94981234  0.41841464  0.59955861  1
  O2-  O248  1  0.95650420  0.41853584  0.92995571  1
  O2-  O249  1  0.95373624  0.91890744  0.26643734  1
  O2-  O250  1  0.95031588  0.91840691  0.60681183  1
  O2-  O251  1  0.95371376  0.91612900  0.94069762  1
  O2-  O252  1  0.33449023  0.30141687  0.26968938  1
  O2-  O253  1  0.32870621  0.28974461  0.60489963  1
  O2-  O254  1  0.33520286  0.29950927  0.94021692  1
  O2-  O255  1  0.33356536  0.78853007  0.26445849  1
  O2-  O256  1  0.32961359  0.79804185  0.59659628  1
  O2-  O257  1  0.33182857  0.78609011  0.93332752  1
  O2-  O258  1  0.83137934  0.29209434  0.26444969  1
  O2-  O259  1  0.83445827  0.28176179  0.59946628  1
  O2-  O260  1  0.83347278  0.28578602  0.93064188  1
  O2-  O261  1  0.83423180  0.78655879  0.26322098  1
  O2-  O262  1  0.83305241  0.79900876  0.60845199  1
  O2-  O263  1  0.83504663  0.79544989  0.93858894  1
  O2-  O264  1  0.42040779  0.04855698  0.05883151  1
  O2-  O265  1  0.41989000  0.04083218  0.39983167  1
  O2-  O266  1  0.41962923  0.04206101  0.73799086  1
  O2-  O267  1  0.41660422  0.54043140  0.07143800  1
  O2-  O268  1  0.41862442  0.55123487  0.39470980  1
  O2-  O269  1  0.41815597  0.54339863  0.73374260  1
  O2-  O270  1  0.91568450  0.04400812  0.06986772  1
  O2-  O271  1  0.91676483  0.04982717  0.39539667  1
  O2-  O272  1  0.91218085  0.04323710  0.73226253  1
  O2-  O273  1  0.91411294  0.54290324  0.06461674  1
  O2-  O274  1  0.91760833  0.55094758  0.39390002  1
  O2-  O275  1  0.91386105  0.54680745  0.73020985  1
  O2-  O276  1  0.30204470  0.16869544  0.06240188  1
  O2-  O277  1  0.29679970  0.17045159  0.39722067  1
  O2-  O278  1  0.29065720  0.16444002  0.74100082  1
  O2-  O279  1  0.28548579  0.66378400  0.07056059  1
  O2-  O280  1  0.29600344  0.66551289  0.39559775  1
  O2-  O281  1  0.28781903  0.67050577  0.73100231  1
  O2-  O282  1  0.78418480  0.16635964  0.06927475  1
  O2-  O283  1  0.79218359  0.16469586  0.39698947  1
  O2-  O284  1  0.78904465  0.15906519  0.73150366  1
  O2-  O285  1  0.79612704  0.66397800  0.06356416  1
  O2-  O286  1  0.79535000  0.66471212  0.39790788  1
  O2-  O287  1  0.79635613  0.66723866  0.73321823  1
