# generated using pymatgen
data_Ca2Al2SiO7
_symmetry_space_group_name_H-M   'P 1'
_cell_length_a   15.46099621
_cell_length_b   15.46134509
_cell_length_c   15.28621715
_cell_angle_alpha   89.99547273
_cell_angle_beta   89.99279961
_cell_angle_gamma   90.00405217
_symmetry_Int_Tables_number   1
_chemical_formula_structural   Ca2Al2SiO7
_chemical_formula_sum   'Ca48 Al48 Si24 O168'
_cell_volume   3654.13649639
_cell_formula_units_Z   24
loop_
 _symmetry_equiv_pos_site_id
 _symmetry_equiv_pos_as_xyz
  1  'x, y, z'
loop_
 _atom_type_symbol
 _atom_type_oxidation_number
  Ca2+  2.0
  Al0+  0.0
  Si0+  0.0
  O2-  -2.0
loop_
 _atom_site_type_symbol
 _atom_site_label
 _atom_site_symmetry_multiplicity
 _atom_site_fract_x
 _atom_site_fract_y
 _atom_site_fract_z
 _atom_site_occupancy
  Ca2+  Ca0  1  0.17017088  0.07446013  0.18001361  1
  Ca2+  Ca1  1  0.15869051  0.08148668  0.50107682  1
  Ca2+  Ca2  1  0.16592917  0.08421648  0.83452012  1
  Ca2+  Ca3  1  0.16944312  0.59075360  0.17527693  1
  Ca2+  Ca4  1  0.17352489  0.58498361  0.50896420  1
  Ca2+  Ca5  1  0.16410086  0.58534784  0.83031944  1
  Ca2+  Ca6  1  0.67822972  0.07143155  0.17081278  1
  Ca2+  Ca7  1  0.67063908  0.07935162  0.49731570  1
  Ca2+  Ca8  1  0.67467377  0.07767634  0.84411560  1
  Ca2+  Ca9  1  0.68180430  0.58428533  0.16953086  1
  Ca2+  Ca10  1  0.67430016  0.58756017  0.50343265  1
  Ca2+  Ca11  1  0.66987672  0.57930633  0.84000286  1
  Ca2+  Ca12  1  0.07626603  0.32800913  0.17027803  1
  Ca2+  Ca13  1  0.07884098  0.32907599  0.49565202  1
  Ca2+  Ca14  1  0.07671961  0.32830007  0.81961443  1
  Ca2+  Ca15  1  0.08200972  0.82449768  0.16142873  1
  Ca2+  Ca16  1  0.08977201  0.82288583  0.49482291  1
  Ca2+  Ca17  1  0.07645385  0.82179468  0.83288430  1
  Ca2+  Ca18  1  0.58511860  0.33454313  0.16270614  1
  Ca2+  Ca19  1  0.57418556  0.33695985  0.49804166  1
  Ca2+  Ca20  1  0.58071322  0.33614636  0.82727872  1
  Ca2+  Ca21  1  0.57888234  0.84300818  0.16068670  1
  Ca2+  Ca22  1  0.57938868  0.83196892  0.49924409  1
  Ca2+  Ca23  1  0.57649066  0.83223101  0.82752661  1
  Ca2+  Ca24  1  0.32812201  0.42752179  0.17498724  1
  Ca2+  Ca25  1  0.32645377  0.42608519  0.51044439  1
  Ca2+  Ca26  1  0.32965716  0.42003638  0.83046106  1
  Ca2+  Ca27  1  0.32738100  0.91800409  0.17658857  1
  Ca2+  Ca28  1  0.32824637  0.91983490  0.49981112  1
  Ca2+  Ca29  1  0.33587395  0.90964342  0.83505213  1
  Ca2+  Ca30  1  0.83568468  0.42580995  0.16972725  1
  Ca2+  Ca31  1  0.84325475  0.41780937  0.50057809  1
  Ca2+  Ca32  1  0.82976493  0.42075525  0.84109726  1
  Ca2+  Ca33  1  0.83160078  0.92050628  0.17307752  1
  Ca2+  Ca34  1  0.83309155  0.92026941  0.49980517  1
  Ca2+  Ca35  1  0.82922261  0.92079525  0.84662776  1
  Ca2+  Ca36  1  0.41632230  0.16341591  0.16505534  1
  Ca2+  Ca37  1  0.41005439  0.17289039  0.49515927  1
  Ca2+  Ca38  1  0.42145994  0.17526897  0.82489384  1
  Ca2+  Ca39  1  0.41694099  0.67397164  0.16082015  1
  Ca2+  Ca40  1  0.41694347  0.66420185  0.49898970  1
  Ca2+  Ca41  1  0.42353176  0.67537954  0.82270532  1
  Ca2+  Ca42  1  0.91264217  0.16314055  0.16696752  1
  Ca2+  Ca43  1  0.92383744  0.17712445  0.49172343  1
  Ca2+  Ca44  1  0.91771858  0.17186516  0.82431720  1
  Ca2+  Ca45  1  0.92446971  0.66613852  0.16030581  1
  Ca2+  Ca46  1  0.93013435  0.66106805  0.49197209  1
  Ca2+  Ca47  1  0.92189489  0.66446202  0.83188849  1
  Al0+  Al48  1  0.00303958  -0.00166552  -0.00012380  1
  Al0+  Al49  1  -0.00076026  -0.00104892  0.33935992  1
  Al0+  Al50  1  0.00001654  0.00006126  0.66703036  1
  Al0+  Al51  1  0.00203467  0.49560276  -0.00067331  1
  Al0+  Al52  1  0.00020380  0.49852247  0.32713878  1
  Al0+  Al53  1  0.00069935  0.50059417  0.66489868  1
  Al0+  Al54  1  0.50011124  0.00354936  -0.00318417  1
  Al0+  Al55  1  0.49902297  0.00105221  0.34081888  1
  Al0+  Al56  1  0.50014269  -0.00061653  0.66383326  1
  Al0+  Al57  1  0.49667846  0.50002584  0.00346900  1
  Al0+  Al58  1  0.50041257  0.50156282  0.33389243  1
  Al0+  Al59  1  0.50130460  0.50074176  0.66298853  1
  Al0+  Al60  1  0.24973651  0.25154775  0.00064222  1
  Al0+  Al61  1  0.24938244  0.25189849  0.32943207  1
  Al0+  Al62  1  0.25069757  0.24947829  0.66445554  1
  Al0+  Al63  1  0.25091079  0.74965755  -0.00885278  1
  Al0+  Al64  1  0.25246892  0.75133358  0.33706797  1
  Al0+  Al65  1  0.25074311  0.75272010  0.66549832  1
  Al0+  Al66  1  0.74898690  0.24883418  0.00597128  1
  Al0+  Al67  1  0.74650665  0.24998064  0.33223361  1
  Al0+  Al68  1  0.75058988  0.25023689  0.66317459  1
  Al0+  Al69  1  0.74889716  0.74895526  0.00423590  1
  Al0+  Al70  1  0.74948028  0.74707325  0.34213844  1
  Al0+  Al71  1  0.74845969  0.75133167  0.66580644  1
  Al0+  Al72  1  0.67822530  0.92727706  0.35111810  1
  Al0+  Al73  1  0.42993165  0.32091512  0.65317282  1
  Al0+  Al74  1  0.82453617  0.06946724  0.01422999  1
  Al0+  Al75  1  0.57230132  0.67857402  0.65104991  1
  Al0+  Al76  1  0.07089549  0.17675476  0.31645780  1
  Al0+  Al77  1  0.82146105  0.07263145  0.35120704  1
  Al0+  Al78  1  0.32147157  0.57189769  0.34641262  1
  Al0+  Al79  1  0.92770734  0.32191107  0.65251054  1
  Al0+  Al80  1  0.67678494  0.92798968  0.01247880  1
  Al0+  Al81  1  0.43122611  0.82274821  0.98762262  1
  Al0+  Al82  1  0.92701024  0.82155773  0.98762767  1
  Al0+  Al83  1  0.17782133  0.92858401  0.34847289  1
  Al0+  Al84  1  0.82254602  0.56804390  0.34838836  1
  Al0+  Al85  1  0.82353712  0.57046552  0.01418505  1
  Al0+  Al86  1  0.32253926  0.57288025  0.68412803  1
  Al0+  Al87  1  0.92635416  0.32009775  0.31437256  1
  Al0+  Al88  1  0.06873502  0.68079986  0.65248225  1
  Al0+  Al89  1  0.31997660  0.07312850  0.34805440  1
  Al0+  Al90  1  0.17859797  0.42875767  0.68174836  1
  Al0+  Al91  1  0.07122518  0.67593315  0.98358115  1
  Al0+  Al92  1  0.07157306  0.17723989  0.65233263  1
  Al0+  Al93  1  0.42873724  0.82245878  0.64783457  1
  Al0+  Al94  1  0.07300082  0.68084920  0.32065580  1
  Al0+  Al95  1  0.67590342  0.42897108  0.01446654  1
  Si0+  Si96  1  0.67968122  0.42810588  0.67946916  1
  Si0+  Si97  1  0.57263639  0.17796499  0.64914171  1
  Si0+  Si98  1  0.43232819  0.82097389  0.31870950  1
  Si0+  Si99  1  0.17819039  0.92943534  0.68519661  1
  Si0+  Si100  1  0.32237758  0.07092181  0.68309458  1
  Si0+  Si101  1  0.67840077  0.92972834  0.68352064  1
  Si0+  Si102  1  0.57126526  0.67566657  0.98624306  1
  Si0+  Si103  1  0.42924370  0.32316408  0.31626276  1
  Si0+  Si104  1  0.92811349  0.31770347  0.98506426  1
  Si0+  Si105  1  0.67671066  0.42850746  0.35119105  1
  Si0+  Si106  1  0.57051168  0.18158572  0.98531510  1
  Si0+  Si107  1  0.56825237  0.17801341  0.31672819  1
  Si0+  Si108  1  0.42724755  0.32223127  0.98531167  1
  Si0+  Si109  1  0.92551997  0.82004665  0.31984595  1
  Si0+  Si110  1  0.82159873  0.57184969  0.68091726  1
  Si0+  Si111  1  0.17849491  0.42921529  0.34859350  1
  Si0+  Si112  1  0.32010104  0.07370908  0.01241495  1
  Si0+  Si113  1  0.92640108  0.82281356  0.65039853  1
  Si0+  Si114  1  0.82008716  0.07073858  0.68154467  1
  Si0+  Si115  1  0.17967549  0.42564294  0.01669719  1
  Si0+  Si116  1  0.18231222  0.92791152  0.01251021  1
  Si0+  Si117  1  0.07310780  0.17861907  0.98561810  1
  Si0+  Si118  1  0.57248322  0.67761450  0.31652706  1
  Si0+  Si119  1  0.31800877  0.57151493  0.01411183  1
  O2-  O120  1  0.25293259  -0.00031890  0.05428413  1
  O2-  O121  1  0.24382266  0.00664119  0.39877390  1
  O2-  O122  1  0.25064915  0.00084964  0.72648393  1
  O2-  O123  1  0.24486546  0.50305987  0.05733190  1
  O2-  O124  1  0.24515775  0.49947224  0.39240965  1
  O2-  O125  1  0.24935101  0.50150786  0.73437027  1
  O2-  O126  1  0.75600863  -0.00753452  0.06173238  1
  O2-  O127  1  0.75233864  -0.00264608  0.40119646  1
  O2-  O128  1  0.75017049  -0.00022032  0.72547188  1
  O2-  O129  1  0.74867584  0.50015600  0.06371500  1
  O2-  O130  1  0.74942925  0.49185437  0.39610044  1
  O2-  O131  1  0.75044840  0.49948834  0.72153441  1
  O2-  O132  1  -0.00520870  0.24369063  0.26457598  1
  O2-  O133  1  0.00191816  0.25169956  0.60425654  1
  O2-  O134  1  -0.00270632  0.24443445  0.94356566  1
  O2-  O135  1  -0.00287556  0.75478832  0.27483836  1
  O2-  O136  1  -0.00676593  0.75366454  0.60506513  1
  O2-  O137  1  -0.00605385  0.74476303  0.93662701  1
  O2-  O138  1  0.49777478  0.24993955  0.27343808  1
  O2-  O139  1  0.50314152  0.24552601  0.60482938  1
  O2-  O140  1  0.50200553  0.25521286  0.94301331  1
  O2-  O141  1  0.50410773  0.75157560  0.27464340  1
  O2-  O142  1  0.49786421  0.74715673  0.59922509  1
  O2-  O143  1  0.50868890  0.75020358  0.94237268  1
  O2-  O144  1  0.07797834  0.18120080  0.08992002  1
  O2-  O145  1  0.07293877  0.18243993  0.42943868  1
  O2-  O146  1  0.06781152  0.17616087  0.76709100  1
  O2-  O147  1  0.07623003  0.68036059  0.09708718  1
  O2-  O148  1  0.07320969  0.68083635  0.43365240  1
  O2-  O149  1  0.06547466  0.68150574  0.76559101  1
  O2-  O150  1  0.56650996  0.17957057  0.09010726  1
  O2-  O151  1  0.56726797  0.17980082  0.42191928  1
  O2-  O152  1  0.57259522  0.17917798  0.75533019  1
  O2-  O153  1  0.56564471  0.67192208  0.09173733  1
  O2-  O154  1  0.57008963  0.67542065  0.42124706  1
  O2-  O155  1  0.57528382  0.68125148  0.76518212  1
  O2-  O156  1  0.18251824  0.42895134  0.24213038  1
  O2-  O157  1  0.18031692  0.42939177  0.56841020  1
  O2-  O158  1  0.18296611  0.41891050  0.91228258  1
  O2-  O159  1  0.18381746  0.92550861  0.23407356  1
  O2-  O160  1  0.17686058  0.93001382  0.58060154  1
  O2-  O161  1  0.18288270  0.92982687  0.90725222  1
  O2-  O162  1  0.67304854  0.43277923  0.24575282  1
  O2-  O163  1  0.67958012  0.42623916  0.57471982  1
  O2-  O164  1  0.67559996  0.42904163  0.90021054  1
  O2-  O165  1  0.67580295  0.93003977  0.23751425  1
  O2-  O166  1  0.67869701  0.93085202  0.57880496  1
  O2-  O167  1  0.67416265  0.93501056  0.89861206  1
  O2-  O168  1  0.42499394  0.32011067  0.09035047  1
  O2-  O169  1  0.43166294  0.32390024  0.42112448  1
  O2-  O170  1  0.43295672  0.31874623  0.76707310  1
  O2-  O171  1  0.42804157  0.82171208  0.10104080  1
  O2-  O172  1  0.43270150  0.82028913  0.42323449  1
  O2-  O173  1  0.43390234  0.82445934  0.76196763  1
  O2-  O174  1  0.92966761  0.31877863  0.08961044  1
  O2-  O175  1  0.92996829  0.32120211  0.42763656  1
  O2-  O176  1  0.92387959  0.31809399  0.76693020  1
  O2-  O177  1  0.93326319  0.82485809  0.10092362  1
  O2-  O178  1  0.92486008  0.81596204  0.42566958  1
  O2-  O179  1  0.92655652  0.82322675  0.75609259  1
  O2-  O180  1  0.32288295  0.06811430  0.23353378  1
  O2-  O181  1  0.32373281  0.07033415  0.57864551  1
  O2-  O182  1  0.31829781  0.07801459  0.90736359  1
  O2-  O183  1  0.32173562  0.57121374  0.23232044  1
  O2-  O184  1  0.32114345  0.56989823  0.57057992  1
  O2-  O185  1  0.32112249  0.56900593  0.90969802  1
  O2-  O186  1  0.81817843  0.07035891  0.23756863  1
  O2-  O187  1  0.81818495  0.06999207  0.57711073  1
  O2-  O188  1  0.82066617  0.07322047  0.89989679  1
  O2-  O189  1  0.82118525  0.56928787  0.23547065  1
  O2-  O190  1  0.82116560  0.57168234  0.57600096  1
  O2-  O191  1  0.82295644  0.56619997  0.89992862  1
  O2-  O192  1  0.04798615  0.07448751  0.26828383  1
  O2-  O193  1  0.04122848  0.07948799  0.60015899  1
  O2-  O194  1  0.05276572  0.08473676  0.93942438  1
  O2-  O195  1  0.04471965  0.58409635  0.26605508  1
  O2-  O196  1  0.04040758  0.58418016  0.59879718  1
  O2-  O197  1  0.04820310  0.57480387  0.93314339  1
  O2-  O198  1  0.53699303  0.08675060  0.27025139  1
  O2-  O199  1  0.54762888  0.08464035  0.60385286  1
  O2-  O200  1  0.53958559  0.09290686  0.93325428  1
  O2-  O201  1  0.54157003  0.58720083  0.26788722  1
  O2-  O202  1  0.54965431  0.57951309  0.59760841  1
  O2-  O203  1  0.53857599  0.58436813  0.93812165  1
  O2-  O204  1  0.16891651  0.20907211  0.26178677  1
  O2-  O205  1  0.17153545  0.19948832  0.60204168  1
  O2-  O206  1  0.16321500  0.21194608  0.93654379  1
  O2-  O207  1  0.17013512  0.71343618  0.26731659  1
  O2-  O208  1  0.16567607  0.71286341  0.60157721  1
  O2-  O209  1  0.16674159  0.70994065  0.92763187  1
  O2-  O210  1  0.65914958  0.20523561  0.26790447  1
  O2-  O211  1  0.66475332  0.20508754  0.60199906  1
  O2-  O212  1  0.66301690  0.20724312  0.93779668  1
  O2-  O213  1  0.66617502  0.70296716  0.27232492  1
  O2-  O214  1  0.66950546  0.71066425  0.59684716  1
  O2-  O215  1  0.66759732  0.69208021  0.94323012  1
  O2-  O216  1  0.08615471  0.44648478  0.06249255  1
  O2-  O217  1  0.08383198  0.45141900  0.39118561  1
  O2-  O218  1  0.07953078  0.45695177  0.73513997  1
  O2-  O219  1  0.09136388  0.95458169  0.06095611  1
  O2-  O220  1  0.07843420  0.94727458  0.40253036  1
  O2-  O221  1  0.08649905  0.95838246  0.73357102  1
  O2-  O222  1  0.57627866  0.45394094  0.06791325  1
  O2-  O223  1  0.58508834  0.45942550  0.39872585  1
  O2-  O224  1  0.58812979  0.45511009  0.72761399  1
  O2-  O225  1  0.58087078  0.96657219  0.06612868  1
  O2-  O226  1  0.58232851  0.96129357  0.40569307  1
  O2-  O227  1  0.58629464  0.95912679  0.72983968  1
  O2-  O228  1  0.21515666  0.33779066  0.06792944  1
  O2-  O229  1  0.20708968  0.33667918  0.39372494  1
  O2-  O230  1  0.20877850  0.32947712  0.73442258  1
  O2-  O231  1  0.21218143  0.83612358  0.05841746  1
  O2-  O232  1  0.21574179  0.83480762  0.40423788  1
  O2-  O233  1  0.20729475  0.83878584  0.73362863  1
  O2-  O234  1  0.70178515  0.33039199  0.06766232  1
  O2-  O235  1  0.69346163  0.33227767  0.39411536  1
  O2-  O236  1  0.70645123  0.33576095  0.72804497  1
  O2-  O237  1  0.69061867  0.82639029  0.06290586  1
  O2-  O238  1  0.70250716  0.82857166  0.40483801  1
  O2-  O239  1  0.70499302  0.83740999  0.73055576  1
  O2-  O240  1  0.46097416  0.41391701  0.26779858  1
  O2-  O241  1  0.46209683  0.41549703  0.59751976  1
  O2-  O242  1  0.45131144  0.41518247  0.93862586  1
  O2-  O243  1  0.45868330  0.91441104  0.27314779  1
  O2-  O244  1  0.46028819  0.92012422  0.59523391  1
  O2-  O245  1  0.45710473  0.92080355  0.93253604  1
  O2-  O246  1  0.96108652  0.41580121  0.25879123  1
  O2-  O247  1  0.95414679  0.42031685  0.60071817  1
  O2-  O248  1  0.95821751  0.40804761  0.93646027  1
  O2-  O249  1  0.94620045  0.91608002  0.27797953  1
  O2-  O250  1  0.95350539  0.91602571  0.60523081  1
  O2-  O251  1  0.96101043  0.91821107  0.93139762  1
  O2-  O252  1  0.33730633  0.29915068  0.26728381  1
  O2-  O253  1  0.33463267  0.28991286  0.59859698  1
  O2-  O254  1  0.33770544  0.28904026  0.93642224  1
  O2-  O255  1  0.34119158  0.79132787  0.27107695  1
  O2-  O256  1  0.32866489  0.79995892  0.59801301  1
  O2-  O257  1  0.33742882  0.78962107  0.93004080  1
  O2-  O258  1  0.82457358  0.29743978  0.26505822  1
  O2-  O259  1  0.83051376  0.29256916  0.59758149  1
  O2-  O260  1  0.83438720  0.29226602  0.93965908  1
  O2-  O261  1  0.83209002  0.79152783  0.27487946  1
  O2-  O262  1  0.83206015  0.80068366  0.60554929  1
  O2-  O263  1  0.82526154  0.80043234  0.93705616  1
  O2-  O264  1  0.41342984  0.05000765  0.05785737  1
  O2-  O265  1  0.41569267  0.04306382  0.40428577  1
  O2-  O266  1  0.41498381  0.04287426  0.73064237  1
  O2-  O267  1  0.40802229  0.54180962  0.06441051  1
  O2-  O268  1  0.41729385  0.53858590  0.39958930  1
  O2-  O269  1  0.42215548  0.54200807  0.73439043  1
  O2-  O270  1  0.92492995  0.04655077  0.06537443  1
  O2-  O271  1  0.92012579  0.04848796  0.40450270  1
  O2-  O272  1  0.91230336  0.04417693  0.72908645  1
  O2-  O273  1  0.92150693  0.53783952  0.06626294  1
  O2-  O274  1  0.92010452  0.53667630  0.39984913  1
  O2-  O275  1  0.91270470  0.54445279  0.72887446  1
  O2-  O276  1  0.29078095  0.16400283  0.06246066  1
  O2-  O277  1  0.29888025  0.17527680  0.39561805  1
  O2-  O278  1  0.29649699  0.16298380  0.73138685  1
  O2-  O279  1  0.29162153  0.66473193  0.05969278  1
  O2-  O280  1  0.29474452  0.66793480  0.40104642  1
  O2-  O281  1  0.29558082  0.67322136  0.73414551  1
  O2-  O282  1  0.79054952  0.16518812  0.06846366  1
  O2-  O283  1  0.78625403  0.17015974  0.40226395  1
  O2-  O284  1  0.79072713  0.16298980  0.72827437  1
  O2-  O285  1  0.79889745  0.66920137  0.06808677  1
  O2-  O286  1  0.79056975  0.66215386  0.40558443  1
  O2-  O287  1  0.79272515  0.66388737  0.72791433  1
