# generated using pymatgen
data_Ca2Al2SiO7
_symmetry_space_group_name_H-M   'P 1'
_cell_length_a   15.45430052
_cell_length_b   15.45475034
_cell_length_c   15.28075858
_cell_angle_alpha   89.99727746
_cell_angle_beta   89.99211546
_cell_angle_gamma   89.99649657
_symmetry_Int_Tables_number   1
_chemical_formula_structural   Ca2Al2SiO7
_chemical_formula_sum   'Ca48 Al48 Si24 O168'
_cell_volume   3649.69234068
_cell_formula_units_Z   24
loop_
 _symmetry_equiv_pos_site_id
 _symmetry_equiv_pos_as_xyz
  1  'x, y, z'
loop_
 _atom_type_symbol
 _atom_type_oxidation_number
  Ca2+  2.0
  Al0+  0.0
  Si0+  0.0
  O2-  -2.0
loop_
 _atom_site_type_symbol
 _atom_site_label
 _atom_site_symmetry_multiplicity
 _atom_site_fract_x
 _atom_site_fract_y
 _atom_site_fract_z
 _atom_site_occupancy
  Ca2+  Ca0  1  0.16998466  0.07985897  0.17665000  1
  Ca2+  Ca1  1  0.16954489  0.07678582  0.49798137  1
  Ca2+  Ca2  1  0.16684236  0.08402989  0.83998856  1
  Ca2+  Ca3  1  0.17030486  0.57784553  0.16867307  1
  Ca2+  Ca4  1  0.17758342  0.58818962  0.50540651  1
  Ca2+  Ca5  1  0.16716707  0.58179235  0.83824897  1
  Ca2+  Ca6  1  0.66328665  0.08150985  0.17107014  1
  Ca2+  Ca7  1  0.66890873  0.08903819  0.49900247  1
  Ca2+  Ca8  1  0.66401534  0.07611065  0.84085095  1
  Ca2+  Ca9  1  0.67678128  0.59000240  0.16938051  1
  Ca2+  Ca10  1  0.67726723  0.57720039  0.50788133  1
  Ca2+  Ca11  1  0.67657234  0.58277028  0.83781431  1
  Ca2+  Ca12  1  0.08633957  0.32807099  0.15688556  1
  Ca2+  Ca13  1  0.07533012  0.33717709  0.50144828  1
  Ca2+  Ca14  1  0.08129929  0.33266156  0.83278191  1
  Ca2+  Ca15  1  0.07923864  0.83054038  0.16427314  1
  Ca2+  Ca16  1  0.07582259  0.82821876  0.49636423  1
  Ca2+  Ca17  1  0.07650523  0.81782554  0.82348587  1
  Ca2+  Ca18  1  0.57165412  0.32321785  0.16099201  1
  Ca2+  Ca19  1  0.57638901  0.33676438  0.49326018  1
  Ca2+  Ca20  1  0.57638035  0.33727814  0.82815941  1
  Ca2+  Ca21  1  0.58445142  0.82944453  0.15872511  1
  Ca2+  Ca22  1  0.57666219  0.83207340  0.49998123  1
  Ca2+  Ca23  1  0.58279004  0.82842000  0.83299841  1
  Ca2+  Ca24  1  0.33186861  0.41350077  0.16965278  1
  Ca2+  Ca25  1  0.34120912  0.42530786  0.50482179  1
  Ca2+  Ca26  1  0.33227904  0.41713947  0.83609080  1
  Ca2+  Ca27  1  0.32416956  0.92506402  0.17899382  1
  Ca2+  Ca28  1  0.33086821  0.91835982  0.50397084  1
  Ca2+  Ca29  1  0.33617456  0.91634634  0.83572491  1
  Ca2+  Ca30  1  0.83532733  0.43205481  0.17208815  1
  Ca2+  Ca31  1  0.82909287  0.42490071  0.51262435  1
  Ca2+  Ca32  1  0.83414610  0.42386085  0.83397649  1
  Ca2+  Ca33  1  0.82825655  0.92095310  0.17351986  1
  Ca2+  Ca34  1  0.84071794  0.91923854  0.50036930  1
  Ca2+  Ca35  1  0.82897623  0.91264655  0.83800236  1
  Ca2+  Ca36  1  0.41970194  0.17175961  0.16158981  1
  Ca2+  Ca37  1  0.42205446  0.17944000  0.48830331  1
  Ca2+  Ca38  1  0.42041976  0.18045076  0.83156916  1
  Ca2+  Ca39  1  0.42259317  0.66441826  0.16275522  1
  Ca2+  Ca40  1  0.41085601  0.66634894  0.49753034  1
  Ca2+  Ca41  1  0.42250736  0.66681256  0.82562759  1
  Ca2+  Ca42  1  0.92212045  0.16466797  0.16373821  1
  Ca2+  Ca43  1  0.91010889  0.17370253  0.49498106  1
  Ca2+  Ca44  1  0.92354830  0.17168780  0.82838870  1
  Ca2+  Ca45  1  0.91598192  0.66997634  0.16081227  1
  Ca2+  Ca46  1  0.91414487  0.67153905  0.49628351  1
  Ca2+  Ca47  1  0.92511060  0.65950715  0.82707088  1
  Al0+  Al48  1  -0.00036536  0.00051588  -0.00494146  1
  Al0+  Al49  1  -0.00283212  -0.00115856  0.33765376  1
  Al0+  Al50  1  0.00194269  -0.00224187  0.66609500  1
  Al0+  Al51  1  0.00173340  0.50087575  0.00706153  1
  Al0+  Al52  1  0.00076983  0.50158618  0.33721952  1
  Al0+  Al53  1  0.00315250  0.49710691  0.66031116  1
  Al0+  Al54  1  0.49954300  0.00129121  0.00229175  1
  Al0+  Al55  1  0.49921770  -0.00055789  0.33462116  1
  Al0+  Al56  1  0.50027254  -0.00010493  0.66322114  1
  Al0+  Al57  1  0.50150487  0.50200848  -0.00816148  1
  Al0+  Al58  1  0.49970824  0.50026053  0.33060403  1
  Al0+  Al59  1  0.50076059  0.49989437  0.67080478  1
  Al0+  Al60  1  0.24913735  0.25044789  -0.00485481  1
  Al0+  Al61  1  0.24781252  0.25004805  0.33595693  1
  Al0+  Al62  1  0.25314202  0.24885202  0.66148321  1
  Al0+  Al63  1  0.24809885  0.75067949  -0.00159587  1
  Al0+  Al64  1  0.24793432  0.74779622  0.33846968  1
  Al0+  Al65  1  0.25031493  0.75095444  0.66488505  1
  Al0+  Al66  1  0.74995347  0.25037722  -0.00228009  1
  Al0+  Al67  1  0.74855637  0.24995655  0.33014707  1
  Al0+  Al68  1  0.75138721  0.24810115  0.66967080  1
  Al0+  Al69  1  0.74786656  0.75243145  0.00488694  1
  Al0+  Al70  1  0.75081119  0.75182664  0.33476301  1
  Al0+  Al71  1  0.75046839  0.75126683  0.66665369  1
  Al0+  Al72  1  0.17746410  0.92820072  0.34952598  1
  Al0+  Al73  1  0.57246709  0.17706304  0.98324608  1
  Al0+  Al74  1  0.92955864  0.31791992  0.65394316  1
  Al0+  Al75  1  0.82001459  0.56935510  0.01442959  1
  Al0+  Al76  1  0.92720458  0.82073267  0.65137867  1
  Al0+  Al77  1  0.57216222  0.68071610  0.98670320  1
  Al0+  Al78  1  0.57162275  0.17786629  0.31742720  1
  Al0+  Al79  1  0.42897717  0.32121578  0.98284721  1
  Al0+  Al80  1  0.31967342  0.57238353  0.68182921  1
  Al0+  Al81  1  0.07144004  0.67621344  0.64980721  1
  Al0+  Al82  1  0.07061929  0.67839530  0.98818762  1
  Al0+  Al83  1  0.82319243  0.57212314  0.68195611  1
  Al0+  Al84  1  0.81877629  0.07143151  0.34604975  1
  Al0+  Al85  1  0.32226604  0.07210809  0.34955768  1
  Al0+  Al86  1  0.92950353  0.82053067  0.31715570  1
  Al0+  Al87  1  0.43012430  0.82114706  0.65325910  1
  Al0+  Al88  1  0.67891164  0.93176464  0.01384785  1
  Al0+  Al89  1  0.43081125  0.32205260  0.65093580  1
  Al0+  Al90  1  0.67937105  0.42716357  0.68265636  1
  Al0+  Al91  1  0.18151329  0.42955142  0.01247047  1
  Al0+  Al92  1  0.32151232  0.56788175  0.34500593  1
  Al0+  Al93  1  0.06995382  0.17844612  0.98807771  1
  Al0+  Al94  1  0.42703513  0.32303983  0.31712787  1
  Al0+  Al95  1  0.82162812  0.57293033  0.34845863  1
  Si0+  Si96  1  0.67666599  0.92710299  0.35225321  1
  Si0+  Si97  1  0.92840606  0.32416922  0.98631832  1
  Si0+  Si98  1  0.92820579  0.32329483  0.31807157  1
  Si0+  Si99  1  0.67521091  0.42655113  0.01799493  1
  Si0+  Si100  1  0.67732475  0.93058763  0.68115903  1
  Si0+  Si101  1  0.17652849  0.42585889  0.35186006  1
  Si0+  Si102  1  0.32176941  0.07043646  0.68282623  1
  Si0+  Si103  1  0.07305367  0.67731744  0.31428405  1
  Si0+  Si104  1  0.82317438  0.07013042  0.68287215  1
  Si0+  Si105  1  0.67991801  0.42953915  0.34672378  1
  Si0+  Si106  1  0.07364014  0.17586049  0.64787151  1
  Si0+  Si107  1  0.17948499  0.92997380  0.68455322  1
  Si0+  Si108  1  0.92784160  0.82151911  0.98456720  1
  Si0+  Si109  1  0.57215457  0.67790817  0.64962109  1
  Si0+  Si110  1  0.42672121  0.82209636  0.98648939  1
  Si0+  Si111  1  0.57206393  0.17700921  0.65005511  1
  Si0+  Si112  1  0.06782436  0.17959541  0.32086041  1
  Si0+  Si113  1  0.17976311  0.42516995  0.68275971  1
  Si0+  Si114  1  0.82448207  0.07337312  0.01524014  1
  Si0+  Si115  1  0.31841168  0.07031750  0.01308472  1
  Si0+  Si116  1  0.42637333  0.82026225  0.31916895  1
  Si0+  Si117  1  0.57066819  0.68077483  0.32017717  1
  Si0+  Si118  1  0.17705735  0.92804346  0.01323605  1
  Si0+  Si119  1  0.32387163  0.57430330  0.01496225  1
  O2-  O120  1  0.24771798  -0.00102880  0.05568757  1
  O2-  O121  1  0.25298406  -0.00288645  0.39975731  1
  O2-  O122  1  0.24994268  0.00137116  0.72772623  1
  O2-  O123  1  0.25806327  0.50272058  0.05894305  1
  O2-  O124  1  0.24860753  0.49219178  0.39332689  1
  O2-  O125  1  0.24587436  0.49620250  0.72727405  1
  O2-  O126  1  0.75193239  0.00881202  0.05918963  1
  O2-  O127  1  0.74248067  -0.00066898  0.39505153  1
  O2-  O128  1  0.75192010  -0.00151453  0.72320311  1
  O2-  O129  1  0.74497466  0.49460425  0.06234887  1
  O2-  O130  1  0.75009606  0.49511853  0.39325391  1
  O2-  O131  1  0.75130708  0.50003548  0.73216188  1
  O2-  O132  1  0.00059479  0.25325017  0.27634224  1
  O2-  O133  1  0.00322113  0.24298152  0.60449432  1
  O2-  O134  1  -0.00682120  0.25110294  0.94250826  1
  O2-  O135  1  0.00252464  0.74446134  0.27009737  1
  O2-  O136  1  -0.00509461  0.74468765  0.60143946  1
  O2-  O137  1  -0.00511178  0.75159596  0.94089598  1
  O2-  O138  1  0.49528812  0.24627607  0.26915869  1
  O2-  O139  1  0.50854134  0.24993368  0.60590057  1
  O2-  O140  1  0.50619319  0.25385580  0.93307033  1
  O2-  O141  1  0.49887663  0.75126547  0.27702320  1
  O2-  O142  1  0.50124715  0.74420274  0.60458450  1
  O2-  O143  1  0.49281611  0.75150867  0.94167100  1
  O2-  O144  1  0.06992885  0.17699267  0.10154070  1
  O2-  O145  1  0.06564083  0.18048994  0.42595995  1
  O2-  O146  1  0.07299876  0.17539285  0.75377995  1
  O2-  O147  1  0.07235669  0.68162636  0.10117697  1
  O2-  O148  1  0.07388870  0.67794614  0.41954059  1
  O2-  O149  1  0.07159830  0.67864014  0.76401379  1
  O2-  O150  1  0.56753277  0.17499999  0.09641428  1
  O2-  O151  1  0.57386320  0.18198690  0.43125943  1
  O2-  O152  1  0.56837712  0.17265024  0.75534835  1
  O2-  O153  1  0.57151125  0.68372348  0.10051872  1
  O2-  O154  1  0.56999258  0.68146951  0.42524540  1
  O2-  O155  1  0.57270292  0.68202318  0.75522955  1
  O2-  O156  1  0.17392548  0.42595101  0.24610493  1
  O2-  O157  1  0.18139114  0.42323791  0.57711903  1
  O2-  O158  1  0.17956176  0.42977287  0.89960247  1
  O2-  O159  1  0.17851260  0.93052196  0.23487848  1
  O2-  O160  1  0.17957914  0.93185175  0.57973702  1
  O2-  O161  1  0.17820382  0.92834381  0.90816518  1
  O2-  O162  1  0.68149985  0.43211400  0.24114310  1
  O2-  O163  1  0.68042065  0.42821316  0.56833973  1
  O2-  O164  1  0.67723850  0.42770628  0.91261736  1
  O2-  O165  1  0.67808125  0.92478575  0.24667794  1
  O2-  O166  1  0.67381399  0.93306555  0.57625207  1
  O2-  O167  1  0.68053224  0.93081807  0.90023033  1
  O2-  O168  1  0.42620082  0.31709275  0.09631003  1
  O2-  O169  1  0.43200462  0.32550923  0.43068173  1
  O2-  O170  1  0.42760119  0.31811534  0.76371271  1
  O2-  O171  1  0.42573323  0.82170086  0.09235052  1
  O2-  O172  1  0.42752030  0.81945218  0.42429843  1
  O2-  O173  1  0.43368253  0.82396924  0.76648796  1
  O2-  O174  1  0.93122548  0.32368881  0.09235818  1
  O2-  O175  1  0.92809847  0.32171219  0.42321484  1
  O2-  O176  1  0.93180454  0.31577813  0.76720510  1
  O2-  O177  1  0.93028091  0.82364396  0.09029238  1
  O2-  O178  1  0.93008767  0.81961724  0.42980086  1
  O2-  O179  1  0.93041805  0.82489421  0.76518905  1
  O2-  O180  1  0.31814007  0.07013759  0.23512525  1
  O2-  O181  1  0.32062793  0.06862344  0.57813147  1
  O2-  O182  1  0.31783763  0.06811955  0.90757620  1
  O2-  O183  1  0.32068328  0.56971626  0.23170741  1
  O2-  O184  1  0.31924415  0.57093353  0.56844720  1
  O2-  O185  1  0.32078133  0.57687112  0.90966126  1
  O2-  O186  1  0.82104991  0.06906191  0.23302343  1
  O2-  O187  1  0.82236489  0.07196562  0.57775061  1
  O2-  O188  1  0.82796220  0.06957376  0.90956992  1
  O2-  O189  1  0.82028856  0.57319387  0.23496105  1
  O2-  O190  1  0.81905936  0.57105220  0.56823065  1
  O2-  O191  1  0.82205841  0.56807154  0.90173747  1
  O2-  O192  1  0.03707542  0.08882261  0.27356763  1
  O2-  O193  1  0.04878849  0.08183209  0.60343087  1
  O2-  O194  1  0.04120470  0.08287934  0.92945563  1
  O2-  O195  1  0.04830896  0.58216629  0.27051653  1
  O2-  O196  1  0.05306057  0.57634633  0.59671217  1
  O2-  O197  1  0.04005660  0.58136658  0.93592064  1
  O2-  O198  1  0.54707139  0.07648657  0.26791054  1
  O2-  O199  1  0.54249411  0.08598967  0.60093733  1
  O2-  O200  1  0.53857319  0.07966370  0.93048773  1
  O2-  O201  1  0.54353672  0.59001528  0.27074291  1
  O2-  O202  1  0.54813490  0.58385980  0.60530672  1
  O2-  O203  1  0.54798590  0.58474170  0.92962684  1
  O2-  O204  1  0.16081301  0.20361166  0.27382545  1
  O2-  O205  1  0.16652052  0.20222100  0.60139025  1
  O2-  O206  1  0.16390597  0.21000692  0.93025977  1
  O2-  O207  1  0.16643323  0.70485649  0.26820789  1
  O2-  O208  1  0.16776045  0.71222569  0.59763868  1
  O2-  O209  1  0.16647904  0.70959611  0.93248153  1
  O2-  O210  1  0.66897861  0.20759945  0.26202785  1
  O2-  O211  1  0.66862528  0.19687547  0.60841195  1
  O2-  O212  1  0.67467860  0.19625638  0.93355191  1
  O2-  O213  1  0.66147029  0.71123937  0.27231484  1
  O2-  O214  1  0.66439014  0.70699989  0.60297256  1
  O2-  O215  1  0.66645985  0.71779178  0.93244556  1
  O2-  O216  1  0.08719959  0.46015440  0.07153286  1
  O2-  O217  1  0.08430815  0.45453791  0.39955506  1
  O2-  O218  1  0.08488559  0.44760410  0.72702001  1
  O2-  O219  1  0.08488313  0.95671963  0.05947021  1
  O2-  O220  1  0.08187736  0.96196007  0.40390613  1
  O2-  O221  1  0.08794799  0.95807090  0.73311781  1
  O2-  O222  1  0.58098630  0.45404418  0.06153307  1
  O2-  O223  1  0.58720678  0.45847647  0.39251363  1
  O2-  O224  1  0.58212436  0.45664283  0.73644230  1
  O2-  O225  1  0.58132695  0.95888779  0.06918914  1
  O2-  O226  1  0.58166788  0.94827707  0.39734618  1
  O2-  O227  1  0.58714179  0.96213834  0.73041113  1
  O2-  O228  1  0.21045871  0.33150155  0.06610257  1
  O2-  O229  1  0.19581834  0.33148177  0.39842050  1
  O2-  O230  1  0.20750891  0.33108748  0.72798638  1
  O2-  O231  1  0.20441699  0.83692833  0.06250549  1
  O2-  O232  1  0.20355900  0.82970312  0.40209614  1
  O2-  O233  1  0.20896250  0.83874087  0.73137793  1
  O2-  O234  1  0.69879488  0.33132061  0.06226844  1
  O2-  O235  1  0.70266952  0.33522139  0.39182754  1
  O2-  O236  1  0.70763082  0.32827569  0.73576868  1
  O2-  O237  1  0.71046235  0.83744197  0.07172783  1
  O2-  O238  1  0.70591897  0.83577383  0.40039381  1
  O2-  O239  1  0.70217162  0.83795084  0.72820814  1
  O2-  O240  1  0.45861481  0.41989511  0.26215596  1
  O2-  O241  1  0.46037083  0.42014588  0.59979346  1
  O2-  O242  1  0.45185695  0.42125205  0.93097306  1
  O2-  O243  1  0.45193265  0.91279552  0.27217167  1
  O2-  O244  1  0.46419189  0.91579485  0.59644540  1
  O2-  O245  1  0.45469396  0.91476298  0.94025028  1
  O2-  O246  1  0.95656378  0.41589857  0.27225961  1
  O2-  O247  1  0.96082594  0.41211755  0.59590000  1
  O2-  O248  1  0.96077279  0.41507708  0.94032472  1
  O2-  O249  1  0.96111600  0.91787191  0.26467405  1
  O2-  O250  1  0.96105740  0.91828599  0.59841593  1
  O2-  O251  1  0.95340846  0.91425943  0.93659084  1
  O2-  O252  1  0.32547403  0.29733281  0.26890876  1
  O2-  O253  1  0.33542254  0.28899402  0.59573395  1
  O2-  O254  1  0.33312753  0.28668318  0.92829161  1
  O2-  O255  1  0.33454694  0.79132145  0.27255671  1
  O2-  O256  1  0.33317763  0.79435704  0.59937420  1
  O2-  O257  1  0.33267597  0.80048712  0.93919803  1
  O2-  O258  1  0.83758066  0.29520501  0.26952608  1
  O2-  O259  1  0.83314074  0.28603773  0.59944141  1
  O2-  O260  1  0.83372998  0.30426876  0.94054518  1
  O2-  O261  1  0.83138165  0.79138759  0.26444427  1
  O2-  O262  1  0.82662001  0.80032875  0.59907541  1
  O2-  O263  1  0.83317349  0.79763936  0.94163116  1
  O2-  O264  1  0.40927522  0.04280927  0.06180894  1
  O2-  O265  1  0.42115300  0.04554211  0.40205891  1
  O2-  O266  1  0.41313525  0.03940888  0.72939914  1
  O2-  O267  1  0.41987022  0.55229939  0.05759211  1
  O2-  O268  1  0.41913751  0.54102079  0.39980019  1
  O2-  O269  1  0.41698108  0.54365629  0.73484235  1
  O2-  O270  1  0.91701942  0.04341265  0.06260722  1
  O2-  O271  1  0.91308763  0.03984808  0.40346412  1
  O2-  O272  1  0.91574812  0.04238835  0.72955366  1
  O2-  O273  1  0.91529947  0.53872526  0.07185410  1
  O2-  O274  1  0.91911980  0.54484795  0.40099848  1
  O2-  O275  1  0.92334680  0.54032222  0.72932196  1
  O2-  O276  1  0.28817897  0.16122526  0.05933955  1
  O2-  O277  1  0.29053729  0.16931293  0.40289262  1
  O2-  O278  1  0.29357479  0.16275431  0.72924030  1
  O2-  O279  1  0.29575513  0.66742921  0.06214369  1
  O2-  O280  1  0.29059892  0.66363511  0.40096044  1
  O2-  O281  1  0.29088778  0.67020691  0.73491944  1
  O2-  O282  1  0.80588220  0.16957279  0.05889167  1
  O2-  O283  1  0.78975908  0.16930232  0.39995460  1
  O2-  O284  1  0.79646362  0.16060773  0.73290552  1
  O2-  O285  1  0.78723438  0.66597394  0.06815341  1
  O2-  O286  1  0.78736274  0.66824046  0.40168194  1
  O2-  O287  1  0.79565128  0.67181711  0.73359015  1
