# generated using pymatgen
data_Ca2Al2SiO7
_symmetry_space_group_name_H-M   'P 1'
_cell_length_a   15.46331179
_cell_length_b   15.46061481
_cell_length_c   15.28693636
_cell_angle_alpha   90.01029456
_cell_angle_beta   89.99457686
_cell_angle_gamma   90.02009195
_symmetry_Int_Tables_number   1
_chemical_formula_structural   Ca2Al2SiO7
_chemical_formula_sum   'Ca48 Al48 Si24 O168'
_cell_volume   3654.68284736
_cell_formula_units_Z   24
loop_
 _symmetry_equiv_pos_site_id
 _symmetry_equiv_pos_as_xyz
  1  'x, y, z'
loop_
 _atom_type_symbol
 _atom_type_oxidation_number
  Ca2+  2.0
  Al0+  0.0
  Si0+  0.0
  O2-  -2.0
loop_
 _atom_site_type_symbol
 _atom_site_label
 _atom_site_symmetry_multiplicity
 _atom_site_fract_x
 _atom_site_fract_y
 _atom_site_fract_z
 _atom_site_occupancy
  Ca2+  Ca0  1  0.16573917  0.08576051  0.17015026  1
  Ca2+  Ca1  1  0.17277442  0.08747634  0.50476466  1
  Ca2+  Ca2  1  0.17393240  0.08377281  0.83368072  1
  Ca2+  Ca3  1  0.18000565  0.57941495  0.17611031  1
  Ca2+  Ca4  1  0.17084311  0.57223858  0.50009321  1
  Ca2+  Ca5  1  0.17535099  0.57965617  0.83817844  1
  Ca2+  Ca6  1  0.66629765  0.07501863  0.17094474  1
  Ca2+  Ca7  1  0.66426400  0.07559229  0.50611253  1
  Ca2+  Ca8  1  0.67451493  0.06932224  0.83739879  1
  Ca2+  Ca9  1  0.67479948  0.57957839  0.17054156  1
  Ca2+  Ca10  1  0.66639039  0.57384688  0.50092841  1
  Ca2+  Ca11  1  0.66182141  0.58327389  0.83904895  1
  Ca2+  Ca12  1  0.07549225  0.33600322  0.16785759  1
  Ca2+  Ca13  1  0.08070547  0.33180084  0.48925074  1
  Ca2+  Ca14  1  0.07562185  0.33780035  0.83069345  1
  Ca2+  Ca15  1  0.07310149  0.82922074  0.15938324  1
  Ca2+  Ca16  1  0.08009030  0.83095516  0.49437482  1
  Ca2+  Ca17  1  0.07498023  0.83343212  0.83276760  1
  Ca2+  Ca18  1  0.58640693  0.33038578  0.16382759  1
  Ca2+  Ca19  1  0.59147004  0.32760076  0.49233067  1
  Ca2+  Ca20  1  0.57658241  0.33853731  0.82880048  1
  Ca2+  Ca21  1  0.58476992  0.82932633  0.16261693  1
  Ca2+  Ca22  1  0.57761735  0.83695717  0.49599396  1
  Ca2+  Ca23  1  0.58960653  0.82306419  0.82697205  1
  Ca2+  Ca24  1  0.33566175  0.42700819  0.17241040  1
  Ca2+  Ca25  1  0.32072583  0.41426818  0.50359020  1
  Ca2+  Ca26  1  0.32831890  0.41835162  0.84315572  1
  Ca2+  Ca27  1  0.33384494  0.91491026  0.17414371  1
  Ca2+  Ca28  1  0.34069615  0.92014525  0.50570527  1
  Ca2+  Ca29  1  0.34157843  0.91999381  0.83117053  1
  Ca2+  Ca30  1  0.83740076  0.42390083  0.17424745  1
  Ca2+  Ca31  1  0.82537355  0.41471834  0.49943556  1
  Ca2+  Ca32  1  0.82526867  0.42174371  0.83927857  1
  Ca2+  Ca33  1  0.82123710  0.91450001  0.16765850  1
  Ca2+  Ca34  1  0.81921431  0.92502547  0.50702330  1
  Ca2+  Ca35  1  0.82571597  0.92166199  0.84353173  1
  Ca2+  Ca36  1  0.42599228  0.17506154  0.16475796  1
  Ca2+  Ca37  1  0.42245152  0.16585181  0.49308408  1
  Ca2+  Ca38  1  0.41530033  0.17107484  0.83006896  1
  Ca2+  Ca39  1  0.42066707  0.66535959  0.16058607  1
  Ca2+  Ca40  1  0.42028377  0.67620089  0.49575018  1
  Ca2+  Ca41  1  0.42902600  0.66836010  0.82676304  1
  Ca2+  Ca42  1  0.91551257  0.17897885  0.16088049  1
  Ca2+  Ca43  1  0.91965639  0.17260443  0.48897686  1
  Ca2+  Ca44  1  0.90682814  0.16866502  0.83128325  1
  Ca2+  Ca45  1  0.90887746  0.66776669  0.15818119  1
  Ca2+  Ca46  1  0.91493149  0.66398622  0.49475346  1
  Ca2+  Ca47  1  0.90676628  0.67267222  0.83535800  1
  Al0+  Al48  1  0.00105495  0.00028479  -0.00145400  1
  Al0+  Al49  1  0.00061116  -0.00133432  0.32924778  1
  Al0+  Al50  1  0.00218445  0.00165764  0.66792248  1
  Al0+  Al51  1  0.00072231  0.49795890  -0.00259130  1
  Al0+  Al52  1  0.00332926  0.50118616  0.33679679  1
  Al0+  Al53  1  -0.00018316  0.49944096  0.67006898  1
  Al0+  Al54  1  0.49871367  0.00039406  0.00415050  1
  Al0+  Al55  1  0.49892654  0.00011436  0.32706180  1
  Al0+  Al56  1  0.50021571  0.00139359  0.67418742  1
  Al0+  Al57  1  0.49817651  0.49976694  -0.00339217  1
  Al0+  Al58  1  0.50172942  0.50290366  0.34204212  1
  Al0+  Al59  1  0.49840314  0.50110640  0.66306690  1
  Al0+  Al60  1  0.24941344  0.24867266  -0.00231281  1
  Al0+  Al61  1  0.25111454  0.24954219  0.33112685  1
  Al0+  Al62  1  0.24757414  0.24988600  0.67567681  1
  Al0+  Al63  1  0.25003051  0.75023574  0.00246120  1
  Al0+  Al64  1  0.24957898  0.75210597  0.33397217  1
  Al0+  Al65  1  0.24822952  0.74970630  0.66269255  1
  Al0+  Al66  1  0.75010547  0.24727173  -0.00359166  1
  Al0+  Al67  1  0.75196349  0.24948591  0.32539561  1
  Al0+  Al68  1  0.74873644  0.25325267  0.67355471  1
  Al0+  Al69  1  0.74884223  0.74912366  -0.00127286  1
  Al0+  Al70  1  0.74821764  0.75119035  0.34256152  1
  Al0+  Al71  1  0.75097843  0.74870151  0.66127471  1
  Al0+  Al72  1  0.18199615  0.42830881  0.34722312  1
  Al0+  Al73  1  0.67862406  0.92801376  0.01650225  1
  Al0+  Al74  1  0.82313968  0.07219004  0.01777708  1
  Al0+  Al75  1  0.82236885  0.57199672  0.34818182  1
  Al0+  Al76  1  0.67692411  0.93154467  0.34827442  1
  Al0+  Al77  1  0.42950615  0.81978363  0.31824557  1
  Al0+  Al78  1  0.43063290  0.31948141  0.98735993  1
  Al0+  Al79  1  0.57388338  0.67659736  0.64703120  1
  Al0+  Al80  1  0.92941087  0.81941411  0.98711092  1
  Al0+  Al81  1  0.32124924  0.57041762  0.01253974  1
  Al0+  Al82  1  0.92834930  0.32148354  0.98312444  1
  Al0+  Al83  1  0.43020443  0.82212219  0.65230215  1
  Al0+  Al84  1  0.93023651  0.32236306  0.31872573  1
  Al0+  Al85  1  0.82025801  0.56868956  0.01099871  1
  Al0+  Al86  1  0.82284257  0.07224902  0.67966927  1
  Al0+  Al87  1  0.17855950  0.42913423  0.68309802  1
  Al0+  Al88  1  0.57184271  0.17912336  0.32073235  1
  Al0+  Al89  1  0.68012244  0.42587698  0.34573179  1
  Al0+  Al90  1  0.56919384  0.68060531  0.98857473  1
  Al0+  Al91  1  0.32074386  0.06999887  0.67983997  1
  Al0+  Al92  1  0.67694693  0.43089964  0.68127633  1
  Al0+  Al93  1  0.07356373  0.17710514  0.31825718  1
  Al0+  Al94  1  0.67927881  0.92758285  0.68218548  1
  Al0+  Al95  1  0.32351890  0.57538429  0.35098392  1
  Si0+  Si96  1  0.67629985  0.42734004  0.01425658  1
  Si0+  Si97  1  0.07208295  0.17979738  0.65274100  1
  Si0+  Si98  1  0.17819641  0.42645115  0.01787022  1
  Si0+  Si99  1  0.32008984  0.07204049  0.01782250  1
  Si0+  Si100  1  0.57326907  0.67774204  0.31614163  1
  Si0+  Si101  1  0.07440523  0.67763805  0.98354464  1
  Si0+  Si102  1  0.17932766  0.92889422  0.01528595  1
  Si0+  Si103  1  0.31982877  0.06966974  0.34571056  1
  Si0+  Si104  1  0.93015643  0.82297644  0.65043174  1
  Si0+  Si105  1  0.92742222  0.81968846  0.31940453  1
  Si0+  Si106  1  0.42838712  0.32406715  0.32009459  1
  Si0+  Si107  1  0.31974440  0.57304659  0.68331220  1
  Si0+  Si108  1  0.82271721  0.57086216  0.68339605  1
  Si0+  Si109  1  0.56955777  0.18276988  0.65455890  1
  Si0+  Si110  1  0.17682752  0.92567376  0.68338688  1
  Si0+  Si111  1  0.07212282  0.17758616  0.97968054  1
  Si0+  Si112  1  0.57167732  0.17512929  0.98048540  1
  Si0+  Si113  1  0.06985832  0.67800666  0.65075484  1
  Si0+  Si114  1  0.07108654  0.68015993  0.31879592  1
  Si0+  Si115  1  0.42500800  0.32067152  0.65210700  1
  Si0+  Si116  1  0.42498049  0.82354445  0.98369713  1
  Si0+  Si117  1  0.82353333  0.07072419  0.34711588  1
  Si0+  Si118  1  0.17682210  0.92934388  0.34755383  1
  Si0+  Si119  1  0.92867083  0.32060421  0.65180375  1
  O2-  O120  1  0.25138199  -0.00174096  0.05880949  1
  O2-  O121  1  0.24625046  0.00187243  0.38882607  1
  O2-  O122  1  0.24898132  -0.00850487  0.72625615  1
  O2-  O123  1  0.24615312  0.49645241  0.06016401  1
  O2-  O124  1  0.25580027  0.49784914  0.39878716  1
  O2-  O125  1  0.25520348  0.50152440  0.72952498  1
  O2-  O126  1  0.74957102  0.00135734  0.06677171  1
  O2-  O127  1  0.75123011  0.00754937  0.39343692  1
  O2-  O128  1  0.75634219  -0.00453507  0.72995241  1
  O2-  O129  1  0.75023710  0.49019873  0.05791424  1
  O2-  O130  1  0.75201513  0.49777905  0.39673672  1
  O2-  O131  1  0.74788560  0.50930076  0.72722207  1
  O2-  O132  1  0.00132633  0.24859757  0.26895124  1
  O2-  O133  1  -0.00223237  0.24690279  0.61073113  1
  O2-  O134  1  0.00135193  0.24425104  0.93576699  1
  O2-  O135  1  -0.00490994  0.74554506  0.27640171  1
  O2-  O136  1  -0.00052923  0.74990880  0.60805025  1
  O2-  O137  1  0.00266380  0.74311309  0.93879869  1
  O2-  O138  1  0.50269604  0.26087734  0.27654507  1
  O2-  O139  1  0.49860371  0.25291356  0.60946268  1
  O2-  O140  1  0.50540912  0.24676392  0.93694496  1
  O2-  O141  1  0.50158309  0.74327845  0.27146736  1
  O2-  O142  1  0.50335015  0.75260270  0.60035679  1
  O2-  O143  1  0.49536904  0.75663060  0.94136916  1
  O2-  O144  1  0.07542440  0.17871125  0.08492953  1
  O2-  O145  1  0.07289985  0.17587025  0.43241830  1
  O2-  O146  1  0.07435148  0.18043017  0.75749622  1
  O2-  O147  1  0.07675061  0.68140809  0.08913065  1
  O2-  O148  1  0.07149808  0.68408468  0.42431931  1
  O2-  O149  1  0.07097780  0.67923501  0.75577924  1
  O2-  O150  1  0.56847031  0.17449129  0.08633394  1
  O2-  O151  1  0.56767453  0.17655320  0.43448355  1
  O2-  O152  1  0.56682174  0.18513871  0.75935124  1
  O2-  O153  1  0.56844747  0.67944174  0.10156575  1
  O2-  O154  1  0.57371369  0.68057743  0.42136924  1
  O2-  O155  1  0.57109485  0.67598649  0.76111059  1
  O2-  O156  1  0.18260557  0.43091631  0.23369166  1
  O2-  O157  1  0.17850229  0.42803863  0.57029074  1
  O2-  O158  1  0.17962099  0.42728125  0.91179159  1
  O2-  O159  1  0.17697745  0.92750467  0.24245276  1
  O2-  O160  1  0.17263178  0.92767891  0.57779767  1
  O2-  O161  1  0.17957881  0.92898409  0.91015157  1
  O2-  O162  1  0.67908323  0.42765232  0.23211539  1
  O2-  O163  1  0.68220174  0.42442282  0.56877655  1
  O2-  O164  1  0.67487509  0.43152326  0.90840537  1
  O2-  O165  1  0.67869573  0.92955254  0.23558892  1
  O2-  O166  1  0.67760779  0.93327159  0.56838821  1
  O2-  O167  1  0.68031783  0.92739140  0.90301733  1
  O2-  O168  1  0.43159991  0.31826878  0.10053831  1
  O2-  O169  1  0.42341173  0.31742777  0.42580034  1
  O2-  O170  1  0.42463841  0.31871796  0.75732822  1
  O2-  O171  1  0.42211528  0.82220939  0.08928177  1
  O2-  O172  1  0.42982123  0.82347984  0.43104486  1
  O2-  O173  1  0.42812066  0.81924467  0.76591715  1
  O2-  O174  1  0.93238415  0.32433950  0.09566253  1
  O2-  O175  1  0.93057311  0.31945199  0.43309216  1
  O2-  O176  1  0.93035496  0.32127820  0.75680890  1
  O2-  O177  1  0.93135998  0.81753634  0.10045912  1
  O2-  O178  1  0.93231277  0.82210531  0.42473801  1
  O2-  O179  1  0.93214470  0.82270704  0.75552430  1
  O2-  O180  1  0.31909471  0.06809717  0.24051588  1
  O2-  O181  1  0.31842577  0.07280414  0.56649753  1
  O2-  O182  1  0.31901744  0.07256404  0.91266343  1
  O2-  O183  1  0.32066505  0.57502510  0.23691931  1
  O2-  O184  1  0.31520303  0.57281377  0.57811245  1
  O2-  O185  1  0.31864923  0.56921485  0.89931974  1
  O2-  O186  1  0.82511167  0.06603381  0.24211174  1
  O2-  O187  1  0.82217370  0.07235760  0.56566713  1
  O2-  O188  1  0.82185574  0.06851078  0.90397372  1
  O2-  O189  1  0.82078709  0.57356894  0.23441387  1
  O2-  O190  1  0.82829392  0.56586280  0.57815365  1
  O2-  O191  1  0.81794083  0.56938127  0.89789287  1
  O2-  O192  1  0.04828947  0.07745934  0.26500800  1
  O2-  O193  1  0.05174126  0.08560806  0.60568797  1
  O2-  O194  1  0.05147464  0.08249145  0.93430348  1
  O2-  O195  1  0.05109816  0.58669361  0.27272616  1
  O2-  O196  1  0.03958862  0.58637048  0.60385986  1
  O2-  O197  1  0.05367633  0.58286050  0.93865045  1
  O2-  O198  1  0.53246802  0.08789206  0.26230437  1
  O2-  O199  1  0.54108670  0.09022146  0.60935747  1
  O2-  O200  1  0.53975920  0.08284756  0.93503836  1
  O2-  O201  1  0.55134887  0.58194123  0.27268026  1
  O2-  O202  1  0.54218566  0.57870177  0.59386851  1
  O2-  O203  1  0.53650987  0.58545647  0.93236116  1
  O2-  O204  1  0.17206655  0.20444125  0.26405492  1
  O2-  O205  1  0.16313033  0.21143422  0.60561346  1
  O2-  O206  1  0.16518326  0.20528537  0.93249841  1
  O2-  O207  1  0.16004586  0.71436973  0.26981646  1
  O2-  O208  1  0.16051046  0.70531179  0.60075533  1
  O2-  O209  1  0.16563203  0.70929437  0.93503361  1
  O2-  O210  1  0.66821478  0.20277493  0.26364560  1
  O2-  O211  1  0.66148441  0.21168042  0.60779502  1
  O2-  O212  1  0.66631438  0.19534223  0.93559093  1
  O2-  O213  1  0.66672795  0.70826477  0.27217485  1
  O2-  O214  1  0.67455217  0.69847604  0.59556335  1
  O2-  O215  1  0.66466439  0.71020853  0.93190260  1
  O2-  O216  1  0.08428402  0.45160906  0.06175286  1
  O2-  O217  1  0.08586308  0.45952703  0.40296842  1
  O2-  O218  1  0.08315576  0.46312790  0.73760094  1
  O2-  O219  1  0.08849098  0.95753330  0.06364354  1
  O2-  O220  1  0.08483115  0.95476301  0.39648779  1
  O2-  O221  1  0.08598330  0.95580116  0.73273890  1
  O2-  O222  1  0.58463003  0.45688746  0.06085691  1
  O2-  O223  1  0.58216174  0.45097509  0.40173565  1
  O2-  O224  1  0.57718445  0.45664427  0.73215663  1
  O2-  O225  1  0.57879884  0.95513772  0.06823775  1
  O2-  O226  1  0.57989302  0.96536447  0.39931808  1
  O2-  O227  1  0.58363269  0.95916133  0.73762703  1
  O2-  O228  1  0.20449675  0.33233160  0.06127845  1
  O2-  O229  1  0.20902061  0.32871229  0.40015137  1
  O2-  O230  1  0.20720477  0.33375818  0.73989257  1
  O2-  O231  1  0.20461269  0.83709602  0.06423181  1
  O2-  O232  1  0.20514428  0.83918273  0.39730533  1
  O2-  O233  1  0.19808609  0.83074825  0.72839240  1
  O2-  O234  1  0.69520898  0.33022672  0.05411209  1
  O2-  O235  1  0.70896805  0.32628220  0.39780254  1
  O2-  O236  1  0.70973229  0.33718252  0.73938016  1
  O2-  O237  1  0.71057444  0.83069061  0.06901964  1
  O2-  O238  1  0.70841818  0.83710153  0.40469552  1
  O2-  O239  1  0.70647014  0.82657434  0.72946983  1
  O2-  O240  1  0.44846271  0.42096545  0.27919365  1
  O2-  O241  1  0.44634475  0.41396204  0.60598888  1
  O2-  O242  1  0.45849446  0.41514257  0.93020270  1
  O2-  O243  1  0.45922901  0.91546289  0.26193028  1
  O2-  O244  1  0.45603153  0.92384923  0.60326823  1
  O2-  O245  1  0.44765274  0.91940510  0.94108572  1
  O2-  O246  1  0.96243707  0.42104246  0.26764492  1
  O2-  O247  1  0.95982002  0.41198935  0.60578037  1
  O2-  O248  1  0.96157301  0.41706790  0.92685047  1
  O2-  O249  1  0.95912861  0.90896918  0.26981726  1
  O2-  O250  1  0.96178373  0.91397412  0.60306670  1
  O2-  O251  1  0.96461326  0.91452722  0.93223128  1
  O2-  O252  1  0.33875243  0.29245790  0.26970110  1
  O2-  O253  1  0.33370165  0.28747822  0.60680020  1
  O2-  O254  1  0.33409496  0.28651081  0.93282260  1
  O2-  O255  1  0.33025443  0.79352115  0.26593108  1
  O2-  O256  1  0.32951129  0.79617610  0.60017502  1
  O2-  O257  1  0.33118616  0.79861940  0.93739219  1
  O2-  O258  1  0.83327938  0.29659686  0.26216789  1
  O2-  O259  1  0.83559696  0.29408713  0.60649878  1
  O2-  O260  1  0.83050048  0.29283090  0.92932697  1
  O2-  O261  1  0.83401950  0.79375814  0.27513335  1
  O2-  O262  1  0.83880089  0.79766031  0.60147653  1
  O2-  O263  1  0.83453670  0.78764874  0.93118497  1
  O2-  O264  1  0.41214745  0.04753927  0.06564748  1
  O2-  O265  1  0.41005229  0.03854794  0.39340515  1
  O2-  O266  1  0.41552937  0.04348449  0.73905375  1
  O2-  O267  1  0.41636579  0.53686025  0.06727500  1
  O2-  O268  1  0.42311439  0.55567170  0.40310055  1
  O2-  O269  1  0.41512309  0.55055701  0.72561068  1
  O2-  O270  1  0.92369641  0.04570988  0.06652215  1
  O2-  O271  1  0.91615839  0.04098731  0.39417736  1
  O2-  O272  1  0.92371771  0.04996377  0.73091408  1
  O2-  O273  1  0.92003208  0.54395958  0.06224602  1
  O2-  O274  1  0.92223003  0.54830122  0.40027290  1
  O2-  O275  1  0.91350785  0.54098277  0.73275165  1
  O2-  O276  1  0.28844762  0.16259582  0.06527557  1
  O2-  O277  1  0.29580984  0.16198216  0.39356476  1
  O2-  O278  1  0.28499480  0.16284794  0.73852326  1
  O2-  O279  1  0.29143011  0.66745812  0.06661033  1
  O2-  O280  1  0.28647150  0.67144325  0.40353841  1
  O2-  O281  1  0.28927518  0.66551358  0.72927023  1
  O2-  O282  1  0.79537049  0.17217138  0.06769549  1
  O2-  O283  1  0.80338559  0.16690294  0.38855889  1
  O2-  O284  1  0.79040304  0.16825764  0.73433322  1
  O2-  O285  1  0.78817915  0.66424229  0.06506838  1
  O2-  O286  1  0.79424914  0.66891321  0.40462175  1
  O2-  O287  1  0.80464561  0.66823461  0.72374404  1
