# generated using pymatgen
data_Ca2Al2SiO7
_symmetry_space_group_name_H-M   'P 1'
_cell_length_a   15.45318949
_cell_length_b   15.45290097
_cell_length_c   15.28034847
_cell_angle_alpha   89.99111014
_cell_angle_beta   90.00268486
_cell_angle_gamma   90.00479335
_symmetry_Int_Tables_number   1
_chemical_formula_structural   Ca2Al2SiO7
_chemical_formula_sum   'Ca48 Al48 Si24 O168'
_cell_volume   3648.89530577
_cell_formula_units_Z   24
loop_
 _symmetry_equiv_pos_site_id
 _symmetry_equiv_pos_as_xyz
  1  'x, y, z'
loop_
 _atom_type_symbol
 _atom_type_oxidation_number
  Ca2+  2.0
  Al0+  0.0
  Si0+  0.0
  O2-  -2.0
loop_
 _atom_site_type_symbol
 _atom_site_label
 _atom_site_symmetry_multiplicity
 _atom_site_fract_x
 _atom_site_fract_y
 _atom_site_fract_z
 _atom_site_occupancy
  Ca2+  Ca0  1  0.15900105  0.07078984  0.16670398  1
  Ca2+  Ca1  1  0.16155027  0.07854810  0.50376015  1
  Ca2+  Ca2  1  0.16084824  0.08044246  0.84336951  1
  Ca2+  Ca3  1  0.17720002  0.59761688  0.17060232  1
  Ca2+  Ca4  1  0.16931802  0.57994462  0.50075468  1
  Ca2+  Ca5  1  0.16885699  0.57791340  0.84246914  1
  Ca2+  Ca6  1  0.67598499  0.08612030  0.17338031  1
  Ca2+  Ca7  1  0.67679084  0.08437991  0.50574746  1
  Ca2+  Ca8  1  0.67898753  0.07786690  0.83800569  1
  Ca2+  Ca9  1  0.67773839  0.58378244  0.17102434  1
  Ca2+  Ca10  1  0.66883563  0.57334966  0.50578522  1
  Ca2+  Ca11  1  0.66460951  0.58394894  0.83874713  1
  Ca2+  Ca12  1  0.07445865  0.32824312  0.16148209  1
  Ca2+  Ca13  1  0.07781641  0.32994138  0.49590715  1
  Ca2+  Ca14  1  0.08559137  0.32203393  0.82578764  1
  Ca2+  Ca15  1  0.08262686  0.82698052  0.15836163  1
  Ca2+  Ca16  1  0.08224420  0.82809577  0.49085302  1
  Ca2+  Ca17  1  0.08002194  0.83150588  0.83921285  1
  Ca2+  Ca18  1  0.58397690  0.33319656  0.16623578  1
  Ca2+  Ca19  1  0.59314455  0.33064166  0.49211855  1
  Ca2+  Ca20  1  0.57699141  0.34010684  0.83139570  1
  Ca2+  Ca21  1  0.57379959  0.82564564  0.15423335  1
  Ca2+  Ca22  1  0.58791822  0.82982882  0.49970184  1
  Ca2+  Ca23  1  0.58841370  0.82206931  0.82927491  1
  Ca2+  Ca24  1  0.33538430  0.42606120  0.16699137  1
  Ca2+  Ca25  1  0.32754209  0.42247372  0.50389932  1
  Ca2+  Ca26  1  0.32912039  0.41954066  0.84098599  1
  Ca2+  Ca27  1  0.31989245  0.90329832  0.16726029  1
  Ca2+  Ca28  1  0.32683838  0.91751279  0.49933805  1
  Ca2+  Ca29  1  0.32773854  0.91531503  0.84242482  1
  Ca2+  Ca30  1  0.83345551  0.42721284  0.17547801  1
  Ca2+  Ca31  1  0.82726745  0.41594058  0.49804091  1
  Ca2+  Ca32  1  0.82495408  0.42325475  0.83872267  1
  Ca2+  Ca33  1  0.84314266  0.92690036  0.16717035  1
  Ca2+  Ca34  1  0.82966325  0.92958381  0.50711771  1
  Ca2+  Ca35  1  0.83529107  0.92231154  0.83841563  1
  Ca2+  Ca36  1  0.42437174  0.17385396  0.16086706  1
  Ca2+  Ca37  1  0.42749885  0.17055312  0.49163269  1
  Ca2+  Ca38  1  0.41306204  0.17583463  0.83104205  1
  Ca2+  Ca39  1  0.41943652  0.66483136  0.15562848  1
  Ca2+  Ca40  1  0.42147838  0.66252451  0.49749361  1
  Ca2+  Ca41  1  0.42437413  0.66740614  0.83607879  1
  Ca2+  Ca42  1  0.91268495  0.17122116  0.16252803  1
  Ca2+  Ca43  1  0.91267141  0.17002027  0.49518614  1
  Ca2+  Ca44  1  0.92496588  0.15642409  0.83193480  1
  Ca2+  Ca45  1  0.92482381  0.66690022  0.15713824  1
  Ca2+  Ca46  1  0.92240842  0.66531255  0.48997470  1
  Ca2+  Ca47  1  0.91375581  0.66985680  0.83564285  1
  Al0+  Al48  1  -0.00012418  -0.00036045  0.00153688  1
  Al0+  Al49  1  -0.00002746  -0.00117167  0.34381392  1
  Al0+  Al50  1  0.00153754  -0.00079519  0.66429052  1
  Al0+  Al51  1  -0.00161738  0.49758025  -0.00117546  1
  Al0+  Al52  1  0.00215856  0.49947970  0.32781773  1
  Al0+  Al53  1  0.00089098  0.49889602  0.67039611  1
  Al0+  Al54  1  0.49988131  0.00131264  -0.00378072  1
  Al0+  Al55  1  0.49884694  0.00013538  0.32726017  1
  Al0+  Al56  1  0.49876881  -0.00000531  0.66955219  1
  Al0+  Al57  1  0.49761910  0.49792443  -0.00362278  1
  Al0+  Al58  1  0.49889460  0.50021717  0.34095850  1
  Al0+  Al59  1  0.49972565  0.50244971  0.66508560  1
  Al0+  Al60  1  0.25052513  0.24932688  -0.00484016  1
  Al0+  Al61  1  0.25126033  0.24907137  0.33159303  1
  Al0+  Al62  1  0.24909759  0.25003817  0.66244041  1
  Al0+  Al63  1  0.24997177  0.74884131  -0.00251720  1
  Al0+  Al64  1  0.25014170  0.75000506  0.34215779  1
  Al0+  Al65  1  0.25116196  0.75112605  0.66594052  1
  Al0+  Al66  1  0.74917360  0.24937710  0.00203197  1
  Al0+  Al67  1  0.75112573  0.24991297  0.33069928  1
  Al0+  Al68  1  0.75084968  0.25196213  0.67790259  1
  Al0+  Al69  1  0.75029055  0.75002567  -0.00236644  1
  Al0+  Al70  1  0.75074602  0.75135764  0.33512013  1
  Al0+  Al71  1  0.74985807  0.75051030  0.66174858  1
  Al0+  Al72  1  0.67822454  0.43021690  0.68218284  1
  Al0+  Al73  1  0.82469871  0.57360952  0.34788781  1
  Al0+  Al74  1  0.57173544  0.17938161  0.32041292  1
  Al0+  Al75  1  0.57078818  0.67997582  0.64937969  1
  Al0+  Al76  1  0.57158113  0.67859972  0.98663439  1
  Al0+  Al77  1  0.31827030  0.56850878  0.01194010  1
  Al0+  Al78  1  0.32014834  0.57056179  0.34831139  1
  Al0+  Al79  1  0.18146177  0.93050510  0.01241672  1
  Al0+  Al80  1  0.17924835  0.42865216  0.67995202  1
  Al0+  Al81  1  0.92966262  0.82151365  0.98577528  1
  Al0+  Al82  1  0.93000232  0.31954344  0.31976949  1
  Al0+  Al83  1  0.07031532  0.17852197  0.65058672  1
  Al0+  Al84  1  0.42718635  0.82225120  0.98506726  1
  Al0+  Al85  1  0.82020223  0.06910093  0.01589515  1
  Al0+  Al86  1  0.82246308  0.07096503  0.68398443  1
  Al0+  Al87  1  0.18049959  0.93072825  0.34850613  1
  Al0+  Al88  1  0.43037860  0.31931874  0.98641548  1
  Al0+  Al89  1  0.82108733  0.57188638  0.01327430  1
  Al0+  Al90  1  0.67786132  0.92763621  0.68184207  1
  Al0+  Al91  1  0.81923272  0.07027991  0.34738391  1
  Al0+  Al92  1  0.07184767  0.67641853  0.98406699  1
  Al0+  Al93  1  0.68065346  0.43110086  0.34673782  1
  Al0+  Al94  1  0.06773775  0.18071346  0.98893034  1
  Al0+  Al95  1  0.07149328  0.68004200  0.32074404  1
  Si0+  Si96  1  0.93030062  0.82027478  0.64952644  1
  Si0+  Si97  1  0.32395765  0.07400398  0.34894870  1
  Si0+  Si98  1  0.42640235  0.82381338  0.64714497  1
  Si0+  Si99  1  0.82298455  0.57307997  0.68246430  1
  Si0+  Si100  1  0.67339960  0.92788933  0.34795568  1
  Si0+  Si101  1  0.32413304  0.07505831  0.01675391  1
  Si0+  Si102  1  0.67599618  0.92739498  0.01713352  1
  Si0+  Si103  1  0.07215476  0.67773201  0.65160002  1
  Si0+  Si104  1  0.57451835  0.17759587  0.98055284  1
  Si0+  Si105  1  0.42906710  0.81981824  0.31958109  1
  Si0+  Si106  1  0.07318143  0.17524498  0.31730648  1
  Si0+  Si107  1  0.57117057  0.18022931  0.65443588  1
  Si0+  Si108  1  0.92760439  0.82322680  0.31864699  1
  Si0+  Si109  1  0.17780855  0.42402013  0.34808789  1
  Si0+  Si110  1  0.57112572  0.67791527  0.31982154  1
  Si0+  Si111  1  0.32092215  0.57259233  0.68518067  1
  Si0+  Si112  1  0.32092349  0.07156702  0.68068537  1
  Si0+  Si113  1  0.42701623  0.32382154  0.31753577  1
  Si0+  Si114  1  0.42898406  0.32151860  0.64965999  1
  Si0+  Si115  1  0.18012576  0.92874266  0.68275955  1
  Si0+  Si116  1  0.67656859  0.42878754  0.01711206  1
  Si0+  Si117  1  0.92490343  0.32258141  0.98132030  1
  Si0+  Si118  1  0.17707552  0.42447099  0.01676106  1
  Si0+  Si119  1  0.92694177  0.32334519  0.65117637  1
  O2-  O120  1  0.25943254  0.00229090  0.06027144  1
  O2-  O121  1  0.25241348  0.00906868  0.39472644  1
  O2-  O122  1  0.24989939  0.00123341  0.72363536  1
  O2-  O123  1  0.23995194  0.49840869  0.06111935  1
  O2-  O124  1  0.24623993  0.49348543  0.39214317  1
  O2-  O125  1  0.25139693  0.50457625  0.72828717  1
  O2-  O126  1  0.74354333  -0.00375209  0.06294859  1
  O2-  O127  1  0.74330405  -0.00441583  0.39195610  1
  O2-  O128  1  0.75040818  -0.00180263  0.73258982  1
  O2-  O129  1  0.74647247  0.49667196  0.05977505  1
  O2-  O130  1  0.75076996  0.50412752  0.39870499  1
  O2-  O131  1  0.75226474  0.50628314  0.72659171  1
  O2-  O132  1  0.00556601  0.24462053  0.27362380  1
  O2-  O133  1  -0.00563763  0.25301023  0.60654526  1
  O2-  O134  1  -0.00485471  0.25510991  0.93792577  1
  O2-  O135  1  -0.00760903  0.75061895  0.27538555  1
  O2-  O136  1  0.00038329  0.74744321  0.60835715  1
  O2-  O137  1  -0.00255880  0.74595476  0.93374153  1
  O2-  O138  1  0.49610046  0.25444268  0.27539031  1
  O2-  O139  1  0.50346956  0.25334759  0.60873218  1
  O2-  O140  1  0.50397505  0.24477230  0.93683937  1
  O2-  O141  1  0.50247288  0.75128033  0.27809028  1
  O2-  O142  1  0.49664795  0.75650308  0.60310012  1
  O2-  O143  1  0.50311979  0.75429908  0.93585309  1
  O2-  O144  1  0.06651583  0.18138688  0.10211069  1
  O2-  O145  1  0.07355525  0.17740908  0.42311789  1
  O2-  O146  1  0.07212325  0.17813942  0.76360257  1
  O2-  O147  1  0.07367852  0.68089588  0.09764456  1
  O2-  O148  1  0.07184686  0.68241409  0.43489141  1
  O2-  O149  1  0.07333954  0.67879187  0.75616773  1
  O2-  O150  1  0.57471497  0.17869940  0.08632396  1
  O2-  O151  1  0.57022781  0.17963569  0.43436096  1
  O2-  O152  1  0.56632692  0.18043155  0.75918666  1
  O2-  O153  1  0.56963602  0.67806434  0.10088859  1
  O2-  O154  1  0.56948313  0.67912846  0.42504223  1
  O2-  O155  1  0.56858283  0.67874843  0.76200676  1
  O2-  O156  1  0.18002445  0.41936375  0.24298555  1
  O2-  O157  1  0.18082903  0.43014701  0.56650821  1
  O2-  O158  1  0.18117766  0.42280326  0.91083216  1
  O2-  O159  1  0.18124317  0.92914610  0.23578210  1
  O2-  O160  1  0.18179793  0.92813868  0.57745972  1
  O2-  O161  1  0.18130914  0.93364537  0.89888590  1
  O2-  O162  1  0.67910980  0.43344479  0.23333651  1
  O2-  O163  1  0.67995525  0.42819545  0.56932484  1
  O2-  O164  1  0.67694498  0.42935703  0.91108743  1
  O2-  O165  1  0.67050610  0.92814880  0.24268052  1
  O2-  O166  1  0.67926640  0.93101520  0.56763302  1
  O2-  O167  1  0.67661540  0.92956554  0.91159116  1
  O2-  O168  1  0.43194304  0.31917166  0.09960946  1
  O2-  O169  1  0.42482854  0.32175734  0.42346064  1
  O2-  O170  1  0.42763830  0.31933729  0.75473436  1
  O2-  O171  1  0.42716838  0.81830508  0.09941311  1
  O2-  O172  1  0.42976955  0.82124765  0.42492363  1
  O2-  O173  1  0.42199442  0.82307766  0.75192336  1
  O2-  O174  1  0.92507503  0.32174480  0.08708293  1
  O2-  O175  1  0.93014546  0.31788390  0.43331039  1
  O2-  O176  1  0.92932603  0.32562732  0.75652298  1
  O2-  O177  1  0.93328379  0.82332145  0.09942360  1
  O2-  O178  1  0.93032515  0.82406162  0.42474043  1
  O2-  O179  1  0.93144059  0.82125541  0.75433818  1
  O2-  O180  1  0.32563212  0.07461587  0.24397178  1
  O2-  O181  1  0.32219487  0.07025480  0.57536872  1
  O2-  O182  1  0.32085576  0.07736944  0.91066215  1
  O2-  O183  1  0.32167520  0.57147062  0.23543459  1
  O2-  O184  1  0.31954424  0.57179987  0.57912077  1
  O2-  O185  1  0.31897699  0.56516664  0.89882716  1
  O2-  O186  1  0.82021889  0.06896160  0.23436263  1
  O2-  O187  1  0.81998592  0.07188356  0.57007644  1
  O2-  O188  1  0.82062937  0.06756542  0.90303878  1
  O2-  O189  1  0.82263974  0.57347257  0.23450485  1
  O2-  O190  1  0.82459037  0.57162229  0.57689361  1
  O2-  O191  1  0.81941099  0.56930338  0.89976403  1
  O2-  O192  1  0.04578913  0.08037201  0.27574483  1
  O2-  O193  1  0.04187411  0.08099423  0.59653279  1
  O2-  O194  1  0.03622981  0.08504104  0.93390022  1
  O2-  O195  1  0.05060424  0.58200803  0.26637356  1
  O2-  O196  1  0.04576145  0.58472107  0.60534042  1
  O2-  O197  1  0.04636350  0.57611535  0.93305011  1
  O2-  O198  1  0.54044502  0.08402533  0.26361080  1
  O2-  O199  1  0.54105362  0.08886457  0.60671464  1
  O2-  O200  1  0.55152823  0.08357279  0.93478262  1
  O2-  O201  1  0.54004050  0.58641091  0.27476588  1
  O2-  O202  1  0.53655283  0.58404572  0.59455698  1
  O2-  O203  1  0.53896224  0.58200449  0.93259485  1
  O2-  O204  1  0.16829957  0.19706896  0.27234706  1
  O2-  O205  1  0.16695740  0.20937443  0.59525058  1
  O2-  O206  1  0.16496247  0.20785024  0.93359252  1
  O2-  O207  1  0.16809685  0.71713042  0.27053273  1
  O2-  O208  1  0.16410343  0.70759367  0.60435772  1
  O2-  O209  1  0.16811965  0.70768039  0.92920263  1
  O2-  O210  1  0.66590598  0.21139240  0.26389614  1
  O2-  O211  1  0.66512175  0.20739035  0.61102369  1
  O2-  O212  1  0.66709150  0.20577900  0.93392921  1
  O2-  O213  1  0.66457825  0.70316259  0.27408379  1
  O2-  O214  1  0.66784224  0.70877248  0.59403701  1
  O2-  O215  1  0.66940715  0.70465904  0.93171611  1
  O2-  O216  1  0.08036177  0.44211377  0.05833643  1
  O2-  O217  1  0.08494152  0.45083135  0.39409798  1
  O2-  O218  1  0.08266944  0.45586022  0.73550290  1
  O2-  O219  1  0.08688262  0.96425514  0.06783441  1
  O2-  O220  1  0.08536567  0.95840611  0.40737656  1
  O2-  O221  1  0.08780309  0.95542286  0.72805758  1
  O2-  O222  1  0.58252321  0.45320692  0.06155549  1
  O2-  O223  1  0.58204450  0.45514446  0.40211174  1
  O2-  O224  1  0.58025488  0.46121098  0.73363207  1
  O2-  O225  1  0.58094481  0.95249547  0.06172668  1
  O2-  O226  1  0.57978371  0.95359000  0.39457266  1
  O2-  O227  1  0.57840932  0.95393864  0.73370192  1
  O2-  O228  1  0.20935163  0.33318544  0.06352483  1
  O2-  O229  1  0.20417304  0.33086132  0.39659141  1
  O2-  O230  1  0.21265150  0.33180115  0.73223139  1
  O2-  O231  1  0.21108620  0.83326684  0.06566110  1
  O2-  O232  1  0.21624575  0.83783768  0.40718287  1
  O2-  O233  1  0.20907838  0.83699201  0.72946181  1
  O2-  O234  1  0.70075977  0.33423123  0.06175628  1
  O2-  O235  1  0.71199528  0.33294502  0.39868147  1
  O2-  O236  1  0.70669322  0.33566698  0.74081658  1
  O2-  O237  1  0.69982145  0.83318244  0.06184779  1
  O2-  O238  1  0.69834017  0.83425534  0.39457262  1
  O2-  O239  1  0.70674389  0.82815873  0.73152033  1
  O2-  O240  1  0.45416074  0.41765840  0.27308903  1
  O2-  O241  1  0.45271291  0.41491981  0.60415855  1
  O2-  O242  1  0.46055681  0.41368082  0.92802500  1
  O2-  O243  1  0.45115794  0.91195385  0.27017996  1
  O2-  O244  1  0.44984045  0.91899249  0.60197418  1
  O2-  O245  1  0.44771366  0.92371410  0.93412049  1
  O2-  O246  1  0.96099457  0.41483926  0.26309172  1
  O2-  O247  1  0.95461082  0.41647142  0.60409807  1
  O2-  O248  1  0.94811388  0.41596754  0.93455680  1
  O2-  O249  1  0.95903261  0.91621120  0.27465659  1
  O2-  O250  1  0.96157993  0.91066323  0.60080749  1
  O2-  O251  1  0.96420178  0.91714397  0.93070674  1
  O2-  O252  1  0.33424237  0.29816505  0.26955002  1
  O2-  O253  1  0.33932001  0.28998865  0.60012897  1
  O2-  O254  1  0.33503548  0.28812777  0.92908725  1
  O2-  O255  1  0.33771260  0.78752451  0.27511376  1
  O2-  O256  1  0.33350433  0.79519468  0.59880918  1
  O2-  O257  1  0.33155233  0.79061992  0.92950156  1
  O2-  O258  1  0.83542857  0.28787230  0.26320211  1
  O2-  O259  1  0.83196185  0.29706033  0.60796916  1
  O2-  O260  1  0.83096392  0.29610997  0.93654905  1
  O2-  O261  1  0.83170964  0.80550613  0.27387179  1
  O2-  O262  1  0.83846890  0.79554803  0.60080368  1
  O2-  O263  1  0.83062449  0.79725647  0.93233002  1
  O2-  O264  1  0.42051804  0.05575541  0.05968201  1
  O2-  O265  1  0.41615183  0.04350852  0.39642425  1
  O2-  O266  1  0.41172668  0.04556915  0.73062012  1
  O2-  O267  1  0.41403820  0.53365905  0.06599351  1
  O2-  O268  1  0.41459910  0.53950892  0.40659781  1
  O2-  O269  1  0.41425041  0.54532845  0.72918562  1
  O2-  O270  1  0.91577948  0.03714118  0.07036533  1
  O2-  O271  1  0.91431890  0.04050405  0.40502767  1
  O2-  O272  1  0.92157034  0.03842909  0.73322491  1
  O2-  O273  1  0.91829891  0.54066815  0.06670074  1
  O2-  O274  1  0.92364052  0.54277895  0.39866990  1
  O2-  O275  1  0.91569497  0.54696520  0.72998228  1
  O2-  O276  1  0.29519443  0.16726531  0.06380338  1
  O2-  O277  1  0.30302887  0.16878499  0.39574773  1
  O2-  O278  1  0.29347823  0.16410069  0.72638776  1
  O2-  O279  1  0.29139632  0.66613638  0.06564277  1
  O2-  O280  1  0.28814241  0.66425405  0.40722525  1
  O2-  O281  1  0.29645939  0.66749445  0.72850998  1
  O2-  O282  1  0.78969790  0.16710011  0.06810279  1
  O2-  O283  1  0.78680247  0.16608327  0.40089338  1
  O2-  O284  1  0.79616586  0.16849418  0.73869509  1
  O2-  O285  1  0.79241580  0.66931416  0.06676508  1
  O2-  O286  1  0.79996503  0.67366285  0.40016019  1
  O2-  O287  1  0.79822465  0.66773130  0.72542727  1
