# generated using pymatgen
data_Ca2Al2SiO7
_symmetry_space_group_name_H-M   'P 1'
_cell_length_a   15.45976968
_cell_length_b   15.45915415
_cell_length_c   15.28443034
_cell_angle_alpha   89.99797379
_cell_angle_beta   89.99934748
_cell_angle_gamma   89.98153843
_symmetry_Int_Tables_number   1
_chemical_formula_structural   Ca2Al2SiO7
_chemical_formula_sum   'Ca48 Al48 Si24 O168'
_cell_volume   3652.90166486
_cell_formula_units_Z   24
loop_
 _symmetry_equiv_pos_site_id
 _symmetry_equiv_pos_as_xyz
  1  'x, y, z'
loop_
 _atom_type_symbol
 _atom_type_oxidation_number
  Ca2+  2.0
  Al0+  0.0
  Si0+  0.0
  O2-  -2.0
loop_
 _atom_site_type_symbol
 _atom_site_label
 _atom_site_symmetry_multiplicity
 _atom_site_fract_x
 _atom_site_fract_y
 _atom_site_fract_z
 _atom_site_occupancy
  Ca2+  Ca0  1  0.16670263  0.08234408  0.17293187  1
  Ca2+  Ca1  1  0.17363699  0.08682484  0.50471777  1
  Ca2+  Ca2  1  0.17703392  0.08486175  0.83663091  1
  Ca2+  Ca3  1  0.17411013  0.58784308  0.16519954  1
  Ca2+  Ca4  1  0.16810447  0.57634397  0.50987705  1
  Ca2+  Ca5  1  0.16698715  0.58427262  0.83891664  1
  Ca2+  Ca6  1  0.66386005  0.08208890  0.16904130  1
  Ca2+  Ca7  1  0.66309963  0.07543058  0.50699544  1
  Ca2+  Ca8  1  0.67515315  0.07933960  0.83708357  1
  Ca2+  Ca9  1  0.66890845  0.59378621  0.16912519  1
  Ca2+  Ca10  1  0.66445627  0.57567613  0.50365408  1
  Ca2+  Ca11  1  0.66583098  0.57765969  0.84159843  1
  Ca2+  Ca12  1  0.07894082  0.32806832  0.16938648  1
  Ca2+  Ca13  1  0.07355283  0.33002082  0.49618428  1
  Ca2+  Ca14  1  0.07523378  0.33807833  0.82474658  1
  Ca2+  Ca15  1  0.07553056  0.82833030  0.15481784  1
  Ca2+  Ca16  1  0.08394698  0.82717945  0.50037363  1
  Ca2+  Ca17  1  0.07846802  0.82162520  0.83301406  1
  Ca2+  Ca18  1  0.57659020  0.32442456  0.16107645  1
  Ca2+  Ca19  1  0.58161279  0.32589513  0.49113383  1
  Ca2+  Ca20  1  0.58328219  0.33131364  0.83215720  1
  Ca2+  Ca21  1  0.57831732  0.82894297  0.16314695  1
  Ca2+  Ca22  1  0.57830092  0.83862966  0.49399079  1
  Ca2+  Ca23  1  0.57802572  0.83151446  0.83007006  1
  Ca2+  Ca24  1  0.34514640  0.42047963  0.16745015  1
  Ca2+  Ca25  1  0.32736644  0.41433799  0.50775567  1
  Ca2+  Ca26  1  0.32480401  0.42020568  0.84412258  1
  Ca2+  Ca27  1  0.33753458  0.91127035  0.16964098  1
  Ca2+  Ca28  1  0.34094857  0.92229056  0.50766067  1
  Ca2+  Ca29  1  0.33912760  0.91510890  0.83405970  1
  Ca2+  Ca30  1  0.83507878  0.42365028  0.16829358  1
  Ca2+  Ca31  1  0.82947587  0.41090190  0.50820888  1
  Ca2+  Ca32  1  0.82806049  0.41848624  0.83565738  1
  Ca2+  Ca33  1  0.82764085  0.91887786  0.17134658  1
  Ca2+  Ca34  1  0.81799068  0.92527016  0.50840830  1
  Ca2+  Ca35  1  0.83448282  0.92481715  0.84095151  1
  Ca2+  Ca36  1  0.42897197  0.17455676  0.16211982  1
  Ca2+  Ca37  1  0.42022017  0.17126909  0.49171597  1
  Ca2+  Ca38  1  0.42267362  0.16600353  0.83190548  1
  Ca2+  Ca39  1  0.42753499  0.67297967  0.15757357  1
  Ca2+  Ca40  1  0.42563310  0.67910906  0.49300774  1
  Ca2+  Ca41  1  0.41524829  0.67419456  0.83367200  1
  Ca2+  Ca42  1  0.91672164  0.16771597  0.16334890  1
  Ca2+  Ca43  1  0.91372952  0.17608412  0.49675010  1
  Ca2+  Ca44  1  0.91180567  0.16819397  0.82652315  1
  Ca2+  Ca45  1  0.91947464  0.67346552  0.15313892  1
  Ca2+  Ca46  1  0.92454926  0.66227542  0.49916732  1
  Ca2+  Ca47  1  0.92386185  0.66064976  0.83234328  1
  Al0+  Al48  1  0.00056635  0.00069044  0.00052271  1
  Al0+  Al49  1  0.00101376  -0.00027405  0.33514112  1
  Al0+  Al50  1  0.00225980  -0.00162467  0.66798365  1
  Al0+  Al51  1  -0.00101940  0.49763386  0.00330222  1
  Al0+  Al52  1  0.00182561  0.49983417  0.33026749  1
  Al0+  Al53  1  0.00040202  0.49828406  0.66096518  1
  Al0+  Al54  1  0.50051585  0.00191632  -0.00575535  1
  Al0+  Al55  1  0.49898360  0.00076543  0.32990233  1
  Al0+  Al56  1  0.50020201  0.00046843  0.67201086  1
  Al0+  Al57  1  0.49697483  0.49860456  -0.00212987  1
  Al0+  Al58  1  0.50240921  0.50289182  0.33056917  1
  Al0+  Al59  1  0.49924588  0.50096674  0.67083812  1
  Al0+  Al60  1  0.24897132  0.24888117  0.00047244  1
  Al0+  Al61  1  0.24746283  0.25134720  0.32720310  1
  Al0+  Al62  1  0.24923483  0.25048702  0.67659424  1
  Al0+  Al63  1  0.24883930  0.74816886  -0.00183420  1
  Al0+  Al64  1  0.25015765  0.74973813  0.33403856  1
  Al0+  Al65  1  0.25081132  0.75088091  0.65674422  1
  Al0+  Al66  1  0.75045440  0.24866046  0.00233506  1
  Al0+  Al67  1  0.75164603  0.25254422  0.32469669  1
  Al0+  Al68  1  0.74898544  0.25043233  0.66968255  1
  Al0+  Al69  1  0.74887163  0.75119315  -0.00398866  1
  Al0+  Al70  1  0.75185247  0.75143380  0.33952363  1
  Al0+  Al71  1  0.75038191  0.74873632  0.66889116  1
  Al0+  Al72  1  0.67879960  0.93104701  0.34637813  1
  Al0+  Al73  1  0.57417787  0.68018919  0.32000799  1
  Al0+  Al74  1  0.57194124  0.17788491  0.31992682  1
  Al0+  Al75  1  0.43271939  0.82107832  0.65131500  1
  Al0+  Al76  1  0.06914165  0.67956792  0.65128154  1
  Al0+  Al77  1  0.92844298  0.31800942  0.65464456  1
  Al0+  Al78  1  0.57238303  0.67789660  0.98354404  1
  Al0+  Al79  1  0.42743291  0.32055061  0.98237191  1
  Al0+  Al80  1  0.06917198  0.67702143  0.98613901  1
  Al0+  Al81  1  0.06995859  0.17755542  0.31950279  1
  Al0+  Al82  1  0.42822011  0.82095306  0.98384775  1
  Al0+  Al83  1  0.42838649  0.82175768  0.31844567  1
  Al0+  Al84  1  0.82212826  0.07075315  0.01644331  1
  Al0+  Al85  1  0.82170154  0.07051094  0.68002940  1
  Al0+  Al86  1  0.57306557  0.17998336  0.98116600  1
  Al0+  Al87  1  0.42734639  0.32314205  0.32097196  1
  Al0+  Al88  1  0.17861362  0.43030784  0.67979736  1
  Al0+  Al89  1  0.81949150  0.57102305  0.01266567  1
  Al0+  Al90  1  0.31952895  0.57040239  0.01453199  1
  Al0+  Al91  1  0.67775378  0.92693202  0.68392373  1
  Al0+  Al92  1  0.92812923  0.32265644  0.31613527  1
  Al0+  Al93  1  0.31996222  0.07087329  0.68034754  1
  Al0+  Al94  1  0.92742624  0.82335409  0.98566006  1
  Al0+  Al95  1  0.67728801  0.42928620  0.67922350  1
  Si0+  Si96  1  0.17643361  0.42531737  0.02064599  1
  Si0+  Si97  1  0.17906783  0.43012554  0.34909256  1
  Si0+  Si98  1  0.93076573  0.81984797  0.32159609  1
  Si0+  Si99  1  0.18075259  0.92995535  0.01436335  1
  Si0+  Si100  1  0.57409515  0.67495023  0.64979990  1
  Si0+  Si101  1  0.31834651  0.07105068  0.34562118  1
  Si0+  Si102  1  0.82323029  0.57037636  0.68114500  1
  Si0+  Si103  1  0.82360811  0.57123999  0.34919228  1
  Si0+  Si104  1  0.68008296  0.42929846  0.34640561  1
  Si0+  Si105  1  0.67684587  0.92895882  0.01719215  1
  Si0+  Si106  1  0.32191090  0.07177412  0.01770690  1
  Si0+  Si107  1  0.82354833  0.07390465  0.34956544  1
  Si0+  Si108  1  0.67718684  0.42807048  0.01846130  1
  Si0+  Si109  1  0.56925582  0.18170580  0.65250177  1
  Si0+  Si110  1  0.07499719  0.17669687  0.65293019  1
  Si0+  Si111  1  0.07153240  0.67856943  0.31772423  1
  Si0+  Si112  1  0.32248642  0.57182191  0.34956475  1
  Si0+  Si113  1  0.93024968  0.31980317  0.98441506  1
  Si0+  Si114  1  0.17721679  0.92692168  0.34934066  1
  Si0+  Si115  1  0.92629905  0.82422621  0.64830089  1
  Si0+  Si116  1  0.42656929  0.32221907  0.65422919  1
  Si0+  Si117  1  0.17854267  0.92470556  0.68350190  1
  Si0+  Si118  1  0.07101864  0.17763980  0.98371085  1
  Si0+  Si119  1  0.32062180  0.57349225  0.68191953  1
  O2-  O120  1  0.25319522  -0.00178237  0.05941825  1
  O2-  O121  1  0.24959457  -0.00212789  0.38940806  1
  O2-  O122  1  0.24462791  -0.00385553  0.72715306  1
  O2-  O123  1  0.24720230  0.49300755  0.06327485  1
  O2-  O124  1  0.25314474  0.49838571  0.39171998  1
  O2-  O125  1  0.25310278  0.50412960  0.72679100  1
  O2-  O126  1  0.74755486  -0.00424578  0.06218705  1
  O2-  O127  1  0.75010401  0.01003082  0.39298634  1
  O2-  O128  1  0.75578763  -0.00612277  0.73144821  1
  O2-  O129  1  0.74153435  0.50124904  0.06281814  1
  O2-  O130  1  0.75300194  0.49876428  0.38968406  1
  O2-  O131  1  0.74921912  0.50729616  0.72453925  1
  O2-  O132  1  -0.00433673  0.24570586  0.26736030  1
  O2-  O133  1  0.00138290  0.24035898  0.60937561  1
  O2-  O134  1  0.00063127  0.24866542  0.94168718  1
  O2-  O135  1  0.00182839  0.75050929  0.27695540  1
  O2-  O136  1  -0.00615715  0.75378884  0.60356299  1
  O2-  O137  1  -0.00607082  0.74568149  0.93651176  1
  O2-  O138  1  0.50075172  0.25212594  0.27237622  1
  O2-  O139  1  0.49800051  0.25290278  0.60990813  1
  O2-  O140  1  0.50075993  0.25158750  0.93056678  1
  O2-  O141  1  0.50068882  0.75016467  0.27003921  1
  O2-  O142  1  0.51007156  0.74833574  0.60580118  1
  O2-  O143  1  0.50086108  0.75011012  0.93351550  1
  O2-  O144  1  0.07107704  0.17730170  0.08887963  1
  O2-  O145  1  0.07267016  0.18004509  0.43312296  1
  O2-  O146  1  0.07686257  0.17949425  0.75853288  1
  O2-  O147  1  0.06962830  0.68107598  0.10038363  1
  O2-  O148  1  0.07091645  0.67746770  0.42307471  1
  O2-  O149  1  0.06827291  0.67911704  0.76378113  1
  O2-  O150  1  0.57099441  0.18043406  0.09489293  1
  O2-  O151  1  0.56943289  0.17894839  0.43436623  1
  O2-  O152  1  0.56935081  0.18340344  0.75703859  1
  O2-  O153  1  0.57240674  0.68130589  0.09723323  1
  O2-  O154  1  0.57190841  0.67750932  0.43374200  1
  O2-  O155  1  0.57112997  0.67144960  0.75474900  1
  O2-  O156  1  0.17562928  0.43271062  0.24443946  1
  O2-  O157  1  0.18067307  0.42962106  0.56602687  1
  O2-  O158  1  0.17486707  0.42510672  0.91495849  1
  O2-  O159  1  0.17458337  0.92558635  0.24435738  1
  O2-  O160  1  0.17932448  0.92520133  0.57735039  1
  O2-  O161  1  0.18004711  0.93290888  0.90939286  1
  O2-  O162  1  0.68002095  0.43053444  0.24183461  1
  O2-  O163  1  0.67745761  0.42806446  0.56539974  1
  O2-  O164  1  0.68125662  0.42692110  0.91255792  1
  O2-  O165  1  0.68276955  0.92789314  0.23371015  1
  O2-  O166  1  0.67588693  0.93204804  0.56963859  1
  O2-  O167  1  0.67712447  0.93166848  0.91180539  1
  O2-  O168  1  0.42882655  0.31744116  0.09614880  1
  O2-  O169  1  0.42596619  0.32068501  0.43554107  1
  O2-  O170  1  0.42666064  0.32062881  0.75856548  1
  O2-  O171  1  0.42821429  0.81976605  0.09738938  1
  O2-  O172  1  0.42852627  0.82194022  0.43218203  1
  O2-  O173  1  0.43019498  0.81807229  0.76368606  1
  O2-  O174  1  0.93250833  0.32030282  0.08948373  1
  O2-  O175  1  0.92941318  0.32408390  0.42989202  1
  O2-  O176  1  0.93017051  0.31949618  0.76779844  1
  O2-  O177  1  0.93169382  0.82350394  0.10035745  1
  O2-  O178  1  0.93326444  0.81723084  0.42673153  1
  O2-  O179  1  0.92883798  0.82491787  0.75331605  1
  O2-  O180  1  0.31561721  0.07015949  0.24062849  1
  O2-  O181  1  0.31923025  0.07299233  0.56646648  1
  O2-  O182  1  0.31842703  0.07365682  0.91262513  1
  O2-  O183  1  0.31957597  0.57334874  0.24480970  1
  O2-  O184  1  0.31980004  0.57024617  0.57571429  1
  O2-  O185  1  0.31449271  0.57109531  0.90135032  1
  O2-  O186  1  0.82712101  0.06853784  0.24424455  1
  O2-  O187  1  0.81776247  0.07283607  0.56602525  1
  O2-  O188  1  0.82369777  0.07075888  0.90355580  1
  O2-  O189  1  0.82499720  0.57286589  0.24434305  1
  O2-  O190  1  0.82460539  0.56755905  0.57490918  1
  O2-  O191  1  0.82336140  0.56377217  0.89985722  1
  O2-  O192  1  0.04654291  0.07717495  0.26726213  1
  O2-  O193  1  0.05824378  0.08033884  0.60893364  1
  O2-  O194  1  0.04459336  0.08641336  0.93572046  1
  O2-  O195  1  0.04424576  0.58770584  0.26987047  1
  O2-  O196  1  0.03739666  0.58416677  0.59428733  1
  O2-  O197  1  0.04324799  0.57682831  0.93584551  1
  O2-  O198  1  0.54050174  0.08260510  0.26402030  1
  O2-  O199  1  0.53982658  0.08970444  0.60709760  1
  O2-  O200  1  0.54288075  0.08296932  0.92775608  1
  O2-  O201  1  0.54879374  0.58215516  0.26607317  1
  O2-  O202  1  0.54288939  0.58271817  0.60202628  1
  O2-  O203  1  0.54406534  0.57876506  0.93337512  1
  O2-  O204  1  0.16522804  0.20913309  0.26203891  1
  O2-  O205  1  0.16680307  0.20885638  0.60630165  1
  O2-  O206  1  0.16321131  0.20444328  0.93734734  1
  O2-  O207  1  0.16370875  0.70610740  0.27202769  1
  O2-  O208  1  0.16419517  0.71084846  0.59362721  1
  O2-  O209  1  0.16483938  0.70955855  0.93191092  1
  O2-  O210  1  0.66991265  0.20321926  0.26607904  1
  O2-  O211  1  0.66021831  0.21056495  0.60467215  1
  O2-  O212  1  0.67229068  0.20916149  0.93058143  1
  O2-  O213  1  0.67382766  0.70901679  0.27032216  1
  O2-  O214  1  0.67073914  0.69285754  0.60659767  1
  O2-  O215  1  0.67084909  0.70252316  0.92968979  1
  O2-  O216  1  0.08393415  0.45247840  0.06802435  1
  O2-  O217  1  0.08830582  0.46192262  0.39757203  1
  O2-  O218  1  0.08184741  0.46217569  0.73229836  1
  O2-  O219  1  0.09046360  0.96082689  0.06379445  1
  O2-  O220  1  0.08673466  0.95506838  0.40006928  1
  O2-  O221  1  0.08400427  0.94524789  0.72911722  1
  O2-  O222  1  0.58098807  0.44725867  0.06047875  1
  O2-  O223  1  0.58883155  0.45791868  0.39580504  1
  O2-  O224  1  0.58072088  0.45684242  0.73537879  1
  O2-  O225  1  0.58346021  0.95846083  0.06236230  1
  O2-  O226  1  0.58052684  0.96049641  0.39909416  1
  O2-  O227  1  0.58258147  0.96074198  0.73822064  1
  O2-  O228  1  0.20073578  0.33057919  0.06569332  1
  O2-  O229  1  0.20374141  0.33653398  0.39474870  1
  O2-  O230  1  0.20659298  0.33553972  0.73785825  1
  O2-  O231  1  0.20508151  0.83727594  0.06174416  1
  O2-  O232  1  0.20344482  0.83459517  0.39760487  1
  O2-  O233  1  0.20849352  0.83189770  0.72801282  1
  O2-  O234  1  0.70906471  0.33665363  0.06518569  1
  O2-  O235  1  0.70699655  0.33631950  0.39319161  1
  O2-  O236  1  0.71128507  0.33555999  0.73564471  1
  O2-  O237  1  0.70003153  0.83427431  0.06158071  1
  O2-  O238  1  0.71358091  0.83680344  0.40428032  1
  O2-  O239  1  0.69870693  0.82516362  0.73253674  1
  O2-  O240  1  0.45622564  0.42113829  0.26897310  1
  O2-  O241  1  0.45096017  0.41576122  0.60835246  1
  O2-  O242  1  0.44990031  0.42004002  0.93061523  1
  O2-  O243  1  0.45284976  0.92017385  0.26569134  1
  O2-  O244  1  0.46209258  0.91993693  0.59992879  1
  O2-  O245  1  0.45303195  0.92048403  0.93251901  1
  O2-  O246  1  0.96344027  0.41904259  0.26237165  1
  O2-  O247  1  0.96124380  0.41223940  0.59737895  1
  O2-  O248  1  0.95952107  0.41074373  0.93703474  1
  O2-  O249  1  0.95730904  0.91201750  0.27510931  1
  O2-  O250  1  0.95469612  0.91680107  0.60050824  1
  O2-  O251  1  0.96421479  0.91881417  0.93199432  1
  O2-  O252  1  0.32993303  0.29701596  0.26641413  1
  O2-  O253  1  0.33430478  0.29223841  0.60841466  1
  O2-  O254  1  0.32775843  0.29061919  0.93251655  1
  O2-  O255  1  0.32858992  0.79362484  0.26785253  1
  O2-  O256  1  0.33660724  0.79167569  0.59484526  1
  O2-  O257  1  0.32978188  0.79161777  0.93182824  1
  O2-  O258  1  0.83016658  0.30197861  0.26050998  1
  O2-  O259  1  0.83158553  0.28821496  0.59961086  1
  O2-  O260  1  0.83776795  0.29303243  0.93933767  1
  O2-  O261  1  0.83959464  0.79121298  0.27500170  1
  O2-  O262  1  0.83164947  0.79965444  0.60333643  1
  O2-  O263  1  0.82799160  0.80349603  0.93423363  1
  O2-  O264  1  0.41528663  0.04617280  0.06236011  1
  O2-  O265  1  0.41072897  0.04599514  0.39322161  1
  O2-  O266  1  0.41469980  0.03999743  0.73620929  1
  O2-  O267  1  0.41663903  0.54044000  0.06893934  1
  O2-  O268  1  0.41572413  0.54761047  0.39599379  1
  O2-  O269  1  0.41418147  0.55108311  0.72818181  1
  O2-  O270  1  0.91998034  0.04107277  0.06984262  1
  O2-  O271  1  0.91557484  0.04453345  0.39780596  1
  O2-  O272  1  0.92365342  0.04901352  0.73001820  1
  O2-  O273  1  0.91473827  0.53659139  0.06957362  1
  O2-  O274  1  0.91632627  0.54268272  0.39570914  1
  O2-  O275  1  0.91450651  0.53798498  0.72711882  1
  O2-  O276  1  0.28973653  0.16200180  0.06589428  1
  O2-  O277  1  0.28797358  0.16288053  0.39261509  1
  O2-  O278  1  0.28854652  0.16477866  0.73942995  1
  O2-  O279  1  0.28485167  0.66588495  0.06985217  1
  O2-  O280  1  0.29091255  0.66239085  0.39842510  1
  O2-  O281  1  0.29141066  0.66712463  0.72451308  1
  O2-  O282  1  0.79220300  0.16774708  0.07068323  1
  O2-  O283  1  0.80338628  0.17146042  0.38918571  1
  O2-  O284  1  0.78918618  0.16678338  0.73440037  1
  O2-  O285  1  0.79456035  0.67053440  0.06500445  1
  O2-  O286  1  0.79723272  0.66174104  0.40002535  1
  O2-  O287  1  0.80710812  0.66631212  0.72498169  1
