# generated using pymatgen
data_Ca2Al2SiO7
_symmetry_space_group_name_H-M   'P 1'
_cell_length_a   15.46936527
_cell_length_b   15.47082018
_cell_length_c   15.29151432
_cell_angle_alpha   89.99001465
_cell_angle_beta   90.00576407
_cell_angle_gamma   89.99623650
_symmetry_Int_Tables_number   1
_chemical_formula_structural   Ca2Al2SiO7
_chemical_formula_sum   'Ca48 Al48 Si24 O168'
_cell_volume   3659.62275035
_cell_formula_units_Z   24
loop_
 _symmetry_equiv_pos_site_id
 _symmetry_equiv_pos_as_xyz
  1  'x, y, z'
loop_
 _atom_type_symbol
 _atom_type_oxidation_number
  Ca2+  2.0
  Al0+  0.0
  Si0+  0.0
  O2-  -2.0
loop_
 _atom_site_type_symbol
 _atom_site_label
 _atom_site_symmetry_multiplicity
 _atom_site_fract_x
 _atom_site_fract_y
 _atom_site_fract_z
 _atom_site_occupancy
  Ca2+  Ca0  1  0.17201150  0.07875190  0.17218105  1
  Ca2+  Ca1  1  0.17817289  0.08972579  0.50085238  1
  Ca2+  Ca2  1  0.17466587  0.08838907  0.84290105  1
  Ca2+  Ca3  1  0.15496399  0.56997910  0.17219566  1
  Ca2+  Ca4  1  0.16769624  0.57361481  0.50607561  1
  Ca2+  Ca5  1  0.16871679  0.57091962  0.83522744  1
  Ca2+  Ca6  1  0.67328596  0.09689295  0.16855980  1
  Ca2+  Ca7  1  0.66323437  0.07997709  0.50699698  1
  Ca2+  Ca8  1  0.66731202  0.08169946  0.83969224  1
  Ca2+  Ca9  1  0.66479176  0.58776791  0.16829292  1
  Ca2+  Ca10  1  0.67483466  0.58236538  0.50773961  1
  Ca2+  Ca11  1  0.67181440  0.58777436  0.83931012  1
  Ca2+  Ca12  1  0.09550727  0.32201058  0.16583357  1
  Ca2+  Ca13  1  0.09477894  0.32655295  0.49750444  1
  Ca2+  Ca14  1  0.09236823  0.32561479  0.83129551  1
  Ca2+  Ca15  1  0.07815776  0.84358667  0.16215097  1
  Ca2+  Ca16  1  0.08137213  0.82429318  0.48433396  1
  Ca2+  Ca17  1  0.07703203  0.84409526  0.83328319  1
  Ca2+  Ca18  1  0.57272758  0.32466887  0.16414364  1
  Ca2+  Ca19  1  0.57392096  0.32126661  0.49141356  1
  Ca2+  Ca20  1  0.58040939  0.31897928  0.82805268  1
  Ca2+  Ca21  1  0.57301008  0.83110358  0.16456067  1
  Ca2+  Ca22  1  0.57622702  0.83569146  0.49504926  1
  Ca2+  Ca23  1  0.58483411  0.83219021  0.83012614  1
  Ca2+  Ca24  1  0.32512113  0.41457154  0.17297800  1
  Ca2+  Ca25  1  0.32544368  0.41491255  0.50202949  1
  Ca2+  Ca26  1  0.32247134  0.41526357  0.83514705  1
  Ca2+  Ca27  1  0.32754327  0.92611166  0.17410063  1
  Ca2+  Ca28  1  0.33270857  0.92497319  0.50031617  1
  Ca2+  Ca29  1  0.32428615  0.92994127  0.83956339  1
  Ca2+  Ca30  1  0.82940490  0.41602309  0.17211682  1
  Ca2+  Ca31  1  0.83374709  0.42408745  0.50687678  1
  Ca2+  Ca32  1  0.83497803  0.42300578  0.83562968  1
  Ca2+  Ca33  1  0.83599706  0.91675424  0.16612366  1
  Ca2+  Ca34  1  0.82676584  0.91329900  0.50244084  1
  Ca2+  Ca35  1  0.82847766  0.92200863  0.84031742  1
  Ca2+  Ca36  1  0.41809059  0.16258754  0.16565677  1
  Ca2+  Ca37  1  0.42269060  0.16166725  0.49232183  1
  Ca2+  Ca38  1  0.42187603  0.15609169  0.82870396  1
  Ca2+  Ca39  1  0.41526320  0.67563214  0.16234472  1
  Ca2+  Ca40  1  0.41114301  0.67333249  0.49412109  1
  Ca2+  Ca41  1  0.41760719  0.66572795  0.82959862  1
  Ca2+  Ca42  1  0.93057279  0.16008827  0.16053097  1
  Ca2+  Ca43  1  0.93341116  0.16534681  0.49566328  1
  Ca2+  Ca44  1  0.92987270  0.16052001  0.83229531  1
  Ca2+  Ca45  1  0.92520801  0.67962682  0.16675432  1
  Ca2+  Ca46  1  0.92154166  0.67016228  0.49171719  1
  Ca2+  Ca47  1  0.91566221  0.67243596  0.83071725  1
  Al0+  Al48  1  -0.00313781  0.00199416  -0.00355179  1
  Al0+  Al49  1  -0.00166337  -0.00009537  0.33129541  1
  Al0+  Al50  1  -0.00214388  0.00005114  0.65799763  1
  Al0+  Al51  1  -0.00198834  0.50211079  0.00501838  1
  Al0+  Al52  1  -0.00170502  0.50039741  0.33523574  1
  Al0+  Al53  1  -0.00091843  0.50122734  0.67592700  1
  Al0+  Al54  1  0.49990465  -0.00216614  -0.00064727  1
  Al0+  Al55  1  0.50278838  -0.00312579  0.32724730  1
  Al0+  Al56  1  0.49983755  -0.00325217  0.67102571  1
  Al0+  Al57  1  0.50066140  0.50051719  -0.00523268  1
  Al0+  Al58  1  0.50167257  0.49687416  0.33212902  1
  Al0+  Al59  1  0.50157804  0.49957814  0.66802782  1
  Al0+  Al60  1  0.25122065  0.25217692  0.00397650  1
  Al0+  Al61  1  0.25203817  0.25076826  0.33436198  1
  Al0+  Al62  1  0.25204838  0.24982347  0.67068089  1
  Al0+  Al63  1  0.24796190  0.74860306  -0.00090695  1
  Al0+  Al64  1  0.25025842  0.74700780  0.32505209  1
  Al0+  Al65  1  0.24912916  0.75018668  0.67032964  1
  Al0+  Al66  1  0.74829232  0.25216601  -0.00029452  1
  Al0+  Al67  1  0.75069074  0.25024891  0.33571198  1
  Al0+  Al68  1  0.75208074  0.24980246  0.66204457  1
  Al0+  Al69  1  0.75105657  0.75082520  -0.00559703  1
  Al0+  Al70  1  0.75243084  0.75031264  0.33084343  1
  Al0+  Al71  1  0.74896931  0.75041538  0.67384013  1
  Al0+  Al72  1  0.81750153  0.07267533  0.01283370  1
  Al0+  Al73  1  0.32226142  0.06884131  0.34894210  1
  Al0+  Al74  1  0.57233565  0.17651087  0.31819813  1
  Al0+  Al75  1  0.07151020  0.18053723  0.32010936  1
  Al0+  Al76  1  0.57066869  0.17654629  0.65329631  1
  Al0+  Al77  1  0.32284176  0.57470467  0.68100459  1
  Al0+  Al78  1  0.31995720  0.06930564  0.67932588  1
  Al0+  Al79  1  0.81935157  0.57072144  0.68188085  1
  Al0+  Al80  1  0.17926153  0.43020548  0.34806671  1
  Al0+  Al81  1  0.57061813  0.17898377  0.98512051  1
  Al0+  Al82  1  0.17653730  0.92683092  0.34775666  1
  Al0+  Al83  1  0.93147705  0.82113713  0.98341523  1
  Al0+  Al84  1  0.42774473  0.81980705  0.32000871  1
  Al0+  Al85  1  0.07034275  0.18226257  0.98719677  1
  Al0+  Al86  1  0.42886354  0.32103632  0.31808464  1
  Al0+  Al87  1  0.32305066  0.07099611  0.01650270  1
  Al0+  Al88  1  0.92914253  0.82151202  0.31797612  1
  Al0+  Al89  1  0.17612022  0.92974488  0.01303070  1
  Al0+  Al90  1  0.56895938  0.68048433  0.98572417  1
  Al0+  Al91  1  0.67965034  0.93088733  0.67990867  1
  Al0+  Al92  1  0.07238348  0.67648902  0.31916373  1
  Al0+  Al93  1  0.17873848  0.43125912  0.01646109  1
  Al0+  Al94  1  0.18027861  0.42877112  0.68290190  1
  Al0+  Al95  1  0.07281014  0.17974122  0.65267630  1
  Si0+  Si96  1  0.92937485  0.32496205  0.65102617  1
  Si0+  Si97  1  0.32402876  0.57140606  0.01677222  1
  Si0+  Si98  1  0.92689889  0.81997490  0.65085450  1
  Si0+  Si99  1  0.67867935  0.42581078  0.68386080  1
  Si0+  Si100  1  0.42916891  0.32290140  0.65028608  1
  Si0+  Si101  1  0.07115174  0.67490602  0.98066988  1
  Si0+  Si102  1  0.81927120  0.57329608  0.01867043  1
  Si0+  Si103  1  0.81784923  0.57048372  0.34804977  1
  Si0+  Si104  1  0.42898413  0.81842307  0.65277267  1
  Si0+  Si105  1  0.57317441  0.67750295  0.32043863  1
  Si0+  Si106  1  0.42507241  0.82175683  0.97996220  1
  Si0+  Si107  1  0.82122977  0.07316421  0.34985627  1
  Si0+  Si108  1  0.92570035  0.32496460  0.98468758  1
  Si0+  Si109  1  0.67821212  0.42707168  0.35011799  1
  Si0+  Si110  1  0.17519764  0.92754365  0.67998276  1
  Si0+  Si111  1  0.67888128  0.92643452  0.01807394  1
  Si0+  Si112  1  0.67825246  0.43062547  0.01551942  1
  Si0+  Si113  1  0.68172078  0.92713810  0.34656319  1
  Si0+  Si114  1  0.82375514  0.07303693  0.68168962  1
  Si0+  Si115  1  0.92727214  0.32265686  0.31864528  1
  Si0+  Si116  1  0.32647505  0.57137441  0.34739158  1
  Si0+  Si117  1  0.06989585  0.67966218  0.65383144  1
  Si0+  Si118  1  0.57289569  0.67840766  0.65184166  1
  Si0+  Si119  1  0.42847908  0.32254319  0.98102641  1
  O2-  O120  1  0.25062302  -0.00190117  0.06382989  1
  O2-  O121  1  0.24818361  -0.00163475  0.39962786  1
  O2-  O122  1  0.23853568  0.00090315  0.72376379  1
  O2-  O123  1  0.25253434  0.50745553  0.06264199  1
  O2-  O124  1  0.25438982  0.50638001  0.39173133  1
  O2-  O125  1  0.25386073  0.50045239  0.73123770  1
  O2-  O126  1  0.74106756  0.00057365  0.06245553  1
  O2-  O127  1  0.74929964  0.00132173  0.38942174  1
  O2-  O128  1  0.75157684  0.00827430  0.72573646  1
  O2-  O129  1  0.74889511  0.50132666  0.06016758  1
  O2-  O130  1  0.74786758  0.49958699  0.39196417  1
  O2-  O131  1  0.74548363  0.49557055  0.72969598  1
  O2-  O132  1  -0.00365725  0.25570699  0.27411666  1
  O2-  O133  1  -0.00160800  0.25666859  0.60736338  1
  O2-  O134  1  -0.00386313  0.25856427  0.94060728  1
  O2-  O135  1  0.00917888  0.75710707  0.26991029  1
  O2-  O136  1  0.00080906  0.75186340  0.60974848  1
  O2-  O137  1  0.00895541  0.74941274  0.93585773  1
  O2-  O138  1  0.49742068  0.24529309  0.26879326  1
  O2-  O139  1  0.49712547  0.25245463  0.60732979  1
  O2-  O140  1  0.49213527  0.24876790  0.93712228  1
  O2-  O141  1  0.50020412  0.74062782  0.27622919  1
  O2-  O142  1  0.49738034  0.74396299  0.60977347  1
  O2-  O143  1  0.49384666  0.75249724  0.93590332  1
  O2-  O144  1  0.06891003  0.18251342  0.10002899  1
  O2-  O145  1  0.07037458  0.18284972  0.43355446  1
  O2-  O146  1  0.07046349  0.17878524  0.76572982  1
  O2-  O147  1  0.06576744  0.67023829  0.08564828  1
  O2-  O148  1  0.06624105  0.67377720  0.43352769  1
  O2-  O149  1  0.06775250  0.68078245  0.75876694  1
  O2-  O150  1  0.57419687  0.18515309  0.09747162  1
  O2-  O151  1  0.57320671  0.17813942  0.43223922  1
  O2-  O152  1  0.57027237  0.17799792  0.76639335  1
  O2-  O153  1  0.56852563  0.68166346  0.09924163  1
  O2-  O154  1  0.57671423  0.67998768  0.42621072  1
  O2-  O155  1  0.57520599  0.68115822  0.75662986  1
  O2-  O156  1  0.17830804  0.43165658  0.23514607  1
  O2-  O157  1  0.17984799  0.43091187  0.56935306  1
  O2-  O158  1  0.17908331  0.43201591  0.90346958  1
  O2-  O159  1  0.17747270  0.93101452  0.23459923  1
  O2-  O160  1  0.17823448  0.92201695  0.57498736  1
  O2-  O161  1  0.17730014  0.93342912  0.89862677  1
  O2-  O162  1  0.67973530  0.42728657  0.24498665  1
  O2-  O163  1  0.68069513  0.42868606  0.57808040  1
  O2-  O164  1  0.68078546  0.43174584  0.91048860  1
  O2-  O165  1  0.68421940  0.92165709  0.24205664  1
  O2-  O166  1  0.68085732  0.92821395  0.56630088  1
  O2-  O167  1  0.68190132  0.92556320  0.91220978  1
  O2-  O168  1  0.43221792  0.32738980  0.08614781  1
  O2-  O169  1  0.43320059  0.32498616  0.43168611  1
  O2-  O170  1  0.43129726  0.32454512  0.75587544  1
  O2-  O171  1  0.42695777  0.82015889  0.08551605  1
  O2-  O172  1  0.43194466  0.82005643  0.43379413  1
  O2-  O173  1  0.43127080  0.81755080  0.75754500  1
  O2-  O174  1  0.92282935  0.32502884  0.09013600  1
  O2-  O175  1  0.92428527  0.32251723  0.42429390  1
  O2-  O176  1  0.92683748  0.32541768  0.75640458  1
  O2-  O177  1  0.92847742  0.81769501  0.09594157  1
  O2-  O178  1  0.92155877  0.81428267  0.43178223  1
  O2-  O179  1  0.92723670  0.82043847  0.75582872  1
  O2-  O180  1  0.32269138  0.06784059  0.23599331  1
  O2-  O181  1  0.32339948  0.06685110  0.56658387  1
  O2-  O182  1  0.32231315  0.06965680  0.90232013  1
  O2-  O183  1  0.33231856  0.56763988  0.24223209  1
  O2-  O184  1  0.31916660  0.57855485  0.56759117  1
  O2-  O185  1  0.32498992  0.56783305  0.91114215  1
  O2-  O186  1  0.82028240  0.07636924  0.24501414  1
  O2-  O187  1  0.82520814  0.06999046  0.57595971  1
  O2-  O188  1  0.81721054  0.07040142  0.89945808  1
  O2-  O189  1  0.81469035  0.57015416  0.24308091  1
  O2-  O190  1  0.81784703  0.57110743  0.56835210  1
  O2-  O191  1  0.81878641  0.57240487  0.91343727  1
  O2-  O192  1  0.03797626  0.08496722  0.26719733  1
  O2-  O193  1  0.03972115  0.08460767  0.59586506  1
  O2-  O194  1  0.03602535  0.08795393  0.93129456  1
  O2-  O195  1  0.03078730  0.58267269  0.26477094  1
  O2-  O196  1  0.03944249  0.58748949  0.60883229  1
  O2-  O197  1  0.03618602  0.58435998  0.93319367  1
  O2-  O198  1  0.55278695  0.07716450  0.26515358  1
  O2-  O199  1  0.53945458  0.07873593  0.60186367  1
  O2-  O200  1  0.54665644  0.07878715  0.93459185  1
  O2-  O201  1  0.55482287  0.58200852  0.27603337  1
  O2-  O202  1  0.55344190  0.58383525  0.60598982  1
  O2-  O203  1  0.54319026  0.58319450  0.92970461  1
  O2-  O204  1  0.16752021  0.21174568  0.26748598  1
  O2-  O205  1  0.17024715  0.21088467  0.60075055  1
  O2-  O206  1  0.16783109  0.21400474  0.93511776  1
  O2-  O207  1  0.17314821  0.68822139  0.26674050  1
  O2-  O208  1  0.16246120  0.70555154  0.60714069  1
  O2-  O209  1  0.16796066  0.69146141  0.93799398  1
  O2-  O210  1  0.67022378  0.21182380  0.26800461  1
  O2-  O211  1  0.66907358  0.20430471  0.60026559  1
  O2-  O212  1  0.66574616  0.21532681  0.93038486  1
  O2-  O213  1  0.66386861  0.70813970  0.27143020  1
  O2-  O214  1  0.66336893  0.71143175  0.60436495  1
  O2-  O215  1  0.66515420  0.71201850  0.93092303  1
  O2-  O216  1  0.08091566  0.46099533  0.06942698  1
  O2-  O217  1  0.08121437  0.45963122  0.40123151  1
  O2-  O218  1  0.08289659  0.45801765  0.73731956  1
  O2-  O219  1  0.07784673  0.95994797  0.06353638  1
  O2-  O220  1  0.07544489  0.95065034  0.39848236  1
  O2-  O221  1  0.07851897  0.94951332  0.72116931  1
  O2-  O222  1  0.58671370  0.46042271  0.06205835  1
  O2-  O223  1  0.58726264  0.45455137  0.39893418  1
  O2-  O224  1  0.58485031  0.44915781  0.72929283  1
  O2-  O225  1  0.58225955  0.94350484  0.05965931  1
  O2-  O226  1  0.58916554  0.95176989  0.39340105  1
  O2-  O227  1  0.58385895  0.95693898  0.73692234  1
  O2-  O228  1  0.21189876  0.33619274  0.07040584  1
  O2-  O229  1  0.21256394  0.33503011  0.40279918  1
  O2-  O230  1  0.21045615  0.33184567  0.73732249  1
  O2-  O231  1  0.19636431  0.82671910  0.06038862  1
  O2-  O232  1  0.20365845  0.82453837  0.39457668  1
  O2-  O233  1  0.20336765  0.83659456  0.73011600  1
  O2-  O234  1  0.70685668  0.34028816  0.06459213  1
  O2-  O235  1  0.70853188  0.33720621  0.39993845  1
  O2-  O236  1  0.70678562  0.33243201  0.72915891  1
  O2-  O237  1  0.71188741  0.83479123  0.06346716  1
  O2-  O238  1  0.71296853  0.83683998  0.39675066  1
  O2-  O239  1  0.71198087  0.83634309  0.73688215  1
  O2-  O240  1  0.46323905  0.41730166  0.26267794  1
  O2-  O241  1  0.45562211  0.41648114  0.60347459  1
  O2-  O242  1  0.45968868  0.41348743  0.93225618  1
  O2-  O243  1  0.46573093  0.91112017  0.26170188  1
  O2-  O244  1  0.46220496  0.90783052  0.60469748  1
  O2-  O245  1  0.45292179  0.91442490  0.93377977  1
  O2-  O246  1  0.94857485  0.41715439  0.27321479  1
  O2-  O247  1  0.95383010  0.42004937  0.60656560  1
  O2-  O248  1  0.94948581  0.42023507  0.94061396  1
  O2-  O249  1  0.94719585  0.92204540  0.26654518  1
  O2-  O250  1  0.94791272  0.91233995  0.60172181  1
  O2-  O251  1  0.95793781  0.91779490  0.92724472  1
  O2-  O252  1  0.33043670  0.29667087  0.26558963  1
  O2-  O253  1  0.33510382  0.29829511  0.60626214  1
  O2-  O254  1  0.33328365  0.30099425  0.93775419  1
  O2-  O255  1  0.33353090  0.79189644  0.26103490  1
  O2-  O256  1  0.33609616  0.79320838  0.60597970  1
  O2-  O257  1  0.33127316  0.79648481  0.93383925  1
  O2-  O258  1  0.83375210  0.29704401  0.27235464  1
  O2-  O259  1  0.83599736  0.30128560  0.60260337  1
  O2-  O260  1  0.83277480  0.30007258  0.93690445  1
  O2-  O261  1  0.83439994  0.78398305  0.26221867  1
  O2-  O262  1  0.83546321  0.78692071  0.60578748  1
  O2-  O263  1  0.83649371  0.78584985  0.92827924  1
  O2-  O264  1  0.42220229  0.04166699  0.06775044  1
  O2-  O265  1  0.42248997  0.03641195  0.39794879  1
  O2-  O266  1  0.41303775  0.03151874  0.73527726  1
  O2-  O267  1  0.41793779  0.54434571  0.06155071  1
  O2-  O268  1  0.41939595  0.54479752  0.39635473  1
  O2-  O269  1  0.42422760  0.55110503  0.73092843  1
  O2-  O270  1  0.91287191  0.03888690  0.06609574  1
  O2-  O271  1  0.91193393  0.04403105  0.39807059  1
  O2-  O272  1  0.91590866  0.04164572  0.72771474  1
  O2-  O273  1  0.91023658  0.54646858  0.06702909  1
  O2-  O274  1  0.90843226  0.54240368  0.39717537  1
  O2-  O275  1  0.91407414  0.54201896  0.73995816  1
  O2-  O276  1  0.29735915  0.17047745  0.06663173  1
  O2-  O277  1  0.29584927  0.16836968  0.40072197  1
  O2-  O278  1  0.29672074  0.16686877  0.73379321  1
  O2-  O279  1  0.30325882  0.66749238  0.05894382  1
  O2-  O280  1  0.30454572  0.66701181  0.38975707  1
  O2-  O281  1  0.29229554  0.67099220  0.73786215  1
  O2-  O282  1  0.78902050  0.17009865  0.06708881  1
  O2-  O283  1  0.79395942  0.16419853  0.39977619  1
  O2-  O284  1  0.80412933  0.16892692  0.72475186  1
  O2-  O285  1  0.78708356  0.66419110  0.06432210  1
  O2-  O286  1  0.78840247  0.66156687  0.39648018  1
  O2-  O287  1  0.78615759  0.66500137  0.73856745  1
