# generated using pymatgen
data_Ca2Al2SiO7
_symmetry_space_group_name_H-M   'P 1'
_cell_length_a   15.45769252
_cell_length_b   15.45748881
_cell_length_c   15.28409002
_cell_angle_alpha   90.00182192
_cell_angle_beta   90.00057342
_cell_angle_gamma   89.99317347
_symmetry_Int_Tables_number   1
_chemical_formula_structural   Ca2Al2SiO7
_chemical_formula_sum   'Ca48 Al48 Si24 O168'
_cell_volume   3651.93625754
_cell_formula_units_Z   24
loop_
 _symmetry_equiv_pos_site_id
 _symmetry_equiv_pos_as_xyz
  1  'x, y, z'
loop_
 _atom_type_symbol
 _atom_type_oxidation_number
  Ca2+  2.0
  Al0+  0.0
  Si0+  0.0
  O2-  -2.0
loop_
 _atom_site_type_symbol
 _atom_site_label
 _atom_site_symmetry_multiplicity
 _atom_site_fract_x
 _atom_site_fract_y
 _atom_site_fract_z
 _atom_site_occupancy
  Ca2+  Ca0  1  0.16744342  0.08109603  0.16577249  1
  Ca2+  Ca1  1  0.17675463  0.08592461  0.50296281  1
  Ca2+  Ca2  1  0.16665413  0.07701934  0.84439583  1
  Ca2+  Ca3  1  0.17004020  0.58050388  0.16664779  1
  Ca2+  Ca4  1  0.16432708  0.57962906  0.50390722  1
  Ca2+  Ca5  1  0.17185517  0.59248077  0.84237864  1
  Ca2+  Ca6  1  0.66045862  0.07619296  0.16810707  1
  Ca2+  Ca7  1  0.66798786  0.07726448  0.50700231  1
  Ca2+  Ca8  1  0.67523862  0.07259659  0.84106285  1
  Ca2+  Ca9  1  0.67867904  0.58792858  0.16504704  1
  Ca2+  Ca10  1  0.67182389  0.57717912  0.50419527  1
  Ca2+  Ca11  1  0.66643095  0.57881556  0.84286797  1
  Ca2+  Ca12  1  0.08128770  0.32925953  0.15797305  1
  Ca2+  Ca13  1  0.08265379  0.33450224  0.49423134  1
  Ca2+  Ca14  1  0.07524673  0.32938783  0.83800145  1
  Ca2+  Ca15  1  0.07490279  0.82939678  0.15202512  1
  Ca2+  Ca16  1  0.07504597  0.82788016  0.50163715  1
  Ca2+  Ca17  1  0.07395639  0.82899272  0.83134096  1
  Ca2+  Ca18  1  0.57904199  0.31930187  0.15493768  1
  Ca2+  Ca19  1  0.58216284  0.32893971  0.49692675  1
  Ca2+  Ca20  1  0.57699662  0.33341686  0.82937837  1
  Ca2+  Ca21  1  0.58682567  0.83243888  0.15940283  1
  Ca2+  Ca22  1  0.58238230  0.84488273  0.49864947  1
  Ca2+  Ca23  1  0.58875579  0.83023264  0.83173265  1
  Ca2+  Ca24  1  0.33145132  0.41774592  0.16529351  1
  Ca2+  Ca25  1  0.32815859  0.41305850  0.50528525  1
  Ca2+  Ca26  1  0.33607606  0.41927020  0.84192350  1
  Ca2+  Ca27  1  0.32420284  0.92064961  0.16807594  1
  Ca2+  Ca28  1  0.33863448  0.92349365  0.50489127  1
  Ca2+  Ca29  1  0.32525088  0.90845923  0.83989958  1
  Ca2+  Ca30  1  0.84461718  0.42846323  0.16603522  1
  Ca2+  Ca31  1  0.82709757  0.42238862  0.50544827  1
  Ca2+  Ca32  1  0.82914980  0.42123661  0.83993174  1
  Ca2+  Ca33  1  0.82403132  0.91724599  0.16407519  1
  Ca2+  Ca34  1  0.82208141  0.92093660  0.51054402  1
  Ca2+  Ca35  1  0.83288624  0.92009192  0.84226432  1
  Ca2+  Ca36  1  0.42389939  0.16692042  0.16039904  1
  Ca2+  Ca37  1  0.42261414  0.16898674  0.49157381  1
  Ca2+  Ca38  1  0.42220429  0.17643001  0.83281602  1
  Ca2+  Ca39  1  0.42479505  0.66472365  0.15566220  1
  Ca2+  Ca40  1  0.42067520  0.67550441  0.50102166  1
  Ca2+  Ca41  1  0.42129645  0.66940305  0.83176449  1
  Ca2+  Ca42  1  0.92060557  0.17296674  0.15106040  1
  Ca2+  Ca43  1  0.91281005  0.16594087  0.49946935  1
  Ca2+  Ca44  1  0.91621208  0.15919315  0.83411567  1
  Ca2+  Ca45  1  0.91833217  0.66882402  0.15386173  1
  Ca2+  Ca46  1  0.91390138  0.66906330  0.49940544  1
  Ca2+  Ca47  1  0.91890202  0.67764479  0.83278294  1
  Al0+  Al48  1  -0.00049628  -0.00033619  0.00291125  1
  Al0+  Al49  1  -0.00105907  -0.00113377  0.33314104  1
  Al0+  Al50  1  0.00281017  -0.00085614  0.66195870  1
  Al0+  Al51  1  0.00185800  0.49838630  -0.00461946  1
  Al0+  Al52  1  0.00113591  0.50112585  0.34186595  1
  Al0+  Al53  1  0.00130532  0.49687048  0.66390943  1
  Al0+  Al54  1  0.49832744  0.00031834  -0.00136628  1
  Al0+  Al55  1  0.49791414  0.00083137  0.33563712  1
  Al0+  Al56  1  0.50122539  0.00140691  0.66911418  1
  Al0+  Al57  1  0.49961494  0.50111434  -0.00053718  1
  Al0+  Al58  1  0.49984766  0.50187475  0.33308386  1
  Al0+  Al59  1  0.49765015  0.49984839  0.66347939  1
  Al0+  Al60  1  0.24958954  0.25020090  -0.00699622  1
  Al0+  Al61  1  0.24911465  0.25055556  0.34013725  1
  Al0+  Al62  1  0.25031462  0.25126854  0.66494665  1
  Al0+  Al63  1  0.25070011  0.74934634  0.00982458  1
  Al0+  Al64  1  0.24898180  0.74937530  0.33405856  1
  Al0+  Al65  1  0.25194466  0.74955355  0.65602275  1
  Al0+  Al66  1  0.74919851  0.24940552  -0.00478525  1
  Al0+  Al67  1  0.74985837  0.25075078  0.32712866  1
  Al0+  Al68  1  0.75055704  0.25073260  0.67348397  1
  Al0+  Al69  1  0.74919732  0.74883811  -0.00089462  1
  Al0+  Al70  1  0.74952328  0.75109109  0.34258919  1
  Al0+  Al71  1  0.75105347  0.74856965  0.66441960  1
  Al0+  Al72  1  0.82150785  0.56870955  0.01041804  1
  Al0+  Al73  1  0.67782812  0.92873680  0.01551173  1
  Al0+  Al74  1  0.67721395  0.43122405  0.67993909  1
  Al0+  Al75  1  0.92746101  0.32256085  0.98472405  1
  Al0+  Al76  1  0.07147389  0.67790183  0.65023022  1
  Al0+  Al77  1  0.07040165  0.17771200  0.98594362  1
  Al0+  Al78  1  0.57226062  0.17490806  0.98202437  1
  Al0+  Al79  1  0.82120407  0.07267381  0.01671257  1
  Al0+  Al80  1  0.67780182  0.92739355  0.68370654  1
  Al0+  Al81  1  0.57127342  0.68037951  0.98833664  1
  Al0+  Al82  1  0.18186222  0.43134814  0.34689616  1
  Al0+  Al83  1  0.67948694  0.93172280  0.34796551  1
  Al0+  Al84  1  0.31783164  0.06856565  0.34619925  1
  Al0+  Al85  1  0.17811430  0.92820345  0.01249713  1
  Al0+  Al86  1  0.57030785  0.17905317  0.31987584  1
  Al0+  Al87  1  0.32227062  0.57128898  0.01317267  1
  Al0+  Al88  1  0.82064083  0.57057597  0.34790619  1
  Al0+  Al89  1  0.92788499  0.82213971  0.64932687  1
  Al0+  Al90  1  0.82381354  0.07011398  0.68159411  1
  Al0+  Al91  1  0.07381161  0.67827737  0.98805208  1
  Al0+  Al92  1  0.92765267  0.82034916  0.98746028  1
  Al0+  Al93  1  0.42994504  0.32124095  0.98578608  1
  Al0+  Al94  1  0.43123056  0.82183123  0.65385014  1
  Al0+  Al95  1  0.42871832  0.32160373  0.65029005  1
  Si0+  Si96  1  0.17937024  0.42707803  0.01460662  1
  Si0+  Si97  1  0.57219353  0.18068206  0.64997930  1
  Si0+  Si98  1  0.92838366  0.31951497  0.65000880  1
  Si0+  Si99  1  0.67641400  0.42786119  0.01679058  1
  Si0+  Si100  1  0.42610941  0.32273765  0.31690988  1
  Si0+  Si101  1  0.32500119  0.57419415  0.35290507  1
  Si0+  Si102  1  0.07173011  0.17890547  0.32005225  1
  Si0+  Si103  1  0.17502227  0.92558855  0.35234431  1
  Si0+  Si104  1  0.57159036  0.67981254  0.31921917  1
  Si0+  Si105  1  0.18310023  0.92881107  0.67900609  1
  Si0+  Si106  1  0.93010533  0.32192428  0.32012704  1
  Si0+  Si107  1  0.17833770  0.42711408  0.68433061  1
  Si0+  Si108  1  0.07189922  0.17881105  0.64987366  1
  Si0+  Si109  1  0.92756031  0.81990720  0.31801742  1
  Si0+  Si110  1  0.32022578  0.07380007  0.01470147  1
  Si0+  Si111  1  0.32145014  0.07344457  0.68290984  1
  Si0+  Si112  1  0.82318890  0.07477604  0.34846364  1
  Si0+  Si113  1  0.82383726  0.57036249  0.68427520  1
  Si0+  Si114  1  0.31805077  0.57111970  0.68031237  1
  Si0+  Si115  1  0.06963639  0.67797672  0.31736797  1
  Si0+  Si116  1  0.57238624  0.67672998  0.64923239  1
  Si0+  Si117  1  0.42696362  0.82161485  0.98699433  1
  Si0+  Si118  1  0.42865576  0.82170621  0.31771625  1
  Si0+  Si119  1  0.67725652  0.42642492  0.34735595  1
  O2-  O120  1  0.25142013  0.00501702  0.05864171  1
  O2-  O121  1  0.24361505  -0.00550302  0.39644425  1
  O2-  O122  1  0.25338331  -0.00068319  0.72372716  1
  O2-  O123  1  0.24742309  0.49627276  0.05899711  1
  O2-  O124  1  0.25788164  0.50370283  0.39644133  1
  O2-  O125  1  0.24678317  0.50117373  0.72407424  1
  O2-  O126  1  0.74633990  0.00361488  0.06710062  1
  O2-  O127  1  0.75367593  0.00776205  0.39312722  1
  O2-  O128  1  0.75514381  -0.00515682  0.73079055  1
  O2-  O129  1  0.75006060  0.49181372  0.06068410  1
  O2-  O130  1  0.74539395  0.49513490  0.39260913  1
  O2-  O131  1  0.74963346  0.50756155  0.72726626  1
  O2-  O132  1  -0.00316437  0.24620886  0.27913272  1
  O2-  O133  1  -0.00161296  0.24729275  0.60695847  1
  O2-  O134  1  -0.00547681  0.24518472  0.93494988  1
  O2-  O135  1  0.00173728  0.75173556  0.27590712  1
  O2-  O136  1  -0.00390898  0.74573355  0.59878699  1
  O2-  O137  1  0.00144011  0.74925491  0.93863213  1
  O2-  O138  1  0.49793178  0.25730485  0.27415793  1
  O2-  O139  1  0.50322169  0.24782374  0.60271863  1
  O2-  O140  1  0.50305807  0.25133486  0.93460369  1
  O2-  O141  1  0.49758256  0.74815430  0.27709111  1
  O2-  O142  1  0.51105608  0.75282588  0.60521570  1
  O2-  O143  1  0.49850921  0.75692566  0.94212077  1
  O2-  O144  1  0.07380978  0.18207729  0.10027981  1
  O2-  O145  1  0.07228383  0.18049909  0.42559208  1
  O2-  O146  1  0.07489566  0.17954990  0.75410314  1
  O2-  O147  1  0.07236951  0.67893543  0.10247526  1
  O2-  O148  1  0.06932545  0.67806194  0.42244119  1
  O2-  O149  1  0.07527589  0.68113922  0.76293852  1
  O2-  O150  1  0.56687026  0.17537873  0.09642375  1
  O2-  O151  1  0.56918549  0.18105145  0.43333728  1
  O2-  O152  1  0.56921820  0.18257161  0.75476902  1
  O2-  O153  1  0.57047836  0.68044543  0.10217847  1
  O2-  O154  1  0.56986781  0.67860995  0.42438004  1
  O2-  O155  1  0.56763137  0.67269960  0.75435881  1
  O2-  O156  1  0.18081480  0.43204489  0.23420414  1
  O2-  O157  1  0.17967588  0.42579714  0.57868096  1
  O2-  O158  1  0.18073956  0.42599891  0.90907687  1
  O2-  O159  1  0.17525668  0.92535966  0.24704526  1
  O2-  O160  1  0.18504485  0.93206727  0.57350139  1
  O2-  O161  1  0.18178881  0.92676032  0.89893142  1
  O2-  O162  1  0.67646637  0.42638446  0.24243266  1
  O2-  O163  1  0.68029367  0.43130816  0.56581384  1
  O2-  O164  1  0.67366257  0.43329565  0.91111542  1
  O2-  O165  1  0.67941973  0.92867140  0.23556873  1
  O2-  O166  1  0.67620275  0.93408742  0.56947717  1
  O2-  O167  1  0.67923905  0.92678130  0.90265019  1
  O2-  O168  1  0.42877233  0.31992050  0.09998358  1
  O2-  O169  1  0.42604148  0.32135768  0.42275645  1
  O2-  O170  1  0.42700297  0.32115677  0.76257536  1
  O2-  O171  1  0.42629956  0.81963476  0.09308953  1
  O2-  O172  1  0.42981697  0.82183771  0.42305390  1
  O2-  O173  1  0.42347810  0.81579614  0.76604677  1
  O2-  O174  1  0.93485022  0.32566125  0.09921655  1
  O2-  O175  1  0.93050593  0.32100349  0.42570666  1
  O2-  O176  1  0.93075263  0.32233052  0.75408116  1
  O2-  O177  1  0.92789425  0.81726212  0.10191887  1
  O2-  O178  1  0.92933260  0.81902689  0.42296256  1
  O2-  O179  1  0.93178944  0.82377962  0.76220769  1
  O2-  O180  1  0.31536297  0.06758863  0.23342877  1
  O2-  O181  1  0.31911926  0.07390543  0.57724301  1
  O2-  O182  1  0.31860775  0.07331625  0.90893509  1
  O2-  O183  1  0.32573273  0.57536650  0.24773232  1
  O2-  O184  1  0.31720583  0.56928568  0.57479417  1
  O2-  O185  1  0.32121289  0.57255619  0.89982222  1
  O2-  O186  1  0.82588461  0.07440124  0.24379625  1
  O2-  O187  1  0.82080284  0.07257568  0.56692042  1
  O2-  O188  1  0.82274324  0.06770418  0.90349806  1
  O2-  O189  1  0.82228452  0.57029602  0.23503342  1
  O2-  O190  1  0.82340256  0.56617931  0.57787083  1
  O2-  O191  1  0.81864303  0.56831488  0.89767595  1
  O2-  O192  1  0.04943766  0.08453314  0.27491796  1
  O2-  O193  1  0.04955023  0.08704144  0.59952435  1
  O2-  O194  1  0.04689834  0.07817102  0.93430074  1
  O2-  O195  1  0.03946437  0.58595578  0.27250031  1
  O2-  O196  1  0.04610248  0.57696472  0.59850971  1
  O2-  O197  1  0.05128358  0.57973814  0.93484951  1
  O2-  O198  1  0.53380958  0.08389901  0.26694182  1
  O2-  O199  1  0.54561964  0.08674027  0.60488389  1
  O2-  O200  1  0.53897158  0.07860152  0.92813998  1
  O2-  O201  1  0.54666062  0.58702153  0.27146250  1
  O2-  O202  1  0.53724797  0.58776431  0.59857236  1
  O2-  O203  1  0.53757306  0.58577692  0.93320582  1
  O2-  O204  1  0.16236248  0.21101026  0.27361216  1
  O2-  O205  1  0.16199577  0.21192211  0.60082137  1
  O2-  O206  1  0.16626230  0.20835296  0.92905898  1
  O2-  O207  1  0.16444284  0.70133644  0.27314460  1
  O2-  O208  1  0.16726420  0.70947347  0.59209154  1
  O2-  O209  1  0.17269439  0.70941674  0.93828595  1
  O2-  O210  1  0.66740840  0.20606116  0.26462097  1
  O2-  O211  1  0.66626459  0.20804054  0.60522632  1
  O2-  O212  1  0.67119452  0.19905333  0.93058362  1
  O2-  O213  1  0.66363090  0.71063908  0.27462726  1
  O2-  O214  1  0.66877132  0.69213618  0.60525383  1
  O2-  O215  1  0.66612958  0.70789117  0.93123618  1
  O2-  O216  1  0.08620912  0.45187478  0.06135833  1
  O2-  O217  1  0.08740684  0.46321264  0.40552989  1
  O2-  O218  1  0.08456032  0.45019373  0.72891852  1
  O2-  O219  1  0.08353977  0.95795163  0.07019087  1
  O2-  O220  1  0.08117332  0.95161764  0.39805604  1
  O2-  O221  1  0.09107355  0.95656179  0.72418657  1
  O2-  O222  1  0.58563082  0.45884086  0.06524530  1
  O2-  O223  1  0.58331274  0.45270464  0.39406089  1
  O2-  O224  1  0.57925779  0.46087613  0.73165643  1
  O2-  O225  1  0.57668182  0.95426494  0.06658890  1
  O2-  O226  1  0.58229748  0.96199974  0.40109729  1
  O2-  O227  1  0.57955567  0.95702085  0.73636331  1
  O2-  O228  1  0.20709866  0.33391965  0.06138863  1
  O2-  O229  1  0.20923286  0.33522682  0.40485122  1
  O2-  O230  1  0.20936155  0.33627864  0.73103407  1
  O2-  O231  1  0.21234266  0.83597816  0.07349807  1
  O2-  O232  1  0.20114948  0.83161740  0.39767859  1
  O2-  O233  1  0.21338487  0.83645687  0.72287601  1
  O2-  O234  1  0.69603149  0.33168457  0.05856787  1
  O2-  O235  1  0.70464729  0.33336079  0.39436319  1
  O2-  O236  1  0.70890100  0.33634776  0.73487662  1
  O2-  O237  1  0.70849787  0.83056438  0.06863985  1
  O2-  O238  1  0.70949252  0.83647321  0.40501641  1
  O2-  O239  1  0.69824897  0.82399727  0.72867320  1
  O2-  O240  1  0.44702234  0.41915023  0.27428444  1
  O2-  O241  1  0.45672444  0.41847201  0.59471957  1
  O2-  O242  1  0.45698619  0.41988186  0.93318992  1
  O2-  O243  1  0.45677312  0.91261965  0.27032108  1
  O2-  O244  1  0.45714984  0.92101859  0.60038211  1
  O2-  O245  1  0.44430417  0.91635559  0.94119988  1
  O2-  O246  1  0.96433493  0.41304260  0.27556885  1
  O2-  O247  1  0.95892204  0.40957368  0.59952755  1
  O2-  O248  1  0.96268595  0.41652610  0.92699894  1
  O2-  O249  1  0.95288011  0.91336290  0.27209612  1
  O2-  O250  1  0.96256518  0.91815886  0.59308996  1
  O2-  O251  1  0.95703298  0.91813774  0.93640722  1
  O2-  O252  1  0.33264826  0.29356411  0.27302332  1
  O2-  O253  1  0.33183906  0.28906986  0.59626757  1
  O2-  O254  1  0.33277584  0.29322631  0.93037294  1
  O2-  O255  1  0.33451122  0.79621126  0.27298748  1
  O2-  O256  1  0.33906696  0.78704400  0.59235274  1
  O2-  O257  1  0.33501429  0.79029557  0.94173722  1
  O2-  O258  1  0.83744638  0.30173365  0.27177101  1
  O2-  O259  1  0.83590345  0.29276616  0.60261453  1
  O2-  O260  1  0.82699702  0.30422830  0.93375997  1
  O2-  O261  1  0.83543354  0.78908348  0.27403247  1
  O2-  O262  1  0.82846458  0.79549800  0.59584931  1
  O2-  O263  1  0.83206950  0.78885756  0.93264377  1
  O2-  O264  1  0.41290450  0.04735309  0.06150592  1
  O2-  O265  1  0.41268307  0.03695248  0.40318411  1
  O2-  O266  1  0.41424741  0.05025718  0.72837848  1
  O2-  O267  1  0.41751078  0.53916256  0.07005094  1
  O2-  O268  1  0.41955245  0.55145433  0.39906798  1
  O2-  O269  1  0.41021061  0.54355476  0.72597092  1
  O2-  O270  1  0.91946738  0.04455077  0.07081407  1
  O2-  O271  1  0.91718506  0.04885362  0.39538193  1
  O2-  O272  1  0.92599277  0.04629701  0.72891076  1
  O2-  O273  1  0.91934942  0.53860770  0.06450992  1
  O2-  O274  1  0.91500891  0.53843127  0.40534259  1
  O2-  O275  1  0.91611683  0.53803154  0.72800533  1
  O2-  O276  1  0.29326679  0.16700310  0.06094814  1
  O2-  O277  1  0.28725203  0.16414015  0.40351044  1
  O2-  O278  1  0.28867741  0.16394160  0.72935698  1
  O2-  O279  1  0.29253620  0.66470996  0.07405229  1
  O2-  O280  1  0.29634029  0.66744654  0.39905184  1
  O2-  O281  1  0.29042030  0.66401705  0.72492125  1
  O2-  O282  1  0.79860163  0.17477904  0.06557452  1
  O2-  O283  1  0.79965100  0.17018960  0.39294214  1
  O2-  O284  1  0.79672332  0.16844533  0.73411156  1
  O2-  O285  1  0.78766155  0.66320014  0.06677193  1
  O2-  O286  1  0.78755464  0.66440382  0.40562579  1
  O2-  O287  1  0.80545152  0.66699457  0.72480322  1
