# generated using pymatgen
data_Ca2Al2SiO7
_symmetry_space_group_name_H-M   'P 1'
_cell_length_a   15.46490762
_cell_length_b   15.46499221
_cell_length_c   15.28942237
_cell_angle_alpha   89.98302302
_cell_angle_beta   90.00530305
_cell_angle_gamma   90.01706958
_symmetry_Int_Tables_number   1
_chemical_formula_structural   Ca2Al2SiO7
_chemical_formula_sum   'Ca48 Al48 Si24 O168'
_cell_volume   3656.68940811
_cell_formula_units_Z   24
loop_
 _symmetry_equiv_pos_site_id
 _symmetry_equiv_pos_as_xyz
  1  'x, y, z'
loop_
 _atom_type_symbol
 _atom_type_oxidation_number
  Ca2+  2.0
  Al0+  0.0
  Si0+  0.0
  O2-  -2.0
loop_
 _atom_site_type_symbol
 _atom_site_label
 _atom_site_symmetry_multiplicity
 _atom_site_fract_x
 _atom_site_fract_y
 _atom_site_fract_z
 _atom_site_occupancy
  Ca2+  Ca0  1  0.17370953  0.07546976  0.16940685  1
  Ca2+  Ca1  1  0.17666619  0.07801814  0.50999693  1
  Ca2+  Ca2  1  0.16864250  0.07690163  0.84173165  1
  Ca2+  Ca3  1  0.16952437  0.58477666  0.16241266  1
  Ca2+  Ca4  1  0.17132734  0.58008026  0.51162388  1
  Ca2+  Ca5  1  0.17100824  0.58561700  0.84144693  1
  Ca2+  Ca6  1  0.67474226  0.08339991  0.16925010  1
  Ca2+  Ca7  1  0.66839717  0.09236929  0.50157121  1
  Ca2+  Ca8  1  0.67262621  0.07907960  0.84282207  1
  Ca2+  Ca9  1  0.65423573  0.57652665  0.16318955  1
  Ca2+  Ca10  1  0.67349469  0.58011064  0.50983757  1
  Ca2+  Ca11  1  0.67149000  0.58148102  0.84191145  1
  Ca2+  Ca12  1  0.08299310  0.32642843  0.15515826  1
  Ca2+  Ca13  1  0.08577203  0.32483451  0.50039052  1
  Ca2+  Ca14  1  0.09361231  0.32124046  0.83404048  1
  Ca2+  Ca15  1  0.08994308  0.83313810  0.15781350  1
  Ca2+  Ca16  1  0.08849377  0.83513774  0.50369531  1
  Ca2+  Ca17  1  0.08665465  0.82854269  0.82686101  1
  Ca2+  Ca18  1  0.57770691  0.32870926  0.16390339  1
  Ca2+  Ca19  1  0.57465940  0.32184061  0.49291209  1
  Ca2+  Ca20  1  0.58443806  0.32770796  0.82905943  1
  Ca2+  Ca21  1  0.57626601  0.83093442  0.15234942  1
  Ca2+  Ca22  1  0.58018259  0.83051340  0.49689369  1
  Ca2+  Ca23  1  0.57706573  0.83738911  0.83675689  1
  Ca2+  Ca24  1  0.33106983  0.41793226  0.16402084  1
  Ca2+  Ca25  1  0.33882616  0.42138421  0.50347238  1
  Ca2+  Ca26  1  0.32823105  0.42893066  0.84037228  1
  Ca2+  Ca27  1  0.32722140  0.92212684  0.16644765  1
  Ca2+  Ca28  1  0.32379275  0.92543513  0.50520319  1
  Ca2+  Ca29  1  0.32492812  0.92557645  0.84020973  1
  Ca2+  Ca30  1  0.82538461  0.41550258  0.16565405  1
  Ca2+  Ca31  1  0.83252895  0.42369688  0.50720603  1
  Ca2+  Ca32  1  0.82901116  0.42182115  0.83856113  1
  Ca2+  Ca33  1  0.83147793  0.92755664  0.16535041  1
  Ca2+  Ca34  1  0.83307004  0.91871795  0.50320542  1
  Ca2+  Ca35  1  0.83021883  0.91806899  0.83946913  1
  Ca2+  Ca36  1  0.41088920  0.16619175  0.16340580  1
  Ca2+  Ca37  1  0.42377840  0.16062510  0.49284435  1
  Ca2+  Ca38  1  0.41881910  0.16129370  0.82646590  1
  Ca2+  Ca39  1  0.41782150  0.67601800  0.15116168  1
  Ca2+  Ca40  1  0.41218495  0.66726985  0.49870260  1
  Ca2+  Ca41  1  0.41155224  0.67016775  0.83507656  1
  Ca2+  Ca42  1  0.92036942  0.15997821  0.15919625  1
  Ca2+  Ca43  1  0.92471646  0.15805861  0.49877549  1
  Ca2+  Ca44  1  0.92977456  0.15961842  0.83246500  1
  Ca2+  Ca45  1  0.92575231  0.67274572  0.15622522  1
  Ca2+  Ca46  1  0.91897842  0.67206117  0.50286319  1
  Ca2+  Ca47  1  0.92759358  0.67131213  0.82337597  1
  Al0+  Al48  1  0.00026938  0.00051058  0.00262195  1
  Al0+  Al49  1  -0.00313260  -0.00264657  0.33998598  1
  Al0+  Al50  1  -0.00144068  -0.00049388  0.66109255  1
  Al0+  Al51  1  -0.00117568  0.49968241  -0.00040663  1
  Al0+  Al52  1  0.00065685  0.50033285  0.33302088  1
  Al0+  Al53  1  -0.00053857  0.49984859  0.66736499  1
  Al0+  Al54  1  0.50076144  0.00036365  0.00215371  1
  Al0+  Al55  1  0.50166868  -0.00302607  0.33103778  1
  Al0+  Al56  1  0.50094378  -0.00103792  0.66309880  1
  Al0+  Al57  1  0.50081332  0.50003039  0.00279892  1
  Al0+  Al58  1  0.49965163  0.49696834  0.33212543  1
  Al0+  Al59  1  0.50006324  0.49908906  0.67000203  1
  Al0+  Al60  1  0.25006411  0.25209933  0.00120581  1
  Al0+  Al61  1  0.24985907  0.25087247  0.33337001  1
  Al0+  Al62  1  0.25200594  0.25210759  0.66336521  1
  Al0+  Al63  1  0.25095141  0.75126478  -0.00201462  1
  Al0+  Al64  1  0.25005281  0.74806927  0.33659910  1
  Al0+  Al65  1  0.25067524  0.75030305  0.66764520  1
  Al0+  Al66  1  0.75016067  0.25330217  0.00677097  1
  Al0+  Al67  1  0.74987462  0.25118923  0.33553131  1
  Al0+  Al68  1  0.74889917  0.24977331  0.66239900  1
  Al0+  Al69  1  0.74974966  0.75011519  0.00082080  1
  Al0+  Al70  1  0.75277554  0.74952497  0.33116098  1
  Al0+  Al71  1  0.75084151  0.74930206  0.66675629  1
  Al0+  Al72  1  0.42879481  0.82384006  0.98275875  1
  Al0+  Al73  1  0.17729722  0.93152016  0.68332160  1
  Al0+  Al74  1  0.32010549  0.57172046  0.01547947  1
  Al0+  Al75  1  0.32163767  0.07208749  0.34896564  1
  Al0+  Al76  1  0.07314572  0.67857499  0.65039938  1
  Al0+  Al77  1  0.67856703  0.42994111  0.01423763  1
  Al0+  Al78  1  0.17872374  0.92897417  0.01337821  1
  Al0+  Al79  1  0.81830785  0.07156816  0.35002096  1
  Al0+  Al80  1  0.82132077  0.07170517  0.01268041  1
  Al0+  Al81  1  0.57154093  0.67744946  0.98358609  1
  Al0+  Al82  1  0.67856650  0.92775472  0.01428327  1
  Al0+  Al83  1  0.82146009  0.57162296  0.68085599  1
  Al0+  Al84  1  0.17863215  0.92667800  0.35040866  1
  Al0+  Al85  1  0.42745942  0.32110507  0.31506946  1
  Al0+  Al86  1  0.07051500  0.67913869  0.98665736  1
  Al0+  Al87  1  0.57206174  0.17737782  0.31500259  1
  Al0+  Al88  1  0.32142847  0.57073608  0.68031437  1
  Al0+  Al89  1  0.32327902  0.07252148  0.68105647  1
  Al0+  Al90  1  0.17720401  0.42922437  0.01468410  1
  Al0+  Al91  1  0.57058654  0.17779081  0.65403719  1
  Al0+  Al92  1  0.07189874  0.17956734  0.65262265  1
  Al0+  Al93  1  0.07096162  0.17934124  0.98873446  1
  Al0+  Al94  1  0.92715551  0.82089941  0.65021343  1
  Al0+  Al95  1  0.32239771  0.07359957  0.01393526  1
  Si0+  Si96  1  0.67954546  0.42799262  0.68252437  1
  Si0+  Si97  1  0.57287136  0.67833308  0.32053194  1
  Si0+  Si98  1  0.92811191  0.82300299  0.98454630  1
  Si0+  Si99  1  0.42897726  0.32130502  0.98331384  1
  Si0+  Si100  1  0.67909568  0.92496708  0.35045492  1
  Si0+  Si101  1  0.81962517  0.07205764  0.68057826  1
  Si0+  Si102  1  0.93010842  0.32408143  0.31872425  1
  Si0+  Si103  1  0.06833024  0.17829878  0.31979023  1
  Si0+  Si104  1  0.82213812  0.57256549  0.01753311  1
  Si0+  Si105  1  0.17657645  0.42744206  0.68255883  1
  Si0+  Si106  1  0.92568799  0.32228906  0.98359008  1
  Si0+  Si107  1  0.82281396  0.57090270  0.34813906  1
  Si0+  Si108  1  0.92653698  0.32134548  0.65010983  1
  Si0+  Si109  1  0.42977040  0.82042671  0.64973268  1
  Si0+  Si110  1  0.42954466  0.32376238  0.65098321  1
  Si0+  Si111  1  0.57250412  0.18096437  0.98603602  1
  Si0+  Si112  1  0.57073786  0.67752676  0.65216575  1
  Si0+  Si113  1  0.92816229  0.82061221  0.31558026  1
  Si0+  Si114  1  0.17632117  0.42915634  0.34918349  1
  Si0+  Si115  1  0.32066209  0.56889389  0.34787781  1
  Si0+  Si116  1  0.42858793  0.81752779  0.31932535  1
  Si0+  Si117  1  0.67862554  0.92761574  0.68000922  1
  Si0+  Si118  1  0.67855836  0.43080281  0.35068807  1
  Si0+  Si119  1  0.07098442  0.67850714  0.31813120  1
  O2-  O120  1  0.25033902  0.00133459  0.06281067  1
  O2-  O121  1  0.24773003  0.00216379  0.39904269  1
  O2-  O122  1  0.24687741  0.00642998  0.73162439  1
  O2-  O123  1  0.24703705  0.50181015  0.06716673  1
  O2-  O124  1  0.25034146  0.49755459  0.39057938  1
  O2-  O125  1  0.24227925  0.49993916  0.72433286  1
  O2-  O126  1  0.74898099  0.00096747  0.06407061  1
  O2-  O127  1  0.74125574  -0.00142455  0.39670286  1
  O2-  O128  1  0.74904685  0.00000730  0.72093069  1
  O2-  O129  1  0.75050301  0.50722668  0.06277692  1
  O2-  O130  1  0.74993202  0.50220710  0.39168532  1
  O2-  O131  1  0.74769626  0.49631363  0.72708845  1
  O2-  O132  1  -0.00240923  0.24997653  0.27699095  1
  O2-  O133  1  -0.00384712  0.25399597  0.60509634  1
  O2-  O134  1  -0.00443304  0.25425296  0.94124544  1
  O2-  O135  1  0.00361359  0.75298450  0.27593400  1
  O2-  O136  1  0.00180707  0.75110698  0.59927677  1
  O2-  O137  1  -0.00392386  0.75401481  0.94069553  1
  O2-  O138  1  0.49509876  0.24453039  0.26524619  1
  O2-  O139  1  0.49268048  0.24947996  0.60779998  1
  O2-  O140  1  0.49860233  0.24820424  0.94220601  1
  O2-  O141  1  0.50293229  0.74924577  0.27841611  1
  O2-  O142  1  0.49912135  0.74640837  0.60749560  1
  O2-  O143  1  0.50069136  0.75005799  0.93327898  1
  O2-  O144  1  0.06837023  0.18040335  0.10233275  1
  O2-  O145  1  0.06653485  0.18197176  0.42512836  1
  O2-  O146  1  0.07044525  0.18039031  0.76538674  1
  O2-  O147  1  0.06749858  0.67905570  0.10084143  1
  O2-  O148  1  0.06892946  0.67438443  0.42284080  1
  O2-  O149  1  0.07112520  0.67821754  0.76345205  1
  O2-  O150  1  0.57437453  0.18413508  0.09076455  1
  O2-  O151  1  0.57244385  0.18276465  0.42900379  1
  O2-  O152  1  0.57496624  0.18044631  0.76716538  1
  O2-  O153  1  0.56844304  0.67822207  0.09823434  1
  O2-  O154  1  0.57329167  0.67854045  0.42625686  1
  O2-  O155  1  0.57190760  0.67725192  0.75621617  1
  O2-  O156  1  0.17129208  0.43184637  0.24487689  1
  O2-  O157  1  0.17758536  0.42734295  0.57614005  1
  O2-  O158  1  0.18100442  0.42788414  0.90125567  1
  O2-  O159  1  0.18082110  0.92440990  0.23729957  1
  O2-  O160  1  0.18148966  0.93224494  0.56948880  1
  O2-  O161  1  0.17674631  0.93079597  0.90029232  1
  O2-  O162  1  0.67842639  0.43238072  0.24583672  1
  O2-  O163  1  0.67990990  0.43063578  0.57649777  1
  O2-  O164  1  0.68221727  0.42712840  0.90119818  1
  O2-  O165  1  0.68389359  0.92011454  0.24582827  1
  O2-  O166  1  0.67834522  0.92584955  0.57462509  1
  O2-  O167  1  0.67996463  0.93060480  0.90002694  1
  O2-  O168  1  0.43017109  0.32184404  0.08837787  1
  O2-  O169  1  0.43344771  0.32988594  0.42841144  1
  O2-  O170  1  0.43320425  0.32795806  0.75620930  1
  O2-  O171  1  0.42976364  0.82158341  0.09721271  1
  O2-  O172  1  0.42906586  0.81382693  0.42491922  1
  O2-  O173  1  0.43232386  0.82257898  0.75392152  1
  O2-  O174  1  0.92496674  0.32244992  0.08973090  1
  O2-  O175  1  0.93303967  0.32944980  0.42368982  1
  O2-  O176  1  0.92204167  0.31942299  0.75506571  1
  O2-  O177  1  0.92851991  0.82112031  0.09076390  1
  O2-  O178  1  0.92150934  0.81679666  0.42009381  1
  O2-  O179  1  0.92248274  0.81864022  0.76328919  1
  O2-  O180  1  0.31830130  0.07099419  0.23590739  1
  O2-  O181  1  0.32497134  0.06885895  0.56740327  1
  O2-  O182  1  0.32192318  0.07394569  0.90047511  1
  O2-  O183  1  0.31989558  0.57141269  0.24358838  1
  O2-  O184  1  0.32379784  0.56675263  0.56607167  1
  O2-  O185  1  0.31969661  0.56891395  0.90203442  1
  O2-  O186  1  0.82070159  0.06979383  0.23749622  1
  O2-  O187  1  0.81734305  0.07291774  0.57529875  1
  O2-  O188  1  0.81994427  0.07189204  0.89869611  1
  O2-  O189  1  0.82468692  0.56931768  0.24358029  1
  O2-  O190  1  0.81766934  0.56966413  0.56670458  1
  O2-  O191  1  0.82220118  0.56955922  0.91214135  1
  O2-  O192  1  0.03817160  0.08561237  0.27635698  1
  O2-  O193  1  0.03870845  0.08520833  0.59613777  1
  O2-  O194  1  0.03775488  0.08391646  0.93388705  1
  O2-  O195  1  0.03919044  0.58807371  0.26977675  1
  O2-  O196  1  0.04349556  0.57887987  0.59845607  1
  O2-  O197  1  0.03971066  0.58195793  0.93379876  1
  O2-  O198  1  0.55477971  0.07434581  0.26776922  1
  O2-  O199  1  0.54478980  0.08079406  0.59737871  1
  O2-  O200  1  0.54946241  0.08772460  0.94022059  1
  O2-  O201  1  0.54458205  0.58621157  0.27509222  1
  O2-  O202  1  0.54411706  0.58487428  0.60431299  1
  O2-  O203  1  0.54522448  0.57771197  0.93247344  1
  O2-  O204  1  0.16040966  0.20596301  0.27434636  1
  O2-  O205  1  0.16760817  0.21284486  0.59669750  1
  O2-  O206  1  0.16643198  0.21277761  0.93377488  1
  O2-  O207  1  0.16462339  0.70313459  0.27298555  1
  O2-  O208  1  0.17248613  0.70538171  0.59691207  1
  O2-  O209  1  0.16723315  0.70722837  0.93376592  1
  O2-  O210  1  0.67006116  0.21337777  0.26501099  1
  O2-  O211  1  0.66510354  0.21244042  0.59668265  1
  O2-  O212  1  0.66357991  0.21370821  0.93945390  1
  O2-  O213  1  0.66544238  0.70298049  0.27332921  1
  O2-  O214  1  0.66140181  0.70709995  0.60276446  1
  O2-  O215  1  0.67193739  0.70336523  0.93331322  1
  O2-  O216  1  0.07720793  0.45367507  0.06707906  1
  O2-  O217  1  0.08626851  0.46058722  0.39908508  1
  O2-  O218  1  0.08154416  0.44643873  0.72702897  1
  O2-  O219  1  0.08099306  0.95629049  0.06823063  1
  O2-  O220  1  0.07796148  0.94898162  0.40061207  1
  O2-  O221  1  0.07580226  0.95560282  0.73088596  1
  O2-  O222  1  0.58340317  0.45941581  0.07139986  1
  O2-  O223  1  0.58749158  0.45993024  0.39904730  1
  O2-  O224  1  0.58668130  0.45308038  0.72886962  1
  O2-  O225  1  0.58135904  0.95538165  0.06820684  1
  O2-  O226  1  0.58289043  0.94245894  0.39418598  1
  O2-  O227  1  0.58729456  0.95547646  0.72677820  1
  O2-  O228  1  0.20856585  0.33311197  0.06992075  1
  O2-  O229  1  0.20130669  0.33678719  0.39643888  1
  O2-  O230  1  0.20661927  0.33557247  0.72865692  1
  O2-  O231  1  0.20774659  0.83122996  0.06651767  1
  O2-  O232  1  0.21074202  0.82857942  0.40382960  1
  O2-  O233  1  0.20779507  0.83241661  0.73177364  1
  O2-  O234  1  0.71238721  0.33728284  0.07387247  1
  O2-  O235  1  0.70774148  0.34013576  0.39866081  1
  O2-  O236  1  0.70640409  0.33433561  0.72745520  1
  O2-  O237  1  0.70547271  0.82919038  0.06824178  1
  O2-  O238  1  0.71070906  0.83263882  0.39843982  1
  O2-  O239  1  0.70646920  0.83659628  0.72769471  1
  O2-  O240  1  0.46188832  0.41838195  0.26130045  1
  O2-  O241  1  0.46225305  0.41474221  0.60144033  1
  O2-  O242  1  0.46053593  0.41211086  0.93678020  1
  O2-  O243  1  0.45311898  0.90952184  0.27220816  1
  O2-  O244  1  0.46232826  0.90924186  0.59890611  1
  O2-  O245  1  0.46102953  0.92149094  0.92947082  1
  O2-  O246  1  0.95974628  0.41436196  0.26849604  1
  O2-  O247  1  0.95139105  0.41530147  0.60373482  1
  O2-  O248  1  0.94916003  0.41608216  0.93753476  1
  O2-  O249  1  0.95189885  0.91445604  0.27110523  1
  O2-  O250  1  0.95105052  0.91956879  0.59553257  1
  O2-  O251  1  0.95196530  0.91676404  0.93914363  1
  O2-  O252  1  0.32582326  0.30014708  0.26514522  1
  O2-  O253  1  0.33462376  0.30689784  0.60441599  1
  O2-  O254  1  0.33674523  0.29701486  0.93601755  1
  O2-  O255  1  0.33828460  0.78478332  0.27228652  1
  O2-  O256  1  0.33890525  0.79196817  0.60128659  1
  O2-  O257  1  0.33167196  0.79406636  0.92930878  1
  O2-  O258  1  0.83613130  0.29996619  0.27466729  1
  O2-  O259  1  0.83407246  0.29579364  0.60038583  1
  O2-  O260  1  0.83205929  0.29687378  0.93750112  1
  O2-  O261  1  0.83905752  0.78757685  0.26517758  1
  O2-  O262  1  0.82977366  0.78745551  0.59456785  1
  O2-  O263  1  0.83390198  0.79873798  0.93964339  1
  O2-  O264  1  0.42072391  0.04694451  0.06676028  1
  O2-  O265  1  0.42183449  0.04117312  0.39781031  1
  O2-  O266  1  0.42161362  0.03980882  0.73168747  1
  O2-  O267  1  0.41803244  0.54210794  0.06814600  1
  O2-  O268  1  0.41320584  0.54144054  0.39526521  1
  O2-  O269  1  0.41697697  0.53791920  0.73474593  1
  O2-  O270  1  0.91726761  0.04117822  0.06885274  1
  O2-  O271  1  0.91279784  0.03708047  0.40589645  1
  O2-  O272  1  0.91181615  0.04480922  0.72574500  1
  O2-  O273  1  0.91355380  0.54295533  0.06577803  1
  O2-  O274  1  0.91331733  0.54019678  0.39691713  1
  O2-  O275  1  0.91773308  0.54131859  0.73438921  1
  O2-  O276  1  0.29408616  0.17152141  0.06668194  1
  O2-  O277  1  0.29677086  0.17284015  0.40017691  1
  O2-  O278  1  0.30360439  0.17541470  0.72722159  1
  O2-  O279  1  0.29263547  0.67004264  0.06793703  1
  O2-  O280  1  0.29239214  0.65926345  0.39784493  1
  O2-  O281  1  0.29623718  0.66859260  0.73194966  1
  O2-  O282  1  0.79493964  0.16971595  0.06723231  1
  O2-  O283  1  0.79195859  0.17011796  0.40366586  1
  O2-  O284  1  0.79120421  0.16403418  0.72658243  1
  O2-  O285  1  0.80118052  0.66710425  0.06295967  1
  O2-  O286  1  0.79536570  0.66315775  0.39487784  1
  O2-  O287  1  0.78850593  0.66675601  0.73456120  1
