# generated using pymatgen
data_Ca2Al2SiO7
_symmetry_space_group_name_H-M   'P 1'
_cell_length_a   15.45341928
_cell_length_b   15.45285080
_cell_length_c   15.27994224
_cell_angle_alpha   89.99919163
_cell_angle_beta   90.00619612
_cell_angle_gamma   90.01316158
_symmetry_Int_Tables_number   1
_chemical_formula_structural   Ca2Al2SiO7
_chemical_formula_sum   'Ca48 Al48 Si24 O168'
_cell_volume   3648.84065479
_cell_formula_units_Z   24
loop_
 _symmetry_equiv_pos_site_id
 _symmetry_equiv_pos_as_xyz
  1  'x, y, z'
loop_
 _atom_type_symbol
 _atom_type_oxidation_number
  Ca2+  2.0
  Al0+  0.0
  Si0+  0.0
  O2-  -2.0
loop_
 _atom_site_type_symbol
 _atom_site_label
 _atom_site_symmetry_multiplicity
 _atom_site_fract_x
 _atom_site_fract_y
 _atom_site_fract_z
 _atom_site_occupancy
  Ca2+  Ca0  1  0.17156569  0.07955787  0.17491286  1
  Ca2+  Ca1  1  0.16703007  0.07160037  0.50688148  1
  Ca2+  Ca2  1  0.17662325  0.08152577  0.83599948  1
  Ca2+  Ca3  1  0.16447929  0.57799505  0.17671789  1
  Ca2+  Ca4  1  0.15781602  0.57683495  0.50488793  1
  Ca2+  Ca5  1  0.16046891  0.57946116  0.82850285  1
  Ca2+  Ca6  1  0.66983619  0.07744214  0.17123134  1
  Ca2+  Ca7  1  0.65591053  0.08026441  0.50090618  1
  Ca2+  Ca8  1  0.67040548  0.07952094  0.84083558  1
  Ca2+  Ca9  1  0.67603425  0.57409566  0.17313281  1
  Ca2+  Ca10  1  0.67763264  0.58369558  0.50527263  1
  Ca2+  Ca11  1  0.67638861  0.58264402  0.84148863  1
  Ca2+  Ca12  1  0.08726829  0.32830126  0.16741520  1
  Ca2+  Ca13  1  0.08028837  0.33676829  0.49437699  1
  Ca2+  Ca14  1  0.07499144  0.33411084  0.82383435  1
  Ca2+  Ca15  1  0.07861872  0.82877517  0.16300235  1
  Ca2+  Ca16  1  0.09083142  0.82434014  0.49236601  1
  Ca2+  Ca17  1  0.07648693  0.82952905  0.82692891  1
  Ca2+  Ca18  1  0.58517777  0.33346133  0.16112356  1
  Ca2+  Ca19  1  0.58691638  0.32108376  0.49241542  1
  Ca2+  Ca20  1  0.57982383  0.33076444  0.82793585  1
  Ca2+  Ca21  1  0.58466521  0.83947029  0.16654794  1
  Ca2+  Ca22  1  0.57841586  0.83058278  0.49262934  1
  Ca2+  Ca23  1  0.58834086  0.82876174  0.82758223  1
  Ca2+  Ca24  1  0.33126270  0.41668652  0.17069566  1
  Ca2+  Ca25  1  0.31882339  0.41268441  0.50279600  1
  Ca2+  Ca26  1  0.32830418  0.41118492  0.83695862  1
  Ca2+  Ca27  1  0.33236098  0.92245099  0.17537125  1
  Ca2+  Ca28  1  0.32556256  0.91732168  0.50429072  1
  Ca2+  Ca29  1  0.33075331  0.92763719  0.83374117  1
  Ca2+  Ca30  1  0.82499562  0.42527844  0.17252985  1
  Ca2+  Ca31  1  0.83519765  0.42542050  0.50285111  1
  Ca2+  Ca32  1  0.83092949  0.42622208  0.83741767  1
  Ca2+  Ca33  1  0.82582980  0.91517609  0.16605331  1
  Ca2+  Ca34  1  0.82788223  0.91782508  0.49996679  1
  Ca2+  Ca35  1  0.82873747  0.92090368  0.84558551  1
  Ca2+  Ca36  1  0.42165698  0.17157404  0.16104821  1
  Ca2+  Ca37  1  0.42430180  0.15979995  0.49717147  1
  Ca2+  Ca38  1  0.41838461  0.16518545  0.83050863  1
  Ca2+  Ca39  1  0.41443527  0.67711440  0.16463823  1
  Ca2+  Ca40  1  0.42124450  0.67270861  0.49479454  1
  Ca2+  Ca41  1  0.42854605  0.66833497  0.82529786  1
  Ca2+  Ca42  1  0.92378547  0.15937579  0.16353984  1
  Ca2+  Ca43  1  0.92302120  0.17635918  0.49359893  1
  Ca2+  Ca44  1  0.91100332  0.17431709  0.82678417  1
  Ca2+  Ca45  1  0.91476258  0.66592129  0.16477522  1
  Ca2+  Ca46  1  0.92414202  0.65961528  0.49692536  1
  Ca2+  Ca47  1  0.91316425  0.66987640  0.82734278  1
  Al0+  Al48  1  0.00137172  -0.00270889  -0.00331591  1
  Al0+  Al49  1  0.00047946  -0.00021429  0.33365668  1
  Al0+  Al50  1  -0.00203821  0.00006081  0.67089996  1
  Al0+  Al51  1  0.00156470  0.49797046  0.00361991  1
  Al0+  Al52  1  0.00022009  0.50029768  0.33343751  1
  Al0+  Al53  1  -0.00219216  0.50129347  0.66873197  1
  Al0+  Al54  1  0.49771683  0.00105781  0.00591884  1
  Al0+  Al55  1  0.50123560  0.00122564  0.32791047  1
  Al0+  Al56  1  0.49877775  -0.00004991  0.66810590  1
  Al0+  Al57  1  0.49717310  0.49988307  -0.00166536  1
  Al0+  Al58  1  0.50101886  0.50014603  0.33777056  1
  Al0+  Al59  1  0.49934933  0.49872594  0.65895091  1
  Al0+  Al60  1  0.25138033  0.24875011  -0.00069258  1
  Al0+  Al61  1  0.25093503  0.25070079  0.33400650  1
  Al0+  Al62  1  0.24938084  0.24925702  0.67487684  1
  Al0+  Al63  1  0.25030385  0.74856604  -0.00506207  1
  Al0+  Al64  1  0.25063671  0.75081943  0.32620499  1
  Al0+  Al65  1  0.24897335  0.74882476  0.66938868  1
  Al0+  Al66  1  0.75187548  0.24880800  0.00616345  1
  Al0+  Al67  1  0.75098368  0.25048529  0.33016633  1
  Al0+  Al68  1  0.74902795  0.25105461  0.65627522  1
  Al0+  Al69  1  0.75152609  0.75036491  0.00362094  1
  Al0+  Al70  1  0.75033155  0.75139506  0.34177927  1
  Al0+  Al71  1  0.75051027  0.75018678  0.66482623  1
  Al0+  Al72  1  0.67706031  0.42649192  0.35095464  1
  Al0+  Al73  1  0.06972197  0.67875480  0.31889577  1
  Al0+  Al74  1  0.81869500  0.57028186  0.68220988  1
  Al0+  Al75  1  0.17606266  0.92538944  0.68344112  1
  Al0+  Al76  1  0.57340927  0.67794188  0.65281346  1
  Al0+  Al77  1  0.17869869  0.92850492  0.34465259  1
  Al0+  Al78  1  0.92926742  0.81888821  0.98648239  1
  Al0+  Al79  1  0.67868507  0.93240946  0.34912996  1
  Al0+  Al80  1  0.07198067  0.17820440  0.32125087  1
  Al0+  Al81  1  0.06898190  0.68170313  0.65362331  1
  Al0+  Al82  1  0.57156013  0.18020744  0.31623745  1
  Al0+  Al83  1  0.17864144  0.43044447  0.68139456  1
  Al0+  Al84  1  0.42921727  0.32124399  0.98548882  1
  Al0+  Al85  1  0.67832345  0.92886526  0.01428761  1
  Al0+  Al86  1  0.32184686  0.06960326  0.68177435  1
  Al0+  Al87  1  0.82059717  0.57089078  0.35104057  1
  Al0+  Al88  1  0.56894140  0.17942240  0.65403730  1
  Al0+  Al89  1  0.82421756  0.07215642  0.01432930  1
  Al0+  Al90  1  0.92997373  0.32136322  0.65300168  1
  Al0+  Al91  1  0.82282122  0.57110786  0.01558822  1
  Al0+  Al92  1  0.67596952  0.42896562  0.01243136  1
  Al0+  Al93  1  0.31881109  0.07112454  0.01697985  1
  Al0+  Al94  1  0.18154737  0.42954231  0.34578906  1
  Al0+  Al95  1  0.43031988  0.81984328  0.31943481  1
  Si0+  Si96  1  0.92692094  0.82530301  0.64858453  1
  Si0+  Si97  1  0.07307752  0.67510538  0.98165182  1
  Si0+  Si98  1  0.07283730  0.17727034  0.65226282  1
  Si0+  Si99  1  0.17921269  0.92587500  0.01676813  1
  Si0+  Si100  1  0.32125404  0.57235736  0.01367846  1
  Si0+  Si101  1  0.67961407  0.93028490  0.68016465  1
  Si0+  Si102  1  0.42936008  0.82092264  0.65177249  1
  Si0+  Si103  1  0.32459811  0.57155501  0.68314991  1
  Si0+  Si104  1  0.42781498  0.32338216  0.31781286  1
  Si0+  Si105  1  0.42433282  0.32214651  0.64861385  1
  Si0+  Si106  1  0.56938345  0.68037826  0.98771407  1
  Si0+  Si107  1  0.32251899  0.57472660  0.34916085  1
  Si0+  Si108  1  0.32164176  0.07182945  0.34921063  1
  Si0+  Si109  1  0.92992798  0.32216158  0.31363570  1
  Si0+  Si110  1  0.81987558  0.07367132  0.67868862  1
  Si0+  Si111  1  0.92627136  0.82291491  0.31731184  1
  Si0+  Si112  1  0.42749881  0.82331000  0.98321759  1
  Si0+  Si113  1  0.82395268  0.07275331  0.35129257  1
  Si0+  Si114  1  0.92994141  0.32070085  0.98636599  1
  Si0+  Si115  1  0.67690389  0.42583054  0.68144990  1
  Si0+  Si116  1  0.07195532  0.17843366  0.98392021  1
  Si0+  Si117  1  0.57403029  0.67782145  0.31654953  1
  Si0+  Si118  1  0.18011598  0.42918311  0.01489485  1
  Si0+  Si119  1  0.57259555  0.17795292  0.98433705  1
  O2-  O120  1  0.24718632  -0.00634906  0.06305881  1
  O2-  O121  1  0.25101143  0.00492258  0.39250581  1
  O2-  O122  1  0.24667501  0.00007106  0.73154268  1
  O2-  O123  1  0.24878310  0.50294653  0.05597013  1
  O2-  O124  1  0.25510388  0.50492487  0.39330066  1
  O2-  O125  1  0.25697825  0.50190652  0.72837096  1
  O2-  O126  1  0.75003902  0.00197880  0.06318586  1
  O2-  O127  1  0.75224261  0.00778366  0.39705248  1
  O2-  O128  1  0.75082891  0.00109266  0.72168103  1
  O2-  O129  1  0.74957421  0.49902558  0.06268220  1
  O2-  O130  1  0.74737954  0.49981253  0.40082403  1
  O2-  O131  1  0.74006114  0.49854094  0.72730755  1
  O2-  O132  1  -0.00264622  0.25114681  0.27039834  1
  O2-  O133  1  0.00623983  0.24720202  0.60733445  1
  O2-  O134  1  -0.00254312  0.24648874  0.94259043  1
  O2-  O135  1  -0.00525123  0.75351815  0.27343174  1
  O2-  O136  1  -0.00060278  0.76046385  0.60526939  1
  O2-  O137  1  0.00240120  0.74246089  0.93935298  1
  O2-  O138  1  0.50036599  0.25966546  0.27232088  1
  O2-  O139  1  0.49380563  0.25363223  0.60612280  1
  O2-  O140  1  0.50689493  0.24921810  0.93920913  1
  O2-  O141  1  0.50469983  0.74511328  0.27074072  1
  O2-  O142  1  0.49616552  0.75070406  0.60726489  1
  O2-  O143  1  0.50180459  0.75461053  0.94301503  1
  O2-  O144  1  0.07353234  0.18032387  0.08917877  1
  O2-  O145  1  0.07022711  0.17896874  0.43430282  1
  O2-  O146  1  0.06998011  0.17859275  0.75834639  1
  O2-  O147  1  0.07695617  0.67560912  0.08706557  1
  O2-  O148  1  0.07054982  0.67894505  0.43191686  1
  O2-  O149  1  0.06501734  0.68087138  0.76697019  1
  O2-  O150  1  0.56982295  0.17826276  0.08964138  1
  O2-  O151  1  0.56643970  0.17754899  0.42963908  1
  O2-  O152  1  0.57111260  0.17961414  0.76725329  1
  O2-  O153  1  0.56484437  0.67956466  0.09250676  1
  O2-  O154  1  0.57169018  0.68045731  0.42229231  1
  O2-  O155  1  0.57339860  0.68115265  0.76684553  1
  O2-  O156  1  0.18410341  0.42945532  0.23207290  1
  O2-  O157  1  0.17912644  0.43114024  0.56842618  1
  O2-  O158  1  0.17886675  0.42981698  0.90983428  1
  O2-  O159  1  0.18049881  0.92959461  0.23138299  1
  O2-  O160  1  0.17851399  0.92538554  0.56958807  1
  O2-  O161  1  0.18122408  0.92704407  0.91121160  1
  O2-  O162  1  0.67772144  0.42893934  0.23706252  1
  O2-  O163  1  0.68055384  0.42472068  0.57635391  1
  O2-  O164  1  0.67580482  0.43106812  0.89833872  1
  O2-  O165  1  0.68020074  0.93276293  0.23645524  1
  O2-  O166  1  0.67825548  0.93146677  0.57517274  1
  O2-  O167  1  0.67919765  0.92916925  0.89973574  1
  O2-  O168  1  0.42644223  0.32046733  0.09840021  1
  O2-  O169  1  0.42422993  0.31980862  0.42320119  1
  O2-  O170  1  0.42605339  0.32359782  0.75440852  1
  O2-  O171  1  0.42345923  0.82046995  0.08805031  1
  O2-  O172  1  0.43052816  0.81828966  0.43281207  1
  O2-  O173  1  0.43317974  0.82102386  0.75788532  1
  O2-  O174  1  0.93471737  0.32295129  0.09102895  1
  O2-  O175  1  0.93221984  0.32209407  0.41955177  1
  O2-  O176  1  0.92895034  0.31901486  0.76692223  1
  O2-  O177  1  0.93173374  0.81931487  0.09945025  1
  O2-  O178  1  0.92721015  0.82463798  0.42297726  1
  O2-  O179  1  0.92427732  0.82404209  0.75432499  1
  O2-  O180  1  0.31968630  0.07156407  0.24335384  1
  O2-  O181  1  0.32346897  0.06621933  0.56818894  1
  O2-  O182  1  0.31799190  0.07060215  0.90401227  1
  O2-  O183  1  0.32156622  0.57391539  0.24287104  1
  O2-  O184  1  0.32439078  0.57262802  0.57776825  1
  O2-  O185  1  0.32271735  0.57309858  0.90880215  1
  O2-  O186  1  0.82532521  0.06936498  0.24587099  1
  O2-  O187  1  0.82095905  0.07223443  0.57383051  1
  O2-  O188  1  0.82137260  0.07354566  0.89987323  1
  O2-  O189  1  0.81976572  0.56944506  0.23729139  1
  O2-  O190  1  0.82020914  0.56919932  0.56978298  1
  O2-  O191  1  0.82172149  0.57024128  0.90167706  1
  O2-  O192  1  0.04171847  0.08183753  0.26530658  1
  O2-  O193  1  0.04529083  0.08347512  0.60740877  1
  O2-  O194  1  0.04954158  0.08520218  0.93718165  1
  O2-  O195  1  0.03958035  0.58220969  0.26377746  1
  O2-  O196  1  0.03444295  0.58596647  0.60080666  1
  O2-  O197  1  0.04938324  0.57964334  0.93809139  1
  O2-  O198  1  0.53767901  0.08580768  0.26060962  1
  O2-  O199  1  0.53673289  0.08248387  0.60012376  1
  O2-  O200  1  0.54263039  0.08462569  0.93910043  1
  O2-  O201  1  0.54954415  0.58281294  0.27279834  1
  O2-  O202  1  0.54531793  0.58147575  0.59735680  1
  O2-  O203  1  0.53744559  0.59092391  0.93772046  1
  O2-  O204  1  0.16818372  0.21070283  0.26624103  1
  O2-  O205  1  0.16812570  0.19986971  0.60954289  1
  O2-  O206  1  0.16158559  0.21148596  0.93555468  1
  O2-  O207  1  0.16580125  0.70820907  0.26270058  1
  O2-  O208  1  0.16899781  0.70477444  0.60183711  1
  O2-  O209  1  0.16619717  0.70127763  0.93333080  1
  O2-  O210  1  0.67050159  0.20529230  0.26383968  1
  O2-  O211  1  0.66362826  0.20815581  0.59527247  1
  O2-  O212  1  0.66888387  0.19878557  0.94128402  1
  O2-  O213  1  0.66769010  0.70632988  0.27304338  1
  O2-  O214  1  0.66753887  0.71263440  0.59722851  1
  O2-  O215  1  0.66230085  0.70595927  0.94160631  1
  O2-  O216  1  0.08895860  0.45381005  0.06472376  1
  O2-  O217  1  0.08477081  0.45939940  0.39827966  1
  O2-  O218  1  0.08419591  0.46531080  0.73706630  1
  O2-  O219  1  0.08531095  0.95113427  0.06081451  1
  O2-  O220  1  0.08198784  0.95633233  0.39967025  1
  O2-  O221  1  0.07675495  0.95306254  0.73613225  1
  O2-  O222  1  0.57756722  0.45844879  0.06525243  1
  O2-  O223  1  0.57695787  0.44973225  0.40335423  1
  O2-  O224  1  0.57959414  0.44585455  0.72221275  1
  O2-  O225  1  0.57953366  0.95428853  0.06703783  1
  O2-  O226  1  0.58142658  0.96433452  0.40160224  1
  O2-  O227  1  0.58812331  0.95677296  0.72845460  1
  O2-  O228  1  0.21084338  0.33816172  0.06139930  1
  O2-  O229  1  0.21230233  0.33363607  0.40177852  1
  O2-  O230  1  0.20511425  0.33354998  0.73750210  1
  O2-  O231  1  0.20436641  0.83047929  0.05947940  1
  O2-  O232  1  0.21329300  0.83226903  0.39670782  1
  O2-  O233  1  0.20588433  0.82803913  0.73807831  1
  O2-  O234  1  0.70276700  0.33063435  0.06523181  1
  O2-  O235  1  0.70726029  0.32715553  0.40078037  1
  O2-  O236  1  0.70713989  0.33310991  0.72699744  1
  O2-  O237  1  0.70718873  0.83177624  0.06880958  1
  O2-  O238  1  0.70778508  0.83640638  0.40494869  1
  O2-  O239  1  0.70791060  0.83865790  0.72731414  1
  O2-  O240  1  0.44757412  0.41999393  0.27429783  1
  O2-  O241  1  0.44539919  0.41578763  0.60070534  1
  O2-  O242  1  0.45403297  0.41934026  0.92998394  1
  O2-  O243  1  0.46144989  0.91539853  0.26390323  1
  O2-  O244  1  0.45701325  0.91310721  0.60493908  1
  O2-  O245  1  0.45288679  0.91664836  0.93806620  1
  O2-  O246  1  0.95924023  0.41411006  0.26708912  1
  O2-  O247  1  0.96319483  0.41665130  0.59943790  1
  O2-  O248  1  0.96203071  0.41121546  0.93760911  1
  O2-  O249  1  0.95235441  0.91594437  0.27057860  1
  O2-  O250  1  0.94711273  0.92120509  0.60451317  1
  O2-  O251  1  0.96034917  0.91495874  0.92942585  1
  O2-  O252  1  0.33603981  0.29446139  0.26909727  1
  O2-  O253  1  0.32973274  0.29502195  0.60536345  1
  O2-  O254  1  0.33344360  0.28698507  0.93046174  1
  O2-  O255  1  0.33620247  0.78850313  0.26004686  1
  O2-  O256  1  0.33485409  0.79600769  0.60795783  1
  O2-  O257  1  0.33774587  0.79185040  0.93312072  1
  O2-  O258  1  0.83596662  0.29846016  0.26825076  1
  O2-  O259  1  0.83616206  0.28974938  0.59475079  1
  O2-  O260  1  0.83673889  0.29575971  0.93993488  1
  O2-  O261  1  0.83203659  0.79624261  0.27297651  1
  O2-  O262  1  0.83454931  0.79710088  0.60166188  1
  O2-  O263  1  0.83139165  0.79097650  0.93187680  1
  O2-  O264  1  0.41530219  0.04312909  0.07129010  1
  O2-  O265  1  0.41450505  0.04222924  0.39310026  1
  O2-  O266  1  0.41824544  0.03696887  0.73838237  1
  O2-  O267  1  0.41103323  0.54377182  0.06375629  1
  O2-  O268  1  0.41672679  0.55280151  0.39541677  1
  O2-  O269  1  0.41938000  0.54630735  0.72841216  1
  O2-  O270  1  0.92305622  0.04144504  0.06523659  1
  O2-  O271  1  0.91587615  0.04430565  0.39941156  1
  O2-  O272  1  0.91158840  0.05024329  0.72864464  1
  O2-  O273  1  0.92127525  0.54166881  0.06808912  1
  O2-  O274  1  0.91884104  0.53895812  0.40204091  1
  O2-  O275  1  0.91305091  0.53616661  0.73762921  1
  O2-  O276  1  0.28550041  0.16711730  0.07035512  1
  O2-  O277  1  0.29938095  0.16592152  0.39481843  1
  O2-  O278  1  0.29684558  0.16798037  0.73699882  1
  O2-  O279  1  0.29452633  0.66506429  0.06077380  1
  O2-  O280  1  0.29586008  0.66796288  0.39387240  1
  O2-  O281  1  0.29900592  0.66424897  0.73135100  1
  O2-  O282  1  0.80163980  0.17019014  0.07011565  1
  O2-  O283  1  0.80251452  0.16848325  0.39347328  1
  O2-  O284  1  0.78920128  0.16531930  0.72482952  1
  O2-  O285  1  0.79505847  0.66868629  0.06851966  1
  O2-  O286  1  0.79538913  0.66949584  0.40490514  1
  O2-  O287  1  0.78927076  0.66894756  0.73401038  1
