# generated using pymatgen
data_Ca2Al2SiO7
_symmetry_space_group_name_H-M   'P 1'
_cell_length_a   15.45796299
_cell_length_b   15.45707163
_cell_length_c   15.28241788
_cell_angle_alpha   90.00168757
_cell_angle_beta   90.02119239
_cell_angle_gamma   89.98940185
_symmetry_Int_Tables_number   1
_chemical_formula_structural   Ca2Al2SiO7
_chemical_formula_sum   'Ca48 Al48 Si24 O168'
_cell_volume   3651.50177540
_cell_formula_units_Z   24
loop_
 _symmetry_equiv_pos_site_id
 _symmetry_equiv_pos_as_xyz
  1  'x, y, z'
loop_
 _atom_type_symbol
 _atom_type_oxidation_number
  Ca2+  2.0
  Al0+  0.0
  Si0+  0.0
  O2-  -2.0
loop_
 _atom_site_type_symbol
 _atom_site_label
 _atom_site_symmetry_multiplicity
 _atom_site_fract_x
 _atom_site_fract_y
 _atom_site_fract_z
 _atom_site_occupancy
  Ca2+  Ca0  1  0.15636074  0.07651820  0.16474824  1
  Ca2+  Ca1  1  0.17790736  0.08562763  0.50909622  1
  Ca2+  Ca2  1  0.17248444  0.08251802  0.84324541  1
  Ca2+  Ca3  1  0.15974767  0.57695161  0.17168420  1
  Ca2+  Ca4  1  0.16655609  0.57652098  0.50791361  1
  Ca2+  Ca5  1  0.16034813  0.57906935  0.83684935  1
  Ca2+  Ca6  1  0.66629817  0.08604271  0.16514060  1
  Ca2+  Ca7  1  0.66281666  0.08126610  0.50878387  1
  Ca2+  Ca8  1  0.66768947  0.07272915  0.84172674  1
  Ca2+  Ca9  1  0.66914803  0.58027239  0.17226589  1
  Ca2+  Ca10  1  0.66212142  0.56902179  0.50924479  1
  Ca2+  Ca11  1  0.65913355  0.58074862  0.83701573  1
  Ca2+  Ca12  1  0.08074063  0.33475099  0.16086227  1
  Ca2+  Ca13  1  0.07977819  0.34123638  0.49303790  1
  Ca2+  Ca14  1  0.08830211  0.33375726  0.83296017  1
  Ca2+  Ca15  1  0.08118142  0.82273871  0.15337152  1
  Ca2+  Ca16  1  0.08292010  0.82108083  0.49768103  1
  Ca2+  Ca17  1  0.07505924  0.83283273  0.82731878  1
  Ca2+  Ca18  1  0.58116823  0.32798355  0.16430820  1
  Ca2+  Ca19  1  0.58235259  0.32586349  0.49062845  1
  Ca2+  Ca20  1  0.58687506  0.32034147  0.82566164  1
  Ca2+  Ca21  1  0.58351652  0.82907970  0.15644205  1
  Ca2+  Ca22  1  0.58668525  0.82835153  0.50394802  1
  Ca2+  Ca23  1  0.59400005  0.82474836  0.82775152  1
  Ca2+  Ca24  1  0.32317544  0.41291766  0.17136751  1
  Ca2+  Ca25  1  0.32385431  0.41659143  0.50804356  1
  Ca2+  Ca26  1  0.32351861  0.42406233  0.83485537  1
  Ca2+  Ca27  1  0.32676302  0.91532275  0.16565699  1
  Ca2+  Ca28  1  0.33474793  0.92574779  0.50721208  1
  Ca2+  Ca29  1  0.32919335  0.92161510  0.83621895  1
  Ca2+  Ca30  1  0.82921768  0.41512453  0.17456990  1
  Ca2+  Ca31  1  0.82382846  0.41180343  0.50186393  1
  Ca2+  Ca32  1  0.82709112  0.41867342  0.83332708  1
  Ca2+  Ca33  1  0.83495689  0.92006384  0.16169858  1
  Ca2+  Ca34  1  0.82861494  0.91779119  0.50834043  1
  Ca2+  Ca35  1  0.82897113  0.91456060  0.84194858  1
  Ca2+  Ca36  1  0.42600345  0.17298558  0.16419116  1
  Ca2+  Ca37  1  0.42544429  0.17108338  0.49550097  1
  Ca2+  Ca38  1  0.42626939  0.16192620  0.82750529  1
  Ca2+  Ca39  1  0.42428131  0.66617593  0.16141467  1
  Ca2+  Ca40  1  0.41862687  0.65794597  0.50414129  1
  Ca2+  Ca41  1  0.42346512  0.66564906  0.82814027  1
  Ca2+  Ca42  1  0.91684578  0.17371641  0.15944039  1
  Ca2+  Ca43  1  0.91855525  0.17500462  0.49534018  1
  Ca2+  Ca44  1  0.92135513  0.15972257  0.83608551  1
  Ca2+  Ca45  1  0.92790962  0.66945289  0.15817915  1
  Ca2+  Ca46  1  0.92622081  0.66746016  0.50050746  1
  Ca2+  Ca47  1  0.92504008  0.67860532  0.82855774  1
  Al0+  Al48  1  -0.00045633  0.00250811  0.00167076  1
  Al0+  Al49  1  -0.00176374  -0.00169275  0.33789975  1
  Al0+  Al50  1  -0.00020196  0.00155370  0.65880025  1
  Al0+  Al51  1  -0.00215462  0.49986552  -0.00043035  1
  Al0+  Al52  1  -0.00078301  0.50099598  0.32949060  1
  Al0+  Al53  1  -0.00250581  0.49953847  0.66728414  1
  Al0+  Al54  1  0.49959667  0.00062762  0.00195300  1
  Al0+  Al55  1  0.50006703  -0.00154865  0.32924729  1
  Al0+  Al56  1  0.50182297  -0.00085075  0.67111419  1
  Al0+  Al57  1  0.49735412  0.49986608  -0.00209022  1
  Al0+  Al58  1  0.49926335  0.49930489  0.33239501  1
  Al0+  Al59  1  0.49718694  0.49789304  0.67190435  1
  Al0+  Al60  1  0.24951142  0.25300024  0.00144267  1
  Al0+  Al61  1  0.25125998  0.24833373  0.33417584  1
  Al0+  Al62  1  0.25177812  0.24969386  0.67576742  1
  Al0+  Al63  1  0.25309400  0.74912176  0.00057752  1
  Al0+  Al64  1  0.25067767  0.74949582  0.33034203  1
  Al0+  Al65  1  0.25113985  0.75062299  0.66518537  1
  Al0+  Al66  1  0.74853566  0.24985569  -0.00165754  1
  Al0+  Al67  1  0.75249120  0.24849192  0.33004251  1
  Al0+  Al68  1  0.75173805  0.24881489  0.66747261  1
  Al0+  Al69  1  0.75029420  0.74875913  -0.00126283  1
  Al0+  Al70  1  0.75141755  0.75188010  0.33499553  1
  Al0+  Al71  1  0.75026306  0.74935374  0.65901172  1
  Al0+  Al72  1  0.82070244  0.07219680  0.01623713  1
  Al0+  Al73  1  0.92832184  0.82332004  0.64874348  1
  Al0+  Al74  1  0.67830631  0.42711577  0.68045675  1
  Al0+  Al75  1  0.07042276  0.68076256  0.31821047  1
  Al0+  Al76  1  0.07048594  0.18125336  0.98784776  1
  Al0+  Al77  1  0.57154608  0.17835117  0.65369467  1
  Al0+  Al78  1  0.32218436  0.07068152  0.68075416  1
  Al0+  Al79  1  0.67885681  0.92702597  0.01646760  1
  Al0+  Al80  1  0.57027535  0.18017255  0.98401191  1
  Al0+  Al81  1  0.57189885  0.17768362  0.31734994  1
  Al0+  Al82  1  0.17560254  0.42999123  0.68297518  1
  Al0+  Al83  1  0.56956972  0.67655433  0.65223333  1
  Al0+  Al84  1  0.67958164  0.42922784  0.34553540  1
  Al0+  Al85  1  0.93059008  0.82195980  0.98601868  1
  Al0+  Al86  1  0.42727129  0.32275469  0.31874475  1
  Al0+  Al87  1  0.32067979  0.57304031  0.68261871  1
  Al0+  Al88  1  0.17985455  0.92955729  0.01199385  1
  Al0+  Al89  1  0.93107265  0.32010982  0.32018972  1
  Al0+  Al90  1  0.17814077  0.43127762  0.01632875  1
  Al0+  Al91  1  0.57066685  0.67941217  0.98769092  1
  Al0+  Al92  1  0.68188234  0.92859143  0.67929938  1
  Al0+  Al93  1  0.17899006  0.42920308  0.34613474  1
  Al0+  Al94  1  0.07333364  0.67712708  0.98394615  1
  Al0+  Al95  1  0.07241910  0.67812756  0.65105285  1
  Si0+  Si96  1  0.17869790  0.92743633  0.34874422  1
  Si0+  Si97  1  0.57170743  0.67911892  0.32054868  1
  Si0+  Si98  1  0.07339730  0.17552606  0.31930620  1
  Si0+  Si99  1  0.81939580  0.57010534  0.01454489  1
  Si0+  Si100  1  0.07373671  0.18019492  0.65251755  1
  Si0+  Si101  1  0.32191241  0.06850364  0.34746335  1
  Si0+  Si102  1  0.67739083  0.92844695  0.34964839  1
  Si0+  Si103  1  0.82451711  0.07280273  0.68255987  1
  Si0+  Si104  1  0.42855665  0.82282549  0.65024651  1
  Si0+  Si105  1  0.92600334  0.32290053  0.98130432  1
  Si0+  Si106  1  0.42814202  0.82320842  0.98305749  1
  Si0+  Si107  1  0.92696650  0.82389463  0.31464116  1
  Si0+  Si108  1  0.17726021  0.92961304  0.68042223  1
  Si0+  Si109  1  0.42756174  0.32008553  0.65159003  1
  Si0+  Si110  1  0.81995474  0.57154776  0.68286173  1
  Si0+  Si111  1  0.32357488  0.57181025  0.01931996  1
  Si0+  Si112  1  0.42673417  0.32232158  0.98050556  1
  Si0+  Si113  1  0.67718750  0.42896669  0.01463463  1
  Si0+  Si114  1  0.32242206  0.57381665  0.34961762  1
  Si0+  Si115  1  0.82103385  0.07050078  0.35016469  1
  Si0+  Si116  1  0.92924838  0.32059118  0.65202474  1
  Si0+  Si117  1  0.42958578  0.82161752  0.31797619  1
  Si0+  Si118  1  0.32244578  0.07388309  0.01950916  1
  Si0+  Si119  1  0.82144515  0.57391380  0.35071525  1
  O2-  O120  1  0.25267241  0.00522197  0.06292742  1
  O2-  O121  1  0.24721873  0.00107916  0.39063457  1
  O2-  O122  1  0.24476911  -0.00173808  0.72590729  1
  O2-  O123  1  0.25050349  0.50807696  0.06359896  1
  O2-  O124  1  0.25478051  0.50323920  0.39201093  1
  O2-  O125  1  0.24360242  0.50630974  0.73208668  1
  O2-  O126  1  0.74834906  0.00084170  0.06794590  1
  O2-  O127  1  0.74816578  0.00035861  0.39094147  1
  O2-  O128  1  0.75835006  0.00148262  0.72493595  1
  O2-  O129  1  0.74778393  0.49969601  0.05751516  1
  O2-  O130  1  0.75111194  0.50636736  0.39431828  1
  O2-  O131  1  0.74804104  0.50625708  0.72805391  1
  O2-  O132  1  0.00826955  0.24727055  0.27526671  1
  O2-  O133  1  0.00434913  0.25280235  0.61049690  1
  O2-  O134  1  -0.00393292  0.25491932  0.93843485  1
  O2-  O135  1  -0.00343448  0.75632595  0.27152344  1
  O2-  O136  1  0.00214069  0.75199396  0.60033374  1
  O2-  O137  1  0.00640382  0.75437344  0.93574665  1
  O2-  O138  1  0.50228476  0.25318816  0.26904577  1
  O2-  O139  1  0.49917590  0.25484137  0.60625569  1
  O2-  O140  1  0.49484966  0.25328677  0.93623777  1
  O2-  O141  1  0.50101052  0.74999301  0.27768313  1
  O2-  O142  1  0.49383789  0.75070116  0.60514057  1
  O2-  O143  1  0.50027080  0.75768148  0.94046902  1
  O2-  O144  1  0.06892703  0.18305799  0.10131633  1
  O2-  O145  1  0.07195644  0.17401357  0.42533951  1
  O2-  O146  1  0.07204871  0.17732842  0.75730048  1
  O2-  O147  1  0.06941056  0.67688682  0.09797562  1
  O2-  O148  1  0.07089726  0.68198717  0.43107236  1
  O2-  O149  1  0.06927525  0.67950252  0.76403239  1
  O2-  O150  1  0.56969680  0.18364226  0.09717514  1
  O2-  O151  1  0.56937762  0.17551692  0.43122966  1
  O2-  O152  1  0.57073502  0.17827453  0.76653421  1
  O2-  O153  1  0.56878737  0.67820798  0.10180936  1
  O2-  O154  1  0.57069257  0.67942220  0.42533415  1
  O2-  O155  1  0.56965162  0.67891644  0.76504787  1
  O2-  O156  1  0.17904480  0.43054806  0.23320661  1
  O2-  O157  1  0.17676023  0.42770424  0.56893157  1
  O2-  O158  1  0.17988768  0.43093741  0.90368872  1
  O2-  O159  1  0.17925556  0.92754160  0.24371221  1
  O2-  O160  1  0.17986287  0.93267960  0.57404921  1
  O2-  O161  1  0.18224059  0.93215135  0.89896545  1
  O2-  O162  1  0.68145567  0.43257704  0.23199224  1
  O2-  O163  1  0.68118972  0.42528850  0.56704862  1
  O2-  O164  1  0.67859137  0.42946006  0.90945928  1
  O2-  O165  1  0.67688888  0.92504371  0.24508981  1
  O2-  O166  1  0.68065878  0.93159273  0.56524285  1
  O2-  O167  1  0.68054854  0.92606702  0.90310975  1
  O2-  O168  1  0.42845624  0.32238205  0.08639466  1
  O2-  O169  1  0.42635320  0.31974241  0.43238730  1
  O2-  O170  1  0.42761842  0.31678862  0.75709332  1
  O2-  O171  1  0.42724434  0.82084488  0.08947253  1
  O2-  O172  1  0.42928030  0.82567593  0.42263971  1
  O2-  O173  1  0.42911829  0.82482628  0.75541725  1
  O2-  O174  1  0.92525761  0.32349477  0.08709679  1
  O2-  O175  1  0.92989644  0.31760012  0.43370044  1
  O2-  O176  1  0.92668102  0.31965303  0.75691335  1
  O2-  O177  1  0.93125531  0.81790824  0.10016347  1
  O2-  O178  1  0.92696666  0.82463018  0.41998563  1
  O2-  O179  1  0.92953537  0.82482273  0.76195310  1
  O2-  O180  1  0.32314968  0.06533649  0.24274919  1
  O2-  O181  1  0.32082616  0.07043646  0.56673461  1
  O2-  O182  1  0.32225248  0.07200604  0.91381385  1
  O2-  O183  1  0.32269757  0.57726810  0.24412903  1
  O2-  O184  1  0.32141010  0.56792627  0.56845907  1
  O2-  O185  1  0.32795483  0.56940114  0.91439487  1
  O2-  O186  1  0.82472188  0.06968220  0.24575218  1
  O2-  O187  1  0.82371916  0.07487565  0.57638205  1
  O2-  O188  1  0.81932929  0.07233339  0.90269509  1
  O2-  O189  1  0.81862007  0.57546800  0.24477194  1
  O2-  O190  1  0.82069846  0.56716628  0.57698978  1
  O2-  O191  1  0.81899011  0.56831985  0.90959273  1
  O2-  O192  1  0.04344377  0.08199008  0.27478203  1
  O2-  O193  1  0.04652416  0.09031942  0.60032673  1
  O2-  O194  1  0.04118374  0.08518131  0.93280332  1
  O2-  O195  1  0.03732238  0.58557581  0.26372224  1
  O2-  O196  1  0.03920652  0.57989762  0.59896682  1
  O2-  O197  1  0.03759621  0.58075409  0.93218411  1
  O2-  O198  1  0.53961850  0.08035925  0.26376942  1
  O2-  O199  1  0.53843947  0.08184545  0.60078870  1
  O2-  O200  1  0.54024936  0.08165328  0.93382077  1
  O2-  O201  1  0.54498010  0.58800054  0.27155651  1
  O2-  O202  1  0.53734478  0.57888387  0.59993301  1
  O2-  O203  1  0.53747469  0.58349671  0.93373850  1
  O2-  O204  1  0.16845603  0.19407478  0.27473384  1
  O2-  O205  1  0.16710017  0.20639116  0.60721718  1
  O2-  O206  1  0.16768132  0.21114531  0.93432818  1
  O2-  O207  1  0.16775554  0.71077338  0.26474721  1
  O2-  O208  1  0.17162091  0.70532240  0.59797013  1
  O2-  O209  1  0.17548686  0.69802386  0.93731873  1
  O2-  O210  1  0.67115091  0.20288714  0.26622823  1
  O2-  O211  1  0.66965947  0.20700783  0.60107061  1
  O2-  O212  1  0.66629026  0.21207285  0.93004817  1
  O2-  O213  1  0.66419899  0.70755638  0.27430494  1
  O2-  O214  1  0.66474141  0.70663585  0.59518838  1
  O2-  O215  1  0.66777783  0.70480129  0.93345257  1
  O2-  O216  1  0.07879166  0.45812763  0.06766928  1
  O2-  O217  1  0.08138025  0.46100670  0.39808128  1
  O2-  O218  1  0.07530811  0.45291401  0.73466636  1
  O2-  O219  1  0.08456075  0.96072606  0.06844479  1
  O2-  O220  1  0.08587927  0.95140821  0.39635730  1
  O2-  O221  1  0.08285057  0.95614467  0.72312669  1
  O2-  O222  1  0.58471631  0.45669807  0.06063695  1
  O2-  O223  1  0.58190198  0.45804556  0.39876823  1
  O2-  O224  1  0.58124621  0.45254908  0.73454012  1
  O2-  O225  1  0.57868361  0.95352271  0.06813263  1
  O2-  O226  1  0.58456226  0.95526143  0.39577052  1
  O2-  O227  1  0.58633662  0.95805697  0.73454074  1
  O2-  O228  1  0.21051219  0.33470595  0.07042854  1
  O2-  O229  1  0.20579688  0.33021368  0.39893148  1
  O2-  O230  1  0.20763888  0.33310868  0.73701518  1
  O2-  O231  1  0.21337537  0.83349742  0.06753880  1
  O2-  O232  1  0.21151626  0.83711845  0.39601512  1
  O2-  O233  1  0.20200403  0.83612283  0.72528691  1
  O2-  O234  1  0.70605657  0.33780533  0.06177115  1
  O2-  O235  1  0.71353149  0.33231156  0.39746229  1
  O2-  O236  1  0.71598340  0.33299081  0.73538483  1
  O2-  O237  1  0.70818808  0.82814651  0.06951336  1
  O2-  O238  1  0.70622618  0.83689299  0.39833882  1
  O2-  O239  1  0.71041424  0.82974921  0.72919586  1
  O2-  O240  1  0.45261198  0.42181379  0.26466752  1
  O2-  O241  1  0.44848393  0.41496292  0.60749535  1
  O2-  O242  1  0.45268150  0.41570186  0.93508997  1
  O2-  O243  1  0.45765229  0.91116259  0.26659906  1
  O2-  O244  1  0.46003638  0.91422146  0.60206887  1
  O2-  O245  1  0.44794378  0.91873863  0.93974663  1
  O2-  O246  1  0.95629119  0.41718178  0.26489343  1
  O2-  O247  1  0.95217054  0.41287980  0.60371016  1
  O2-  O248  1  0.95113532  0.41604212  0.93499175  1
  O2-  O249  1  0.95217478  0.91858441  0.27081835  1
  O2-  O250  1  0.95503358  0.92204143  0.59300002  1
  O2-  O251  1  0.95384522  0.92205458  0.93576765  1
  O2-  O252  1  0.33045174  0.28920644  0.26436050  1
  O2-  O253  1  0.33444007  0.29012294  0.60603496  1
  O2-  O254  1  0.33283761  0.29763682  0.93584861  1
  O2-  O255  1  0.33849564  0.79359719  0.26888471  1
  O2-  O256  1  0.33413035  0.80316274  0.60254844  1
  O2-  O257  1  0.33660377  0.79488332  0.93498272  1
  O2-  O258  1  0.83687224  0.28677383  0.26343393  1
  O2-  O259  1  0.84001969  0.28760374  0.60192656  1
  O2-  O260  1  0.83309646  0.29651536  0.93463805  1
  O2-  O261  1  0.83245031  0.79880057  0.26988114  1
  O2-  O262  1  0.83203740  0.79221837  0.59260705  1
  O2-  O263  1  0.83371507  0.78869650  0.93369538  1
  O2-  O264  1  0.41484434  0.04631233  0.06687313  1
  O2-  O265  1  0.41222346  0.03532908  0.39548179  1
  O2-  O266  1  0.41595531  0.03600841  0.73662576  1
  O2-  O267  1  0.41530054  0.54043137  0.06817258  1
  O2-  O268  1  0.41696710  0.55014921  0.39469481  1
  O2-  O269  1  0.41629714  0.54058742  0.73895476  1
  O2-  O270  1  0.91910683  0.04619501  0.07100176  1
  O2-  O271  1  0.91206075  0.04204853  0.40096076  1
  O2-  O272  1  0.92029421  0.04986929  0.72548013  1
  O2-  O273  1  0.90988728  0.54066504  0.06398926  1
  O2-  O274  1  0.91432921  0.54543564  0.39549904  1
  O2-  O275  1  0.91095208  0.54149038  0.73117684  1
  O2-  O276  1  0.29748139  0.16793793  0.06395065  1
  O2-  O277  1  0.29720140  0.16043040  0.39602716  1
  O2-  O278  1  0.29303348  0.16502345  0.73865310  1
  O2-  O279  1  0.30576711  0.66767789  0.06404899  1
  O2-  O280  1  0.29694175  0.66771015  0.39619835  1
  O2-  O281  1  0.30201456  0.67520620  0.73183599  1
  O2-  O282  1  0.79092183  0.17160646  0.06840831  1
  O2-  O283  1  0.79498955  0.16255913  0.39783700  1
  O2-  O284  1  0.79921721  0.16517359  0.73004664  1
  O2-  O285  1  0.79179405  0.66062680  0.06418406  1
  O2-  O286  1  0.79827758  0.66828981  0.39701098  1
  O2-  O287  1  0.79741732  0.66668369  0.72513807  1
