# generated using pymatgen
data_Ca2Al2SiO7
_symmetry_space_group_name_H-M   'P 1'
_cell_length_a   15.45858961
_cell_length_b   15.45821708
_cell_length_c   15.28396986
_cell_angle_alpha   89.99854089
_cell_angle_beta   90.00309031
_cell_angle_gamma   89.99904610
_symmetry_Int_Tables_number   1
_chemical_formula_structural   Ca2Al2SiO7
_chemical_formula_sum   'Ca48 Al48 Si24 O168'
_cell_volume   3652.29157621
_cell_formula_units_Z   24
loop_
 _symmetry_equiv_pos_site_id
 _symmetry_equiv_pos_as_xyz
  1  'x, y, z'
loop_
 _atom_type_symbol
 _atom_type_oxidation_number
  Ca2+  2.0
  Al0+  0.0
  Si0+  0.0
  O2-  -2.0
loop_
 _atom_site_type_symbol
 _atom_site_label
 _atom_site_symmetry_multiplicity
 _atom_site_fract_x
 _atom_site_fract_y
 _atom_site_fract_z
 _atom_site_occupancy
  Ca2+  Ca0  1  0.16942182  0.09033335  0.16795315  1
  Ca2+  Ca1  1  0.16815655  0.07965171  0.50621985  1
  Ca2+  Ca2  1  0.17427823  0.07839706  0.83935396  1
  Ca2+  Ca3  1  0.16726829  0.57521091  0.16793183  1
  Ca2+  Ca4  1  0.17092144  0.57516755  0.50863068  1
  Ca2+  Ca5  1  0.16509500  0.57123619  0.83654010  1
  Ca2+  Ca6  1  0.66879658  0.08427209  0.17071572  1
  Ca2+  Ca7  1  0.67709034  0.08259666  0.51087079  1
  Ca2+  Ca8  1  0.66540222  0.08449504  0.83351121  1
  Ca2+  Ca9  1  0.67361515  0.58283888  0.17272425  1
  Ca2+  Ca10  1  0.67008589  0.58333576  0.50830730  1
  Ca2+  Ca11  1  0.67129049  0.58195544  0.83690169  1
  Ca2+  Ca12  1  0.07795348  0.32565551  0.16218662  1
  Ca2+  Ca13  1  0.07632668  0.32811560  0.49093859  1
  Ca2+  Ca14  1  0.08756922  0.33144976  0.83134397  1
  Ca2+  Ca15  1  0.07938098  0.83001323  0.16292556  1
  Ca2+  Ca16  1  0.07832738  0.83689139  0.50250161  1
  Ca2+  Ca17  1  0.07721887  0.83352675  0.82337622  1
  Ca2+  Ca18  1  0.58085286  0.33020795  0.16077161  1
  Ca2+  Ca19  1  0.58591786  0.33054323  0.49850520  1
  Ca2+  Ca20  1  0.59582627  0.32610997  0.82918073  1
  Ca2+  Ca21  1  0.57714772  0.82945902  0.16381928  1
  Ca2+  Ca22  1  0.58450904  0.82589510  0.49993629  1
  Ca2+  Ca23  1  0.57409970  0.83234453  0.82086371  1
  Ca2+  Ca24  1  0.32754933  0.40684092  0.17036306  1
  Ca2+  Ca25  1  0.32828607  0.41142219  0.50533347  1
  Ca2+  Ca26  1  0.32180644  0.41182665  0.83695779  1
  Ca2+  Ca27  1  0.34104711  0.92019645  0.16725388  1
  Ca2+  Ca28  1  0.32987875  0.90991313  0.50596640  1
  Ca2+  Ca29  1  0.33424767  0.91579215  0.83830357  1
  Ca2+  Ca30  1  0.82936309  0.42267505  0.17135754  1
  Ca2+  Ca31  1  0.83137711  0.42572781  0.50745140  1
  Ca2+  Ca32  1  0.82106063  0.42687652  0.83684866  1
  Ca2+  Ca33  1  0.83015776  0.92494928  0.17495108  1
  Ca2+  Ca34  1  0.83101818  0.92789010  0.51082342  1
  Ca2+  Ca35  1  0.82711799  0.91654746  0.82799797  1
  Ca2+  Ca36  1  0.42061601  0.16945425  0.15896049  1
  Ca2+  Ca37  1  0.42502230  0.17172550  0.49838762  1
  Ca2+  Ca38  1  0.42803291  0.16308438  0.83197638  1
  Ca2+  Ca39  1  0.42093056  0.67704278  0.16361965  1
  Ca2+  Ca40  1  0.42977098  0.67459280  0.49420220  1
  Ca2+  Ca41  1  0.42135824  0.67710843  0.82321515  1
  Ca2+  Ca42  1  0.92345446  0.16861109  0.16497055  1
  Ca2+  Ca43  1  0.91745913  0.17007297  0.49078297  1
  Ca2+  Ca44  1  0.92161996  0.16502629  0.82711880  1
  Ca2+  Ca45  1  0.91137095  0.66155857  0.16436532  1
  Ca2+  Ca46  1  0.90534019  0.67136590  0.50023537  1
  Ca2+  Ca47  1  0.91080947  0.66814472  0.82636205  1
  Al0+  Al48  1  0.00058311  -0.00059269  -0.00394416  1
  Al0+  Al49  1  0.00126869  -0.00128918  0.33255694  1
  Al0+  Al50  1  0.00298666  -0.00098834  0.67042193  1
  Al0+  Al51  1  0.00068859  0.49954094  0.00737098  1
  Al0+  Al52  1  -0.00115075  0.49965372  0.33459926  1
  Al0+  Al53  1  0.00090317  0.49888072  0.67430308  1
  Al0+  Al54  1  0.49919613  0.00072185  -0.00242531  1
  Al0+  Al55  1  0.49849426  -0.00037724  0.33343234  1
  Al0+  Al56  1  0.50064354  0.00297203  0.65842055  1
  Al0+  Al57  1  0.49893719  0.50094759  0.00265682  1
  Al0+  Al58  1  0.49901558  0.50009901  0.32445060  1
  Al0+  Al59  1  0.49843645  0.49973315  0.66752027  1
  Al0+  Al60  1  0.24964811  0.24778507  0.00355620  1
  Al0+  Al61  1  0.25063191  0.24722776  0.32963312  1
  Al0+  Al62  1  0.25042386  0.24829312  0.67037086  1
  Al0+  Al63  1  0.24668975  0.74948646  -0.00380255  1
  Al0+  Al64  1  0.24958069  0.74941037  0.32956890  1
  Al0+  Al65  1  0.24790729  0.74924206  0.66740460  1
  Al0+  Al66  1  0.75138922  0.25142044  0.00062811  1
  Al0+  Al67  1  0.75125329  0.25120336  0.33225520  1
  Al0+  Al68  1  0.75347749  0.25169954  0.66857758  1
  Al0+  Al69  1  0.74930731  0.75155983  0.00435231  1
  Al0+  Al70  1  0.74956561  0.74972482  0.33199581  1
  Al0+  Al71  1  0.75064183  0.75414128  0.66540713  1
  Al0+  Al72  1  0.93029012  0.82122140  0.65303917  1
  Al0+  Al73  1  0.67613366  0.42883574  0.68002855  1
  Al0+  Al74  1  0.57186252  0.67775426  0.65282541  1
  Al0+  Al75  1  0.18109466  0.42801031  0.01710334  1
  Al0+  Al76  1  0.42926201  0.82003397  0.98474108  1
  Al0+  Al77  1  0.42681115  0.82139193  0.31639706  1
  Al0+  Al78  1  0.32095712  0.06725885  0.01398717  1
  Al0+  Al79  1  0.57213335  0.18132084  0.98683567  1
  Al0+  Al80  1  0.18102305  0.92800008  0.67998557  1
  Al0+  Al81  1  0.92784310  0.32320881  0.31797970  1
  Al0+  Al82  1  0.81879545  0.57222223  0.01691367  1
  Al0+  Al83  1  0.82132965  0.07125420  0.34548313  1
  Al0+  Al84  1  0.82316928  0.07287895  0.68271713  1
  Al0+  Al85  1  0.57322586  0.67921938  0.31578067  1
  Al0+  Al86  1  0.82070625  0.57048062  0.35014670  1
  Al0+  Al87  1  0.07122672  0.17915558  0.98326711  1
  Al0+  Al88  1  0.17976321  0.42740553  0.67908758  1
  Al0+  Al89  1  0.81978161  0.57331614  0.68106328  1
  Al0+  Al90  1  0.07027397  0.17673165  0.31867128  1
  Al0+  Al91  1  0.67751997  0.93163055  0.68054157  1
  Al0+  Al92  1  0.67705453  0.42693939  0.01763168  1
  Al0+  Al93  1  0.42913798  0.31985619  0.32035757  1
  Al0+  Al94  1  0.42658704  0.82271082  0.65033931  1
  Al0+  Al95  1  0.57381258  0.18163398  0.65222598  1
  Si0+  Si96  1  0.67707978  0.92910434  0.34950787  1
  Si0+  Si97  1  0.67863770  0.93105548  0.01503445  1
  Si0+  Si98  1  0.18085232  0.42804623  0.34822404  1
  Si0+  Si99  1  0.17946633  0.92673997  0.34749350  1
  Si0+  Si100  1  0.92773033  0.82120845  0.98543424  1
  Si0+  Si101  1  0.17602114  0.92679179  0.01785147  1
  Si0+  Si102  1  0.93164560  0.32175688  0.65346814  1
  Si0+  Si103  1  0.92990916  0.32303568  0.98133337  1
  Si0+  Si104  1  0.07169853  0.67796026  0.31907131  1
  Si0+  Si105  1  0.93003957  0.82039515  0.31888269  1
  Si0+  Si106  1  0.82363425  0.07056613  0.01476744  1
  Si0+  Si107  1  0.07238935  0.17910871  0.65265690  1
  Si0+  Si108  1  0.67515126  0.42844565  0.34947535  1
  Si0+  Si109  1  0.06907897  0.67758504  0.98499822  1
  Si0+  Si110  1  0.57278328  0.17834941  0.31779310  1
  Si0+  Si111  1  0.42539149  0.32101789  0.65267764  1
  Si0+  Si112  1  0.57289723  0.67865340  0.98302802  1
  Si0+  Si113  1  0.32049011  0.57464015  0.01689263  1
  Si0+  Si114  1  0.07054352  0.67516496  0.65039465  1
  Si0+  Si115  1  0.32100919  0.07135826  0.34941988  1
  Si0+  Si116  1  0.32148585  0.57210180  0.68241647  1
  Si0+  Si117  1  0.32259363  0.07224181  0.68249960  1
  Si0+  Si118  1  0.32056985  0.57195581  0.34688133  1
  Si0+  Si119  1  0.42715647  0.32308335  0.98336465  1
  O2-  O120  1  0.24567676  -0.00659982  0.06305422  1
  O2-  O121  1  0.25129229  -0.00242850  0.38921370  1
  O2-  O122  1  0.25994921  -0.00229730  0.72605838  1
  O2-  O123  1  0.25815085  0.50084581  0.06343980  1
  O2-  O124  1  0.25269295  0.49807398  0.39071929  1
  O2-  O125  1  0.25478343  0.50120070  0.72650678  1
  O2-  O126  1  0.75048439  0.00175568  0.05711352  1
  O2-  O127  1  0.74414391  -0.00007513  0.39238454  1
  O2-  O128  1  0.74764188  0.00456655  0.73295569  1
  O2-  O129  1  0.74654826  0.50130836  0.06778862  1
  O2-  O130  1  0.74416558  0.49663985  0.39405506  1
  O2-  O131  1  0.74320627  0.50583385  0.72968876  1
  O2-  O132  1  -0.00208188  0.24843534  0.26881927  1
  O2-  O133  1  0.00120806  0.24923535  0.61055383  1
  O2-  O134  1  -0.00299116  0.25333110  0.93524071  1
  O2-  O135  1  -0.00202498  0.74643313  0.27663771  1
  O2-  O136  1  0.00161185  0.74299453  0.60520762  1
  O2-  O137  1  -0.00373191  0.74716329  0.94443776  1
  O2-  O138  1  0.50520753  0.24738794  0.27300488  1
  O2-  O139  1  0.49979383  0.25889346  0.60805167  1
  O2-  O140  1  0.50118623  0.26026067  0.93956039  1
  O2-  O141  1  0.50105333  0.75201038  0.26676808  1
  O2-  O142  1  0.49995362  0.75075926  0.60285966  1
  O2-  O143  1  0.50140266  0.74363272  0.93821296  1
  O2-  O144  1  0.06808661  0.17859843  0.09622474  1
  O2-  O145  1  0.07179992  0.17796205  0.43279393  1
  O2-  O146  1  0.07377666  0.18085233  0.75768887  1
  O2-  O147  1  0.07122338  0.67970254  0.09058802  1
  O2-  O148  1  0.07609679  0.67898780  0.42367495  1
  O2-  O149  1  0.07065912  0.67552704  0.75620002  1
  O2-  O150  1  0.56946073  0.17892593  0.10026349  1
  O2-  O151  1  0.57179884  0.17921263  0.42326686  1
  O2-  O152  1  0.57127107  0.18109756  0.76532177  1
  O2-  O153  1  0.57357211  0.68256162  0.08853958  1
  O2-  O154  1  0.57280797  0.67952347  0.42908841  1
  O2-  O155  1  0.56844984  0.67844066  0.76668866  1
  O2-  O156  1  0.18179616  0.42947287  0.24322548  1
  O2-  O157  1  0.18103289  0.42716387  0.56541235  1
  O2-  O158  1  0.18108996  0.42993415  0.90383529  1
  O2-  O159  1  0.17748837  0.92511714  0.24248061  1
  O2-  O160  1  0.17883917  0.93166167  0.56627299  1
  O2-  O161  1  0.17509382  0.92720058  0.91254968  1
  O2-  O162  1  0.67601736  0.42896413  0.24397951  1
  O2-  O163  1  0.67982202  0.42694689  0.56625028  1
  O2-  O164  1  0.68039054  0.42722173  0.90442662  1
  O2-  O165  1  0.67873124  0.93052227  0.24298883  1
  O2-  O166  1  0.68101143  0.93300463  0.56676533  1
  O2-  O167  1  0.67962495  0.92958325  0.91042272  1
  O2-  O168  1  0.42598389  0.31829269  0.08915818  1
  O2-  O169  1  0.42616799  0.31729334  0.43354506  1
  O2-  O170  1  0.41843948  0.31616613  0.75769722  1
  O2-  O171  1  0.43186951  0.81970762  0.09776785  1
  O2-  O172  1  0.42256803  0.81753317  0.42907288  1
  O2-  O173  1  0.42623430  0.82001928  0.76423443  1
  O2-  O174  1  0.93166739  0.32127730  0.08695053  1
  O2-  O175  1  0.93201279  0.32446376  0.43206263  1
  O2-  O176  1  0.93441770  0.32173471  0.75848700  1
  O2-  O177  1  0.93011038  0.82352342  0.09107005  1
  O2-  O178  1  0.93261734  0.82268838  0.42349802  1
  O2-  O179  1  0.93327713  0.82133456  0.76646528  1
  O2-  O180  1  0.32143377  0.07210899  0.24445918  1
  O2-  O181  1  0.31716571  0.07786221  0.57673622  1
  O2-  O182  1  0.32076712  0.06502409  0.90102320  1
  O2-  O183  1  0.31501632  0.57327113  0.24186810  1
  O2-  O184  1  0.31877683  0.57160395  0.57645724  1
  O2-  O185  1  0.31582045  0.57593836  0.91145546  1
  O2-  O186  1  0.82124119  0.06693191  0.23165892  1
  O2-  O187  1  0.82438459  0.07231170  0.56881063  1
  O2-  O188  1  0.82555906  0.06831949  0.91013771  1
  O2-  O189  1  0.82119660  0.56988195  0.23725169  1
  O2-  O190  1  0.82236981  0.56893593  0.56745446  1
  O2-  O191  1  0.81829328  0.57461723  0.90377214  1
  O2-  O192  1  0.04423304  0.07784847  0.26471864  1
  O2-  O193  1  0.04628012  0.08674413  0.60649948  1
  O2-  O194  1  0.04148646  0.08148668  0.93016890  1
  O2-  O195  1  0.04536126  0.58602363  0.27138167  1
  O2-  O196  1  0.04740412  0.58032401  0.60547632  1
  O2-  O197  1  0.04346217  0.58449261  0.93951403  1
  O2-  O198  1  0.54589928  0.08466093  0.27262555  1
  O2-  O199  1  0.54168524  0.08801468  0.59355388  1
  O2-  O200  1  0.53718829  0.08627361  0.93258849  1
  O2-  O201  1  0.54369255  0.58220676  0.26113627  1
  O2-  O202  1  0.54308578  0.57875090  0.59965913  1
  O2-  O203  1  0.55111638  0.58267330  0.94062822  1
  O2-  O204  1  0.16784955  0.20645478  0.26548613  1
  O2-  O205  1  0.16411116  0.20774257  0.60497200  1
  O2-  O206  1  0.16889201  0.20981402  0.93171802  1
  O2-  O207  1  0.16049746  0.70869669  0.26718770  1
  O2-  O208  1  0.16353865  0.70160092  0.60353611  1
  O2-  O209  1  0.15906312  0.70597161  0.93461683  1
  O2-  O210  1  0.66655947  0.20148642  0.27130886  1
  O2-  O211  1  0.67133112  0.21167948  0.59909822  1
  O2-  O212  1  0.67079614  0.20690961  0.93386923  1
  O2-  O213  1  0.67091413  0.70993515  0.26139011  1
  O2-  O214  1  0.66963256  0.70776993  0.60001555  1
  O2-  O215  1  0.66610395  0.70843672  0.93871365  1
  O2-  O216  1  0.08645183  0.46201271  0.07260904  1
  O2-  O217  1  0.08961490  0.45759255  0.39505669  1
  O2-  O218  1  0.08617130  0.45862968  0.73777026  1
  O2-  O219  1  0.08234616  0.95380058  0.06390652  1
  O2-  O220  1  0.08818427  0.95489187  0.39578712  1
  O2-  O221  1  0.08768926  0.96217497  0.73734018  1
  O2-  O222  1  0.57543367  0.44966102  0.06742170  1
  O2-  O223  1  0.57976361  0.45258942  0.39275790  1
  O2-  O224  1  0.57451552  0.44622467  0.73132705  1
  O2-  O225  1  0.58814859  0.96094957  0.06319585  1
  O2-  O226  1  0.58226677  0.95106732  0.39422390  1
  O2-  O227  1  0.57742188  0.95915115  0.73037519  1
  O2-  O228  1  0.21069763  0.33157960  0.07135992  1
  O2-  O229  1  0.20909635  0.33543347  0.39401825  1
  O2-  O230  1  0.21126499  0.33197146  0.73528029  1
  O2-  O231  1  0.19844600  0.83139274  0.06214449  1
  O2-  O232  1  0.20662317  0.83464820  0.39512575  1
  O2-  O233  1  0.20333934  0.82933873  0.73435829  1
  O2-  O234  1  0.70809420  0.32879122  0.07106038  1
  O2-  O235  1  0.69982208  0.33377102  0.39366837  1
  O2-  O236  1  0.71315123  0.33419022  0.73469186  1
  O2-  O237  1  0.70721326  0.84061590  0.06519034  1
  O2-  O238  1  0.70569833  0.83611792  0.39352185  1
  O2-  O239  1  0.70827658  0.83482439  0.73492516  1
  O2-  O240  1  0.45213313  0.41657592  0.26330733  1
  O2-  O241  1  0.44154519  0.41719162  0.60889950  1
  O2-  O242  1  0.44265182  0.42049283  0.94132728  1
  O2-  O243  1  0.45349292  0.92173926  0.26591925  1
  O2-  O244  1  0.45033071  0.92182957  0.59733291  1
  O2-  O245  1  0.46156549  0.91585869  0.93173850  1
  O2-  O246  1  0.96050292  0.42014667  0.26422900  1
  O2-  O247  1  0.96275009  0.41292998  0.60637500  1
  O2-  O248  1  0.95904135  0.41688135  0.93816963  1
  O2-  O249  1  0.96213220  0.90946494  0.26813130  1
  O2-  O250  1  0.96772906  0.91640902  0.59894274  1
  O2-  O251  1  0.95817296  0.91078371  0.93605136  1
  O2-  O252  1  0.33460019  0.28547158  0.26434620  1
  O2-  O253  1  0.33468107  0.28788934  0.60276256  1
  O2-  O254  1  0.33522642  0.29126915  0.93779471  1
  O2-  O255  1  0.32915148  0.79070623  0.26158141  1
  O2-  O256  1  0.32712439  0.79219141  0.59976993  1
  O2-  O257  1  0.32991928  0.79238599  0.93376595  1
  O2-  O258  1  0.82922075  0.29707267  0.26449332  1
  O2-  O259  1  0.84048543  0.29614469  0.60481435  1
  O2-  O260  1  0.83581531  0.29815228  0.93702473  1
  O2-  O261  1  0.83779971  0.79637301  0.27083246  1
  O2-  O262  1  0.83382886  0.79643398  0.59690655  1
  O2-  O263  1  0.83455215  0.79592918  0.93997610  1
  O2-  O264  1  0.41703786  0.03601394  0.06965533  1
  O2-  O265  1  0.41362468  0.04662069  0.39714024  1
  O2-  O266  1  0.41870419  0.05296497  0.72393873  1
  O2-  O267  1  0.41651874  0.55739093  0.06050236  1
  O2-  O268  1  0.41408382  0.54644735  0.39082231  1
  O2-  O269  1  0.41475665  0.55006525  0.72963125  1
  O2-  O270  1  0.91416170  0.03807163  0.06264218  1
  O2-  O271  1  0.91773409  0.03732241  0.39840062  1
  O2-  O272  1  0.92010873  0.04021711  0.73574283  1
  O2-  O273  1  0.91810552  0.54487549  0.06910382  1
  O2-  O274  1  0.91893412  0.54194946  0.40307616  1
  O2-  O275  1  0.91700640  0.54193056  0.73549853  1
  O2-  O276  1  0.29021044  0.16337439  0.06882865  1
  O2-  O277  1  0.29001017  0.16162313  0.39839205  1
  O2-  O278  1  0.29060720  0.16170426  0.73306887  1
  O2-  O279  1  0.28647393  0.66556251  0.06452149  1
  O2-  O280  1  0.28807084  0.66196378  0.39506326  1
  O2-  O281  1  0.29184560  0.66351698  0.73035174  1
  O2-  O282  1  0.79876662  0.16334207  0.06079154  1
  O2-  O283  1  0.79550229  0.16975850  0.39806266  1
  O2-  O284  1  0.79934495  0.17181703  0.73529256  1
  O2-  O285  1  0.79302875  0.67206007  0.07079147  1
  O2-  O286  1  0.79236615  0.66986985  0.40000562  1
  O2-  O287  1  0.79815803  0.67392718  0.73098671  1
