# generated using pymatgen
data_Ca2Al2SiO7
_symmetry_space_group_name_H-M   'P 1'
_cell_length_a   15.47052617
_cell_length_b   15.46910241
_cell_length_c   15.29210871
_cell_angle_alpha   90.01110887
_cell_angle_beta   89.99570145
_cell_angle_gamma   89.99981074
_symmetry_Int_Tables_number   1
_chemical_formula_structural   Ca2Al2SiO7
_chemical_formula_sum   'Ca48 Al48 Si24 O168'
_cell_volume   3659.63326581
_cell_formula_units_Z   24
loop_
 _symmetry_equiv_pos_site_id
 _symmetry_equiv_pos_as_xyz
  1  'x, y, z'
loop_
 _atom_type_symbol
 _atom_type_oxidation_number
  Ca2+  2.0
  Al0+  0.0
  Si0+  0.0
  O2-  -2.0
loop_
 _atom_site_type_symbol
 _atom_site_label
 _atom_site_symmetry_multiplicity
 _atom_site_fract_x
 _atom_site_fract_y
 _atom_site_fract_z
 _atom_site_occupancy
  Ca2+  Ca0  1  0.16239457  0.07814408  0.16801536  1
  Ca2+  Ca1  1  0.16816598  0.07355063  0.51231367  1
  Ca2+  Ca2  1  0.16527751  0.08774076  0.83482337  1
  Ca2+  Ca3  1  0.15912221  0.57770335  0.16332491  1
  Ca2+  Ca4  1  0.17185618  0.57763178  0.51421022  1
  Ca2+  Ca5  1  0.15961342  0.57548826  0.83634632  1
  Ca2+  Ca6  1  0.66877324  0.07896636  0.16402940  1
  Ca2+  Ca7  1  0.66766276  0.07706970  0.50138812  1
  Ca2+  Ca8  1  0.67378057  0.07804169  0.84459009  1
  Ca2+  Ca9  1  0.67538826  0.58250088  0.16540762  1
  Ca2+  Ca10  1  0.67428289  0.57636900  0.51234815  1
  Ca2+  Ca11  1  0.67885935  0.57707927  0.83344404  1
  Ca2+  Ca12  1  0.07623686  0.32860566  0.15515643  1
  Ca2+  Ca13  1  0.08656109  0.32810513  0.50084488  1
  Ca2+  Ca14  1  0.08555954  0.32779722  0.83297186  1
  Ca2+  Ca15  1  0.07986069  0.82760011  0.15579095  1
  Ca2+  Ca16  1  0.08636637  0.83152541  0.50185623  1
  Ca2+  Ca17  1  0.07243778  0.82570278  0.82427775  1
  Ca2+  Ca18  1  0.57468914  0.32482781  0.15400982  1
  Ca2+  Ca19  1  0.57773097  0.33946449  0.50119846  1
  Ca2+  Ca20  1  0.57380407  0.33983994  0.82864868  1
  Ca2+  Ca21  1  0.58123862  0.84383497  0.16306021  1
  Ca2+  Ca22  1  0.57563300  0.83370028  0.49210362  1
  Ca2+  Ca23  1  0.58524765  0.83430467  0.83039381  1
  Ca2+  Ca24  1  0.32768337  0.41166104  0.16250485  1
  Ca2+  Ca25  1  0.32915764  0.42270167  0.51715436  1
  Ca2+  Ca26  1  0.32378456  0.41098746  0.83384347  1
  Ca2+  Ca27  1  0.32699411  0.91781885  0.17660216  1
  Ca2+  Ca28  1  0.32257472  0.91844898  0.50719587  1
  Ca2+  Ca29  1  0.32384442  0.92129354  0.83161323  1
  Ca2+  Ca30  1  0.84760518  0.42091500  0.16691716  1
  Ca2+  Ca31  1  0.82928527  0.41952916  0.50954638  1
  Ca2+  Ca32  1  0.84406238  0.42768741  0.83936266  1
  Ca2+  Ca33  1  0.82893833  0.92118253  0.16408522  1
  Ca2+  Ca34  1  0.82791485  0.91058356  0.50564121  1
  Ca2+  Ca35  1  0.83489370  0.91817142  0.84445562  1
  Ca2+  Ca36  1  0.42418002  0.16960497  0.15382448  1
  Ca2+  Ca37  1  0.41050216  0.16929486  0.50450370  1
  Ca2+  Ca38  1  0.42020154  0.17489121  0.82866984  1
  Ca2+  Ca39  1  0.41832727  0.67588977  0.16437787  1
  Ca2+  Ca40  1  0.41392733  0.66982312  0.49683296  1
  Ca2+  Ca41  1  0.41788243  0.66274954  0.82730771  1
  Ca2+  Ca42  1  0.91956585  0.17585517  0.15495919  1
  Ca2+  Ca43  1  0.92349739  0.17353779  0.49788543  1
  Ca2+  Ca44  1  0.92709349  0.16273316  0.83081738  1
  Ca2+  Ca45  1  0.92154673  0.67292484  0.15299426  1
  Ca2+  Ca46  1  0.91976336  0.66656268  0.50621421  1
  Ca2+  Ca47  1  0.91906888  0.67144126  0.82956779  1
  Al0+  Al48  1  -0.00079917  -0.00020325  -0.00034585  1
  Al0+  Al49  1  -0.00039810  -0.00027938  0.33808907  1
  Al0+  Al50  1  -0.00255001  -0.00079331  0.65923033  1
  Al0+  Al51  1  0.00248281  0.49926252  0.00402906  1
  Al0+  Al52  1  0.00202489  0.50085615  0.33343746  1
  Al0+  Al53  1  -0.00046218  0.50154522  0.66873464  1
  Al0+  Al54  1  0.49819085  0.00109909  -0.00188430  1
  Al0+  Al55  1  0.50073131  0.00079448  0.33385643  1
  Al0+  Al56  1  0.49942554  0.00053252  0.66843041  1
  Al0+  Al57  1  0.49851449  0.50337066  -0.00045592  1
  Al0+  Al58  1  0.50191510  0.50126079  0.33016890  1
  Al0+  Al59  1  0.50074442  0.49982185  0.66789433  1
  Al0+  Al60  1  0.25017595  0.25090208  0.00026237  1
  Al0+  Al61  1  0.24998902  0.24976696  0.33235595  1
  Al0+  Al62  1  0.25214748  0.24996596  0.66359275  1
  Al0+  Al63  1  0.25168804  0.74880463  -0.00228760  1
  Al0+  Al64  1  0.25152337  0.74950540  0.33181624  1
  Al0+  Al65  1  0.24968438  0.75126685  0.67090447  1
  Al0+  Al66  1  0.74924474  0.25079564  -0.00300319  1
  Al0+  Al67  1  0.74985280  0.25206219  0.32964640  1
  Al0+  Al68  1  0.74663048  0.24606375  0.66868155  1
  Al0+  Al69  1  0.74738218  0.74869065  0.00600938  1
  Al0+  Al70  1  0.75131388  0.74889034  0.33740270  1
  Al0+  Al71  1  0.74816462  0.74786297  0.66504817  1
  Al0+  Al72  1  0.57175464  0.17736051  0.98351735  1
  Al0+  Al73  1  0.93084617  0.32105564  0.32128162  1
  Al0+  Al74  1  0.07042602  0.17770437  0.98617783  1
  Al0+  Al75  1  0.18124937  0.42922467  0.01555812  1
  Al0+  Al76  1  0.67910305  0.42583411  0.68130557  1
  Al0+  Al77  1  0.82081532  0.57036347  0.68227293  1
  Al0+  Al78  1  0.67733540  0.92906978  0.01427771  1
  Al0+  Al79  1  0.32185027  0.57288156  0.68114999  1
  Al0+  Al80  1  0.82086100  0.56810494  0.01530559  1
  Al0+  Al81  1  0.07271847  0.67850892  0.98519474  1
  Al0+  Al82  1  0.92661858  0.82051504  0.64991736  1
  Al0+  Al83  1  0.17876647  0.92786147  0.34641438  1
  Al0+  Al84  1  0.42954403  0.32256609  0.98399647  1
  Al0+  Al85  1  0.07221234  0.67826896  0.65089222  1
  Al0+  Al86  1  0.92723251  0.81997294  0.98795495  1
  Al0+  Al87  1  0.17816094  0.42819200  0.68149961  1
  Al0+  Al88  1  0.92799308  0.32256155  0.98474289  1
  Al0+  Al89  1  0.68015331  0.92993923  0.34837971  1
  Al0+  Al90  1  0.32105025  0.07085492  0.68280518  1
  Al0+  Al91  1  0.17536297  0.92948163  0.68361256  1
  Al0+  Al92  1  0.43170277  0.32032765  0.65154675  1
  Al0+  Al93  1  0.07137664  0.18004979  0.65164617  1
  Al0+  Al94  1  0.43063300  0.82036239  0.32044281  1
  Al0+  Al95  1  0.82358340  0.07353057  0.01439004  1
  Si0+  Si96  1  0.57229857  0.17470337  0.64678174  1
  Si0+  Si97  1  0.32283102  0.56940715  0.34655672  1
  Si0+  Si98  1  0.32257664  0.07291335  0.34903139  1
  Si0+  Si99  1  0.82303003  0.57008472  0.34941488  1
  Si0+  Si100  1  0.82036593  0.06995807  0.67958298  1
  Si0+  Si101  1  0.42844930  0.32336801  0.31838094  1
  Si0+  Si102  1  0.57437695  0.67788253  0.31559862  1
  Si0+  Si103  1  0.56930387  0.67932366  0.65125149  1
  Si0+  Si104  1  0.57050472  0.18009342  0.31831235  1
  Si0+  Si105  1  0.07278474  0.17664049  0.31733390  1
  Si0+  Si106  1  0.57033727  0.68014204  0.98480009  1
  Si0+  Si107  1  0.67820746  0.42950908  0.34693653  1
  Si0+  Si108  1  0.67867599  0.92837481  0.67954979  1
  Si0+  Si109  1  0.92670818  0.82131938  0.31813021  1
  Si0+  Si110  1  0.32389226  0.57476108  0.02048728  1
  Si0+  Si111  1  0.92541546  0.32132362  0.65231104  1
  Si0+  Si112  1  0.42827549  0.82243036  0.98381262  1
  Si0+  Si113  1  0.18038485  0.42941651  0.34823949  1
  Si0+  Si114  1  0.82097716  0.07471628  0.35113680  1
  Si0+  Si115  1  0.31926721  0.07019505  0.01511363  1
  Si0+  Si116  1  0.67447280  0.42903522  0.01743590  1
  Si0+  Si117  1  0.07144503  0.68090291  0.31849955  1
  Si0+  Si118  1  0.17982277  0.92724394  0.01416583  1
  Si0+  Si119  1  0.42951011  0.82288541  0.65228017  1
  O2-  O120  1  0.24909100  -0.00085875  0.05857155  1
  O2-  O121  1  0.25147909  0.00587471  0.39127375  1
  O2-  O122  1  0.24464484  0.00424841  0.73368099  1
  O2-  O123  1  0.25507896  0.50556088  0.06346629  1
  O2-  O124  1  0.25634620  0.49514502  0.38939429  1
  O2-  O125  1  0.24721006  0.50397287  0.73039834  1
  O2-  O126  1  0.74976490  0.00155190  0.06332816  1
  O2-  O127  1  0.75629221  0.00227950  0.39671444  1
  O2-  O128  1  0.75175145  -0.00380958  0.72048459  1
  O2-  O129  1  0.74905658  0.49038149  0.06392372  1
  O2-  O130  1  0.75045026  0.49921437  0.38924716  1
  O2-  O131  1  0.75689643  0.49063557  0.73148094  1
  O2-  O132  1  0.00395600  0.24510115  0.27438798  1
  O2-  O133  1  -0.00248025  0.25704922  0.60601316  1
  O2-  O134  1  -0.00525257  0.24558432  0.93613202  1
  O2-  O135  1  0.00147285  0.75358129  0.27727001  1
  O2-  O136  1  0.00150797  0.75124473  0.59908135  1
  O2-  O137  1  -0.00048650  0.74952125  0.93727918  1
  O2-  O138  1  0.49713441  0.24987531  0.27727825  1
  O2-  O139  1  0.50626152  0.24610614  0.60227391  1
  O2-  O140  1  0.50540916  0.25470290  0.93458838  1
  O2-  O141  1  0.50838099  0.74944904  0.27158138  1
  O2-  O142  1  0.49693458  0.74882565  0.60901446  1
  O2-  O143  1  0.50073574  0.75265905  0.94286969  1
  O2-  O144  1  0.07222291  0.17851285  0.10058890  1
  O2-  O145  1  0.07457396  0.17866577  0.42275466  1
  O2-  O146  1  0.06905618  0.17881131  0.76390491  1
  O2-  O147  1  0.07219343  0.68198358  0.10033717  1
  O2-  O148  1  0.07198325  0.67862910  0.42306434  1
  O2-  O149  1  0.07094764  0.67970345  0.76355564  1
  O2-  O150  1  0.56589790  0.17643898  0.09840998  1
  O2-  O151  1  0.57212248  0.18093449  0.42325755  1
  O2-  O152  1  0.57081749  0.17000933  0.75126257  1
  O2-  O153  1  0.56847997  0.67857444  0.09026476  1
  O2-  O154  1  0.57205868  0.67507517  0.42100272  1
  O2-  O155  1  0.57075937  0.68231823  0.75625757  1
  O2-  O156  1  0.18035941  0.43019198  0.24338293  1
  O2-  O157  1  0.18193094  0.42870191  0.56637025  1
  O2-  O158  1  0.18289739  0.42799266  0.90351472  1
  O2-  O159  1  0.18093662  0.92755383  0.23283501  1
  O2-  O160  1  0.18050684  0.92924716  0.56934515  1
  O2-  O161  1  0.18280522  0.92613332  0.90996403  1
  O2-  O162  1  0.67418042  0.43116433  0.24237657  1
  O2-  O163  1  0.67957811  0.42980096  0.56632709  1
  O2-  O164  1  0.66881169  0.43661698  0.91288220  1
  O2-  O165  1  0.67917806  0.93262373  0.23617192  1
  O2-  O166  1  0.67721603  0.92971942  0.57401047  1
  O2-  O167  1  0.67616789  0.92851393  0.90048636  1
  O2-  O168  1  0.42998925  0.31877563  0.09920959  1
  O2-  O169  1  0.42955670  0.32592478  0.42308031  1
  O2-  O170  1  0.43331792  0.32106290  0.76360592  1
  O2-  O171  1  0.42705957  0.82177097  0.08938909  1
  O2-  O172  1  0.43076868  0.81645560  0.43338317  1
  O2-  O173  1  0.43435222  0.82503996  0.75728482  1
  O2-  O174  1  0.93415560  0.32215451  0.09911062  1
  O2-  O175  1  0.93136493  0.32082789  0.43455679  1
  O2-  O176  1  0.92347998  0.31701711  0.75704856  1
  O2-  O177  1  0.93021341  0.81941242  0.10264267  1
  O2-  O178  1  0.92378401  0.81812350  0.42278983  1
  O2-  O179  1  0.92243738  0.81954328  0.76278403  1
  O2-  O180  1  0.32342348  0.07312594  0.24319664  1
  O2-  O181  1  0.32230640  0.06619046  0.56841147  1
  O2-  O182  1  0.32003988  0.06848027  0.91074331  1
  O2-  O183  1  0.32362389  0.56969914  0.24176143  1
  O2-  O184  1  0.32331461  0.57037774  0.56616538  1
  O2-  O185  1  0.32667666  0.57777587  0.91596630  1
  O2-  O186  1  0.81922065  0.07529232  0.24612403  1
  O2-  O187  1  0.81695070  0.07228939  0.57400559  1
  O2-  O188  1  0.82438034  0.06809257  0.90071221  1
  O2-  O189  1  0.82331191  0.57024655  0.24445768  1
  O2-  O190  1  0.81675896  0.57064534  0.56759958  1
  O2-  O191  1  0.81807833  0.57007451  0.90314279  1
  O2-  O192  1  0.04812733  0.08174154  0.27347792  1
  O2-  O193  1  0.03763137  0.08538065  0.59482293  1
  O2-  O194  1  0.04671374  0.07851432  0.93370689  1
  O2-  O195  1  0.04126242  0.58954201  0.27118943  1
  O2-  O196  1  0.04280884  0.57951208  0.59632611  1
  O2-  O197  1  0.04541208  0.57952472  0.93723244  1
  O2-  O198  1  0.54318446  0.08834979  0.27113046  1
  O2-  O199  1  0.54195004  0.08247167  0.59835920  1
  O2-  O200  1  0.53712885  0.08136133  0.92984622  1
  O2-  O201  1  0.54569858  0.58597883  0.26669857  1
  O2-  O202  1  0.54292188  0.58800714  0.60225723  1
  O2-  O203  1  0.53990365  0.59040273  0.93606875  1
  O2-  O204  1  0.16713263  0.20105952  0.27116580  1
  O2-  O205  1  0.16783258  0.20911611  0.59592596  1
  O2-  O206  1  0.16793667  0.20935636  0.93496102  1
  O2-  O207  1  0.16336773  0.70640926  0.27034236  1
  O2-  O208  1  0.17245400  0.70655406  0.59922114  1
  O2-  O209  1  0.17203060  0.70409600  0.93442549  1
  O2-  O210  1  0.66079974  0.20986866  0.26952936  1
  O2-  O211  1  0.66662998  0.19707321  0.59981638  1
  O2-  O212  1  0.67253262  0.19627915  0.93417038  1
  O2-  O213  1  0.66950494  0.70079655  0.27191338  1
  O2-  O214  1  0.65895507  0.70872356  0.60047926  1
  O2-  O215  1  0.66171403  0.70710416  0.93770183  1
  O2-  O216  1  0.08667701  0.46104609  0.07369858  1
  O2-  O217  1  0.09068784  0.46193128  0.39623070  1
  O2-  O218  1  0.07840530  0.45100424  0.73195177  1
  O2-  O219  1  0.08805275  0.95364823  0.06209412  1
  O2-  O220  1  0.08119329  0.95367066  0.40101480  1
  O2-  O221  1  0.07412848  0.95455635  0.72990080  1
  O2-  O222  1  0.58365867  0.46252346  0.06701324  1
  O2-  O223  1  0.58669630  0.45938212  0.39538406  1
  O2-  O224  1  0.58479250  0.46362344  0.73411798  1
  O2-  O225  1  0.57818160  0.95977507  0.06682349  1
  O2-  O226  1  0.58333302  0.96205818  0.40244727  1
  O2-  O227  1  0.58818209  0.95748969  0.72754565  1
  O2-  O228  1  0.21498366  0.33376181  0.07245921  1
  O2-  O229  1  0.20313471  0.33496896  0.39311055  1
  O2-  O230  1  0.21141850  0.33117537  0.73191517  1
  O2-  O231  1  0.21088945  0.83618518  0.06239908  1
  O2-  O232  1  0.21427017  0.83215368  0.39962545  1
  O2-  O233  1  0.20821117  0.83352948  0.73696050  1
  O2-  O234  1  0.69093141  0.33184078  0.05858871  1
  O2-  O235  1  0.70423774  0.33725982  0.39398584  1
  O2-  O236  1  0.69376799  0.32353916  0.72958019  1
  O2-  O237  1  0.70120839  0.83080413  0.06990849  1
  O2-  O238  1  0.70736245  0.83138755  0.40157419  1
  O2-  O239  1  0.70175941  0.83509710  0.72484397  1
  O2-  O240  1  0.45810419  0.41404267  0.26960989  1
  O2-  O241  1  0.46464608  0.41702537  0.59644037  1
  O2-  O242  1  0.45308942  0.42357631  0.93548850  1
  O2-  O243  1  0.45831393  0.91848628  0.26729701  1
  O2-  O244  1  0.46202716  0.91233504  0.60265594  1
  O2-  O245  1  0.45447333  0.91361886  0.93598147  1
  O2-  O246  1  0.96432544  0.41752693  0.26796712  1
  O2-  O247  1  0.94539820  0.41709772  0.60867870  1
  O2-  O248  1  0.96377049  0.41866594  0.93414905  1
  O2-  O249  1  0.95012354  0.91621751  0.27524701  1
  O2-  O250  1  0.94974055  0.91892784  0.59394727  1
  O2-  O251  1  0.95444565  0.91793999  0.93615524  1
  O2-  O252  1  0.33533328  0.29782960  0.27208501  1
  O2-  O253  1  0.33653022  0.28955991  0.59431008  1
  O2-  O254  1  0.33293075  0.28962696  0.93343154  1
  O2-  O255  1  0.33608905  0.78565140  0.26380203  1
  O2-  O256  1  0.33663392  0.79846140  0.60630745  1
  O2-  O257  1  0.33817104  0.79276862  0.93552784  1
  O2-  O258  1  0.83286466  0.29538886  0.26708235  1
  O2-  O259  1  0.83261781  0.29067093  0.60496959  1
  O2-  O260  1  0.82550724  0.30845763  0.93704629  1
  O2-  O261  1  0.83595197  0.79005266  0.27072710  1
  O2-  O262  1  0.82864411  0.78709740  0.59563010  1
  O2-  O263  1  0.82730352  0.79211541  0.93914193  1
  O2-  O264  1  0.41030480  0.04080355  0.06371109  1
  O2-  O265  1  0.41554606  0.04737446  0.39551758  1
  O2-  O266  1  0.41800513  0.03763400  0.73599848  1
  O2-  O267  1  0.41706203  0.54906980  0.06864966  1
  O2-  O268  1  0.41690915  0.54612625  0.39256801  1
  O2-  O269  1  0.41980888  0.54358987  0.73299214  1
  O2-  O270  1  0.92075562  0.04310583  0.07086427  1
  O2-  O271  1  0.91599066  0.05340610  0.39608973  1
  O2-  O272  1  0.91258653  0.04383628  0.72456690  1
  O2-  O273  1  0.91745066  0.53991128  0.07145605  1
  O2-  O274  1  0.91436656  0.54105952  0.39700216  1
  O2-  O275  1  0.92067538  0.55079327  0.73339935  1
  O2-  O276  1  0.29276242  0.16141456  0.06423601  1
  O2-  O277  1  0.29907080  0.16789581  0.39445584  1
  O2-  O278  1  0.29851059  0.17113041  0.73156266  1
  O2-  O279  1  0.29707989  0.66837749  0.06790633  1
  O2-  O280  1  0.29252203  0.66030187  0.39361205  1
  O2-  O281  1  0.30258484  0.67303128  0.73266288  1
  O2-  O282  1  0.79626848  0.17318605  0.06700070  1
  O2-  O283  1  0.78988632  0.16717690  0.39727496  1
  O2-  O284  1  0.79122955  0.15956209  0.72916448  1
  O2-  O285  1  0.78506994  0.66241035  0.07216478  1
  O2-  O286  1  0.79536441  0.66119551  0.39767632  1
  O2-  O287  1  0.78175435  0.66566848  0.73414181  1
