# generated using pymatgen
data_Ca2Al2SiO7
_symmetry_space_group_name_H-M   'P 1'
_cell_length_a   15.45796074
_cell_length_b   15.45866245
_cell_length_c   15.28411673
_cell_angle_alpha   90.01059546
_cell_angle_beta   90.00721954
_cell_angle_gamma   89.99644667
_symmetry_Int_Tables_number   1
_chemical_formula_structural   Ca2Al2SiO7
_chemical_formula_sum   'Ca48 Al48 Si24 O168'
_cell_volume   3652.28322164
_cell_formula_units_Z   24
loop_
 _symmetry_equiv_pos_site_id
 _symmetry_equiv_pos_as_xyz
  1  'x, y, z'
loop_
 _atom_type_symbol
 _atom_type_oxidation_number
  Ca2+  2.0
  Al0+  0.0
  Si0+  0.0
  O2-  -2.0
loop_
 _atom_site_type_symbol
 _atom_site_label
 _atom_site_symmetry_multiplicity
 _atom_site_fract_x
 _atom_site_fract_y
 _atom_site_fract_z
 _atom_site_occupancy
  Ca2+  Ca0  1  0.17143737  0.09057537  0.17439961  1
  Ca2+  Ca1  1  0.16913502  0.08713709  0.50383894  1
  Ca2+  Ca2  1  0.15555811  0.07942787  0.83469978  1
  Ca2+  Ca3  1  0.17282263  0.57934904  0.17102098  1
  Ca2+  Ca4  1  0.16690709  0.57169077  0.50027552  1
  Ca2+  Ca5  1  0.16870071  0.57676021  0.84087660  1
  Ca2+  Ca6  1  0.67276275  0.08252280  0.17594763  1
  Ca2+  Ca7  1  0.67173889  0.07555601  0.50377434  1
  Ca2+  Ca8  1  0.66168274  0.08654740  0.83555139  1
  Ca2+  Ca9  1  0.66566661  0.57439553  0.16710800  1
  Ca2+  Ca10  1  0.67051749  0.57630316  0.50662660  1
  Ca2+  Ca11  1  0.66911881  0.56875300  0.83865011  1
  Ca2+  Ca12  1  0.07797789  0.32698551  0.16255149  1
  Ca2+  Ca13  1  0.07828583  0.33193077  0.49231807  1
  Ca2+  Ca14  1  0.07711925  0.32668031  0.82229464  1
  Ca2+  Ca15  1  0.07872258  0.82946311  0.16255249  1
  Ca2+  Ca16  1  0.08040514  0.83590961  0.49482930  1
  Ca2+  Ca17  1  0.08933487  0.82622134  0.82955127  1
  Ca2+  Ca18  1  0.57723139  0.32741210  0.15357395  1
  Ca2+  Ca19  1  0.58701630  0.32824591  0.50082427  1
  Ca2+  Ca20  1  0.58554814  0.32846603  0.82956857  1
  Ca2+  Ca21  1  0.57188516  0.83768739  0.16492699  1
  Ca2+  Ca22  1  0.58255412  0.83661963  0.49115785  1
  Ca2+  Ca23  1  0.57574117  0.83654546  0.82874360  1
  Ca2+  Ca24  1  0.33097225  0.42536289  0.17496289  1
  Ca2+  Ca25  1  0.31790039  0.41525107  0.50163339  1
  Ca2+  Ca26  1  0.32915236  0.41848324  0.84226976  1
  Ca2+  Ca27  1  0.33611423  0.92121420  0.17405632  1
  Ca2+  Ca28  1  0.33045188  0.92204957  0.50086627  1
  Ca2+  Ca29  1  0.32917538  0.91770788  0.83661150  1
  Ca2+  Ca30  1  0.83135804  0.40431985  0.16658283  1
  Ca2+  Ca31  1  0.83490702  0.41180212  0.50511882  1
  Ca2+  Ca32  1  0.82592690  0.40013258  0.83540938  1
  Ca2+  Ca33  1  0.82818026  0.92488375  0.18053392  1
  Ca2+  Ca34  1  0.82873569  0.92005514  0.50271184  1
  Ca2+  Ca35  1  0.82480841  0.91943116  0.83713196  1
  Ca2+  Ca36  1  0.42010550  0.17141100  0.15965669  1
  Ca2+  Ca37  1  0.42219894  0.15992121  0.49690513  1
  Ca2+  Ca38  1  0.42752585  0.17254638  0.83342260  1
  Ca2+  Ca39  1  0.40486148  0.67587114  0.16256140  1
  Ca2+  Ca40  1  0.41628893  0.67255054  0.49198339  1
  Ca2+  Ca41  1  0.41083219  0.66963585  0.83563654  1
  Ca2+  Ca42  1  0.92528964  0.17043515  0.16445852  1
  Ca2+  Ca43  1  0.92696571  0.17347343  0.49213384  1
  Ca2+  Ca44  1  0.92475077  0.17625672  0.82975589  1
  Ca2+  Ca45  1  0.92204520  0.67314371  0.16449110  1
  Ca2+  Ca46  1  0.91721732  0.67418617  0.49261161  1
  Ca2+  Ca47  1  0.92361144  0.66397743  0.83355084  1
  Al0+  Al48  1  -0.00321642  -0.00130361  -0.00143118  1
  Al0+  Al49  1  -0.00039201  0.00081344  0.32878241  1
  Al0+  Al50  1  0.00023328  -0.00009974  0.66915457  1
  Al0+  Al51  1  -0.00206417  0.50212894  -0.00623434  1
  Al0+  Al52  1  -0.00210058  0.49944793  0.33189569  1
  Al0+  Al53  1  0.00254971  0.50220753  0.66665474  1
  Al0+  Al54  1  0.49705083  -0.00141595  -0.00775692  1
  Al0+  Al55  1  0.49915290  -0.00178054  0.33638449  1
  Al0+  Al56  1  0.49945791  0.00051521  0.66667363  1
  Al0+  Al57  1  0.49978190  0.50267161  0.00615673  1
  Al0+  Al58  1  0.50105276  0.50106774  0.33841177  1
  Al0+  Al59  1  0.50205975  0.50246548  0.66926488  1
  Al0+  Al60  1  0.25031785  0.24749848  -0.00715217  1
  Al0+  Al61  1  0.25195404  0.25001651  0.33931000  1
  Al0+  Al62  1  0.25263472  0.25104423  0.67012165  1
  Al0+  Al63  1  0.24819286  0.75006726  -0.00425939  1
  Al0+  Al64  1  0.25166242  0.74981568  0.33364520  1
  Al0+  Al65  1  0.25041853  0.75249438  0.66767658  1
  Al0+  Al66  1  0.75091903  0.24668933  -0.00053322  1
  Al0+  Al67  1  0.75103523  0.24783131  0.33533645  1
  Al0+  Al68  1  0.74975430  0.24922339  0.66158946  1
  Al0+  Al69  1  0.74769584  0.74871222  0.00176205  1
  Al0+  Al70  1  0.74898313  0.74693457  0.33057503  1
  Al0+  Al71  1  0.74903102  0.75024048  0.67292060  1
  Al0+  Al72  1  0.42893729  0.81956147  0.98443817  1
  Al0+  Al73  1  0.68163533  0.42764822  0.01422189  1
  Al0+  Al74  1  0.17956503  0.42928012  0.68254682  1
  Al0+  Al75  1  0.92761450  0.32199258  0.31640695  1
  Al0+  Al76  1  0.17786203  0.42923449  0.34621753  1
  Al0+  Al77  1  0.17906175  0.93072306  0.68016595  1
  Al0+  Al78  1  0.92965624  0.32067846  0.98430217  1
  Al0+  Al79  1  0.06954230  0.68126337  0.98655738  1
  Al0+  Al80  1  0.07259514  0.17691034  0.98414641  1
  Al0+  Al81  1  0.31924331  0.57118927  0.01413755  1
  Al0+  Al82  1  0.56946223  0.17904339  0.64986982  1
  Al0+  Al83  1  0.67941569  0.92811837  0.34666847  1
  Al0+  Al84  1  0.32121162  0.07121480  0.34557314  1
  Al0+  Al85  1  0.68126575  0.42853839  0.67984875  1
  Al0+  Al86  1  0.07324227  0.17709662  0.64987647  1
  Al0+  Al87  1  0.92751914  0.82182047  0.32114317  1
  Al0+  Al88  1  0.67827163  0.92894589  0.68238883  1
  Al0+  Al89  1  0.82346814  0.07203236  0.34992663  1
  Al0+  Al90  1  0.57076916  0.17918701  0.98702918  1
  Al0+  Al91  1  0.32213315  0.57351137  0.34985300  1
  Al0+  Al92  1  0.43023259  0.81980756  0.32070872  1
  Al0+  Al93  1  0.93070235  0.32195252  0.64958940  1
  Al0+  Al94  1  0.42851228  0.32548539  0.98720368  1
  Al0+  Al95  1  0.07458744  0.17952613  0.31851965  1
  Si0+  Si96  1  0.82316177  0.57425723  0.01892888  1
  Si0+  Si97  1  0.43048035  0.32272451  0.32149811  1
  Si0+  Si98  1  0.56957310  0.17904097  0.32025239  1
  Si0+  Si99  1  0.17654514  0.42628027  0.01470618  1
  Si0+  Si100  1  0.42911007  0.82009853  0.64998658  1
  Si0+  Si101  1  0.92473233  0.82196917  0.98270070  1
  Si0+  Si102  1  0.81993972  0.06819165  0.01589518  1
  Si0+  Si103  1  0.82306456  0.57381129  0.68377772  1
  Si0+  Si104  1  0.67567458  0.92796017  0.01509633  1
  Si0+  Si105  1  0.07277264  0.68112085  0.65005652  1
  Si0+  Si106  1  0.82042011  0.57079769  0.34736512  1
  Si0+  Si107  1  0.32088784  0.06941192  0.01344289  1
  Si0+  Si108  1  0.57199255  0.67965518  0.65226709  1
  Si0+  Si109  1  0.32364515  0.07239255  0.68614407  1
  Si0+  Si110  1  0.42943877  0.32592919  0.64912144  1
  Si0+  Si111  1  0.17788399  0.92901714  0.01483822  1
  Si0+  Si112  1  0.82104245  0.07093353  0.68488707  1
  Si0+  Si113  1  0.17733167  0.92751038  0.34642165  1
  Si0+  Si114  1  0.57372682  0.67794937  0.98210153  1
  Si0+  Si115  1  0.57270756  0.67463356  0.31549562  1
  Si0+  Si116  1  0.32178092  0.57315287  0.68382462  1
  Si0+  Si117  1  0.67895976  0.42749197  0.34843664  1
  Si0+  Si118  1  0.07152248  0.67839657  0.31798184  1
  Si0+  Si119  1  0.92720845  0.81970168  0.65390649  1
  O2-  O120  1  0.24485965  0.00370383  0.05630433  1
  O2-  O121  1  0.24283000  -0.00084820  0.39047891  1
  O2-  O122  1  0.24912779  0.00879620  0.72902551  1
  O2-  O123  1  0.24859090  0.49172030  0.05956445  1
  O2-  O124  1  0.25009634  0.50123426  0.39780089  1
  O2-  O125  1  0.25663837  0.50208895  0.72861833  1
  O2-  O126  1  0.74770849  -0.00285939  0.05725063  1
  O2-  O127  1  0.75351760  -0.00334584  0.39827151  1
  O2-  O128  1  0.75073704  0.00413066  0.73125997  1
  O2-  O129  1  0.75767501  0.50159414  0.06184386  1
  O2-  O130  1  0.75203568  0.49728680  0.38934252  1
  O2-  O131  1  0.75989281  0.49947108  0.72655560  1
  O2-  O132  1  0.00171647  0.25095656  0.26903702  1
  O2-  O133  1  0.00497605  0.25236301  0.59993410  1
  O2-  O134  1  0.00724795  0.25492743  0.93453146  1
  O2-  O135  1  0.00507878  0.74989580  0.27454888  1
  O2-  O136  1  -0.00043332  0.75086014  0.60969547  1
  O2-  O137  1  -0.00650627  0.75416806  0.93776489  1
  O2-  O138  1  0.50124611  0.25219810  0.27791296  1
  O2-  O139  1  0.49526230  0.25477251  0.60350708  1
  O2-  O140  1  0.50366320  0.25631635  0.93749309  1
  O2-  O141  1  0.50299807  0.74331851  0.27313242  1
  O2-  O142  1  0.50209917  0.75080258  0.60865785  1
  O2-  O143  1  0.50464336  0.74602860  0.93724065  1
  O2-  O144  1  0.07197476  0.17455052  0.09742297  1
  O2-  O145  1  0.07486376  0.18053526  0.43176471  1
  O2-  O146  1  0.06759704  0.17632497  0.76331900  1
  O2-  O147  1  0.06909960  0.68501842  0.09970039  1
  O2-  O148  1  0.06921490  0.67871363  0.42402850  1
  O2-  O149  1  0.07343278  0.68247468  0.75519194  1
  O2-  O150  1  0.56816313  0.17714098  0.10118378  1
  O2-  O151  1  0.56840759  0.17985478  0.42534593  1
  O2-  O152  1  0.56765932  0.17961504  0.76281537  1
  O2-  O153  1  0.57725358  0.68044878  0.08746328  1
  O2-  O154  1  0.57445995  0.67367123  0.42144365  1
  O2-  O155  1  0.57103989  0.67968398  0.75717977  1
  O2-  O156  1  0.17947619  0.43035406  0.23242824  1
  O2-  O157  1  0.17799925  0.43271381  0.56961104  1
  O2-  O158  1  0.17802997  0.43016764  0.90897886  1
  O2-  O159  1  0.18042456  0.92449064  0.24058355  1
  O2-  O160  1  0.18246977  0.92552371  0.56733399  1
  O2-  O161  1  0.17966023  0.92821879  0.90951886  1
  O2-  O162  1  0.67660935  0.42837959  0.24341429  1
  O2-  O163  1  0.67969979  0.43332131  0.56647090  1
  O2-  O164  1  0.68279379  0.42897255  0.90114901  1
  O2-  O165  1  0.67748756  0.93212854  0.23259109  1
  O2-  O166  1  0.68085247  0.92598965  0.56982309  1
  O2-  O167  1  0.67756653  0.92787969  0.90978411  1
  O2-  O168  1  0.42888033  0.32212249  0.10159619  1
  O2-  O169  1  0.43328744  0.32293678  0.42661364  1
  O2-  O170  1  0.43215677  0.32755656  0.75462810  1
  O2-  O171  1  0.42977392  0.82165456  0.09737149  1
  O2-  O172  1  0.43184684  0.81945228  0.43403523  1
  O2-  O173  1  0.42826699  0.81791635  0.75525734  1
  O2-  O174  1  0.92917477  0.31667233  0.09765234  1
  O2-  O175  1  0.92764191  0.32346387  0.42960391  1
  O2-  O176  1  0.93041396  0.31952494  0.76302775  1
  O2-  O177  1  0.92554580  0.82197453  0.08820310  1
  O2-  O178  1  0.92739891  0.81777407  0.43480229  1
  O2-  O179  1  0.92658836  0.81634930  0.75911581  1
  O2-  O180  1  0.32428003  0.07014769  0.23211886  1
  O2-  O181  1  0.32677691  0.06770065  0.58045159  1
  O2-  O182  1  0.32438433  0.06519627  0.90864443  1
  O2-  O183  1  0.31998954  0.57298203  0.23626684  1
  O2-  O184  1  0.32017144  0.57481193  0.57848357  1
  O2-  O185  1  0.31560599  0.57274785  0.90075766  1
  O2-  O186  1  0.81899731  0.07205814  0.23568567  1
  O2-  O187  1  0.82077872  0.06660646  0.57969819  1
  O2-  O188  1  0.82061981  0.06542705  0.91073200  1
  O2-  O189  1  0.81894727  0.57437383  0.24262048  1
  O2-  O190  1  0.81922240  0.57982087  0.57808433  1
  O2-  O191  1  0.81974390  0.58096516  0.91365533  1
  O2-  O192  1  0.04916870  0.08035142  0.26536942  1
  O2-  O193  1  0.04399089  0.07720934  0.59947017  1
  O2-  O194  1  0.03721022  0.07926330  0.93223273  1
  O2-  O195  1  0.04196761  0.58717344  0.27037890  1
  O2-  O196  1  0.04567175  0.58994763  0.60206967  1
  O2-  O197  1  0.03995771  0.58615773  0.92878167  1
  O2-  O198  1  0.53970666  0.08787634  0.27376942  1
  O2-  O199  1  0.53679468  0.08205569  0.59669394  1
  O2-  O200  1  0.53757483  0.08367640  0.93084286  1
  O2-  O201  1  0.54744686  0.58066740  0.26954595  1
  O2-  O202  1  0.54467512  0.58838528  0.60298845  1
  O2-  O203  1  0.54715557  0.58443898  0.93746465  1
  O2-  O204  1  0.17446933  0.20824497  0.26753866  1
  O2-  O205  1  0.17646527  0.19949920  0.60488546  1
  O2-  O206  1  0.17311023  0.19350228  0.93148454  1
  O2-  O207  1  0.16563175  0.70263433  0.27303338  1
  O2-  O208  1  0.16345870  0.71233089  0.60269782  1
  O2-  O209  1  0.16272536  0.71551424  0.92851031  1
  O2-  O210  1  0.66207153  0.20502301  0.27401963  1
  O2-  O211  1  0.66563428  0.20852621  0.59521490  1
  O2-  O212  1  0.66965962  0.20216816  0.93409511  1
  O2-  O213  1  0.66551758  0.69856741  0.26745472  1
  O2-  O214  1  0.66470062  0.70706230  0.60602483  1
  O2-  O215  1  0.66690384  0.70346441  0.93448555  1
  O2-  O216  1  0.08308023  0.45685636  0.05804755  1
  O2-  O217  1  0.07977580  0.46031326  0.39923733  1
  O2-  O218  1  0.08405000  0.46456016  0.73633294  1
  O2-  O219  1  0.08301551  0.95045854  0.05944090  1
  O2-  O220  1  0.08230335  0.94796769  0.39069029  1
  O2-  O221  1  0.08092866  0.95388726  0.73606044  1
  O2-  O222  1  0.58605781  0.46084162  0.06973635  1
  O2-  O223  1  0.58923143  0.45748295  0.39872957  1
  O2-  O224  1  0.58620503  0.46424770  0.73463587  1
  O2-  O225  1  0.58266117  0.95657784  0.05903291  1
  O2-  O226  1  0.58302123  0.95900490  0.40157090  1
  O2-  O227  1  0.58052502  0.95855306  0.73464431  1
  O2-  O228  1  0.19853005  0.32997504  0.05614774  1
  O2-  O229  1  0.20969019  0.33382971  0.40284337  1
  O2-  O230  1  0.20845265  0.33217395  0.73643346  1
  O2-  O231  1  0.20956610  0.83879450  0.06199656  1
  O2-  O232  1  0.20516411  0.83545540  0.39473479  1
  O2-  O233  1  0.21473343  0.83544084  0.73616063  1
  O2-  O234  1  0.71052141  0.32995923  0.06797744  1
  O2-  O235  1  0.70475671  0.33557875  0.39585064  1
  O2-  O236  1  0.70803834  0.32999275  0.73171939  1
  O2-  O237  1  0.70059913  0.83495946  0.06145659  1
  O2-  O238  1  0.70361676  0.82679401  0.39613905  1
  O2-  O239  1  0.70940153  0.83318216  0.73902201  1
  O2-  O240  1  0.45854679  0.41500087  0.27484712  1
  O2-  O241  1  0.45783410  0.41916973  0.60329537  1
  O2-  O242  1  0.45262260  0.42590904  0.93718798  1
  O2-  O243  1  0.46298750  0.91577912  0.26555663  1
  O2-  O244  1  0.45549395  0.91260953  0.60467431  1
  O2-  O245  1  0.45982043  0.91373229  0.92619627  1
  O2-  O246  1  0.95135816  0.42212450  0.26405277  1
  O2-  O247  1  0.95537930  0.42386183  0.60073045  1
  O2-  O248  1  0.94460229  0.42290743  0.93446066  1
  O2-  O249  1  0.95488197  0.91727911  0.26417456  1
  O2-  O250  1  0.95361068  0.91201829  0.60826619  1
  O2-  O251  1  0.94920955  0.91479836  0.93561808  1
  O2-  O252  1  0.33883604  0.29537031  0.27524879  1
  O2-  O253  1  0.33465915  0.30162211  0.60554247  1
  O2-  O254  1  0.33274730  0.29418917  0.93133276  1
  O2-  O255  1  0.33294585  0.79148586  0.26579040  1
  O2-  O256  1  0.33802039  0.79020015  0.60236836  1
  O2-  O257  1  0.33350039  0.78758981  0.92931914  1
  O2-  O258  1  0.82843972  0.29098109  0.26555571  1
  O2-  O259  1  0.83192257  0.29380436  0.59790955  1
  O2-  O260  1  0.83380013  0.28368935  0.93178955  1
  O2-  O261  1  0.83291160  0.78694558  0.26511019  1
  O2-  O262  1  0.83578307  0.78929861  0.60691117  1
  O2-  O263  1  0.83052431  0.79565864  0.93777525  1
  O2-  O264  1  0.41106746  0.03568662  0.06125061  1
  O2-  O265  1  0.41426131  0.03477099  0.40317611  1
  O2-  O266  1  0.41381212  0.03835732  0.73403106  1
  O2-  O267  1  0.41777541  0.55074843  0.06899540  1
  O2-  O268  1  0.42147298  0.54750791  0.40264545  1
  O2-  O269  1  0.41730867  0.55251862  0.72832707  1
  O2-  O270  1  0.91074965  0.03798586  0.06462376  1
  O2-  O271  1  0.92277620  0.04431070  0.40044688  1
  O2-  O272  1  0.91317071  0.04245088  0.73243224  1
  O2-  O273  1  0.91886942  0.55367823  0.06246611  1
  O2-  O274  1  0.91254297  0.54716451  0.39604173  1
  O2-  O275  1  0.91925899  0.55533559  0.72654435  1
  O2-  O276  1  0.29898092  0.16358947  0.05924242  1
  O2-  O277  1  0.29715672  0.16708813  0.40384882  1
  O2-  O278  1  0.30786183  0.16861180  0.72965674  1
  O2-  O279  1  0.28214689  0.66738477  0.06636060  1
  O2-  O280  1  0.29375199  0.67163671  0.40365192  1
  O2-  O281  1  0.29258556  0.66598873  0.72985472  1
  O2-  O282  1  0.79228824  0.15898318  0.06408017  1
  O2-  O283  1  0.79112348  0.16829580  0.40459001  1
  O2-  O284  1  0.79419320  0.16489905  0.72841514  1
  O2-  O285  1  0.79316428  0.66639783  0.06765141  1
  O2-  O286  1  0.78982386  0.66061388  0.39794988  1
  O2-  O287  1  0.79187406  0.66359035  0.73474532  1
