# generated using pymatgen
data_Ca2Al2SiO7
_symmetry_space_group_name_H-M   'P 1'
_cell_length_a   15.46283206
_cell_length_b   15.46111226
_cell_length_c   15.28696866
_cell_angle_alpha   89.99496817
_cell_angle_beta   89.98970957
_cell_angle_gamma   90.00705896
_symmetry_Int_Tables_number   1
_chemical_formula_structural   Ca2Al2SiO7
_chemical_formula_sum   'Ca48 Al48 Si24 O168'
_cell_volume   3654.69497287
_cell_formula_units_Z   24
loop_
 _symmetry_equiv_pos_site_id
 _symmetry_equiv_pos_as_xyz
  1  'x, y, z'
loop_
 _atom_type_symbol
 _atom_type_oxidation_number
  Ca2+  2.0
  Al0+  0.0
  Si0+  0.0
  O2-  -2.0
loop_
 _atom_site_type_symbol
 _atom_site_label
 _atom_site_symmetry_multiplicity
 _atom_site_fract_x
 _atom_site_fract_y
 _atom_site_fract_z
 _atom_site_occupancy
  Ca2+  Ca0  1  0.16071267  0.07790605  0.17703545  1
  Ca2+  Ca1  1  0.16145554  0.07746948  0.50800893  1
  Ca2+  Ca2  1  0.16597234  0.08431551  0.82864462  1
  Ca2+  Ca3  1  0.17517453  0.58050344  0.17420448  1
  Ca2+  Ca4  1  0.17404018  0.58020034  0.51165198  1
  Ca2+  Ca5  1  0.16444046  0.57986199  0.82544130  1
  Ca2+  Ca6  1  0.68135686  0.08579710  0.16938830  1
  Ca2+  Ca7  1  0.67216975  0.08890317  0.50386683  1
  Ca2+  Ca8  1  0.67103687  0.08531009  0.83719190  1
  Ca2+  Ca9  1  0.67372858  0.58098660  0.16822806  1
  Ca2+  Ca10  1  0.68080709  0.57487737  0.50761962  1
  Ca2+  Ca11  1  0.67502977  0.57353776  0.83919164  1
  Ca2+  Ca12  1  0.06934496  0.33096539  0.16529981  1
  Ca2+  Ca13  1  0.07884723  0.32923378  0.49649676  1
  Ca2+  Ca14  1  0.07109001  0.33326825  0.82130465  1
  Ca2+  Ca15  1  0.07868107  0.83519490  0.17143634  1
  Ca2+  Ca16  1  0.08541767  0.83117300  0.49744496  1
  Ca2+  Ca17  1  0.08429498  0.82614753  0.82386652  1
  Ca2+  Ca18  1  0.57883277  0.34144831  0.16483361  1
  Ca2+  Ca19  1  0.58124090  0.33374283  0.50112597  1
  Ca2+  Ca20  1  0.59101880  0.33089614  0.82603699  1
  Ca2+  Ca21  1  0.58420867  0.82321515  0.15999667  1
  Ca2+  Ca22  1  0.57434330  0.83303935  0.49895681  1
  Ca2+  Ca23  1  0.58002884  0.82399202  0.82529975  1
  Ca2+  Ca24  1  0.33418706  0.42116124  0.17734530  1
  Ca2+  Ca25  1  0.32979252  0.42314052  0.50641010  1
  Ca2+  Ca26  1  0.32544557  0.41601892  0.83055351  1
  Ca2+  Ca27  1  0.32391994  0.91926905  0.17494685  1
  Ca2+  Ca28  1  0.32150661  0.92022531  0.51197334  1
  Ca2+  Ca29  1  0.33197637  0.91677305  0.82554383  1
  Ca2+  Ca30  1  0.83373785  0.42052956  0.16896929  1
  Ca2+  Ca31  1  0.83827988  0.42080749  0.50804938  1
  Ca2+  Ca32  1  0.83049541  0.41996085  0.83736001  1
  Ca2+  Ca33  1  0.83956491  0.92718306  0.17547108  1
  Ca2+  Ca34  1  0.84195734  0.92330165  0.49829906  1
  Ca2+  Ca35  1  0.83535926  0.92666429  0.83826495  1
  Ca2+  Ca36  1  0.41545417  0.17625729  0.16647557  1
  Ca2+  Ca37  1  0.41989029  0.16856977  0.49875234  1
  Ca2+  Ca38  1  0.42571520  0.16482539  0.82043595  1
  Ca2+  Ca39  1  0.42364547  0.66313352  0.16112110  1
  Ca2+  Ca40  1  0.40778258  0.66783502  0.49818591  1
  Ca2+  Ca41  1  0.42052993  0.66920356  0.82463712  1
  Ca2+  Ca42  1  0.91390944  0.17226601  0.16527237  1
  Ca2+  Ca43  1  0.92419890  0.17873917  0.49338057  1
  Ca2+  Ca44  1  0.91543592  0.17875024  0.82549203  1
  Ca2+  Ca45  1  0.90591472  0.67031386  0.16509789  1
  Ca2+  Ca46  1  0.92133909  0.66485108  0.49537090  1
  Ca2+  Ca47  1  0.91826700  0.66245889  0.82502737  1
  Al0+  Al48  1  0.00190859  -0.00114679  0.00316694  1
  Al0+  Al49  1  -0.00076229  -0.00228140  0.33509866  1
  Al0+  Al50  1  -0.00031173  -0.00011040  0.67064927  1
  Al0+  Al51  1  0.00074041  0.50043467  0.00113718  1
  Al0+  Al52  1  0.00202165  0.49891530  0.33106695  1
  Al0+  Al53  1  0.00190161  0.50300154  0.66501240  1
  Al0+  Al54  1  0.49665995  0.00073390  0.00267589  1
  Al0+  Al55  1  0.50016857  -0.00111897  0.32842763  1
  Al0+  Al56  1  0.50018409  -0.00126935  0.66071629  1
  Al0+  Al57  1  0.49978824  0.50080845  -0.00336649  1
  Al0+  Al58  1  0.50068876  0.50040368  0.33442469  1
  Al0+  Al59  1  0.50283808  0.49985385  0.67325643  1
  Al0+  Al60  1  0.24919234  0.24961936  0.00122713  1
  Al0+  Al61  1  0.25209210  0.24896394  0.32387239  1
  Al0+  Al62  1  0.25114183  0.24919772  0.67176778  1
  Al0+  Al63  1  0.24878145  0.75114124  0.00111477  1
  Al0+  Al64  1  0.24999680  0.75131028  0.33745199  1
  Al0+  Al65  1  0.24956461  0.75164581  0.66754934  1
  Al0+  Al66  1  0.74868987  0.25054027  0.00522863  1
  Al0+  Al67  1  0.74917195  0.24932822  0.33404376  1
  Al0+  Al68  1  0.74972471  0.25033376  0.66039852  1
  Al0+  Al69  1  0.74860097  0.75022102  -0.00479178  1
  Al0+  Al70  1  0.74938578  0.74888492  0.33401974  1
  Al0+  Al71  1  0.74913067  0.75147795  0.66824193  1
  Al0+  Al72  1  0.17882600  0.42741993  0.68034154  1
  Al0+  Al73  1  0.32314522  0.07125933  0.68037660  1
  Al0+  Al74  1  0.32187350  0.56999817  0.34593135  1
  Al0+  Al75  1  0.67754514  0.42882122  0.01721633  1
  Al0+  Al76  1  0.43162722  0.32094266  0.32128887  1
  Al0+  Al77  1  0.68144641  0.42696420  0.68101557  1
  Al0+  Al78  1  0.57095524  0.67907316  0.98422199  1
  Al0+  Al79  1  0.81944506  0.07095446  0.34919358  1
  Al0+  Al80  1  0.06981807  0.68111325  0.65315018  1
  Al0+  Al81  1  0.82283002  0.57289987  0.68109522  1
  Al0+  Al82  1  0.32203375  0.57244390  0.68286279  1
  Al0+  Al83  1  0.82079708  0.06963931  0.01296305  1
  Al0+  Al84  1  0.17946348  0.93130195  0.34819941  1
  Al0+  Al85  1  0.17701575  0.93003367  0.68426957  1
  Al0+  Al86  1  0.92869026  0.32004979  0.98551312  1
  Al0+  Al87  1  0.92893855  0.81761529  0.32046248  1
  Al0+  Al88  1  0.92955924  0.32231350  0.65159810  1
  Al0+  Al89  1  0.07013935  0.17757156  0.31830439  1
  Al0+  Al90  1  0.43038710  0.81824265  0.65193725  1
  Al0+  Al91  1  0.82274190  0.57206470  0.01598091  1
  Al0+  Al92  1  0.07255692  0.17781585  0.65348411  1
  Al0+  Al93  1  0.92715692  0.32321338  0.31616589  1
  Al0+  Al94  1  0.57137381  0.17847656  0.65323839  1
  Al0+  Al95  1  0.82199424  0.57073655  0.34743838  1
  Si0+  Si96  1  0.42677371  0.32163956  0.98362136  1
  Si0+  Si97  1  0.17978452  0.42592687  0.34746973  1
  Si0+  Si98  1  0.07252955  0.17610264  0.98248137  1
  Si0+  Si99  1  0.67566013  0.92815691  0.01499962  1
  Si0+  Si100  1  0.92511237  0.82362017  0.65123195  1
  Si0+  Si101  1  0.32182897  0.07284625  0.01740181  1
  Si0+  Si102  1  0.07254075  0.68006028  0.98614299  1
  Si0+  Si103  1  0.67626068  0.92647592  0.34957886  1
  Si0+  Si104  1  0.42704956  0.82104353  0.31682744  1
  Si0+  Si105  1  0.42591291  0.82241756  0.98354427  1
  Si0+  Si106  1  0.57245245  0.17530509  0.31362557  1
  Si0+  Si107  1  0.42781607  0.32363723  0.65242777  1
  Si0+  Si108  1  0.67694033  0.92923455  0.68070700  1
  Si0+  Si109  1  0.17880753  0.42750548  0.01668881  1
  Si0+  Si110  1  0.81967690  0.07008815  0.68044848  1
  Si0+  Si111  1  0.92979364  0.82224316  0.98581087  1
  Si0+  Si112  1  0.67756804  0.42843376  0.35048278  1
  Si0+  Si113  1  0.31908767  0.57066956  0.01387652  1
  Si0+  Si114  1  0.07440230  0.67808887  0.31611612  1
  Si0+  Si115  1  0.32406965  0.07328400  0.34851980  1
  Si0+  Si116  1  0.18086903  0.92863760  0.01734604  1
  Si0+  Si117  1  0.57338157  0.67641224  0.64787624  1
  Si0+  Si118  1  0.56829095  0.17931836  0.98689364  1
  Si0+  Si119  1  0.56984057  0.68016277  0.31903587  1
  O2-  O120  1  0.24922420  0.00288186  0.05859296  1
  O2-  O121  1  0.25348757  0.00744206  0.39233302  1
  O2-  O122  1  0.24825010  0.00364859  0.73346800  1
  O2-  O123  1  0.25150561  0.49774765  0.05824140  1
  O2-  O124  1  0.24617196  0.49677689  0.39123147  1
  O2-  O125  1  0.25183014  0.49843302  0.73239014  1
  O2-  O126  1  0.74660497  -0.00647614  0.06007025  1
  O2-  O127  1  0.74215771  -0.00281266  0.39448232  1
  O2-  O128  1  0.74899663  -0.00124737  0.72339835  1
  O2-  O129  1  0.75079108  0.50005930  0.06644016  1
  O2-  O130  1  0.75335286  0.48995470  0.39277552  1
  O2-  O131  1  0.75253672  0.49948838  0.73086807  1
  O2-  O132  1  -0.00210546  0.24872130  0.26700509  1
  O2-  O133  1  0.00421433  0.25215501  0.60311605  1
  O2-  O134  1  0.00345170  0.24441133  0.93968355  1
  O2-  O135  1  0.00071923  0.74100846  0.27067191  1
  O2-  O136  1  -0.00803388  0.75315097  0.60820197  1
  O2-  O137  1  -0.00395882  0.74647819  0.94534581  1
  O2-  O138  1  0.50486071  0.24601472  0.27081988  1
  O2-  O139  1  0.49556926  0.25335266  0.60907189  1
  O2-  O140  1  0.49801581  0.25023325  0.94308026  1
  O2-  O141  1  0.49850375  0.75085975  0.27476283  1
  O2-  O142  1  0.50083803  0.74048379  0.60248431  1
  O2-  O143  1  0.49696747  0.75629744  0.94009321  1
  O2-  O144  1  0.07362332  0.17545674  0.08802672  1
  O2-  O145  1  0.07103477  0.17930650  0.43127903  1
  O2-  O146  1  0.06616943  0.17724829  0.76765467  1
  O2-  O147  1  0.07935533  0.68363897  0.09099216  1
  O2-  O148  1  0.07688371  0.68095438  0.42107592  1
  O2-  O149  1  0.06904170  0.68326826  0.76719155  1
  O2-  O150  1  0.56450665  0.17746809  0.09178438  1
  O2-  O151  1  0.57044451  0.17205823  0.41883942  1
  O2-  O152  1  0.57208712  0.17719127  0.76706938  1
  O2-  O153  1  0.56790548  0.68063719  0.09822674  1
  O2-  O154  1  0.56893342  0.68208992  0.42363689  1
  O2-  O155  1  0.57370249  0.68141031  0.75351247  1
  O2-  O156  1  0.18253125  0.42882624  0.24100193  1
  O2-  O157  1  0.18111610  0.42834361  0.56665602  1
  O2-  O158  1  0.17954691  0.42664610  0.91212197  1
  O2-  O159  1  0.18279643  0.92967417  0.23396593  1
  O2-  O160  1  0.17790153  0.93000509  0.57100865  1
  O2-  O161  1  0.18101353  0.92566570  0.91309882  1
  O2-  O162  1  0.67277146  0.43319141  0.24493980  1
  O2-  O163  1  0.68055661  0.42858275  0.56724026  1
  O2-  O164  1  0.67768843  0.42791670  0.90434076  1
  O2-  O165  1  0.67601623  0.92607440  0.24360954  1
  O2-  O166  1  0.67637993  0.92875008  0.57577434  1
  O2-  O167  1  0.67411703  0.93129531  0.90940189  1
  O2-  O168  1  0.42597325  0.32100248  0.08900859  1
  O2-  O169  1  0.43300731  0.32114877  0.43385044  1
  O2-  O170  1  0.42880520  0.32200377  0.75847435  1
  O2-  O171  1  0.42440712  0.82084427  0.08959572  1
  O2-  O172  1  0.42766371  0.82243658  0.42128936  1
  O2-  O173  1  0.43495646  0.81900991  0.76553658  1
  O2-  O174  1  0.93067046  0.31929958  0.09847475  1
  O2-  O175  1  0.92917710  0.32375389  0.42909117  1
  O2-  O176  1  0.92693975  0.31896929  0.76568045  1
  O2-  O177  1  0.93187166  0.82483459  0.09085003  1
  O2-  O178  1  0.92983618  0.81743048  0.43303211  1
  O2-  O179  1  0.92504329  0.82543697  0.75744640  1
  O2-  O180  1  0.32504189  0.06963991  0.24207179  1
  O2-  O181  1  0.32656005  0.06771452  0.56706986  1
  O2-  O182  1  0.32595927  0.07322220  0.91320422  1
  O2-  O183  1  0.32199024  0.56933868  0.23164908  1
  O2-  O184  1  0.32000172  0.57065680  0.56911400  1
  O2-  O185  1  0.31669313  0.57223152  0.90962482  1
  O2-  O186  1  0.81800498  0.06839577  0.23555871  1
  O2-  O187  1  0.81913413  0.06787960  0.57563601  1
  O2-  O188  1  0.81848232  0.06813311  0.89959237  1
  O2-  O189  1  0.81573897  0.57473147  0.23458013  1
  O2-  O190  1  0.82039014  0.57455085  0.56731230  1
  O2-  O191  1  0.82299253  0.57219971  0.90306064  1
  O2-  O192  1  0.04031701  0.07891050  0.26598581  1
  O2-  O193  1  0.04111135  0.07923242  0.60288240  1
  O2-  O194  1  0.04915978  0.08072501  0.93899265  1
  O2-  O195  1  0.05663838  0.58248562  0.27134957  1
  O2-  O196  1  0.04428748  0.58506032  0.59667158  1
  O2-  O197  1  0.04996446  0.58669245  0.94034996  1
  O2-  O198  1  0.54637156  0.08242640  0.26466569  1
  O2-  O199  1  0.54208577  0.08316248  0.59639885  1
  O2-  O200  1  0.54000592  0.08668984  0.93991236  1
  O2-  O201  1  0.54066548  0.58934694  0.27064528  1
  O2-  O202  1  0.55268264  0.58048970  0.60579248  1
  O2-  O203  1  0.53779033  0.58393780  0.92967928  1
  O2-  O204  1  0.16922531  0.20239828  0.26280098  1
  O2-  O205  1  0.17447038  0.19880073  0.60531182  1
  O2-  O206  1  0.16739334  0.20164387  0.93854867  1
  O2-  O207  1  0.16594575  0.71109593  0.26793565  1
  O2-  O208  1  0.16546110  0.71406448  0.59952466  1
  O2-  O209  1  0.16158792  0.71449342  0.93669044  1
  O2-  O210  1  0.66620232  0.20049213  0.26873071  1
  O2-  O211  1  0.66519393  0.20983591  0.59502629  1
  O2-  O212  1  0.66093727  0.20512526  0.94109452  1
  O2-  O213  1  0.65999497  0.71010861  0.26950319  1
  O2-  O214  1  0.66503827  0.70882155  0.60152346  1
  O2-  O215  1  0.66628974  0.71023790  0.92788886  1
  O2-  O216  1  0.08898149  0.45836287  0.06537204  1
  O2-  O217  1  0.08546326  0.44814023  0.39166442  1
  O2-  O218  1  0.08301787  0.46166035  0.73503632  1
  O2-  O219  1  0.08865268  0.95426531  0.06538086  1
  O2-  O220  1  0.08262302  0.95727995  0.40165208  1
  O2-  O221  1  0.07845515  0.95570767  0.73975294  1
  O2-  O222  1  0.57759634  0.45985020  0.06801437  1
  O2-  O223  1  0.58750998  0.46176773  0.39882666  1
  O2-  O224  1  0.58312578  0.45201720  0.73583997  1
  O2-  O225  1  0.58210302  0.95370337  0.06268930  1
  O2-  O226  1  0.58079483  0.95059913  0.39322585  1
  O2-  O227  1  0.58677437  0.95849477  0.72939513  1
  O2-  O228  1  0.20632955  0.33546540  0.06442130  1
  O2-  O229  1  0.20941110  0.33261299  0.39022770  1
  O2-  O230  1  0.20546422  0.33045833  0.73756411  1
  O2-  O231  1  0.21227733  0.83852551  0.06716917  1
  O2-  O232  1  0.21252128  0.83579250  0.40163394  1
  O2-  O233  1  0.21079377  0.83376615  0.73797651  1
  O2-  O234  1  0.70153282  0.33002595  0.07132185  1
  O2-  O235  1  0.69308850  0.33128858  0.39177495  1
  O2-  O236  1  0.70890282  0.32741174  0.73278673  1
  O2-  O237  1  0.69903361  0.83342228  0.05881488  1
  O2-  O238  1  0.70196178  0.83394486  0.39656989  1
  O2-  O239  1  0.70315478  0.83789698  0.73027697  1
  O2-  O240  1  0.46337572  0.41739485  0.26500260  1
  O2-  O241  1  0.45556813  0.41711706  0.60714041  1
  O2-  O242  1  0.45154535  0.41387017  0.93701736  1
  O2-  O243  1  0.45392024  0.91247818  0.26676783  1
  O2-  O244  1  0.46511345  0.91194041  0.59515176  1
  O2-  O245  1  0.44843933  0.91801423  0.94031165  1
  O2-  O246  1  0.95884527  0.42064201  0.26109406  1
  O2-  O247  1  0.95669472  0.42115579  0.60088943  1
  O2-  O248  1  0.96175803  0.41748687  0.93426916  1
  O2-  O249  1  0.96328699  0.91262363  0.26495403  1
  O2-  O250  1  0.95358236  0.91642825  0.60582401  1
  O2-  O251  1  0.96299398  0.91205582  0.93695206  1
  O2-  O252  1  0.33734987  0.29161382  0.26029757  1
  O2-  O253  1  0.33420443  0.29935586  0.60708398  1
  O2-  O254  1  0.33452698  0.29280825  0.93770542  1
  O2-  O255  1  0.33591898  0.79192328  0.26846780  1
  O2-  O256  1  0.33295323  0.79123728  0.59903088  1
  O2-  O257  1  0.33347409  0.79340927  0.93729290  1
  O2-  O258  1  0.82699617  0.29526632  0.26619468  1
  O2-  O259  1  0.83353929  0.29048915  0.59671318  1
  O2-  O260  1  0.83059231  0.28806371  0.93526631  1
  O2-  O261  1  0.83077774  0.79090444  0.26557119  1
  O2-  O262  1  0.83025919  0.80300247  0.60556731  1
  O2-  O263  1  0.83583370  0.80284252  0.93913122  1
  O2-  O264  1  0.41212327  0.04390298  0.06825547  1
  O2-  O265  1  0.41825077  0.04581638  0.39178688  1
  O2-  O266  1  0.42055160  0.03576703  0.73376141  1
  O2-  O267  1  0.41183328  0.54460669  0.05997104  1
  O2-  O268  1  0.41788628  0.54025157  0.40032682  1
  O2-  O269  1  0.42119153  0.54736049  0.73543770  1
  O2-  O270  1  0.91741447  0.03798440  0.06692058  1
  O2-  O271  1  0.91387336  0.03505868  0.40209503  1
  O2-  O272  1  0.90946305  0.04197245  0.73115571  1
  O2-  O273  1  0.92272926  0.54750879  0.06840229  1
  O2-  O274  1  0.92268511  0.54694318  0.39603767  1
  O2-  O275  1  0.92216669  0.54869255  0.73217910  1
  O2-  O276  1  0.29508634  0.16523368  0.06512524  1
  O2-  O277  1  0.30344198  0.16927305  0.38989789  1
  O2-  O278  1  0.30217984  0.16985705  0.73606957  1
  O2-  O279  1  0.28962952  0.66229207  0.06230256  1
  O2-  O280  1  0.29265474  0.66691864  0.39839932  1
  O2-  O281  1  0.29135984  0.66971506  0.73586337  1
  O2-  O282  1  0.78667053  0.16349163  0.06912224  1
  O2-  O283  1  0.78887811  0.16755967  0.40291964  1
  O2-  O284  1  0.78888021  0.16120694  0.72623452  1
  O2-  O285  1  0.79208912  0.67275440  0.06491648  1
  O2-  O286  1  0.78641518  0.66585099  0.40145113  1
  O2-  O287  1  0.79350219  0.67210397  0.73369512  1
