# generated using pymatgen
data_Ca2Al2SiO7
_symmetry_space_group_name_H-M   'P 1'
_cell_length_a   15.45818585
_cell_length_b   15.45890749
_cell_length_c   15.28408613
_cell_angle_alpha   90.01657341
_cell_angle_beta   89.98960222
_cell_angle_gamma   89.99532148
_symmetry_Int_Tables_number   1
_chemical_formula_structural   Ca2Al2SiO7
_chemical_formula_sum   'Ca48 Al48 Si24 O168'
_cell_volume   3652.38686609
_cell_formula_units_Z   24
loop_
 _symmetry_equiv_pos_site_id
 _symmetry_equiv_pos_as_xyz
  1  'x, y, z'
loop_
 _atom_type_symbol
 _atom_type_oxidation_number
  Ca2+  2.0
  Al0+  0.0
  Si0+  0.0
  O2-  -2.0
loop_
 _atom_site_type_symbol
 _atom_site_label
 _atom_site_symmetry_multiplicity
 _atom_site_fract_x
 _atom_site_fract_y
 _atom_site_fract_z
 _atom_site_occupancy
  Ca2+  Ca0  1  0.17307264  0.07859701  0.17197817  1
  Ca2+  Ca1  1  0.17367889  0.07595501  0.50366051  1
  Ca2+  Ca2  1  0.16296520  0.07091378  0.83882553  1
  Ca2+  Ca3  1  0.16785520  0.57436844  0.17295741  1
  Ca2+  Ca4  1  0.17151442  0.58383257  0.49679253  1
  Ca2+  Ca5  1  0.17598702  0.57742979  0.83649561  1
  Ca2+  Ca6  1  0.66341075  0.08829223  0.17187071  1
  Ca2+  Ca7  1  0.66179677  0.08713887  0.50096161  1
  Ca2+  Ca8  1  0.66111565  0.08814460  0.83481976  1
  Ca2+  Ca9  1  0.67158931  0.56891207  0.16908893  1
  Ca2+  Ca10  1  0.67426229  0.57608634  0.50464455  1
  Ca2+  Ca11  1  0.67787912  0.57573628  0.84169853  1
  Ca2+  Ca12  1  0.07645504  0.34511582  0.16212459  1
  Ca2+  Ca13  1  0.07141736  0.34573844  0.49493938  1
  Ca2+  Ca14  1  0.07388686  0.34668600  0.83391754  1
  Ca2+  Ca15  1  0.07821881  0.82713061  0.16227248  1
  Ca2+  Ca16  1  0.08246358  0.82623291  0.49049359  1
  Ca2+  Ca17  1  0.08206778  0.83676130  0.83066524  1
  Ca2+  Ca18  1  0.58311870  0.32812346  0.15894816  1
  Ca2+  Ca19  1  0.58061895  0.32680309  0.49562451  1
  Ca2+  Ca20  1  0.57945774  0.32965787  0.83095274  1
  Ca2+  Ca21  1  0.57628152  0.83089683  0.16615492  1
  Ca2+  Ca22  1  0.57093486  0.82880915  0.49458470  1
  Ca2+  Ca23  1  0.57522249  0.82908365  0.82657232  1
  Ca2+  Ca24  1  0.32339745  0.41556319  0.17586411  1
  Ca2+  Ca25  1  0.33245392  0.42725306  0.50628947  1
  Ca2+  Ca26  1  0.33659009  0.41635680  0.84022436  1
  Ca2+  Ca27  1  0.33120978  0.92189558  0.17456348  1
  Ca2+  Ca28  1  0.33587771  0.91884418  0.50519054  1
  Ca2+  Ca29  1  0.32313049  0.91372560  0.83541555  1
  Ca2+  Ca30  1  0.82571498  0.40863376  0.17084139  1
  Ca2+  Ca31  1  0.83063403  0.41299632  0.50369384  1
  Ca2+  Ca32  1  0.83436375  0.42373352  0.84224675  1
  Ca2+  Ca33  1  0.83673552  0.91529220  0.17037376  1
  Ca2+  Ca34  1  0.83364650  0.91664751  0.50349320  1
  Ca2+  Ca35  1  0.83252957  0.92031866  0.84273877  1
  Ca2+  Ca36  1  0.42454814  0.16950816  0.16068392  1
  Ca2+  Ca37  1  0.42498801  0.16690724  0.49431524  1
  Ca2+  Ca38  1  0.42475134  0.18009543  0.82854215  1
  Ca2+  Ca39  1  0.40836050  0.66920319  0.16887284  1
  Ca2+  Ca40  1  0.40101574  0.67532814  0.49635028  1
  Ca2+  Ca41  1  0.41526069  0.66874610  0.82484661  1
  Ca2+  Ca42  1  0.91892311  0.17972474  0.16350183  1
  Ca2+  Ca43  1  0.91966438  0.17793753  0.49580882  1
  Ca2+  Ca44  1  0.91725339  0.18188693  0.83053849  1
  Ca2+  Ca45  1  0.91851660  0.67206214  0.16254035  1
  Ca2+  Ca46  1  0.92368172  0.66815679  0.49002250  1
  Ca2+  Ca47  1  0.91329934  0.66529280  0.83136908  1
  Al0+  Al48  1  -0.00110488  -0.00167060  0.00186386  1
  Al0+  Al49  1  -0.00103488  0.00245310  0.33163245  1
  Al0+  Al50  1  -0.00126336  0.00137922  0.67066435  1
  Al0+  Al51  1  0.00399784  0.50498592  0.00185959  1
  Al0+  Al52  1  -0.00106773  0.50202279  0.32727228  1
  Al0+  Al53  1  0.00008077  0.50267129  0.66572014  1
  Al0+  Al54  1  0.50017321  -0.00086203  -0.00474349  1
  Al0+  Al55  1  0.50066039  -0.00104874  0.32953495  1
  Al0+  Al56  1  0.49934797  -0.00099070  0.66217594  1
  Al0+  Al57  1  0.50300742  0.50210937  0.00112898  1
  Al0+  Al58  1  0.50078633  0.50019106  0.34325664  1
  Al0+  Al59  1  0.50215963  0.49966370  0.66798411  1
  Al0+  Al60  1  0.25078348  0.24805290  -0.00023363  1
  Al0+  Al61  1  0.24869055  0.24811641  0.34538116  1
  Al0+  Al62  1  0.24907769  0.24895204  0.66446664  1
  Al0+  Al63  1  0.24754995  0.75053180  0.00375259  1
  Al0+  Al64  1  0.24757760  0.74955060  0.32512524  1
  Al0+  Al65  1  0.24810505  0.74892695  0.67183233  1
  Al0+  Al66  1  0.75232954  0.24880809  -0.00510402  1
  Al0+  Al67  1  0.75017581  0.24836809  0.33180749  1
  Al0+  Al68  1  0.75111732  0.24866324  0.66034526  1
  Al0+  Al69  1  0.74967203  0.75187541  0.00033996  1
  Al0+  Al70  1  0.74723487  0.75029659  0.33070253  1
  Al0+  Al71  1  0.74900173  0.75094327  0.67049028  1
  Al0+  Al72  1  0.92656119  0.82326851  0.31961957  1
  Al0+  Al73  1  0.42941635  0.81927213  0.31905062  1
  Al0+  Al74  1  0.42629906  0.32449744  0.64946256  1
  Al0+  Al75  1  0.42752182  0.32331165  0.98827205  1
  Al0+  Al76  1  0.56977218  0.17983236  0.64907472  1
  Al0+  Al77  1  0.17765654  0.92874153  0.01679393  1
  Al0+  Al78  1  0.17928701  0.93001479  0.67937978  1
  Al0+  Al79  1  0.93238287  0.32281886  0.98659459  1
  Al0+  Al80  1  0.42764090  0.81668333  0.65434618  1
  Al0+  Al81  1  0.56859226  0.18092282  0.31815708  1
  Al0+  Al82  1  0.68014799  0.42586471  0.34897251  1
  Al0+  Al83  1  0.32354352  0.06955211  0.34747289  1
  Al0+  Al84  1  0.07061978  0.67917306  0.31545296  1
  Al0+  Al85  1  0.68120791  0.42696693  0.01441543  1
  Al0+  Al86  1  0.18219410  0.42782641  0.01217200  1
  Al0+  Al87  1  0.57201441  0.17818277  0.98409825  1
  Al0+  Al88  1  0.32115704  0.56914866  0.68098891  1
  Al0+  Al89  1  0.82172208  0.57153241  0.67936423  1
  Al0+  Al90  1  0.32039918  0.57156781  0.34817388  1
  Al0+  Al91  1  0.17552095  0.42804807  0.34959874  1
  Al0+  Al92  1  0.92907052  0.82033025  0.98390761  1
  Al0+  Al93  1  0.93097591  0.31971920  0.31933212  1
  Al0+  Al94  1  0.82246719  0.57342414  0.01689265  1
  Al0+  Al95  1  0.93276753  0.32210490  0.65325333  1
  Si0+  Si96  1  0.82040002  0.07084220  0.68251699  1
  Si0+  Si97  1  0.92702938  0.82338276  0.65373702  1
  Si0+  Si98  1  0.17742430  0.92946257  0.34842433  1
  Si0+  Si99  1  0.67700388  0.92969885  0.01507013  1
  Si0+  Si100  1  0.42624723  0.32371326  0.32019030  1
  Si0+  Si101  1  0.68063330  0.42561948  0.68363089  1
  Si0+  Si102  1  0.57463654  0.67827008  0.65055849  1
  Si0+  Si103  1  0.81980618  0.57319913  0.34871537  1
  Si0+  Si104  1  0.57169935  0.68002927  0.98515244  1
  Si0+  Si105  1  0.67800628  0.92944752  0.68171222  1
  Si0+  Si106  1  0.42787150  0.81967457  0.98455961  1
  Si0+  Si107  1  0.32459016  0.57266412  0.01621031  1
  Si0+  Si108  1  0.57315667  0.67528916  0.31651806  1
  Si0+  Si109  1  0.32430968  0.07218482  0.68501911  1
  Si0+  Si110  1  0.07110136  0.17382196  0.65033416  1
  Si0+  Si111  1  0.07252997  0.17619115  0.98447358  1
  Si0+  Si112  1  0.07334454  0.68006585  0.97843092  1
  Si0+  Si113  1  0.06924036  0.68151738  0.65247890  1
  Si0+  Si114  1  0.32289478  0.06934878  0.01528890  1
  Si0+  Si115  1  0.82075343  0.07031243  0.34858538  1
  Si0+  Si116  1  0.82035505  0.07023676  0.01524053  1
  Si0+  Si117  1  0.67869223  0.92783595  0.34841638  1
  Si0+  Si118  1  0.07457861  0.17699526  0.31763395  1
  Si0+  Si119  1  0.17745372  0.42725498  0.68259789  1
  O2-  O120  1  0.25320450  0.00273289  0.06156174  1
  O2-  O121  1  0.24810425  -0.00519404  0.39409663  1
  O2-  O122  1  0.25207691  0.00612674  0.72829117  1
  O2-  O123  1  0.26205933  0.49762311  0.05782775  1
  O2-  O124  1  0.25119813  0.49693329  0.39873914  1
  O2-  O125  1  0.25373099  0.48752068  0.72724436  1
  O2-  O126  1  0.74628434  0.00203399  0.05734925  1
  O2-  O127  1  0.75342562  -0.00485409  0.39047903  1
  O2-  O128  1  0.74841893  0.00059264  0.72476320  1
  O2-  O129  1  0.75639096  0.49546352  0.06586636  1
  O2-  O130  1  0.75463893  0.50206793  0.39437863  1
  O2-  O131  1  0.74856292  0.49588909  0.72660855  1
  O2-  O132  1  0.01175223  0.25090555  0.27346196  1
  O2-  O133  1  0.01024451  0.24970529  0.60672497  1
  O2-  O134  1  0.00998301  0.25047107  0.93966772  1
  O2-  O135  1  -0.00280446  0.75181690  0.26823950  1
  O2-  O136  1  -0.00355211  0.75197461  0.61129000  1
  O2-  O137  1  0.00245499  0.74679604  0.93370028  1
  O2-  O138  1  0.49421519  0.25590462  0.27305109  1
  O2-  O139  1  0.49690516  0.25078885  0.59958338  1
  O2-  O140  1  0.50171714  0.25328062  0.93758127  1
  O2-  O141  1  0.50027936  0.74051327  0.27259830  1
  O2-  O142  1  0.50034688  0.74068113  0.60608972  1
  O2-  O143  1  0.49644437  0.74672898  0.94234764  1
  O2-  O144  1  0.06965460  0.17333622  0.08995233  1
  O2-  O145  1  0.06862518  0.16989735  0.42297650  1
  O2-  O146  1  0.06559829  0.16758945  0.75570521  1
  O2-  O147  1  0.07523249  0.68268608  0.08333712  1
  O2-  O148  1  0.06993109  0.68208045  0.43016449  1
  O2-  O149  1  0.06931415  0.68152666  0.75749040  1
  O2-  O150  1  0.56924945  0.17496802  0.09754724  1
  O2-  O151  1  0.56893550  0.17962543  0.43084702  1
  O2-  O152  1  0.57023262  0.18000287  0.76244029  1
  O2-  O153  1  0.57196088  0.68243943  0.09018101  1
  O2-  O154  1  0.57964232  0.68081110  0.42175050  1
  O2-  O155  1  0.57670280  0.68370829  0.75643808  1
  O2-  O156  1  0.17769030  0.42867048  0.23583465  1
  O2-  O157  1  0.17309083  0.43336744  0.57766313  1
  O2-  O158  1  0.18102285  0.43247468  0.89875103  1
  O2-  O159  1  0.17756837  0.93346747  0.24286497  1
  O2-  O160  1  0.17866173  0.93049327  0.56638578  1
  O2-  O161  1  0.17920475  0.92925262  0.90319710  1
  O2-  O162  1  0.68111149  0.42460477  0.23603443  1
  O2-  O163  1  0.68310317  0.42604005  0.57784948  1
  O2-  O164  1  0.68117621  0.42994105  0.90059200  1
  O2-  O165  1  0.67722682  0.92859760  0.24317400  1
  O2-  O166  1  0.68055102  0.92685368  0.57668614  1
  O2-  O167  1  0.67719221  0.92871558  0.90974988  1
  O2-  O168  1  0.42554241  0.32030527  0.10191120  1
  O2-  O169  1  0.42970910  0.32156550  0.42551760  1
  O2-  O170  1  0.42885418  0.32348753  0.76323986  1
  O2-  O171  1  0.43032995  0.82124103  0.08962872  1
  O2-  O172  1  0.43115050  0.81999195  0.43227936  1
  O2-  O173  1  0.42997555  0.81600247  0.76799612  1
  O2-  O174  1  0.93093792  0.31802421  0.09936982  1
  O2-  O175  1  0.92982293  0.31674677  0.43275761  1
  O2-  O176  1  0.93308903  0.32162572  0.76646224  1
  O2-  O177  1  0.92967711  0.82094661  0.09649078  1
  O2-  O178  1  0.92746731  0.82292857  0.43415011  1
  O2-  O179  1  0.92737037  0.82433634  0.75862314  1
  O2-  O180  1  0.32310858  0.06748803  0.23410875  1
  O2-  O181  1  0.32517084  0.06805440  0.57940497  1
  O2-  O182  1  0.32282096  0.06585309  0.90977865  1
  O2-  O183  1  0.32018977  0.57019548  0.23435200  1
  O2-  O184  1  0.31410924  0.57460608  0.56888402  1
  O2-  O185  1  0.32236265  0.57645966  0.91036794  1
  O2-  O186  1  0.81962898  0.07108082  0.24350365  1
  O2-  O187  1  0.82300475  0.06809039  0.57741633  1
  O2-  O188  1  0.82144802  0.06805265  0.90984492  1
  O2-  O189  1  0.81605869  0.57511489  0.24358291  1
  O2-  O190  1  0.82067391  0.57355647  0.56630420  1
  O2-  O191  1  0.81834484  0.57309749  0.90270587  1
  O2-  O192  1  0.04300235  0.08671597  0.26751286  1
  O2-  O193  1  0.03649699  0.08419147  0.60059682  1
  O2-  O194  1  0.03883071  0.08539261  0.93689184  1
  O2-  O195  1  0.04217081  0.58245916  0.26037678  1
  O2-  O196  1  0.04176444  0.59088136  0.60329127  1
  O2-  O197  1  0.05033827  0.58635248  0.93181309  1
  O2-  O198  1  0.53995831  0.08355563  0.26460797  1
  O2-  O199  1  0.54351547  0.07984708  0.59731753  1
  O2-  O200  1  0.54237275  0.07973417  0.92976118  1
  O2-  O201  1  0.55050470  0.57977149  0.27393616  1
  O2-  O202  1  0.55794815  0.58194838  0.60881670  1
  O2-  O203  1  0.54914864  0.58783744  0.93637486  1
  O2-  O204  1  0.17138281  0.19532480  0.27605413  1
  O2-  O205  1  0.16808445  0.18906546  0.60853808  1
  O2-  O206  1  0.16810287  0.19309746  0.93955146  1
  O2-  O207  1  0.16636798  0.70816305  0.25828129  1
  O2-  O208  1  0.15950757  0.71287256  0.60520901  1
  O2-  O209  1  0.16663820  0.70962547  0.93242199  1
  O2-  O210  1  0.66623731  0.20929860  0.26566810  1
  O2-  O211  1  0.66927315  0.20512845  0.59623982  1
  O2-  O212  1  0.67135257  0.20183243  0.93113257  1
  O2-  O213  1  0.66290261  0.70683498  0.26599249  1
  O2-  O214  1  0.66525232  0.71181376  0.60234034  1
  O2-  O215  1  0.66048459  0.71409159  0.93573204  1
  O2-  O216  1  0.08808210  0.46445889  0.06686713  1
  O2-  O217  1  0.07740424  0.46313297  0.40046177  1
  O2-  O218  1  0.08750490  0.46333392  0.73049014  1
  O2-  O219  1  0.08109876  0.95978800  0.06979845  1
  O2-  O220  1  0.08405970  0.95720233  0.39484226  1
  O2-  O221  1  0.08229825  0.96081756  0.73480611  1
  O2-  O222  1  0.58378574  0.45957437  0.06812890  1
  O2-  O223  1  0.58486060  0.45557227  0.40564978  1
  O2-  O224  1  0.58684025  0.45043047  0.72911630  1
  O2-  O225  1  0.58436145  0.95569417  0.06233405  1
  O2-  O226  1  0.58891891  0.95974917  0.39680110  1
  O2-  O227  1  0.58580922  0.95672511  0.72897505  1
  O2-  O228  1  0.20345662  0.32816601  0.06493643  1
  O2-  O229  1  0.19359257  0.32788574  0.40335496  1
  O2-  O230  1  0.19056235  0.32915069  0.72413343  1
  O2-  O231  1  0.20898349  0.83275550  0.07064414  1
  O2-  O232  1  0.20049445  0.83403998  0.39003936  1
  O2-  O233  1  0.21073132  0.83535098  0.73667376  1
  O2-  O234  1  0.70811910  0.32669339  0.06458260  1
  O2-  O235  1  0.71512723  0.33042248  0.40311443  1
  O2-  O236  1  0.70825862  0.33178856  0.72747598  1
  O2-  O237  1  0.70570745  0.83920736  0.06389065  1
  O2-  O238  1  0.70270207  0.83533402  0.39694540  1
  O2-  O239  1  0.70546077  0.83881487  0.73221941  1
  O2-  O240  1  0.45039137  0.41896902  0.27758662  1
  O2-  O241  1  0.45613517  0.42362086  0.59834990  1
  O2-  O242  1  0.45420533  0.42337400  0.93670039  1
  O2-  O243  1  0.46651029  0.91241897  0.26259205  1
  O2-  O244  1  0.46023728  0.91227752  0.60032564  1
  O2-  O245  1  0.45821944  0.90959140  0.93529110  1
  O2-  O246  1  0.95358706  0.41764312  0.26580409  1
  O2-  O247  1  0.96120446  0.41928654  0.59873590  1
  O2-  O248  1  0.96274663  0.42098310  0.93498747  1
  O2-  O249  1  0.95302477  0.92268851  0.26751217  1
  O2-  O250  1  0.95422791  0.91571584  0.60715796  1
  O2-  O251  1  0.95981522  0.91792549  0.93075075  1
  O2-  O252  1  0.33038614  0.29736477  0.27958837  1
  O2-  O253  1  0.32506055  0.30074626  0.59975899  1
  O2-  O254  1  0.33028634  0.29253796  0.93244432  1
  O2-  O255  1  0.33305228  0.79339896  0.26303097  1
  O2-  O256  1  0.33023423  0.78695348  0.60183401  1
  O2-  O257  1  0.33469056  0.79306413  0.93957834  1
  O2-  O258  1  0.83750632  0.28006698  0.26557391  1
  O2-  O259  1  0.83819727  0.28701336  0.59850195  1
  O2-  O260  1  0.83819627  0.28826244  0.93050021  1
  O2-  O261  1  0.82682944  0.79805643  0.26749932  1
  O2-  O262  1  0.83375941  0.79817879  0.60792376  1
  O2-  O263  1  0.83026828  0.79361363  0.93113570  1
  O2-  O264  1  0.41581350  0.03958345  0.06113832  1
  O2-  O265  1  0.41904869  0.03403793  0.40111380  1
  O2-  O266  1  0.41652163  0.04158373  0.73090082  1
  O2-  O267  1  0.42073955  0.55749569  0.06005418  1
  O2-  O268  1  0.42000713  0.55221654  0.40302824  1
  O2-  O269  1  0.42166122  0.54814793  0.73288613  1
  O2-  O270  1  0.90995643  0.03900190  0.06446522  1
  O2-  O271  1  0.91330823  0.04609510  0.39731776  1
  O2-  O272  1  0.91025921  0.04206504  0.73317476  1
  O2-  O273  1  0.92437238  0.55510213  0.06422900  1
  O2-  O274  1  0.91515738  0.55085888  0.39122550  1
  O2-  O275  1  0.91867595  0.54270779  0.73395430  1
  O2-  O276  1  0.29975961  0.16316253  0.06131593  1
  O2-  O277  1  0.29490721  0.16390684  0.40659362  1
  O2-  O278  1  0.30146938  0.16758844  0.72866373  1
  O2-  O279  1  0.29203896  0.66387869  0.06337198  1
  O2-  O280  1  0.28609559  0.67083709  0.39774673  1
  O2-  O281  1  0.28414030  0.66271720  0.73813759  1
  O2-  O282  1  0.79541908  0.16260090  0.06208739  1
  O2-  O283  1  0.78832113  0.15913364  0.39842374  1
  O2-  O284  1  0.79255266  0.16316925  0.72881282  1
  O2-  O285  1  0.78764345  0.67066324  0.06843026  1
  O2-  O286  1  0.79171064  0.66652674  0.39572214  1
  O2-  O287  1  0.79060886  0.66833041  0.73449751  1
