# generated using pymatgen
data_Ca2Al2SiO7
_symmetry_space_group_name_H-M   'P 1'
_cell_length_a   15.45775924
_cell_length_b   15.45897838
_cell_length_c   15.28419394
_cell_angle_alpha   89.99998415
_cell_angle_beta   89.99465393
_cell_angle_gamma   90.00419045
_symmetry_Int_Tables_number   1
_chemical_formula_structural   Ca2Al2SiO7
_chemical_formula_sum   'Ca48 Al48 Si24 O168'
_cell_volume   3652.32877837
_cell_formula_units_Z   24
loop_
 _symmetry_equiv_pos_site_id
 _symmetry_equiv_pos_as_xyz
  1  'x, y, z'
loop_
 _atom_type_symbol
 _atom_type_oxidation_number
  Ca2+  2.0
  Al0+  0.0
  Si0+  0.0
  O2-  -2.0
loop_
 _atom_site_type_symbol
 _atom_site_label
 _atom_site_symmetry_multiplicity
 _atom_site_fract_x
 _atom_site_fract_y
 _atom_site_fract_z
 _atom_site_occupancy
  Ca2+  Ca0  1  0.16807516  0.07811073  0.16856440  1
  Ca2+  Ca1  1  0.16873373  0.07748693  0.50598414  1
  Ca2+  Ca2  1  0.17415240  0.09480455  0.83775010  1
  Ca2+  Ca3  1  0.17150016  0.59367512  0.17075646  1
  Ca2+  Ca4  1  0.17175323  0.59116243  0.49724296  1
  Ca2+  Ca5  1  0.16744150  0.57845677  0.84560188  1
  Ca2+  Ca6  1  0.67429234  0.06974386  0.17129746  1
  Ca2+  Ca7  1  0.67791027  0.07799254  0.50025448  1
  Ca2+  Ca8  1  0.67776102  0.07819087  0.83908816  1
  Ca2+  Ca9  1  0.67240694  0.58188134  0.17196952  1
  Ca2+  Ca10  1  0.67185900  0.58552888  0.50123245  1
  Ca2+  Ca11  1  0.66941008  0.57095312  0.83952404  1
  Ca2+  Ca12  1  0.07774150  0.32753712  0.15345082  1
  Ca2+  Ca13  1  0.08038838  0.32447328  0.49988413  1
  Ca2+  Ca14  1  0.07714658  0.32831877  0.83112044  1
  Ca2+  Ca15  1  0.08246706  0.82556355  0.16125023  1
  Ca2+  Ca16  1  0.07888600  0.83297796  0.49390754  1
  Ca2+  Ca17  1  0.07385635  0.82990126  0.83359587  1
  Ca2+  Ca18  1  0.58420524  0.33235347  0.16095063  1
  Ca2+  Ca19  1  0.58794688  0.33322669  0.49931308  1
  Ca2+  Ca20  1  0.58526817  0.33691521  0.82894855  1
  Ca2+  Ca21  1  0.57807024  0.83546915  0.16209330  1
  Ca2+  Ca22  1  0.57527365  0.83171445  0.48740211  1
  Ca2+  Ca23  1  0.57943212  0.83880331  0.83601867  1
  Ca2+  Ca24  1  0.32340342  0.43014666  0.16571049  1
  Ca2+  Ca25  1  0.33459534  0.42544421  0.50145071  1
  Ca2+  Ca26  1  0.32327566  0.42420337  0.84660652  1
  Ca2+  Ca27  1  0.33132930  0.91444204  0.17022442  1
  Ca2+  Ca28  1  0.32508807  0.91230292  0.50046535  1
  Ca2+  Ca29  1  0.33322924  0.92743845  0.84153063  1
  Ca2+  Ca30  1  0.83350298  0.41924732  0.16893368  1
  Ca2+  Ca31  1  0.83197042  0.42322196  0.50546249  1
  Ca2+  Ca32  1  0.82689603  0.40424904  0.83737074  1
  Ca2+  Ca33  1  0.82529193  0.91296088  0.17338692  1
  Ca2+  Ca34  1  0.83415307  0.92345212  0.50537895  1
  Ca2+  Ca35  1  0.83611594  0.91666682  0.83869801  1
  Ca2+  Ca36  1  0.41738465  0.16505036  0.15892737  1
  Ca2+  Ca37  1  0.41475755  0.16652795  0.49850210  1
  Ca2+  Ca38  1  0.41559885  0.16326777  0.82918872  1
  Ca2+  Ca39  1  0.41344440  0.67642039  0.16399385  1
  Ca2+  Ca40  1  0.42497172  0.67020394  0.48476671  1
  Ca2+  Ca41  1  0.41238789  0.67153830  0.83607423  1
  Ca2+  Ca42  1  0.92046860  0.16911618  0.15804993  1
  Ca2+  Ca43  1  0.90870222  0.16841028  0.50032037  1
  Ca2+  Ca44  1  0.92631620  0.17260131  0.82588295  1
  Ca2+  Ca45  1  0.92566413  0.66728628  0.15990595  1
  Ca2+  Ca46  1  0.91919456  0.67140571  0.49187444  1
  Ca2+  Ca47  1  0.91663646  0.67645173  0.83399809  1
  Al0+  Al48  1  0.00310771  0.00135178  -0.00795288  1
  Al0+  Al49  1  0.00180186  0.00177749  0.34052944  1
  Al0+  Al50  1  0.00081357  -0.00215589  0.66401312  1
  Al0+  Al51  1  -0.00245767  0.49790607  -0.00637503  1
  Al0+  Al52  1  -0.00068939  0.49827172  0.33481908  1
  Al0+  Al53  1  0.00105786  0.50067119  0.66296186  1
  Al0+  Al54  1  0.50146844  0.00020930  0.00310527  1
  Al0+  Al55  1  0.50073665  0.00296976  0.33294844  1
  Al0+  Al56  1  0.49864044  0.00009051  0.66738094  1
  Al0+  Al57  1  0.50001954  0.50018528  0.00844033  1
  Al0+  Al58  1  0.49843137  0.49872556  0.33219363  1
  Al0+  Al59  1  0.50084107  0.50058741  0.67036322  1
  Al0+  Al60  1  0.25264070  0.25281804  0.00632565  1
  Al0+  Al61  1  0.24846504  0.25093040  0.33241118  1
  Al0+  Al62  1  0.25063593  0.25173666  0.66420016  1
  Al0+  Al63  1  0.25171519  0.75266000  -0.00782496  1
  Al0+  Al64  1  0.25030180  0.75076297  0.33624466  1
  Al0+  Al65  1  0.25075836  0.75161736  0.66838448  1
  Al0+  Al66  1  0.74870387  0.24747350  0.00225316  1
  Al0+  Al67  1  0.74903615  0.24959802  0.33490635  1
  Al0+  Al68  1  0.74927633  0.24825710  0.66954737  1
  Al0+  Al69  1  0.74741128  0.74813642  -0.00087403  1
  Al0+  Al70  1  0.74835806  0.74805478  0.33870190  1
  Al0+  Al71  1  0.74879394  0.74867115  0.66371512  1
  Al0+  Al72  1  0.57360247  0.67677127  0.31713076  1
  Al0+  Al73  1  0.17518277  0.43005831  0.01449247  1
  Al0+  Al74  1  0.07216016  0.67830633  0.98491617  1
  Al0+  Al75  1  0.67737855  0.92726663  0.34912862  1
  Al0+  Al76  1  0.31933308  0.57021159  0.34733426  1
  Al0+  Al77  1  0.92641324  0.32021303  0.64874017  1
  Al0+  Al78  1  0.82177317  0.06871915  0.68263867  1
  Al0+  Al79  1  0.32120095  0.07149280  0.01400356  1
  Al0+  Al80  1  0.31903060  0.57474667  0.01559723  1
  Al0+  Al81  1  0.42966169  0.82222030  0.31800512  1
  Al0+  Al82  1  0.07489019  0.17962004  0.98575113  1
  Al0+  Al83  1  0.18091141  0.92904214  0.34595124  1
  Al0+  Al84  1  0.31954996  0.07056873  0.67939134  1
  Al0+  Al85  1  0.92808867  0.81929595  0.65090937  1
  Al0+  Al86  1  0.82234397  0.56994711  0.34600278  1
  Al0+  Al87  1  0.67973953  0.42648477  0.01528327  1
  Al0+  Al88  1  0.92570571  0.82115508  0.98775375  1
  Al0+  Al89  1  0.06905797  0.67958335  0.32140306  1
  Al0+  Al90  1  0.82170799  0.07108014  0.34774780  1
  Al0+  Al91  1  0.68084523  0.43081592  0.67964244  1
  Al0+  Al92  1  0.92599336  0.31979686  0.98561464  1
  Al0+  Al93  1  0.68090481  0.92791563  0.01266029  1
  Al0+  Al94  1  0.43067800  0.82246743  0.98467864  1
  Al0+  Al95  1  0.07339801  0.17954351  0.64910170  1
  Si0+  Si96  1  0.32177424  0.57170791  0.68158369  1
  Si0+  Si97  1  0.82454596  0.06983698  0.01459350  1
  Si0+  Si98  1  0.92801659  0.82423769  0.31951232  1
  Si0+  Si99  1  0.43012046  0.32283987  0.65260103  1
  Si0+  Si100  1  0.56991265  0.17793765  0.65194991  1
  Si0+  Si101  1  0.07205310  0.17810219  0.31785009  1
  Si0+  Si102  1  0.17810030  0.92629472  0.68615129  1
  Si0+  Si103  1  0.17747919  0.92878802  0.01436268  1
  Si0+  Si104  1  0.42998130  0.82210958  0.65136729  1
  Si0+  Si105  1  0.56783956  0.67673325  0.65251414  1
  Si0+  Si106  1  0.32183321  0.07516779  0.34941753  1
  Si0+  Si107  1  0.07428032  0.67816533  0.64863638  1
  Si0+  Si108  1  0.42623295  0.32121216  0.31671139  1
  Si0+  Si109  1  0.67767980  0.42747459  0.34986080  1
  Si0+  Si110  1  0.82085878  0.57198095  0.01507318  1
  Si0+  Si111  1  0.43149967  0.32221525  0.98612351  1
  Si0+  Si112  1  0.56956006  0.17871002  0.98456931  1
  Si0+  Si113  1  0.17717148  0.42594513  0.35233455  1
  Si0+  Si114  1  0.57113430  0.67567083  0.98204175  1
  Si0+  Si115  1  0.82395922  0.57344222  0.68403231  1
  Si0+  Si116  1  0.17981967  0.43014467  0.68004770  1
  Si0+  Si117  1  0.57122943  0.18164460  0.31759872  1
  Si0+  Si118  1  0.92850034  0.31933400  0.31884575  1
  Si0+  Si119  1  0.67715617  0.92649399  0.68334970  1
  O2-  O120  1  0.24504151  -0.00150235  0.05926061  1
  O2-  O121  1  0.25660974  0.00358615  0.39290737  1
  O2-  O122  1  0.24337747  -0.00064282  0.72842053  1
  O2-  O123  1  0.23979180  0.50933233  0.06414414  1
  O2-  O124  1  0.24510784  0.49584000  0.39660629  1
  O2-  O125  1  0.24674069  0.50505183  0.72230835  1
  O2-  O126  1  0.76277822  -0.00504572  0.05855858  1
  O2-  O127  1  0.75367377  -0.00483127  0.39832354  1
  O2-  O128  1  0.74938456  -0.00916174  0.72816597  1
  O2-  O129  1  0.75592407  0.49962118  0.05975311  1
  O2-  O130  1  0.74326196  0.49908270  0.39303673  1
  O2-  O131  1  0.75973427  0.50005323  0.72768297  1
  O2-  O132  1  -0.00096286  0.24766793  0.27740532  1
  O2-  O133  1  -0.00281093  0.24704236  0.59756325  1
  O2-  O134  1  0.00087287  0.25014879  0.93681905  1
  O2-  O135  1  -0.00659998  0.75305957  0.27460539  1
  O2-  O136  1  0.00314961  0.74429309  0.60504437  1
  O2-  O137  1  -0.00178339  0.74952029  0.93683408  1
  O2-  O138  1  0.49766794  0.25017116  0.27526211  1
  O2-  O139  1  0.49978164  0.25062881  0.60982673  1
  O2-  O140  1  0.50097819  0.25146442  0.94090725  1
  O2-  O141  1  0.50414145  0.75210301  0.26836234  1
  O2-  O142  1  0.49995807  0.75036810  0.60984128  1
  O2-  O143  1  0.50321967  0.74533791  0.93726706  1
  O2-  O144  1  0.07249543  0.17867087  0.10008329  1
  O2-  O145  1  0.07643074  0.18042785  0.42255852  1
  O2-  O146  1  0.07771112  0.18667625  0.76196906  1
  O2-  O147  1  0.07180049  0.68175061  0.09872443  1
  O2-  O148  1  0.06819664  0.68136229  0.43480931  1
  O2-  O149  1  0.07682727  0.67857944  0.75379893  1
  O2-  O150  1  0.56846280  0.17999404  0.08988819  1
  O2-  O151  1  0.57153580  0.18376170  0.42304196  1
  O2-  O152  1  0.56799089  0.17708116  0.75706127  1
  O2-  O153  1  0.57226599  0.67536917  0.08702237  1
  O2-  O154  1  0.56897299  0.67525858  0.43181423  1
  O2-  O155  1  0.56493382  0.67384161  0.75738654  1
  O2-  O156  1  0.17874011  0.42226885  0.24752289  1
  O2-  O157  1  0.18340768  0.42950288  0.57477607  1
  O2-  O158  1  0.18155261  0.42861603  0.90020656  1
  O2-  O159  1  0.17930224  0.93128264  0.23298084  1
  O2-  O160  1  0.18293456  0.92213721  0.58038382  1
  O2-  O161  1  0.17936103  0.92864982  0.90875970  1
  O2-  O162  1  0.68069354  0.42347835  0.24453951  1
  O2-  O163  1  0.67636634  0.43521985  0.56671123  1
  O2-  O164  1  0.67792105  0.42806104  0.90193237  1
  O2-  O165  1  0.67737185  0.93099666  0.23545596  1
  O2-  O166  1  0.67433180  0.92903688  0.57811660  1
  O2-  O167  1  0.67882499  0.93295764  0.89927146  1
  O2-  O168  1  0.43341094  0.31997483  0.09132614  1
  O2-  O169  1  0.42592006  0.32070138  0.42245949  1
  O2-  O170  1  0.43105502  0.32448975  0.75751622  1
  O2-  O171  1  0.43200563  0.82404458  0.09714795  1
  O2-  O172  1  0.42905511  0.81934923  0.43264065  1
  O2-  O173  1  0.43100480  0.82303076  0.75629434  1
  O2-  O174  1  0.92438413  0.31595757  0.09998149  1
  O2-  O175  1  0.92807781  0.31901665  0.42382639  1
  O2-  O176  1  0.92706462  0.31837693  0.76170276  1
  O2-  O177  1  0.92487849  0.81936455  0.10147814  1
  O2-  O178  1  0.93173629  0.82333795  0.42533933  1
  O2-  O179  1  0.92745411  0.81672204  0.76382539  1
  O2-  O180  1  0.31931387  0.07879220  0.24410777  1
  O2-  O181  1  0.32178413  0.06810323  0.56628575  1
  O2-  O182  1  0.32281750  0.07107341  0.90062146  1
  O2-  O183  1  0.31762741  0.57022920  0.23514804  1
  O2-  O184  1  0.32410453  0.57017054  0.57644626  1
  O2-  O185  1  0.32152931  0.56944955  0.90099366  1
  O2-  O186  1  0.81967374  0.07376109  0.23416518  1
  O2-  O187  1  0.81623517  0.06926799  0.56969890  1
  O2-  O188  1  0.82004206  0.07179198  0.90905261  1
  O2-  O189  1  0.82563926  0.56474314  0.23320703  1
  O2-  O190  1  0.82087744  0.57414707  0.57831006  1
  O2-  O191  1  0.81642184  0.57509955  0.90941999  1
  O2-  O192  1  0.04555062  0.08549853  0.27201674  1
  O2-  O193  1  0.05220054  0.07766663  0.60143691  1
  O2-  O194  1  0.05238828  0.08154014  0.92986625  1
  O2-  O195  1  0.04184218  0.58080091  0.26965920  1
  O2-  O196  1  0.05382875  0.58341769  0.60266412  1
  O2-  O197  1  0.04515438  0.57996164  0.93114892  1
  O2-  O198  1  0.54583124  0.08983075  0.26950639  1
  O2-  O199  1  0.53902050  0.08765520  0.60285731  1
  O2-  O200  1  0.53920789  0.08886283  0.93582675  1
  O2-  O201  1  0.54509529  0.57717987  0.26655008  1
  O2-  O202  1  0.53640959  0.58680034  0.60310497  1
  O2-  O203  1  0.54248508  0.58179542  0.93711956  1
  O2-  O204  1  0.16318586  0.20761571  0.26951616  1
  O2-  O205  1  0.17045629  0.21354169  0.59380098  1
  O2-  O206  1  0.17394616  0.21196206  0.93583711  1
  O2-  O207  1  0.16537542  0.71271338  0.26977498  1
  O2-  O208  1  0.16817253  0.70742745  0.60303249  1
  O2-  O209  1  0.16913542  0.70710723  0.92893543  1
  O2-  O210  1  0.66120760  0.21321623  0.26863436  1
  O2-  O211  1  0.66056826  0.20672616  0.60378650  1
  O2-  O212  1  0.66164887  0.20497822  0.93744661  1
  O2-  O213  1  0.67457815  0.69945533  0.26712781  1
  O2-  O214  1  0.66122378  0.70003037  0.60643989  1
  O2-  O215  1  0.66374207  0.70054940  0.93355795  1
  O2-  O216  1  0.07256557  0.44675044  0.06223370  1
  O2-  O217  1  0.08358857  0.44988010  0.39838429  1
  O2-  O218  1  0.08637097  0.45399031  0.72573424  1
  O2-  O219  1  0.08340646  0.95293874  0.06036795  1
  O2-  O220  1  0.08663935  0.96075427  0.40416137  1
  O2-  O221  1  0.08256625  0.94603083  0.72842672  1
  O2-  O222  1  0.58437871  0.45716741  0.07111738  1
  O2-  O223  1  0.58179141  0.44695145  0.39363611  1
  O2-  O224  1  0.58516978  0.46437699  0.73592316  1
  O2-  O225  1  0.58845141  0.96720848  0.06824457  1
  O2-  O226  1  0.58044609  0.96280186  0.40258803  1
  O2-  O227  1  0.58481454  0.95716452  0.72965991  1
  O2-  O228  1  0.21351052  0.33692340  0.07169584  1
  O2-  O229  1  0.20715470  0.33360061  0.40011741  1
  O2-  O230  1  0.21283594  0.34064853  0.72773750  1
  O2-  O231  1  0.20604218  0.83582741  0.05898958  1
  O2-  O232  1  0.21245779  0.83508119  0.40482090  1
  O2-  O233  1  0.20908336  0.83470234  0.73421762  1
  O2-  O234  1  0.70686678  0.32886787  0.06986747  1
  O2-  O235  1  0.70666956  0.33573960  0.39831416  1
  O2-  O236  1  0.70393813  0.33196550  0.73251374  1
  O2-  O237  1  0.70224266  0.82860464  0.06502134  1
  O2-  O238  1  0.69726935  0.82737607  0.40176751  1
  O2-  O239  1  0.69746837  0.83037292  0.72664528  1
  O2-  O240  1  0.45367663  0.41213974  0.26864194  1
  O2-  O241  1  0.46100133  0.41383323  0.60408023  1
  O2-  O242  1  0.46002038  0.41412211  0.93922895  1
  O2-  O243  1  0.45307900  0.92370694  0.26850760  1
  O2-  O244  1  0.45782858  0.91337494  0.60295188  1
  O2-  O245  1  0.46664987  0.91815730  0.93064125  1
  O2-  O246  1  0.95728616  0.41034145  0.27136549  1
  O2-  O247  1  0.95518908  0.42033664  0.59790742  1
  O2-  O248  1  0.94633805  0.41879491  0.93068598  1
  O2-  O249  1  0.95534162  0.91818380  0.27546028  1
  O2-  O250  1  0.95880121  0.91543920  0.59659221  1
  O2-  O251  1  0.95439372  0.91863312  0.93266014  1
  O2-  O252  1  0.33482782  0.29255905  0.26918893  1
  O2-  O253  1  0.33964769  0.29636335  0.60224687  1
  O2-  O254  1  0.33955371  0.29531171  0.93928762  1
  O2-  O255  1  0.33178958  0.79067109  0.26695929  1
  O2-  O256  1  0.33701271  0.79472274  0.60589860  1
  O2-  O257  1  0.33551001  0.79506361  0.92614906  1
  O2-  O258  1  0.83586190  0.29226328  0.27251711  1
  O2-  O259  1  0.82642165  0.29197968  0.59749753  1
  O2-  O260  1  0.82788136  0.28731966  0.93320915  1
  O2-  O261  1  0.83203111  0.80137482  0.27904781  1
  O2-  O262  1  0.83033324  0.78983386  0.59705906  1
  O2-  O263  1  0.82799160  0.79152628  0.93235196  1
  O2-  O264  1  0.41692645  0.03958703  0.06870776  1
  O2-  O265  1  0.41760256  0.05609204  0.39300995  1
  O2-  O266  1  0.41605892  0.03887168  0.73410116  1
  O2-  O267  1  0.41434112  0.53973256  0.06989734  1
  O2-  O268  1  0.41557642  0.53577801  0.40198894  1
  O2-  O269  1  0.41110168  0.53984740  0.73066811  1
  O2-  O270  1  0.92148061  0.05280534  0.05617971  1
  O2-  O271  1  0.92064812  0.05008835  0.40230407  1
  O2-  O272  1  0.92056788  0.04127405  0.73307746  1
  O2-  O273  1  0.91586161  0.54915100  0.05819330  1
  O2-  O274  1  0.91628325  0.53520293  0.40388267  1
  O2-  O275  1  0.92055103  0.55444757  0.72585208  1
  O2-  O276  1  0.29598445  0.16845528  0.06955534  1
  O2-  O277  1  0.29299973  0.16768977  0.39726546  1
  O2-  O278  1  0.29436099  0.17044469  0.73049092  1
  O2-  O279  1  0.29683100  0.67634127  0.06358683  1
  O2-  O280  1  0.28887711  0.66527592  0.40424144  1
  O2-  O281  1  0.29805014  0.66535752  0.72737724  1
  O2-  O282  1  0.79017158  0.15936021  0.06342553  1
  O2-  O283  1  0.78506238  0.16727262  0.40218483  1
  O2-  O284  1  0.78632497  0.16371017  0.73644669  1
  O2-  O285  1  0.79133884  0.66306339  0.06355085  1
  O2-  O286  1  0.79514969  0.66599803  0.40317919  1
  O2-  O287  1  0.79129998  0.66476049  0.73081656  1
