# generated using pymatgen
data_Ca2Al2SiO7
_symmetry_space_group_name_H-M   'P 1'
_cell_length_a   15.46331745
_cell_length_b   15.46173248
_cell_length_c   15.28683009
_cell_angle_alpha   89.98222660
_cell_angle_beta   89.99368958
_cell_angle_gamma   89.96834904
_symmetry_Int_Tables_number   1
_chemical_formula_structural   Ca2Al2SiO7
_chemical_formula_sum   'Ca48 Al48 Si24 O168'
_cell_volume   3654.92252266
_cell_formula_units_Z   24
loop_
 _symmetry_equiv_pos_site_id
 _symmetry_equiv_pos_as_xyz
  1  'x, y, z'
loop_
 _atom_type_symbol
 _atom_type_oxidation_number
  Ca2+  2.0
  Al0+  0.0
  Si0+  0.0
  O2-  -2.0
loop_
 _atom_site_type_symbol
 _atom_site_label
 _atom_site_symmetry_multiplicity
 _atom_site_fract_x
 _atom_site_fract_y
 _atom_site_fract_z
 _atom_site_occupancy
  Ca2+  Ca0  1  0.17219586  0.08310503  0.17803898  1
  Ca2+  Ca1  1  0.17957722  0.09398047  0.50030406  1
  Ca2+  Ca2  1  0.17676155  0.08323068  0.83614399  1
  Ca2+  Ca3  1  0.17376532  0.58462357  0.17149730  1
  Ca2+  Ca4  1  0.16359014  0.58568605  0.50531422  1
  Ca2+  Ca5  1  0.17225731  0.58557239  0.83833439  1
  Ca2+  Ca6  1  0.67026625  0.08163398  0.17532088  1
  Ca2+  Ca7  1  0.66061944  0.08198178  0.50146328  1
  Ca2+  Ca8  1  0.66910825  0.08740726  0.83951093  1
  Ca2+  Ca9  1  0.66918220  0.58773325  0.17693515  1
  Ca2+  Ca10  1  0.66700498  0.57901621  0.50422398  1
  Ca2+  Ca11  1  0.65343633  0.57755228  0.83495826  1
  Ca2+  Ca12  1  0.07739410  0.32733826  0.17274808  1
  Ca2+  Ca13  1  0.07042517  0.33135714  0.49117783  1
  Ca2+  Ca14  1  0.07471451  0.33372644  0.82792446  1
  Ca2+  Ca15  1  0.07723214  0.83093120  0.16349799  1
  Ca2+  Ca16  1  0.08396428  0.82220060  0.49663798  1
  Ca2+  Ca17  1  0.07725151  0.83033887  0.83028085  1
  Ca2+  Ca18  1  0.57599639  0.32262380  0.16434275  1
  Ca2+  Ca19  1  0.58342020  0.32293489  0.49503331  1
  Ca2+  Ca20  1  0.58299493  0.32470041  0.83061314  1
  Ca2+  Ca21  1  0.58725238  0.82560619  0.16306552  1
  Ca2+  Ca22  1  0.58433657  0.82789745  0.49599126  1
  Ca2+  Ca23  1  0.57410311  0.82279324  0.82813137  1
  Ca2+  Ca24  1  0.34248190  0.41805320  0.16966977  1
  Ca2+  Ca25  1  0.33404437  0.41445033  0.50200082  1
  Ca2+  Ca26  1  0.33647046  0.42408829  0.84374377  1
  Ca2+  Ca27  1  0.33717782  0.92123657  0.17279472  1
  Ca2+  Ca28  1  0.33999250  0.92859303  0.50503733  1
  Ca2+  Ca29  1  0.34001316  0.91455214  0.83320296  1
  Ca2+  Ca30  1  0.83112369  0.42408523  0.17635377  1
  Ca2+  Ca31  1  0.83218339  0.41648285  0.50508619  1
  Ca2+  Ca32  1  0.82607697  0.41428222  0.83204068  1
  Ca2+  Ca33  1  0.82793311  0.92432123  0.17458672  1
  Ca2+  Ca34  1  0.82593590  0.92200244  0.49634674  1
  Ca2+  Ca35  1  0.83223769  0.92219473  0.84443954  1
  Ca2+  Ca36  1  0.42377518  0.17123049  0.16416627  1
  Ca2+  Ca37  1  0.42325328  0.16666641  0.49106683  1
  Ca2+  Ca38  1  0.42873398  0.16454220  0.82780692  1
  Ca2+  Ca39  1  0.42898876  0.67023651  0.15668840  1
  Ca2+  Ca40  1  0.42842951  0.67178123  0.49623839  1
  Ca2+  Ca41  1  0.42037860  0.67314123  0.83120682  1
  Ca2+  Ca42  1  0.91107060  0.16473685  0.16565386  1
  Ca2+  Ca43  1  0.91667828  0.17795171  0.48972602  1
  Ca2+  Ca44  1  0.91442411  0.17042148  0.82768190  1
  Ca2+  Ca45  1  0.91787964  0.67122659  0.16627006  1
  Ca2+  Ca46  1  0.92578626  0.66004228  0.49181474  1
  Ca2+  Ca47  1  0.92086164  0.67327885  0.82958585  1
  Al0+  Al48  1  0.00078029  0.00016871  -0.00059651  1
  Al0+  Al49  1  0.00012248  -0.00132669  0.33777614  1
  Al0+  Al50  1  0.00199412  -0.00022966  0.66649089  1
  Al0+  Al51  1  0.00009111  0.49785464  0.00128314  1
  Al0+  Al52  1  0.00173804  0.50009432  0.32739926  1
  Al0+  Al53  1  -0.00090532  0.50042027  0.66324096  1
  Al0+  Al54  1  0.50114741  -0.00154489  -0.00509951  1
  Al0+  Al55  1  0.49936186  -0.00075324  0.33808222  1
  Al0+  Al56  1  0.50099119  0.00010429  0.66628642  1
  Al0+  Al57  1  0.49919976  0.49763351  0.00042389  1
  Al0+  Al58  1  0.50046903  0.50215411  0.32875365  1
  Al0+  Al59  1  0.49958223  0.49979560  0.66897833  1
  Al0+  Al60  1  0.24722205  0.25040476  -0.00174436  1
  Al0+  Al61  1  0.24720263  0.25248403  0.33094373  1
  Al0+  Al62  1  0.25003260  0.25006114  0.67608330  1
  Al0+  Al63  1  0.25039615  0.74828413  0.00290609  1
  Al0+  Al64  1  0.25032029  0.74936584  0.33077095  1
  Al0+  Al65  1  0.24860280  0.75206655  0.66018051  1
  Al0+  Al66  1  0.75116076  0.25163491  0.00188494  1
  Al0+  Al67  1  0.74889008  0.25200627  0.32805589  1
  Al0+  Al68  1  0.74920402  0.25211821  0.66363025  1
  Al0+  Al69  1  0.75206879  0.74920511  -0.00925222  1
  Al0+  Al70  1  0.75185199  0.74975266  0.34040324  1
  Al0+  Al71  1  0.75138181  0.75110446  0.66553759  1
  Al0+  Al72  1  0.57252846  0.68133150  0.32065707  1
  Al0+  Al73  1  0.57010203  0.18067596  0.65271384  1
  Al0+  Al74  1  0.31864113  0.07171525  0.34506852  1
  Al0+  Al75  1  0.57180187  0.67637864  0.64990399  1
  Al0+  Al76  1  0.06816309  0.68111915  0.65469875  1
  Al0+  Al77  1  0.42707466  0.31961386  0.98381686  1
  Al0+  Al78  1  0.57257272  0.17947158  0.98503104  1
  Al0+  Al79  1  0.32052827  0.56935394  0.01490107  1
  Al0+  Al80  1  0.57321990  0.67764217  0.98507529  1
  Al0+  Al81  1  0.92992932  0.31897804  0.65418811  1
  Al0+  Al82  1  0.42686803  0.82124341  0.98599460  1
  Al0+  Al83  1  0.82156601  0.07427607  0.34953282  1
  Al0+  Al84  1  0.07277250  0.67864095  0.31740225  1
  Al0+  Al85  1  0.82095179  0.07113814  0.01272713  1
  Al0+  Al86  1  0.92692107  0.32079723  0.31637794  1
  Al0+  Al87  1  0.93065169  0.82182256  0.98765996  1
  Al0+  Al88  1  0.57069850  0.17596312  0.31831540  1
  Al0+  Al89  1  0.67906421  0.42971394  0.68053179  1
  Al0+  Al90  1  0.42938437  0.82100752  0.64922918  1
  Al0+  Al91  1  0.82254564  0.56983889  0.34652646  1
  Al0+  Al92  1  0.32218973  0.07087279  0.68272105  1
  Al0+  Al93  1  0.42741740  0.32177915  0.32026543  1
  Al0+  Al94  1  0.67847112  0.92917364  0.34884193  1
  Al0+  Al95  1  0.06979182  0.17734182  0.31991121  1
  Si0+  Si96  1  0.82063643  0.07069486  0.68037284  1
  Si0+  Si97  1  0.67883602  0.92603168  0.01367647  1
  Si0+  Si98  1  0.82256370  0.57145250  0.01350931  1
  Si0+  Si99  1  0.67636823  0.42998845  0.34879945  1
  Si0+  Si100  1  0.17723704  0.92511511  0.35092737  1
  Si0+  Si101  1  0.67964404  0.92784883  0.68443481  1
  Si0+  Si102  1  0.42825436  0.82188612  0.31736141  1
  Si0+  Si103  1  0.92696328  0.82595336  0.64804483  1
  Si0+  Si104  1  0.17814974  0.92688819  0.68463502  1
  Si0+  Si105  1  0.17883316  0.92910241  0.01459525  1
  Si0+  Si106  1  0.17990400  0.43155175  0.34904698  1
  Si0+  Si107  1  0.07125138  0.67685913  0.98452752  1
  Si0+  Si108  1  0.32161877  0.07072923  0.01444063  1
  Si0+  Si109  1  0.17492849  0.42645245  0.01957636  1
  Si0+  Si110  1  0.31897858  0.57182342  0.68012024  1
  Si0+  Si111  1  0.82396070  0.57219137  0.68440888  1
  Si0+  Si112  1  0.92864944  0.82127102  0.31837203  1
  Si0+  Si113  1  0.32248365  0.57223448  0.34965541  1
  Si0+  Si114  1  0.07418869  0.17728630  0.65195022  1
  Si0+  Si115  1  0.17662790  0.42987475  0.68199527  1
  Si0+  Si116  1  0.92983651  0.32166293  0.98397958  1
  Si0+  Si117  1  0.67982802  0.42971262  0.01639390  1
  Si0+  Si118  1  0.42522115  0.32234488  0.65276547  1
  Si0+  Si119  1  0.07052183  0.17743607  0.98368073  1
  O2-  O120  1  0.25311613  -0.00320851  0.05636901  1
  O2-  O121  1  0.24371139  -0.00315733  0.39329596  1
  O2-  O122  1  0.24664909  -0.00423931  0.72899455  1
  O2-  O123  1  0.24697592  0.49257446  0.06190856  1
  O2-  O124  1  0.25151816  0.50143341  0.39273823  1
  O2-  O125  1  0.24968407  0.49885287  0.72348048  1
  O2-  O126  1  0.74464290  -0.00239496  0.05757872  1
  O2-  O127  1  0.74558948  0.00640636  0.39979531  1
  O2-  O128  1  0.75318841  -0.00235966  0.72523413  1
  O2-  O129  1  0.74712769  0.50575648  0.05620145  1
  O2-  O130  1  0.74883678  0.49464376  0.39343281  1
  O2-  O131  1  0.75030534  0.50875204  0.72887459  1
  O2-  O132  1  -0.00802302  0.24144793  0.26703414  1
  O2-  O133  1  0.00467273  0.24447523  0.60846411  1
  O2-  O134  1  -0.00075143  0.24876983  0.94212984  1
  O2-  O135  1  -0.00079436  0.75481871  0.27296761  1
  O2-  O136  1  -0.00801687  0.75286035  0.60595849  1
  O2-  O137  1  0.00342968  0.74554764  0.93986833  1
  O2-  O138  1  0.49728821  0.24784376  0.27079334  1
  O2-  O139  1  0.49193738  0.25289060  0.60828876  1
  O2-  O140  1  0.49733129  0.24708262  0.93287433  1
  O2-  O141  1  0.49852104  0.75553584  0.27303369  1
  O2-  O142  1  0.50264775  0.75046531  0.59940585  1
  O2-  O143  1  0.49946621  0.74909614  0.93731504  1
  O2-  O144  1  0.07169865  0.17609399  0.08818556  1
  O2-  O145  1  0.07329562  0.18511951  0.43346558  1
  O2-  O146  1  0.07266685  0.17803906  0.75821261  1
  O2-  O147  1  0.07000382  0.67723661  0.08984551  1
  O2-  O148  1  0.07213752  0.67906144  0.43068629  1
  O2-  O149  1  0.06780266  0.68215983  0.76819389  1
  O2-  O150  1  0.57248548  0.18016554  0.09799085  1
  O2-  O151  1  0.56843624  0.17832323  0.43213630  1
  O2-  O152  1  0.57230294  0.18192627  0.76579489  1
  O2-  O153  1  0.57573398  0.68084444  0.09881527  1
  O2-  O154  1  0.56978329  0.67930355  0.43334947  1
  O2-  O155  1  0.56712412  0.67642006  0.76333975  1
  O2-  O156  1  0.17920801  0.43289405  0.24405000  1
  O2-  O157  1  0.17606153  0.42944662  0.57701848  1
  O2-  O158  1  0.16999823  0.42902698  0.91364683  1
  O2-  O159  1  0.17872961  0.92339367  0.24482657  1
  O2-  O160  1  0.17598305  0.92597221  0.57965235  1
  O2-  O161  1  0.17597476  0.93128373  0.90949026  1
  O2-  O162  1  0.67610560  0.43394919  0.24291328  1
  O2-  O163  1  0.68159405  0.42815193  0.56782305  1
  O2-  O164  1  0.68303785  0.42764135  0.91095932  1
  O2-  O165  1  0.68171274  0.92549823  0.23493835  1
  O2-  O166  1  0.68012651  0.92763632  0.57963460  1
  O2-  O167  1  0.68216651  0.92582162  0.90782747  1
  O2-  O168  1  0.42849416  0.31754007  0.09702123  1
  O2-  O169  1  0.42762222  0.32232339  0.43433258  1
  O2-  O170  1  0.42509777  0.32208507  0.75816581  1
  O2-  O171  1  0.42636600  0.82113655  0.09951371  1
  O2-  O172  1  0.42612359  0.81886596  0.42272703  1
  O2-  O173  1  0.42888779  0.81738153  0.76284131  1
  O2-  O174  1  0.93113853  0.32437829  0.08830672  1
  O2-  O175  1  0.93159361  0.32407211  0.42996356  1
  O2-  O176  1  0.93133101  0.31781724  0.76812214  1
  O2-  O177  1  0.93268382  0.82093693  0.10040193  1
  O2-  O178  1  0.93021304  0.81966195  0.42406312  1
  O2-  O179  1  0.92957129  0.82804227  0.75402421  1
  O2-  O180  1  0.31752321  0.06905783  0.23143249  1
  O2-  O181  1  0.31882255  0.07369710  0.56986011  1
  O2-  O182  1  0.31834985  0.07119823  0.90931149  1
  O2-  O183  1  0.32117862  0.57229832  0.24467714  1
  O2-  O184  1  0.31758544  0.57001226  0.57488674  1
  O2-  O185  1  0.31558098  0.56992676  0.90108121  1
  O2-  O186  1  0.82187492  0.06834127  0.23576628  1
  O2-  O187  1  0.82028934  0.06992432  0.57596533  1
  O2-  O188  1  0.82240411  0.07061263  0.89870819  1
  O2-  O189  1  0.82067967  0.57099314  0.23262859  1
  O2-  O190  1  0.82822448  0.56806168  0.57923242  1
  O2-  O191  1  0.82840658  0.56756397  0.90864233  1
  O2-  O192  1  0.05235849  0.07459121  0.27167405  1
  O2-  O193  1  0.05282063  0.08266319  0.60731045  1
  O2-  O194  1  0.04334693  0.08676344  0.93410057  1
  O2-  O195  1  0.04222286  0.58399811  0.26131528  1
  O2-  O196  1  0.04036187  0.58433635  0.59978909  1
  O2-  O197  1  0.04489729  0.58295369  0.93895586  1
  O2-  O198  1  0.54287732  0.07671316  0.26749015  1
  O2-  O199  1  0.54218618  0.08325647  0.60105636  1
  O2-  O200  1  0.54889064  0.07976913  0.93272140  1
  O2-  O201  1  0.54111812  0.58637050  0.26484936  1
  O2-  O202  1  0.54094536  0.57793394  0.59852307  1
  O2-  O203  1  0.54312391  0.57889510  0.93532673  1
  O2-  O204  1  0.16383191  0.21403288  0.26309697  1
  O2-  O205  1  0.16800786  0.20596956  0.60910021  1
  O2-  O206  1  0.16108130  0.20643548  0.93416694  1
  O2-  O207  1  0.16927649  0.70888019  0.26286819  1
  O2-  O208  1  0.16285664  0.71172852  0.59760169  1
  O2-  O209  1  0.16452482  0.70293588  0.93927898  1
  O2-  O210  1  0.66811560  0.20454406  0.26479221  1
  O2-  O211  1  0.66477828  0.21420774  0.59817426  1
  O2-  O212  1  0.67049549  0.21320815  0.93260018  1
  O2-  O213  1  0.67069033  0.71104539  0.26968664  1
  O2-  O214  1  0.67334663  0.70131085  0.60225054  1
  O2-  O215  1  0.67077213  0.70235806  0.92861286  1
  O2-  O216  1  0.08300608  0.45572845  0.06783586  1
  O2-  O217  1  0.08890549  0.46213566  0.39638030  1
  O2-  O218  1  0.08598917  0.46092626  0.73088006  1
  O2-  O219  1  0.08921989  0.96099154  0.06394381  1
  O2-  O220  1  0.08304205  0.94463984  0.39769439  1
  O2-  O221  1  0.08439102  0.95333053  0.73243415  1
  O2-  O222  1  0.58659459  0.45166080  0.06236734  1
  O2-  O223  1  0.58442735  0.46003809  0.39595759  1
  O2-  O224  1  0.58147486  0.45705950  0.73628678  1
  O2-  O225  1  0.58355110  0.94712058  0.05799996  1
  O2-  O226  1  0.57923907  0.95164779  0.40326726  1
  O2-  O227  1  0.58866002  0.95748630  0.73153269  1
  O2-  O228  1  0.19630661  0.33085733  0.06326971  1
  O2-  O229  1  0.20556030  0.34006691  0.39788636  1
  O2-  O230  1  0.19984391  0.33809642  0.73243435  1
  O2-  O231  1  0.20085531  0.83572783  0.06157890  1
  O2-  O232  1  0.20616824  0.83200722  0.39724067  1
  O2-  O233  1  0.20414102  0.83322096  0.73138392  1
  O2-  O234  1  0.71380882  0.34094761  0.06541080  1
  O2-  O235  1  0.69808021  0.33454281  0.39177812  1
  O2-  O236  1  0.71601127  0.33502285  0.73636418  1
  O2-  O237  1  0.70914469  0.83271030  0.05824408  1
  O2-  O238  1  0.71369993  0.83432356  0.40617942  1
  O2-  O239  1  0.70633197  0.83525287  0.73188267  1
  O2-  O240  1  0.45760108  0.41920041  0.26617260  1
  O2-  O241  1  0.44945820  0.41622790  0.60769743  1
  O2-  O242  1  0.45650854  0.41782168  0.93205184  1
  O2-  O243  1  0.45092025  0.91638292  0.27351655  1
  O2-  O244  1  0.45833222  0.91969218  0.59890308  1
  O2-  O245  1  0.45320429  0.91888870  0.93093333  1
  O2-  O246  1  0.96514086  0.41521097  0.26129112  1
  O2-  O247  1  0.96125255  0.41484366  0.60046201  1
  O2-  O248  1  0.96068884  0.41222565  0.93476603  1
  O2-  O249  1  0.95261704  0.91532066  0.27310798  1
  O2-  O250  1  0.95732545  0.91762606  0.60090661  1
  O2-  O251  1  0.96476517  0.91649888  0.93102008  1
  O2-  O252  1  0.32838891  0.29827620  0.26719659  1
  O2-  O253  1  0.32947012  0.29896620  0.60976110  1
  O2-  O254  1  0.32530711  0.29827182  0.93357857  1
  O2-  O255  1  0.33526722  0.79560979  0.27057248  1
  O2-  O256  1  0.33078568  0.79481032  0.59650520  1
  O2-  O257  1  0.32775471  0.79216229  0.93348885  1
  O2-  O258  1  0.82730630  0.30255833  0.26296132  1
  O2-  O259  1  0.83511726  0.28881957  0.59896941  1
  O2-  O260  1  0.83811359  0.29480896  0.93678759  1
  O2-  O261  1  0.83671799  0.79182026  0.27247161  1
  O2-  O262  1  0.83224014  0.80482464  0.60426504  1
  O2-  O263  1  0.83692622  0.79214081  0.92817638  1
  O2-  O264  1  0.41494575  0.04515395  0.05941497  1
  O2-  O265  1  0.41377229  0.04123360  0.40134489  1
  O2-  O266  1  0.41861819  0.03876812  0.73641634  1
  O2-  O267  1  0.41745873  0.53914830  0.06907492  1
  O2-  O268  1  0.41419414  0.54389082  0.39670374  1
  O2-  O269  1  0.41034207  0.54563370  0.72877817  1
  O2-  O270  1  0.91803620  0.03953230  0.06535413  1
  O2-  O271  1  0.91957802  0.04349864  0.40392319  1
  O2-  O272  1  0.91491870  0.04623006  0.72667291  1
  O2-  O273  1  0.91272555  0.53954238  0.06279919  1
  O2-  O274  1  0.92055554  0.53837357  0.39786558  1
  O2-  O275  1  0.91552728  0.54079834  0.73287451  1
  O2-  O276  1  0.28942256  0.16204694  0.06006787  1
  O2-  O277  1  0.28566263  0.16842931  0.39864217  1
  O2-  O278  1  0.29019331  0.16611915  0.74086156  1
  O2-  O279  1  0.28838496  0.66503835  0.07069615  1
  O2-  O280  1  0.29324974  0.66393135  0.39654192  1
  O2-  O281  1  0.28674014  0.66311715  0.72590761  1
  O2-  O282  1  0.79418016  0.16905202  0.06577787  1
  O2-  O283  1  0.79885349  0.17640361  0.39692649  1
  O2-  O284  1  0.79089735  0.16221271  0.72736239  1
  O2-  O285  1  0.79962018  0.66594419  0.05747117  1
  O2-  O286  1  0.79529225  0.66512424  0.40369823  1
  O2-  O287  1  0.80594736  0.66938368  0.72669682  1
