# generated using pymatgen
data_Ca2Al2SiO7
_symmetry_space_group_name_H-M   'P 1'
_cell_length_a   15.46275301
_cell_length_b   15.46384176
_cell_length_c   15.28846828
_cell_angle_alpha   90.00998640
_cell_angle_beta   89.99064480
_cell_angle_gamma   89.99980431
_symmetry_Int_Tables_number   1
_chemical_formula_structural   Ca2Al2SiO7
_chemical_formula_sum   'Ca48 Al48 Si24 O168'
_cell_volume   3655.68006119
_cell_formula_units_Z   24
loop_
 _symmetry_equiv_pos_site_id
 _symmetry_equiv_pos_as_xyz
  1  'x, y, z'
loop_
 _atom_type_symbol
 _atom_type_oxidation_number
  Ca2+  2.0
  Al0+  0.0
  Si0+  0.0
  O2-  -2.0
loop_
 _atom_site_type_symbol
 _atom_site_label
 _atom_site_symmetry_multiplicity
 _atom_site_fract_x
 _atom_site_fract_y
 _atom_site_fract_z
 _atom_site_occupancy
  Ca2+  Ca0  1  0.16991927  0.07920607  0.17324725  1
  Ca2+  Ca1  1  0.16875523  0.07154712  0.49884110  1
  Ca2+  Ca2  1  0.15821318  0.07616294  0.83748153  1
  Ca2+  Ca3  1  0.16896722  0.58220601  0.17142804  1
  Ca2+  Ca4  1  0.17605846  0.59291290  0.49812714  1
  Ca2+  Ca5  1  0.17617365  0.58242564  0.84423750  1
  Ca2+  Ca6  1  0.67553704  0.07789587  0.17186242  1
  Ca2+  Ca7  1  0.66813636  0.07350095  0.49837500  1
  Ca2+  Ca8  1  0.67677566  0.08002463  0.84244288  1
  Ca2+  Ca9  1  0.67115405  0.57608026  0.17273667  1
  Ca2+  Ca10  1  0.67064661  0.58227976  0.50588487  1
  Ca2+  Ca11  1  0.67297628  0.59229688  0.83215846  1
  Ca2+  Ca12  1  0.07966581  0.33432617  0.15822555  1
  Ca2+  Ca13  1  0.07860268  0.33668940  0.48924034  1
  Ca2+  Ca14  1  0.08698324  0.33110374  0.83856021  1
  Ca2+  Ca15  1  0.08592696  0.82334977  0.16246665  1
  Ca2+  Ca16  1  0.07637906  0.83331727  0.49060064  1
  Ca2+  Ca17  1  0.07569294  0.83014074  0.83095709  1
  Ca2+  Ca18  1  0.57718544  0.33554192  0.16229494  1
  Ca2+  Ca19  1  0.58438221  0.33259191  0.49276384  1
  Ca2+  Ca20  1  0.57642621  0.33597708  0.83433347  1
  Ca2+  Ca21  1  0.57130394  0.84031012  0.16604975  1
  Ca2+  Ca22  1  0.57969716  0.82528790  0.49095774  1
  Ca2+  Ca23  1  0.57374518  0.82771688  0.82944076  1
  Ca2+  Ca24  1  0.32238503  0.42503320  0.17146043  1
  Ca2+  Ca25  1  0.32559090  0.42863595  0.50125663  1
  Ca2+  Ca26  1  0.33088524  0.42783947  0.84488243  1
  Ca2+  Ca27  1  0.33026953  0.91807012  0.17892849  1
  Ca2+  Ca28  1  0.31891640  0.90704436  0.49689833  1
  Ca2+  Ca29  1  0.32552043  0.91187890  0.83774231  1
  Ca2+  Ca30  1  0.83158605  0.40995390  0.17429896  1
  Ca2+  Ca31  1  0.83210786  0.42316565  0.50069816  1
  Ca2+  Ca32  1  0.83500388  0.42177022  0.83850366  1
  Ca2+  Ca33  1  0.83729698  0.91762252  0.17061115  1
  Ca2+  Ca34  1  0.83021362  0.90382310  0.50239095  1
  Ca2+  Ca35  1  0.83898445  0.91749837  0.84219311  1
  Ca2+  Ca36  1  0.41416833  0.17138739  0.16028180  1
  Ca2+  Ca37  1  0.41571268  0.16535312  0.49247904  1
  Ca2+  Ca38  1  0.40988865  0.17831691  0.83349526  1
  Ca2+  Ca39  1  0.40725866  0.67433523  0.16412797  1
  Ca2+  Ca40  1  0.41779912  0.66400552  0.49477516  1
  Ca2+  Ca41  1  0.41656629  0.66477554  0.83116961  1
  Ca2+  Ca42  1  0.92235852  0.17486805  0.15838896  1
  Ca2+  Ca43  1  0.91911509  0.17561504  0.49289991  1
  Ca2+  Ca44  1  0.91994548  0.16789867  0.83879308  1
  Ca2+  Ca45  1  0.93134709  0.67467488  0.16292898  1
  Ca2+  Ca46  1  0.92164298  0.67362759  0.49148012  1
  Ca2+  Ca47  1  0.92087799  0.67270462  0.82757989  1
  Al0+  Al48  1  -0.00052667  0.00153239  0.00040480  1
  Al0+  Al49  1  -0.00019241  0.00401028  0.33441257  1
  Al0+  Al50  1  -0.00103115  0.00072866  0.66499656  1
  Al0+  Al51  1  0.00019775  0.50034249  -0.00517959  1
  Al0+  Al52  1  -0.00147399  0.50054330  0.32844514  1
  Al0+  Al53  1  -0.00062269  0.49969476  0.67029913  1
  Al0+  Al54  1  0.50075385  -0.00119387  -0.00690151  1
  Al0+  Al55  1  0.50457154  0.00037523  0.33723824  1
  Al0+  Al56  1  0.49902867  0.00203292  0.66760638  1
  Al0+  Al57  1  0.50128690  0.50083436  -0.00020942  1
  Al0+  Al58  1  0.50140157  0.49807598  0.34030227  1
  Al0+  Al59  1  0.49890635  0.49854304  0.66580893  1
  Al0+  Al60  1  0.25008238  0.25011814  -0.00641082  1
  Al0+  Al61  1  0.25098182  0.25144957  0.34150168  1
  Al0+  Al62  1  0.24928968  0.24889408  0.66356996  1
  Al0+  Al63  1  0.25080835  0.75094614  -0.00526166  1
  Al0+  Al64  1  0.25124526  0.75050908  0.33403866  1
  Al0+  Al65  1  0.24873125  0.75072050  0.67716847  1
  Al0+  Al66  1  0.75138361  0.24813283  0.00040798  1
  Al0+  Al67  1  0.74930535  0.24911364  0.33495339  1
  Al0+  Al68  1  0.74905465  0.24865155  0.66641274  1
  Al0+  Al69  1  0.74753987  0.74986177  0.00093620  1
  Al0+  Al70  1  0.74993793  0.74957463  0.33131491  1
  Al0+  Al71  1  0.74696206  0.74857884  0.66462895  1
  Al0+  Al72  1  0.43180463  0.82005737  0.32255075  1
  Al0+  Al73  1  0.92694424  0.82396790  0.31759681  1
  Al0+  Al74  1  0.32262364  0.57283413  0.01698688  1
  Al0+  Al75  1  0.82167328  0.06961554  0.01503128  1
  Al0+  Al76  1  0.32081481  0.57208983  0.34851729  1
  Al0+  Al77  1  0.07217627  0.67837072  0.98244475  1
  Al0+  Al78  1  0.07213914  0.17909845  0.98551417  1
  Al0+  Al79  1  0.92842698  0.82033880  0.98606687  1
  Al0+  Al80  1  0.17552026  0.42976187  0.34782690  1
  Al0+  Al81  1  0.17860216  0.42801559  0.01438801  1
  Al0+  Al82  1  0.17774319  0.92887111  0.34602121  1
  Al0+  Al83  1  0.32070436  0.56925946  0.68260705  1
  Al0+  Al84  1  0.92682347  0.32208010  0.98354875  1
  Al0+  Al85  1  0.81966495  0.57098723  0.68003362  1
  Al0+  Al86  1  0.42904258  0.82205905  0.98579225  1
  Al0+  Al87  1  0.68163365  0.92786812  0.34681377  1
  Al0+  Al88  1  0.92958283  0.82049217  0.65270913  1
  Al0+  Al89  1  0.92900266  0.32045317  0.32107712  1
  Al0+  Al90  1  0.67966428  0.42779002  0.34663636  1
  Al0+  Al91  1  0.07264716  0.68025105  0.31914850  1
  Al0+  Al92  1  0.42995171  0.32142524  0.98816336  1
  Al0+  Al93  1  0.32370030  0.07227718  0.34653107  1
  Al0+  Al94  1  0.56817820  0.67927963  0.65225804  1
  Al0+  Al95  1  0.17793838  0.93105715  0.68247513  1
  Si0+  Si96  1  0.07006741  0.17873882  0.64917717  1
  Si0+  Si97  1  0.17711276  0.42510188  0.68429984  1
  Si0+  Si98  1  0.57232457  0.67459099  0.31625353  1
  Si0+  Si99  1  0.42938325  0.32101669  0.32000688  1
  Si0+  Si100  1  0.81923469  0.07161728  0.68186464  1
  Si0+  Si101  1  0.32309676  0.07098264  0.01144026  1
  Si0+  Si102  1  0.57217185  0.67655974  0.98409419  1
  Si0+  Si103  1  0.07268882  0.67727113  0.65092256  1
  Si0+  Si104  1  0.42895258  0.31976365  0.64924041  1
  Si0+  Si105  1  0.57129678  0.17868819  0.31795983  1
  Si0+  Si106  1  0.82158261  0.07248549  0.35144568  1
  Si0+  Si107  1  0.67861487  0.42555881  0.68469116  1
  Si0+  Si108  1  0.57229307  0.17766576  0.98299892  1
  Si0+  Si109  1  0.67770750  0.92863482  0.68229363  1
  Si0+  Si110  1  0.82129739  0.57187776  0.34806264  1
  Si0+  Si111  1  0.32233570  0.07360470  0.68556893  1
  Si0+  Si112  1  0.57213729  0.17888771  0.65024831  1
  Si0+  Si113  1  0.92789646  0.32133462  0.65122775  1
  Si0+  Si114  1  0.42616990  0.82342514  0.64966646  1
  Si0+  Si115  1  0.67621172  0.92734517  0.01627732  1
  Si0+  Si116  1  0.17993623  0.93075982  0.01439994  1
  Si0+  Si117  1  0.07468048  0.18014797  0.31823468  1
  Si0+  Si118  1  0.82150654  0.57283322  0.01496837  1
  Si0+  Si119  1  0.68080782  0.42851402  0.01372034  1
  O2-  O120  1  0.25367531  0.00012708  0.05502145  1
  O2-  O121  1  0.25222380  -0.00048993  0.39603150  1
  O2-  O122  1  0.25513207  0.00417213  0.72984703  1
  O2-  O123  1  0.24811320  0.50222331  0.06446814  1
  O2-  O124  1  0.24542430  0.50323553  0.39869159  1
  O2-  O125  1  0.24448146  0.49518176  0.72733868  1
  O2-  O126  1  0.74832230  -0.00734293  0.05972629  1
  O2-  O127  1  0.76131417  -0.00358763  0.39624957  1
  O2-  O128  1  0.75053792  -0.00196686  0.72406744  1
  O2-  O129  1  0.75442711  0.49666016  0.05597102  1
  O2-  O130  1  0.75243456  0.50340427  0.39322964  1
  O2-  O131  1  0.74592685  0.49507226  0.72885210  1
  O2-  O132  1  0.00730177  0.25005812  0.27489008  1
  O2-  O133  1  0.00225503  0.25390926  0.60871980  1
  O2-  O134  1  0.00157268  0.25244494  0.93404227  1
  O2-  O135  1  0.00341367  0.75603180  0.26997892  1
  O2-  O136  1  0.00383642  0.74550539  0.60629732  1
  O2-  O137  1  -0.00298724  0.74771706  0.93282509  1
  O2-  O138  1  0.49779354  0.24740240  0.27692804  1
  O2-  O139  1  0.50005145  0.24820633  0.60723569  1
  O2-  O140  1  0.50330146  0.24579270  0.93841131  1
  O2-  O141  1  0.50360253  0.74336742  0.27298072  1
  O2-  O142  1  0.49291823  0.75313571  0.60543848  1
  O2-  O143  1  0.50211357  0.74474649  0.94147027  1
  O2-  O144  1  0.07250533  0.17785418  0.09878408  1
  O2-  O145  1  0.07154377  0.17997220  0.42446249  1
  O2-  O146  1  0.06907766  0.17758874  0.75392982  1
  O2-  O147  1  0.07297604  0.68090324  0.09576994  1
  O2-  O148  1  0.07020198  0.68053085  0.43338819  1
  O2-  O149  1  0.07041295  0.67824533  0.75621716  1
  O2-  O150  1  0.57146838  0.17710820  0.08850577  1
  O2-  O151  1  0.57302555  0.18009646  0.42356107  1
  O2-  O152  1  0.57445092  0.17991403  0.75505840  1
  O2-  O153  1  0.57544793  0.67479977  0.08929367  1
  O2-  O154  1  0.57266046  0.67560910  0.42212780  1
  O2-  O155  1  0.56922767  0.68276242  0.76543526  1
  O2-  O156  1  0.17885524  0.42601831  0.23498795  1
  O2-  O157  1  0.17796709  0.42236010  0.57889779  1
  O2-  O158  1  0.18411039  0.42737494  0.90028457  1
  O2-  O159  1  0.17989228  0.93065564  0.23231702  1
  O2-  O160  1  0.17776724  0.93240795  0.56968699  1
  O2-  O161  1  0.17977704  0.93329984  0.90894484  1
  O2-  O162  1  0.67885320  0.42754244  0.23325370  1
  O2-  O163  1  0.68102314  0.42231521  0.57926756  1
  O2-  O164  1  0.67964884  0.42888558  0.90845406  1
  O2-  O165  1  0.67744007  0.93395012  0.23422614  1
  O2-  O166  1  0.67716205  0.93086494  0.57726768  1
  O2-  O167  1  0.67471732  0.92969562  0.91022046  1
  O2-  O168  1  0.43271219  0.31881529  0.10117401  1
  O2-  O169  1  0.43277584  0.31948648  0.42547310  1
  O2-  O170  1  0.43039365  0.31819958  0.75443478  1
  O2-  O171  1  0.43120302  0.82784945  0.09853915  1
  O2-  O172  1  0.43368107  0.81904616  0.43570720  1
  O2-  O173  1  0.43002208  0.82488535  0.75541187  1
  O2-  O174  1  0.92280148  0.31742557  0.09675385  1
  O2-  O175  1  0.92724825  0.31760990  0.43514728  1
  O2-  O176  1  0.92445664  0.31890645  0.75565805  1
  O2-  O177  1  0.93008052  0.81981254  0.09900600  1
  O2-  O178  1  0.92605483  0.81859056  0.43162298  1
  O2-  O179  1  0.92991335  0.82171917  0.76553551  1
  O2-  O180  1  0.32338219  0.07323736  0.23238358  1
  O2-  O181  1  0.32278230  0.07587298  0.58044764  1
  O2-  O182  1  0.32338229  0.06931997  0.90619677  1
  O2-  O183  1  0.32375048  0.56948412  0.23568080  1
  O2-  O184  1  0.32146851  0.56814886  0.56977195  1
  O2-  O185  1  0.32432831  0.56924919  0.90302891  1
  O2-  O186  1  0.81669081  0.07651396  0.24635908  1
  O2-  O187  1  0.81618478  0.07617712  0.57702896  1
  O2-  O188  1  0.81810296  0.06969403  0.90112273  1
  O2-  O189  1  0.81865086  0.57071699  0.24241592  1
  O2-  O190  1  0.81829942  0.56792923  0.56708783  1
  O2-  O191  1  0.81667977  0.57448394  0.90964722  1
  O2-  O192  1  0.04834842  0.08741731  0.27154570  1
  O2-  O193  1  0.03697687  0.08987007  0.59985368  1
  O2-  O194  1  0.03778809  0.08315249  0.93029523  1
  O2-  O195  1  0.04067663  0.58376329  0.26466700  1
  O2-  O196  1  0.04873284  0.58207516  0.60712704  1
  O2-  O197  1  0.04701696  0.57982235  0.92911967  1
  O2-  O198  1  0.54733430  0.08679537  0.27005006  1
  O2-  O199  1  0.54510898  0.08637003  0.60307808  1
  O2-  O200  1  0.54873712  0.08502363  0.93397368  1
  O2-  O201  1  0.54800185  0.57956363  0.27267909  1
  O2-  O202  1  0.54184782  0.58031412  0.59997533  1
  O2-  O203  1  0.54893890  0.58368553  0.93521331  1
  O2-  O204  1  0.16999198  0.20308402  0.27525324  1
  O2-  O205  1  0.16364056  0.20216727  0.60280848  1
  O2-  O206  1  0.16959842  0.20378933  0.92755448  1
  O2-  O207  1  0.17150132  0.70595338  0.26656612  1
  O2-  O208  1  0.16753514  0.70481241  0.60892410  1
  O2-  O209  1  0.16870594  0.71036123  0.92834756  1
  O2-  O210  1  0.66135649  0.21007672  0.26970085  1
  O2-  O211  1  0.66308984  0.20776947  0.60087558  1
  O2-  O212  1  0.66465244  0.20565672  0.93594746  1
  O2-  O213  1  0.66572711  0.69944933  0.27013632  1
  O2-  O214  1  0.66346966  0.71085004  0.59645340  1
  O2-  O215  1  0.66410392  0.70530901  0.93566437  1
  O2-  O216  1  0.07667648  0.45073119  0.06203763  1
  O2-  O217  1  0.07510386  0.45418240  0.39872108  1
  O2-  O218  1  0.08217807  0.44653605  0.72900993  1
  O2-  O219  1  0.08945640  0.96041508  0.06166422  1
  O2-  O220  1  0.08044600  0.96046837  0.40092198  1
  O2-  O221  1  0.08188112  0.96676959  0.73530205  1
  O2-  O222  1  0.59032416  0.45872512  0.06217817  1
  O2-  O223  1  0.58484936  0.45588583  0.40510717  1
  O2-  O224  1  0.58379760  0.44965812  0.72816695  1
  O2-  O225  1  0.58389301  0.95914951  0.06187070  1
  O2-  O226  1  0.58938209  0.96471838  0.40560000  1
  O2-  O227  1  0.58654291  0.95988586  0.72996044  1
  O2-  O228  1  0.20936329  0.32853884  0.06426701  1
  O2-  O229  1  0.20643185  0.33347046  0.40484424  1
  O2-  O230  1  0.20485901  0.33091384  0.72868830  1
  O2-  O231  1  0.20824644  0.83857842  0.05884459  1
  O2-  O232  1  0.20697846  0.83208336  0.40125255  1
  O2-  O233  1  0.20652858  0.83577562  0.73976841  1
  O2-  O234  1  0.70439307  0.33552672  0.06069600  1
  O2-  O235  1  0.71030325  0.33177001  0.40264405  1
  O2-  O236  1  0.70490240  0.33201480  0.73146848  1
  O2-  O237  1  0.69527992  0.83244918  0.06164720  1
  O2-  O238  1  0.70617990  0.82923564  0.40054745  1
  O2-  O239  1  0.70218261  0.83628448  0.72871319  1
  O2-  O240  1  0.46223419  0.41120001  0.27333738  1
  O2-  O241  1  0.45789055  0.41044013  0.60145040  1
  O2-  O242  1  0.46544180  0.41579812  0.93208147  1
  O2-  O243  1  0.46654615  0.91670057  0.26990588  1
  O2-  O244  1  0.45230341  0.91813208  0.60620022  1
  O2-  O245  1  0.46207506  0.91622702  0.92643002  1
  O2-  O246  1  0.95101328  0.41780422  0.26631091  1
  O2-  O247  1  0.95271538  0.41452835  0.60520185  1
  O2-  O248  1  0.95031728  0.42086119  0.93012722  1
  O2-  O249  1  0.94769535  0.92689659  0.27161784  1
  O2-  O250  1  0.95712698  0.91857643  0.59926792  1
  O2-  O251  1  0.95750704  0.91903893  0.93456427  1
  O2-  O252  1  0.33650262  0.29494767  0.27499805  1
  O2-  O253  1  0.33706254  0.29159256  0.60209198  1
  O2-  O254  1  0.33661655  0.28964988  0.92896397  1
  O2-  O255  1  0.33472589  0.79416267  0.26836157  1
  O2-  O256  1  0.33034053  0.79820037  0.60941494  1
  O2-  O257  1  0.33394903  0.79362546  0.92903568  1
  O2-  O258  1  0.83296935  0.28509037  0.26837396  1
  O2-  O259  1  0.83669228  0.28925737  0.60391329  1
  O2-  O260  1  0.82945178  0.28904152  0.92926884  1
  O2-  O261  1  0.82893146  0.79393953  0.26444023  1
  O2-  O262  1  0.83174441  0.78976350  0.60147276  1
  O2-  O263  1  0.82704328  0.79581952  0.93610524  1
  O2-  O264  1  0.41684307  0.04584458  0.05644215  1
  O2-  O265  1  0.42295689  0.04780242  0.39947645  1
  O2-  O266  1  0.41774391  0.05237054  0.73087274  1
  O2-  O267  1  0.42210684  0.54378985  0.06728461  1
  O2-  O268  1  0.41756519  0.53909597  0.40311026  1
  O2-  O269  1  0.41748367  0.53536141  0.73528266  1
  O2-  O270  1  0.91810649  0.04200871  0.06999892  1
  O2-  O271  1  0.91787148  0.05866351  0.39558333  1
  O2-  O272  1  0.91185543  0.04626380  0.72746359  1
  O2-  O273  1  0.91506842  0.54957739  0.05887738  1
  O2-  O274  1  0.91375783  0.54525860  0.39472332  1
  O2-  O275  1  0.91602097  0.54105518  0.73517397  1
  O2-  O276  1  0.29636890  0.16332220  0.05723597  1
  O2-  O277  1  0.29593799  0.16880957  0.40420389  1
  O2-  O278  1  0.29456350  0.16757123  0.73066362  1
  O2-  O279  1  0.29526415  0.67361443  0.06476871  1
  O2-  O280  1  0.29556015  0.67052513  0.40293837  1
  O2-  O281  1  0.29432691  0.66637761  0.73734385  1
  O2-  O282  1  0.78708230  0.16510085  0.06924085  1
  O2-  O283  1  0.78532120  0.16136498  0.40140665  1
  O2-  O284  1  0.78727459  0.16178486  0.73104379  1
  O2-  O285  1  0.78806834  0.66177420  0.06449724  1
  O2-  O286  1  0.79517982  0.66477619  0.39489608  1
  O2-  O287  1  0.78439282  0.66619028  0.73484949  1
