# generated using pymatgen
data_Ca2Al2SiO7
_symmetry_space_group_name_H-M   'P 1'
_cell_length_a   15.45959931
_cell_length_b   15.45788044
_cell_length_c   15.28319032
_cell_angle_alpha   90.00256498
_cell_angle_beta   90.01913921
_cell_angle_gamma   89.98009534
_symmetry_Int_Tables_number   1
_chemical_formula_structural   Ca2Al2SiO7
_chemical_formula_sum   'Ca48 Al48 Si24 O168'
_cell_volume   3652.26387623
_cell_formula_units_Z   24
loop_
 _symmetry_equiv_pos_site_id
 _symmetry_equiv_pos_as_xyz
  1  'x, y, z'
loop_
 _atom_type_symbol
 _atom_type_oxidation_number
  Ca2+  2.0
  Al0+  0.0
  Si0+  0.0
  O2-  -2.0
loop_
 _atom_site_type_symbol
 _atom_site_label
 _atom_site_symmetry_multiplicity
 _atom_site_fract_x
 _atom_site_fract_y
 _atom_site_fract_z
 _atom_site_occupancy
  Ca2+  Ca0  1  0.16787666  0.08026419  0.17109575  1
  Ca2+  Ca1  1  0.17417073  0.08095724  0.50324057  1
  Ca2+  Ca2  1  0.16433332  0.07145500  0.84016436  1
  Ca2+  Ca3  1  0.15623455  0.57613421  0.17302817  1
  Ca2+  Ca4  1  0.16135242  0.57418017  0.50471777  1
  Ca2+  Ca5  1  0.16376616  0.57205547  0.84115723  1
  Ca2+  Ca6  1  0.67463777  0.08624647  0.17329718  1
  Ca2+  Ca7  1  0.66981677  0.08754305  0.50676703  1
  Ca2+  Ca8  1  0.67846083  0.08780108  0.83669205  1
  Ca2+  Ca9  1  0.65874599  0.57692306  0.17176774  1
  Ca2+  Ca10  1  0.65544919  0.58195925  0.50082425  1
  Ca2+  Ca11  1  0.66027454  0.58169408  0.84167733  1
  Ca2+  Ca12  1  0.09439953  0.32378044  0.16321266  1
  Ca2+  Ca13  1  0.08619766  0.33105609  0.49168796  1
  Ca2+  Ca14  1  0.09104841  0.32787231  0.83172123  1
  Ca2+  Ca15  1  0.08308755  0.82308661  0.15607890  1
  Ca2+  Ca16  1  0.07985576  0.83485528  0.49711226  1
  Ca2+  Ca17  1  0.07787600  0.83999071  0.83127219  1
  Ca2+  Ca18  1  0.58923788  0.33206696  0.16407137  1
  Ca2+  Ca19  1  0.57976904  0.32439748  0.49628547  1
  Ca2+  Ca20  1  0.57813083  0.33167829  0.82474003  1
  Ca2+  Ca21  1  0.57664698  0.82502452  0.16324595  1
  Ca2+  Ca22  1  0.57354780  0.82658526  0.49277803  1
  Ca2+  Ca23  1  0.57923866  0.82158198  0.82372005  1
  Ca2+  Ca24  1  0.32234023  0.41962358  0.17118853  1
  Ca2+  Ca25  1  0.32343102  0.41309111  0.50549701  1
  Ca2+  Ca26  1  0.32782609  0.41450133  0.83600576  1
  Ca2+  Ca27  1  0.33003462  0.91935330  0.17381478  1
  Ca2+  Ca28  1  0.33436002  0.91646727  0.50426899  1
  Ca2+  Ca29  1  0.32351543  0.90874373  0.83426576  1
  Ca2+  Ca30  1  0.82183172  0.41784769  0.17085463  1
  Ca2+  Ca31  1  0.82648268  0.41892348  0.50088886  1
  Ca2+  Ca32  1  0.82374214  0.42121069  0.84092653  1
  Ca2+  Ca33  1  0.83859685  0.91897752  0.16321686  1
  Ca2+  Ca34  1  0.83321406  0.92261490  0.51032055  1
  Ca2+  Ca35  1  0.84217788  0.92426579  0.83765342  1
  Ca2+  Ca36  1  0.41944054  0.16372002  0.16858075  1
  Ca2+  Ca37  1  0.42256668  0.16721312  0.49434474  1
  Ca2+  Ca38  1  0.42431820  0.17447266  0.82366439  1
  Ca2+  Ca39  1  0.42282160  0.66643055  0.16650519  1
  Ca2+  Ca40  1  0.42057873  0.67744507  0.49691329  1
  Ca2+  Ca41  1  0.42631311  0.66764154  0.82691643  1
  Ca2+  Ca42  1  0.92819959  0.16596663  0.16021428  1
  Ca2+  Ca43  1  0.92337362  0.16629345  0.49637262  1
  Ca2+  Ca44  1  0.91930823  0.16027604  0.83341527  1
  Ca2+  Ca45  1  0.92665284  0.67119801  0.15993795  1
  Ca2+  Ca46  1  0.92154413  0.67400935  0.49604799  1
  Ca2+  Ca47  1  0.92093799  0.67956356  0.83173634  1
  Al0+  Al48  1  0.00217285  0.00149064  0.00316682  1
  Al0+  Al49  1  0.00017100  0.00218386  0.33035271  1
  Al0+  Al50  1  0.00040216  0.00044476  0.66857821  1
  Al0+  Al51  1  -0.00288345  0.49823442  0.00130716  1
  Al0+  Al52  1  -0.00459061  0.50065027  0.33511266  1
  Al0+  Al53  1  -0.00227755  0.49827666  0.67300493  1
  Al0+  Al54  1  0.50136686  0.00062384  -0.00258027  1
  Al0+  Al55  1  0.50074988  0.00170096  0.32876262  1
  Al0+  Al56  1  0.50218632  -0.00097802  0.66329449  1
  Al0+  Al57  1  0.49789604  0.49892866  0.00142281  1
  Al0+  Al58  1  0.49706061  0.49931280  0.33682899  1
  Al0+  Al59  1  0.49696351  0.49781281  0.65925858  1
  Al0+  Al60  1  0.25149141  0.24982962  -0.00137771  1
  Al0+  Al61  1  0.25065787  0.24841189  0.33754815  1
  Al0+  Al62  1  0.25029790  0.24838415  0.66776601  1
  Al0+  Al63  1  0.25102420  0.74779129  0.00104151  1
  Al0+  Al64  1  0.24797001  0.74958161  0.32640096  1
  Al0+  Al65  1  0.25059375  0.74689106  0.66842440  1
  Al0+  Al66  1  0.75220273  0.24966934  0.00846330  1
  Al0+  Al67  1  0.74983974  0.25185639  0.33539583  1
  Al0+  Al68  1  0.75265359  0.25168329  0.66833038  1
  Al0+  Al69  1  0.75041890  0.75124627  -0.00675510  1
  Al0+  Al70  1  0.74958661  0.75119588  0.32965960  1
  Al0+  Al71  1  0.75309202  0.74984412  0.65854045  1
  Al0+  Al72  1  0.17798706  0.42873461  0.01456984  1
  Al0+  Al73  1  0.17794810  0.43046423  0.34718911  1
  Al0+  Al74  1  0.17780202  0.42736617  0.68193842  1
  Al0+  Al75  1  0.67764511  0.43088150  0.01278465  1
  Al0+  Al76  1  0.07199864  0.18088889  0.32071874  1
  Al0+  Al77  1  0.42638306  0.31914662  0.64984560  1
  Al0+  Al78  1  0.42780637  0.82281406  0.31625870  1
  Al0+  Al79  1  0.67713766  0.42972393  0.35005394  1
  Al0+  Al80  1  0.18105518  0.92848523  0.01486238  1
  Al0+  Al81  1  0.06865612  0.67836381  0.32174013  1
  Al0+  Al82  1  0.57461061  0.17984793  0.65334764  1
  Al0+  Al83  1  0.93179420  0.82193405  0.98437017  1
  Al0+  Al84  1  0.42617894  0.82095463  0.65241941  1
  Al0+  Al85  1  0.32181916  0.06903178  0.34715571  1
  Al0+  Al86  1  0.82069314  0.06952207  0.01661442  1
  Al0+  Al87  1  0.57054686  0.67778195  0.31671205  1
  Al0+  Al88  1  0.18084049  0.92875997  0.67872444  1
  Al0+  Al89  1  0.57221594  0.18112957  0.31791221  1
  Al0+  Al90  1  0.56860886  0.67873740  0.98690743  1
  Al0+  Al91  1  0.07207393  0.18136962  0.98524052  1
  Al0+  Al92  1  0.07322910  0.67486096  0.98348309  1
  Al0+  Al93  1  0.93265340  0.82268854  0.65152387  1
  Al0+  Al94  1  0.82001838  0.07139074  0.68032062  1
  Al0+  Al95  1  0.57241146  0.67786600  0.65057496  1
  Si0+  Si96  1  0.82204358  0.07082904  0.34924356  1
  Si0+  Si97  1  0.82163815  0.57300189  0.68256549  1
  Si0+  Si98  1  0.07059347  0.67467077  0.65206193  1
  Si0+  Si99  1  0.32187511  0.56984163  0.68383241  1
  Si0+  Si100  1  0.67862029  0.92569951  0.68176556  1
  Si0+  Si101  1  0.17703603  0.92707765  0.34881233  1
  Si0+  Si102  1  0.42688895  0.32099893  0.31557132  1
  Si0+  Si103  1  0.67910296  0.43184367  0.68043390  1
  Si0+  Si104  1  0.32059849  0.57405955  0.35150099  1
  Si0+  Si105  1  0.32450001  0.07250433  0.01535182  1
  Si0+  Si106  1  0.81988933  0.57409546  0.35111143  1
  Si0+  Si107  1  0.42789939  0.82464595  0.98245427  1
  Si0+  Si108  1  0.57461079  0.17910823  0.98610710  1
  Si0+  Si109  1  0.67999846  0.92945406  0.34717294  1
  Si0+  Si110  1  0.67634190  0.92704988  0.01622248  1
  Si0+  Si111  1  0.32200528  0.57049881  0.01744432  1
  Si0+  Si112  1  0.92720482  0.32221213  0.31686032  1
  Si0+  Si113  1  0.82046728  0.57465359  0.01642312  1
  Si0+  Si114  1  0.92929264  0.32331391  0.65250835  1
  Si0+  Si115  1  0.06965692  0.17934550  0.65269570  1
  Si0+  Si116  1  0.92767579  0.82464794  0.31622637  1
  Si0+  Si117  1  0.32504437  0.07160090  0.68360036  1
  Si0+  Si118  1  0.92511902  0.32034207  0.98338623  1
  Si0+  Si119  1  0.43050407  0.31946466  0.98639212  1
  O2-  O120  1  0.25882084  0.00104077  0.05956799  1
  O2-  O121  1  0.24835393  -0.00732155  0.39348718  1
  O2-  O122  1  0.25917211  -0.00025625  0.72681800  1
  O2-  O123  1  0.24597056  0.50936364  0.06137013  1
  O2-  O124  1  0.24983828  0.50685090  0.39548273  1
  O2-  O125  1  0.25221124  0.50211308  0.72857377  1
  O2-  O126  1  0.74460183  -0.00442793  0.06227260  1
  O2-  O127  1  0.75189653  -0.00069366  0.39101946  1
  O2-  O128  1  0.74410103  -0.00257780  0.72683390  1
  O2-  O129  1  0.74945988  0.50795950  0.06025478  1
  O2-  O130  1  0.74764490  0.50906579  0.39626638  1
  O2-  O131  1  0.74413515  0.50782845  0.72356560  1
  O2-  O132  1  -0.00041449  0.25743394  0.27316118  1
  O2-  O133  1  0.00274329  0.25454251  0.61086393  1
  O2-  O134  1  -0.00189538  0.25686129  0.93779509  1
  O2-  O135  1  -0.00270979  0.75591102  0.27467655  1
  O2-  O136  1  0.00746769  0.74769474  0.60603178  1
  O2-  O137  1  0.00509189  0.75086073  0.93393087  1
  O2-  O138  1  0.49925006  0.25692500  0.26963784  1
  O2-  O139  1  0.49845869  0.24625712  0.60176328  1
  O2-  O140  1  0.50303739  0.24941490  0.94451165  1
  O2-  O141  1  0.49823548  0.74893518  0.26649307  1
  O2-  O142  1  0.50226721  0.75285650  0.60314333  1
  O2-  O143  1  0.49711745  0.75569938  0.93952049  1
  O2-  O144  1  0.07237607  0.18259431  0.09839961  1
  O2-  O145  1  0.06869158  0.17979387  0.43437676  1
  O2-  O146  1  0.06824746  0.17914619  0.75780710  1
  O2-  O147  1  0.06833539  0.67498246  0.09726767  1
  O2-  O148  1  0.06592981  0.67829240  0.43522184  1
  O2-  O149  1  0.06619076  0.67217302  0.75721134  1
  O2-  O150  1  0.57412943  0.17936950  0.09111238  1
  O2-  O151  1  0.57382136  0.18155915  0.43064177  1
  O2-  O152  1  0.57604985  0.18528447  0.76763419  1
  O2-  O153  1  0.56577487  0.67763631  0.09953837  1
  O2-  O154  1  0.56978314  0.68153264  0.42986783  1
  O2-  O155  1  0.57061059  0.67664546  0.76469582  1
  O2-  O156  1  0.18019342  0.43021988  0.23412432  1
  O2-  O157  1  0.17551786  0.42932067  0.56871789  1
  O2-  O158  1  0.18363056  0.42648612  0.90146351  1
  O2-  O159  1  0.17597909  0.92973324  0.24338868  1
  O2-  O160  1  0.17829608  0.93280614  0.56556321  1
  O2-  O161  1  0.18134864  0.93128958  0.90134940  1
  O2-  O162  1  0.68106717  0.42844736  0.23683589  1
  O2-  O163  1  0.68336471  0.43010022  0.57554650  1
  O2-  O164  1  0.67798752  0.43049925  0.89906450  1
  O2-  O165  1  0.68226019  0.93041469  0.24198322  1
  O2-  O166  1  0.68201769  0.92593262  0.57587133  1
  O2-  O167  1  0.67380487  0.92967835  0.91077163  1
  O2-  O168  1  0.42969328  0.31899173  0.09125915  1
  O2-  O169  1  0.42652621  0.31729244  0.42094934  1
  O2-  O170  1  0.42922434  0.31976575  0.76438828  1
  O2-  O171  1  0.43004205  0.82691017  0.08775402  1
  O2-  O172  1  0.42965636  0.82263991  0.42974988  1
  O2-  O173  1  0.42684711  0.81709497  0.76630404  1
  O2-  O174  1  0.92178594  0.31696798  0.08876712  1
  O2-  O175  1  0.92640259  0.32030748  0.42310821  1
  O2-  O176  1  0.92644654  0.32410790  0.75732871  1
  O2-  O177  1  0.93208062  0.81965147  0.09828324  1
  O2-  O178  1  0.92809931  0.82639729  0.42210984  1
  O2-  O179  1  0.93306036  0.82355773  0.76398032  1
  O2-  O180  1  0.31958406  0.06952344  0.23378194  1
  O2-  O181  1  0.32176414  0.07409293  0.57808755  1
  O2-  O182  1  0.32520655  0.07387080  0.90976687  1
  O2-  O183  1  0.32178519  0.57097476  0.24577471  1
  O2-  O184  1  0.31993018  0.57007582  0.57841287  1
  O2-  O185  1  0.32687659  0.56527347  0.91201247  1
  O2-  O186  1  0.82246987  0.07022180  0.24431067  1
  O2-  O187  1  0.82148473  0.07076402  0.56681587  1
  O2-  O188  1  0.81848260  0.07117342  0.90341095  1
  O2-  O189  1  0.82189070  0.57152839  0.24577499  1
  O2-  O190  1  0.82678803  0.56907002  0.57773491  1
  O2-  O191  1  0.81947935  0.57239155  0.91043216  1
  O2-  O192  1  0.03924619  0.08552215  0.26532068  1
  O2-  O193  1  0.03699305  0.09039471  0.60371581  1
  O2-  O194  1  0.03872449  0.08544118  0.93278805  1
  O2-  O195  1  0.03336360  0.58306032  0.26744742  1
  O2-  O196  1  0.03795600  0.58266787  0.60589218  1
  O2-  O197  1  0.04088625  0.57645832  0.93207444  1
  O2-  O198  1  0.54248880  0.08553236  0.26234670  1
  O2-  O199  1  0.55460904  0.07884061  0.60317134  1
  O2-  O200  1  0.54903226  0.08718992  0.93772550  1
  O2-  O201  1  0.54133309  0.57751828  0.26767087  1
  O2-  O202  1  0.54143239  0.58066088  0.59783400  1
  O2-  O203  1  0.53502193  0.58214502  0.93342235  1
  O2-  O204  1  0.16878376  0.21056264  0.26733574  1
  O2-  O205  1  0.16280386  0.20313369  0.60686649  1
  O2-  O206  1  0.16871820  0.21128875  0.93038255  1
  O2-  O207  1  0.16510177  0.70242110  0.26533743  1
  O2-  O208  1  0.16653149  0.69334141  0.60969899  1
  O2-  O209  1  0.17502491  0.69601610  0.93494417  1
  O2-  O210  1  0.66950799  0.21265701  0.26498038  1
  O2-  O211  1  0.67154888  0.21358317  0.59994179  1
  O2-  O212  1  0.66659880  0.20895893  0.94095441  1
  O2-  O213  1  0.66986427  0.70534522  0.26480596  1
  O2-  O214  1  0.67192080  0.70100025  0.59789504  1
  O2-  O215  1  0.66606461  0.70513414  0.93269310  1
  O2-  O216  1  0.07777999  0.45015478  0.06579760  1
  O2-  O217  1  0.07890825  0.45748309  0.39938386  1
  O2-  O218  1  0.08077436  0.45610519  0.73686334  1
  O2-  O219  1  0.08663122  0.96249035  0.07002350  1
  O2-  O220  1  0.08376548  0.95676368  0.39458287  1
  O2-  O221  1  0.08678159  0.96569947  0.73395803  1
  O2-  O222  1  0.58074854  0.45829156  0.06772423  1
  O2-  O223  1  0.57866972  0.45469736  0.40311086  1
  O2-  O224  1  0.58419787  0.45369828  0.72436295  1
  O2-  O225  1  0.58265010  0.95293998  0.06270195  1
  O2-  O226  1  0.58873620  0.95920268  0.39353596  1
  O2-  O227  1  0.58347472  0.94604304  0.72700054  1
  O2-  O228  1  0.21668571  0.33371992  0.06747791  1
  O2-  O229  1  0.21065775  0.33450073  0.40129165  1
  O2-  O230  1  0.20917021  0.33017835  0.73496192  1
  O2-  O231  1  0.20774702  0.82975300  0.06726951  1
  O2-  O232  1  0.19787055  0.83139122  0.39227596  1
  O2-  O233  1  0.20600390  0.83006225  0.73242125  1
  O2-  O234  1  0.71167272  0.33639763  0.06905894  1
  O2-  O235  1  0.71437079  0.33500799  0.40487169  1
  O2-  O236  1  0.71300132  0.34265856  0.72951240  1
  O2-  O237  1  0.70344040  0.83320707  0.06106924  1
  O2-  O238  1  0.70653843  0.83712480  0.39455634  1
  O2-  O239  1  0.70760933  0.83209421  0.72632187  1
  O2-  O240  1  0.44713536  0.41673044  0.27271422  1
  O2-  O241  1  0.45272670  0.41632073  0.59522474  1
  O2-  O242  1  0.45779879  0.41058920  0.93774410  1
  O2-  O243  1  0.45940594  0.91948921  0.26214292  1
  O2-  O244  1  0.44998522  0.92099733  0.60121725  1
  O2-  O245  1  0.45210631  0.91840392  0.93513618  1
  O2-  O246  1  0.94615979  0.41739292  0.27268915  1
  O2-  O247  1  0.95496109  0.41521317  0.60412272  1
  O2-  O248  1  0.94371490  0.41614234  0.93971427  1
  O2-  O249  1  0.95237582  0.91808243  0.26990891  1
  O2-  O250  1  0.96421814  0.91894701  0.59673626  1
  O2-  O251  1  0.96152103  0.92075925  0.93358867  1
  O2-  O252  1  0.33524939  0.28995082  0.26890094  1
  O2-  O253  1  0.32766972  0.29053668  0.59747651  1
  O2-  O254  1  0.34074593  0.28968775  0.93625263  1
  O2-  O255  1  0.32891777  0.79670079  0.26337797  1
  O2-  O256  1  0.32880172  0.78941027  0.59815729  1
  O2-  O257  1  0.33424089  0.79759135  0.93844351  1
  O2-  O258  1  0.83571813  0.29194963  0.26993951  1
  O2-  O259  1  0.83941482  0.29301735  0.60284200  1
  O2-  O260  1  0.83328481  0.28919356  0.93570827  1
  O2-  O261  1  0.83465402  0.79939776  0.26952724  1
  O2-  O262  1  0.83734891  0.79240611  0.59496550  1
  O2-  O263  1  0.83302865  0.79592511  0.93017181  1
  O2-  O264  1  0.41991149  0.05044848  0.06054045  1
  O2-  O265  1  0.42018980  0.04155302  0.39963611  1
  O2-  O266  1  0.42090425  0.05165637  0.72785175  1
  O2-  O267  1  0.41092081  0.53539078  0.06782711  1
  O2-  O268  1  0.41290805  0.54750370  0.39934695  1
  O2-  O269  1  0.41532108  0.54055282  0.72967642  1
  O2-  O270  1  0.91673857  0.03856691  0.07113216  1
  O2-  O271  1  0.91437849  0.04358294  0.39670287  1
  O2-  O272  1  0.91567899  0.03864354  0.73479658  1
  O2-  O273  1  0.91227929  0.54547106  0.06435117  1
  O2-  O274  1  0.91042180  0.54344149  0.40144205  1
  O2-  O275  1  0.90877840  0.53856080  0.73477394  1
  O2-  O276  1  0.29614464  0.16481499  0.06230785  1
  O2-  O277  1  0.28884364  0.16371622  0.40370792  1
  O2-  O278  1  0.29596466  0.16369009  0.73132162  1
  O2-  O279  1  0.30663315  0.66664984  0.06138763  1
  O2-  O280  1  0.29536973  0.66894223  0.39486012  1
  O2-  O281  1  0.29948599  0.66313672  0.73191933  1
  O2-  O282  1  0.78997368  0.16471589  0.07348421  1
  O2-  O283  1  0.79428396  0.16291798  0.39591396  1
  O2-  O284  1  0.79189848  0.16881575  0.73560798  1
  O2-  O285  1  0.79795573  0.66951502  0.06057560  1
  O2-  O286  1  0.79924117  0.67009233  0.39518127  1
  O2-  O287  1  0.79974688  0.66751591  0.72691197  1
