# generated using pymatgen
data_Ca2Al2SiO7
_symmetry_space_group_name_H-M   'P 1'
_cell_length_a   15.46331031
_cell_length_b   15.46166981
_cell_length_c   15.28679160
_cell_angle_alpha   89.98973139
_cell_angle_beta   90.00870129
_cell_angle_gamma   89.97734020
_symmetry_Int_Tables_number   1
_chemical_formula_structural   Ca2Al2SiO7
_chemical_formula_sum   'Ca48 Al48 Si24 O168'
_cell_volume   3654.89718747
_cell_formula_units_Z   24
loop_
 _symmetry_equiv_pos_site_id
 _symmetry_equiv_pos_as_xyz
  1  'x, y, z'
loop_
 _atom_type_symbol
 _atom_type_oxidation_number
  Ca2+  2.0
  Al0+  0.0
  Si0+  0.0
  O2-  -2.0
loop_
 _atom_site_type_symbol
 _atom_site_label
 _atom_site_symmetry_multiplicity
 _atom_site_fract_x
 _atom_site_fract_y
 _atom_site_fract_z
 _atom_site_occupancy
  Ca2+  Ca0  1  0.17713950  0.08741078  0.16575086  1
  Ca2+  Ca1  1  0.17361053  0.08629685  0.50514396  1
  Ca2+  Ca2  1  0.16924340  0.08488588  0.84297752  1
  Ca2+  Ca3  1  0.16673871  0.58506414  0.16860111  1
  Ca2+  Ca4  1  0.17350430  0.57695308  0.51564896  1
  Ca2+  Ca5  1  0.16764203  0.58370592  0.83347691  1
  Ca2+  Ca6  1  0.66754334  0.07665667  0.17346406  1
  Ca2+  Ca7  1  0.65793373  0.08156980  0.50326353  1
  Ca2+  Ca8  1  0.67122277  0.08483065  0.83959421  1
  Ca2+  Ca9  1  0.66441970  0.58396843  0.16559433  1
  Ca2+  Ca10  1  0.66287235  0.57923629  0.50943098  1
  Ca2+  Ca11  1  0.65972258  0.57627331  0.84056294  1
  Ca2+  Ca12  1  0.07512535  0.32824591  0.16082026  1
  Ca2+  Ca13  1  0.08206451  0.33382710  0.49944888  1
  Ca2+  Ca14  1  0.08690472  0.32233618  0.82738338  1
  Ca2+  Ca15  1  0.07616457  0.82833254  0.15441123  1
  Ca2+  Ca16  1  0.08528030  0.82633327  0.50257227  1
  Ca2+  Ca17  1  0.07848643  0.82239962  0.83281190  1
  Ca2+  Ca18  1  0.57795238  0.32807617  0.15953743  1
  Ca2+  Ca19  1  0.58382885  0.32609763  0.50100236  1
  Ca2+  Ca20  1  0.57673510  0.33562890  0.82640247  1
  Ca2+  Ca21  1  0.58613884  0.82553480  0.16090504  1
  Ca2+  Ca22  1  0.58147608  0.82418035  0.49614032  1
  Ca2+  Ca23  1  0.57455683  0.82440616  0.82981545  1
  Ca2+  Ca24  1  0.33449601  0.41509531  0.16547781  1
  Ca2+  Ca25  1  0.33122261  0.42281779  0.51412699  1
  Ca2+  Ca26  1  0.33577205  0.41754850  0.83339508  1
  Ca2+  Ca27  1  0.34300480  0.92821258  0.16744874  1
  Ca2+  Ca28  1  0.34067240  0.92313857  0.50394808  1
  Ca2+  Ca29  1  0.33968145  0.92097129  0.84031003  1
  Ca2+  Ca30  1  0.82980333  0.42007496  0.16645801  1
  Ca2+  Ca31  1  0.82798244  0.41429556  0.50652357  1
  Ca2+  Ca32  1  0.81646409  0.42108645  0.84214016  1
  Ca2+  Ca33  1  0.83193622  0.91980951  0.16783027  1
  Ca2+  Ca34  1  0.82331616  0.91672159  0.50215061  1
  Ca2+  Ca35  1  0.83461248  0.92104538  0.84268382  1
  Ca2+  Ca36  1  0.41808933  0.16570844  0.16057047  1
  Ca2+  Ca37  1  0.42412717  0.17089417  0.49807703  1
  Ca2+  Ca38  1  0.41704097  0.17852643  0.82868373  1
  Ca2+  Ca39  1  0.42884984  0.67471023  0.15610393  1
  Ca2+  Ca40  1  0.42583743  0.66298318  0.50151461  1
  Ca2+  Ca41  1  0.42325844  0.67267922  0.82505406  1
  Ca2+  Ca42  1  0.91839769  0.16948884  0.15873801  1
  Ca2+  Ca43  1  0.92330245  0.17532794  0.49626868  1
  Ca2+  Ca44  1  0.92735716  0.15997583  0.82991025  1
  Ca2+  Ca45  1  0.91995140  0.67204450  0.15281674  1
  Ca2+  Ca46  1  0.92514139  0.65968366  0.49908472  1
  Ca2+  Ca47  1  0.92132127  0.66157880  0.83645560  1
  Al0+  Al48  1  0.00066650  -0.00068824  -0.00078262  1
  Al0+  Al49  1  0.00156737  -0.00041018  0.33556537  1
  Al0+  Al50  1  0.00085538  0.00084555  0.65948694  1
  Al0+  Al51  1  -0.00166267  0.49779802  0.00057891  1
  Al0+  Al52  1  -0.00058350  0.49911464  0.32909132  1
  Al0+  Al53  1  -0.00005479  0.49960293  0.66767642  1
  Al0+  Al54  1  0.50146567  0.00076408  0.00164686  1
  Al0+  Al55  1  0.50047493  0.00043657  0.33937691  1
  Al0+  Al56  1  0.50048986  -0.00057833  0.66379878  1
  Al0+  Al57  1  0.49689085  0.49812147  0.00019964  1
  Al0+  Al58  1  0.50073525  0.49987100  0.33011151  1
  Al0+  Al59  1  0.49904777  0.50095753  0.66748249  1
  Al0+  Al60  1  0.24988419  0.24969760  -0.00146772  1
  Al0+  Al61  1  0.24923021  0.25034988  0.33872789  1
  Al0+  Al62  1  0.25025273  0.24971276  0.66180446  1
  Al0+  Al63  1  0.24895853  0.75040325  -0.00412299  1
  Al0+  Al64  1  0.25115897  0.75025180  0.33391905  1
  Al0+  Al65  1  0.24773336  0.75237720  0.66235491  1
  Al0+  Al66  1  0.74970404  0.25012553  0.00982606  1
  Al0+  Al67  1  0.75056616  0.25104440  0.32519017  1
  Al0+  Al68  1  0.75135702  0.24975741  0.66860295  1
  Al0+  Al69  1  0.75076457  0.74883831  -0.00516602  1
  Al0+  Al70  1  0.75189632  0.74981254  0.33538184  1
  Al0+  Al71  1  0.74982622  0.75237246  0.66568353  1
  Al0+  Al72  1  0.32016425  0.07092519  0.34942106  1
  Al0+  Al73  1  0.42836384  0.31897239  0.98721713  1
  Al0+  Al74  1  0.57151230  0.67922168  0.65153292  1
  Al0+  Al75  1  0.82351024  0.07028253  0.01347602  1
  Al0+  Al76  1  0.67412588  0.42923451  0.01863081  1
  Al0+  Al77  1  0.92952368  0.32115520  0.31817852  1
  Al0+  Al78  1  0.07201111  0.67495211  0.98521892  1
  Al0+  Al79  1  0.57076161  0.67801147  0.98474686  1
  Al0+  Al80  1  0.32108100  0.07131545  0.01166518  1
  Al0+  Al81  1  0.67993426  0.42912652  0.67879519  1
  Al0+  Al82  1  0.06902057  0.18070331  0.98837789  1
  Al0+  Al83  1  0.07202245  0.17820774  0.65132493  1
  Al0+  Al84  1  0.32042682  0.57316503  0.68288216  1
  Al0+  Al85  1  0.68145052  0.92889714  0.34782832  1
  Al0+  Al86  1  0.42725275  0.82232484  0.64996177  1
  Al0+  Al87  1  0.57380098  0.17949369  0.65400774  1
  Al0+  Al88  1  0.42935536  0.82409338  0.98680268  1
  Al0+  Al89  1  0.56928764  0.17798617  0.31834127  1
  Al0+  Al90  1  0.06811183  0.67852187  0.65245243  1
  Al0+  Al91  1  0.57211480  0.67838933  0.31850093  1
  Al0+  Al92  1  0.17798770  0.42702692  0.68320606  1
  Al0+  Al93  1  0.82034420  0.57064647  0.01553464  1
  Al0+  Al94  1  0.92822013  0.82131163  0.98556730  1
  Al0+  Al95  1  0.42928898  0.32191377  0.65112166  1
  Si0+  Si96  1  0.17643199  0.93058452  0.68199666  1
  Si0+  Si97  1  0.92532036  0.32130229  0.98220959  1
  Si0+  Si98  1  0.67877338  0.92847941  0.01525009  1
  Si0+  Si99  1  0.82191404  0.06965440  0.67962735  1
  Si0+  Si100  1  0.42657289  0.32162315  0.31695599  1
  Si0+  Si101  1  0.42806934  0.82169561  0.31672644  1
  Si0+  Si102  1  0.32124821  0.06951462  0.68223721  1
  Si0+  Si103  1  0.82368324  0.07418988  0.35105187  1
  Si0+  Si104  1  0.17863550  0.92704889  0.01573324  1
  Si0+  Si105  1  0.67838229  0.92908706  0.68330236  1
  Si0+  Si106  1  0.92805468  0.82436246  0.64738152  1
  Si0+  Si107  1  0.82268140  0.57443270  0.68251052  1
  Si0+  Si108  1  0.32158159  0.57113647  0.34685955  1
  Si0+  Si109  1  0.92972874  0.82098390  0.31983913  1
  Si0+  Si110  1  0.07324441  0.17752290  0.31603835  1
  Si0+  Si111  1  0.07142983  0.67956219  0.31931255  1
  Si0+  Si112  1  0.92853599  0.32094554  0.65270852  1
  Si0+  Si113  1  0.17906460  0.42783590  0.01560717  1
  Si0+  Si114  1  0.31903859  0.57291526  0.01576729  1
  Si0+  Si115  1  0.57397873  0.17818397  0.98572966  1
  Si0+  Si116  1  0.82206755  0.57003316  0.34880794  1
  Si0+  Si117  1  0.17667120  0.92583312  0.35152910  1
  Si0+  Si118  1  0.17749870  0.43166827  0.34730337  1
  Si0+  Si119  1  0.67902103  0.42883226  0.34871982  1
  O2-  O120  1  0.25036406  -0.00711073  0.05979089  1
  O2-  O121  1  0.24468740  -0.00444364  0.39520290  1
  O2-  O122  1  0.24964228  -0.00099830  0.72445251  1
  O2-  O123  1  0.24598942  0.50305758  0.05865764  1
  O2-  O124  1  0.25032980  0.50040063  0.38907346  1
  O2-  O125  1  0.24948519  0.49949031  0.73303909  1
  O2-  O126  1  0.74816540  -0.00353660  0.06017458  1
  O2-  O127  1  0.75385013  0.00684209  0.39575057  1
  O2-  O128  1  0.75011691  0.00042183  0.72336120  1
  O2-  O129  1  0.74637804  0.50211960  0.06830913  1
  O2-  O130  1  0.74930766  0.50103001  0.39131412  1
  O2-  O131  1  0.75038864  0.50872139  0.72423099  1
  O2-  O132  1  0.00175104  0.24321573  0.27248881  1
  O2-  O133  1  0.00039899  0.25644704  0.60647889  1
  O2-  O134  1  -0.00806397  0.25091494  0.93841055  1
  O2-  O135  1  0.00372733  0.75323519  0.27776787  1
  O2-  O136  1  -0.00823082  0.75066668  0.60326532  1
  O2-  O137  1  -0.00206068  0.74617230  0.93759967  1
  O2-  O138  1  0.49274589  0.25111139  0.27230690  1
  O2-  O139  1  0.50276833  0.25123403  0.60196004  1
  O2-  O140  1  0.50685230  0.24785623  0.94207048  1
  O2-  O141  1  0.49734120  0.75365603  0.27306070  1
  O2-  O142  1  0.49848746  0.74949283  0.59994257  1
  O2-  O143  1  0.49780817  0.74971952  0.93657523  1
  O2-  O144  1  0.06999426  0.18422550  0.10179330  1
  O2-  O145  1  0.07303298  0.17935609  0.42171540  1
  O2-  O146  1  0.06920530  0.17455643  0.76418149  1
  O2-  O147  1  0.07247638  0.67828022  0.09998626  1
  O2-  O148  1  0.06979925  0.67782644  0.42419643  1
  O2-  O149  1  0.06652853  0.67994152  0.76469731  1
  O2-  O150  1  0.57107245  0.17666717  0.09163368  1
  O2-  O151  1  0.56964136  0.18121517  0.43119243  1
  O2-  O152  1  0.57437623  0.17905968  0.76746032  1
  O2-  O153  1  0.56955156  0.68102965  0.09906303  1
  O2-  O154  1  0.57094629  0.67636112  0.43118622  1
  O2-  O155  1  0.57271249  0.68183368  0.76440097  1
  O2-  O156  1  0.17653062  0.43293954  0.24193112  1
  O2-  O157  1  0.17715984  0.43034041  0.56849523  1
  O2-  O158  1  0.18045440  0.42488630  0.91136352  1
  O2-  O159  1  0.17425614  0.92347299  0.24633217  1
  O2-  O160  1  0.17440248  0.93336219  0.57649415  1
  O2-  O161  1  0.17638306  0.92906487  0.91027671  1
  O2-  O162  1  0.67862812  0.43031399  0.24414759  1
  O2-  O163  1  0.68464991  0.42718666  0.56483925  1
  O2-  O164  1  0.67575391  0.42789029  0.90496496  1
  O2-  O165  1  0.68527285  0.92805836  0.23479862  1
  O2-  O166  1  0.68036922  0.92808967  0.57796079  1
  O2-  O167  1  0.67768726  0.93221630  0.90961806  1
  O2-  O168  1  0.42620503  0.31608333  0.10098752  1
  O2-  O169  1  0.42748858  0.32374644  0.42198043  1
  O2-  O170  1  0.42852315  0.31852001  0.76459774  1
  O2-  O171  1  0.43175235  0.82355321  0.10098703  1
  O2-  O172  1  0.42652121  0.81885057  0.42199394  1
  O2-  O173  1  0.43086717  0.82504168  0.76322373  1
  O2-  O174  1  0.92948021  0.32138278  0.08829928  1
  O2-  O175  1  0.93205282  0.32242568  0.43156696  1
  O2-  O176  1  0.92680422  0.31664178  0.75766869  1
  O2-  O177  1  0.93171452  0.82234201  0.10006961  1
  O2-  O178  1  0.92963086  0.81910140  0.42489364  1
  O2-  O179  1  0.93093174  0.82963521  0.75209953  1
  O2-  O180  1  0.31819547  0.07140717  0.23612047  1
  O2-  O181  1  0.31975721  0.06783753  0.57679359  1
  O2-  O182  1  0.31848616  0.07239593  0.89879220  1
  O2-  O183  1  0.31911539  0.57183385  0.24156957  1
  O2-  O184  1  0.31796496  0.57115369  0.56800553  1
  O2-  O185  1  0.31907286  0.57288460  0.91156385  1
  O2-  O186  1  0.82592371  0.07047087  0.24565676  1
  O2-  O187  1  0.82250543  0.06817994  0.57440308  1
  O2-  O188  1  0.82294477  0.06914702  0.89986471  1
  O2-  O189  1  0.82475987  0.56984523  0.24437299  1
  O2-  O190  1  0.82454837  0.57193385  0.57602285  1
  O2-  O191  1  0.82229799  0.56594807  0.90225719  1
  O2-  O192  1  0.05185459  0.08154308  0.27328076  1
  O2-  O193  1  0.03753925  0.08480567  0.59292373  1
  O2-  O194  1  0.04229543  0.08344130  0.93487015  1
  O2-  O195  1  0.04173932  0.58910371  0.27094556  1
  O2-  O196  1  0.03853382  0.58145640  0.59691335  1
  O2-  O197  1  0.04478994  0.57602066  0.93385856  1
  O2-  O198  1  0.53972153  0.07986276  0.26687066  1
  O2-  O199  1  0.54383092  0.08206969  0.60058765  1
  O2-  O200  1  0.54943227  0.08482367  0.93995741  1
  O2-  O201  1  0.54057572  0.58216804  0.26408905  1
  O2-  O202  1  0.54351405  0.58091590  0.59859151  1
  O2-  O203  1  0.54020483  0.57958288  0.93551889  1
  O2-  O204  1  0.16606304  0.20752660  0.27109641  1
  O2-  O205  1  0.16760470  0.20679259  0.59556189  1
  O2-  O206  1  0.16351141  0.21439340  0.93340033  1
  O2-  O207  1  0.16471396  0.70425840  0.27306604  1
  O2-  O208  1  0.16232809  0.71245981  0.59571641  1
  O2-  O209  1  0.16863219  0.70484092  0.93116571  1
  O2-  O210  1  0.66604517  0.20690539  0.26429534  1
  O2-  O211  1  0.67258753  0.20641605  0.59978142  1
  O2-  O212  1  0.66932225  0.20168113  0.94309105  1
  O2-  O213  1  0.67024965  0.70950631  0.26790782  1
  O2-  O214  1  0.67071322  0.70839616  0.59864594  1
  O2-  O215  1  0.66897796  0.70294112  0.93207929  1
  O2-  O216  1  0.08609455  0.45174462  0.06343335  1
  O2-  O217  1  0.08652492  0.46206643  0.39505703  1
  O2-  O218  1  0.07848672  0.45354092  0.73454140  1
  O2-  O219  1  0.08725862  0.95676070  0.06449785  1
  O2-  O220  1  0.08285767  0.94986124  0.39934566  1
  O2-  O221  1  0.08506559  0.96190286  0.72819862  1
  O2-  O222  1  0.57497111  0.45583786  0.07206640  1
  O2-  O223  1  0.58620708  0.45570636  0.39491332  1
  O2-  O224  1  0.58248583  0.45599437  0.73135574  1
  O2-  O225  1  0.58689455  0.95522928  0.06474795  1
  O2-  O226  1  0.58488489  0.95683632  0.40276321  1
  O2-  O227  1  0.58695770  0.95768423  0.73011190  1
  O2-  O228  1  0.21208775  0.33887448  0.06609401  1
  O2-  O229  1  0.20052751  0.33866834  0.39431812  1
  O2-  O230  1  0.20612751  0.32693493  0.73273949  1
  O2-  O231  1  0.19961604  0.83213606  0.06196726  1
  O2-  O232  1  0.20331188  0.83209156  0.39835816  1
  O2-  O233  1  0.19926914  0.83723111  0.72714727  1
  O2-  O234  1  0.70410260  0.33162394  0.07329372  1
  O2-  O235  1  0.70974043  0.33662183  0.39369142  1
  O2-  O236  1  0.71412559  0.33408107  0.73457571  1
  O2-  O237  1  0.70431976  0.83429947  0.05935299  1
  O2-  O238  1  0.71676755  0.83391718  0.40411223  1
  O2-  O239  1  0.70709798  0.83787430  0.73118681  1
  O2-  O240  1  0.45388448  0.41426049  0.26933883  1
  O2-  O241  1  0.45491733  0.42076060  0.59894688  1
  O2-  O242  1  0.45303544  0.41674365  0.93459312  1
  O2-  O243  1  0.45366363  0.91642691  0.27459581  1
  O2-  O244  1  0.45961830  0.91913256  0.59596390  1
  O2-  O245  1  0.45959665  0.92178086  0.93328410  1
  O2-  O246  1  0.96418337  0.41581860  0.26180033  1
  O2-  O247  1  0.94990382  0.41537922  0.60629543  1
  O2-  O248  1  0.95209789  0.41380439  0.93681859  1
  O2-  O249  1  0.95464186  0.91462889  0.27407122  1
  O2-  O250  1  0.95912427  0.91411097  0.59612055  1
  O2-  O251  1  0.96014203  0.91783771  0.93143902  1
  O2-  O252  1  0.33071440  0.29861471  0.27367728  1
  O2-  O253  1  0.33212489  0.29233467  0.59628035  1
  O2-  O254  1  0.33428707  0.28497417  0.93167040  1
  O2-  O255  1  0.33392212  0.79660163  0.27051680  1
  O2-  O256  1  0.32725875  0.80070060  0.59741657  1
  O2-  O257  1  0.32919399  0.80145728  0.93649552  1
  O2-  O258  1  0.83382178  0.29440458  0.26163624  1
  O2-  O259  1  0.83800715  0.29008988  0.60302524  1
  O2-  O260  1  0.82987050  0.29699153  0.94092528  1
  O2-  O261  1  0.83984269  0.79082256  0.27159481  1
  O2-  O262  1  0.83278372  0.80282835  0.60332233  1
  O2-  O263  1  0.83053956  0.79768993  0.93038466  1
  O2-  O264  1  0.41821197  0.04278604  0.06750206  1
  O2-  O265  1  0.41572464  0.04039597  0.40503167  1
  O2-  O266  1  0.41340097  0.04168936  0.72859046  1
  O2-  O267  1  0.40875889  0.54176206  0.06550431  1
  O2-  O268  1  0.41339517  0.54194404  0.39338744  1
  O2-  O269  1  0.41902249  0.54653447  0.73491275  1
  O2-  O270  1  0.91926447  0.03863530  0.06965893  1
  O2-  O271  1  0.91765095  0.04783644  0.39753323  1
  O2-  O272  1  0.91387780  0.03885601  0.72539180  1
  O2-  O273  1  0.91901563  0.54034810  0.07003549  1
  O2-  O274  1  0.91372037  0.53853414  0.39630945  1
  O2-  O275  1  0.91489058  0.54643710  0.72891647  1
  O2-  O276  1  0.28480356  0.16546836  0.06808666  1
  O2-  O277  1  0.28887391  0.16740883  0.40467042  1
  O2-  O278  1  0.29317548  0.16220972  0.72619067  1
  O2-  O279  1  0.29191316  0.66504688  0.06437054  1
  O2-  O280  1  0.29502815  0.66319198  0.39429841  1
  O2-  O281  1  0.28920617  0.67260035  0.73182769  1
  O2-  O282  1  0.79583868  0.16602708  0.07045969  1
  O2-  O283  1  0.79932250  0.16966439  0.39322505  1
  O2-  O284  1  0.79763217  0.16133399  0.72814877  1
  O2-  O285  1  0.79672985  0.67190966  0.06598937  1
  O2-  O286  1  0.79891979  0.66245902  0.39685478  1
  O2-  O287  1  0.80275251  0.67048921  0.72550623  1
