# generated using pymatgen
data_Ca2Al2SiO7
_symmetry_space_group_name_H-M   'P 1'
_cell_length_a   15.45845325
_cell_length_b   15.45836017
_cell_length_c   15.28313006
_cell_angle_alpha   90.00828485
_cell_angle_beta   90.01878389
_cell_angle_gamma   90.00532432
_symmetry_Int_Tables_number   1
_chemical_formula_structural   Ca2Al2SiO7
_chemical_formula_sum   'Ca48 Al48 Si24 O168'
_cell_volume   3652.09224056
_cell_formula_units_Z   24
loop_
 _symmetry_equiv_pos_site_id
 _symmetry_equiv_pos_as_xyz
  1  'x, y, z'
loop_
 _atom_type_symbol
 _atom_type_oxidation_number
  Ca2+  2.0
  Al0+  0.0
  Si0+  0.0
  O2-  -2.0
loop_
 _atom_site_type_symbol
 _atom_site_label
 _atom_site_symmetry_multiplicity
 _atom_site_fract_x
 _atom_site_fract_y
 _atom_site_fract_z
 _atom_site_occupancy
  Ca2+  Ca0  1  0.15880435  0.07934016  0.16887676  1
  Ca2+  Ca1  1  0.16668775  0.08358964  0.50835857  1
  Ca2+  Ca2  1  0.16149399  0.07319160  0.83684458  1
  Ca2+  Ca3  1  0.16906095  0.58218956  0.17978388  1
  Ca2+  Ca4  1  0.16736249  0.57362178  0.49865745  1
  Ca2+  Ca5  1  0.16500174  0.57866432  0.83665395  1
  Ca2+  Ca6  1  0.67249145  0.07359678  0.17590798  1
  Ca2+  Ca7  1  0.66869406  0.07856924  0.50357898  1
  Ca2+  Ca8  1  0.65864449  0.07291880  0.83543182  1
  Ca2+  Ca9  1  0.67692854  0.57882746  0.17996982  1
  Ca2+  Ca10  1  0.66488938  0.57414835  0.50393539  1
  Ca2+  Ca11  1  0.66133509  0.58232733  0.83062940  1
  Ca2+  Ca12  1  0.08183058  0.32529515  0.16724375  1
  Ca2+  Ca13  1  0.08458570  0.32700643  0.48916020  1
  Ca2+  Ca14  1  0.08547474  0.32108206  0.82470387  1
  Ca2+  Ca15  1  0.08678239  0.82012170  0.16071392  1
  Ca2+  Ca16  1  0.08360946  0.82928913  0.49270605  1
  Ca2+  Ca17  1  0.09069120  0.83087295  0.82963782  1
  Ca2+  Ca18  1  0.57794842  0.34249158  0.16882284  1
  Ca2+  Ca19  1  0.58628780  0.33271553  0.49348658  1
  Ca2+  Ca20  1  0.58325184  0.32722143  0.82155417  1
  Ca2+  Ca21  1  0.57472349  0.84280205  0.16421579  1
  Ca2+  Ca22  1  0.57547221  0.83787603  0.49556762  1
  Ca2+  Ca23  1  0.57557639  0.83567998  0.82211232  1
  Ca2+  Ca24  1  0.32779031  0.42563096  0.18215083  1
  Ca2+  Ca25  1  0.32661642  0.41651235  0.50015379  1
  Ca2+  Ca26  1  0.32687804  0.41627080  0.83303220  1
  Ca2+  Ca27  1  0.33156793  0.91242029  0.16838139  1
  Ca2+  Ca28  1  0.33022840  0.91231219  0.50433239  1
  Ca2+  Ca29  1  0.32816594  0.91058835  0.83595269  1
  Ca2+  Ca30  1  0.83087951  0.41890215  0.17990559  1
  Ca2+  Ca31  1  0.83068734  0.41763051  0.49817860  1
  Ca2+  Ca32  1  0.82677294  0.41449437  0.83142873  1
  Ca2+  Ca33  1  0.82164927  0.91945449  0.17644618  1
  Ca2+  Ca34  1  0.82355546  0.92046152  0.50210984  1
  Ca2+  Ca35  1  0.81953914  0.91511694  0.83701653  1
  Ca2+  Ca36  1  0.41484493  0.17537467  0.16914262  1
  Ca2+  Ca37  1  0.42417967  0.17227377  0.49551007  1
  Ca2+  Ca38  1  0.42311649  0.16693449  0.82678675  1
  Ca2+  Ca39  1  0.41272903  0.67694305  0.16565984  1
  Ca2+  Ca40  1  0.41803478  0.67497613  0.49503323  1
  Ca2+  Ca41  1  0.42252014  0.68000214  0.82601962  1
  Ca2+  Ca42  1  0.92122768  0.16623331  0.17025873  1
  Ca2+  Ca43  1  0.92673839  0.16867553  0.48961025  1
  Ca2+  Ca44  1  0.92800700  0.16110469  0.82948767  1
  Ca2+  Ca45  1  0.92866315  0.65601717  0.16766688  1
  Ca2+  Ca46  1  0.92129277  0.66439954  0.49224477  1
  Ca2+  Ca47  1  0.92239309  0.66885436  0.83287903  1
  Al0+  Al48  1  -0.00106857  -0.00073107  0.00065488  1
  Al0+  Al49  1  -0.00174123  -0.00237090  0.33216255  1
  Al0+  Al50  1  0.00077175  -0.00096258  0.66693009  1
  Al0+  Al51  1  -0.00147216  0.49829037  -0.00669284  1
  Al0+  Al52  1  0.00021545  0.49766918  0.33347415  1
  Al0+  Al53  1  0.00041122  0.50003535  0.67342365  1
  Al0+  Al54  1  0.49743734  0.00219298  0.00132578  1
  Al0+  Al55  1  0.49688571  0.00040298  0.33132256  1
  Al0+  Al56  1  0.49943465  0.00284713  0.66139920  1
  Al0+  Al57  1  0.49789859  0.50137141  -0.00124157  1
  Al0+  Al58  1  0.49975156  0.50254540  0.33595876  1
  Al0+  Al59  1  0.49984383  0.50214420  0.66970363  1
  Al0+  Al60  1  0.24917514  0.24971036  -0.00488374  1
  Al0+  Al61  1  0.25247386  0.24785755  0.32792680  1
  Al0+  Al62  1  0.25058931  0.24993743  0.66879571  1
  Al0+  Al63  1  0.25084583  0.74960170  -0.00555205  1
  Al0+  Al64  1  0.25116882  0.75015864  0.32968187  1
  Al0+  Al65  1  0.25059869  0.74938240  0.66664703  1
  Al0+  Al66  1  0.74904716  0.25027406  0.00046813  1
  Al0+  Al67  1  0.75278679  0.24728949  0.33515321  1
  Al0+  Al68  1  0.75246744  0.25140102  0.66828381  1
  Al0+  Al69  1  0.75032907  0.74751709  0.00585912  1
  Al0+  Al70  1  0.74894310  0.74997825  0.34133771  1
  Al0+  Al71  1  0.75112142  0.74990732  0.66826149  1
  Al0+  Al72  1  0.32095325  0.57457440  0.34880005  1
  Al0+  Al73  1  0.06989195  0.17828845  0.98368673  1
  Al0+  Al74  1  0.17971069  0.92845210  0.01450786  1
  Al0+  Al75  1  0.43001984  0.82139194  0.31712153  1
  Al0+  Al76  1  0.06931702  0.67991763  0.32240808  1
  Al0+  Al77  1  0.43146755  0.82189846  0.98494024  1
  Al0+  Al78  1  0.82368659  0.57101931  0.34885678  1
  Al0+  Al79  1  0.57277383  0.18058807  0.65311419  1
  Al0+  Al80  1  0.67526241  0.92978260  0.35032225  1
  Al0+  Al81  1  0.07352525  0.17552371  0.31763621  1
  Al0+  Al82  1  0.07080927  0.67889819  0.98445508  1
  Al0+  Al83  1  0.67710263  0.92861135  0.01372238  1
  Al0+  Al84  1  0.92886432  0.32006499  0.31897392  1
  Al0+  Al85  1  0.42876759  0.82149697  0.64969891  1
  Al0+  Al86  1  0.67817270  0.42830272  0.34738701  1
  Al0+  Al87  1  0.82315314  0.06990691  0.34957557  1
  Al0+  Al88  1  0.57334541  0.67852058  0.65052418  1
  Al0+  Al89  1  0.18002410  0.42653997  0.34568481  1
  Al0+  Al90  1  0.43121763  0.32311105  0.32112495  1
  Al0+  Al91  1  0.67915483  0.42938716  0.68123590  1
  Al0+  Al92  1  0.07060439  0.17879868  0.65284916  1
  Al0+  Al93  1  0.17939897  0.92868768  0.67883376  1
  Al0+  Al94  1  0.67847223  0.93107892  0.68041797  1
  Al0+  Al95  1  0.17930585  0.42855418  0.68167832  1
  Si0+  Si96  1  0.92602727  0.82128549  0.98447436  1
  Si0+  Si97  1  0.32155160  0.57268379  0.68597750  1
  Si0+  Si98  1  0.32199417  0.07288266  0.68284670  1
  Si0+  Si99  1  0.92963210  0.32383201  0.65020400  1
  Si0+  Si100  1  0.31995694  0.07181842  0.34779750  1
  Si0+  Si101  1  0.42871061  0.32379990  0.98389893  1
  Si0+  Si102  1  0.82204682  0.56904856  0.01503146  1
  Si0+  Si103  1  0.07086727  0.67784564  0.65203999  1
  Si0+  Si104  1  0.57369218  0.67670432  0.98465664  1
  Si0+  Si105  1  0.32140689  0.07444226  0.01795564  1
  Si0+  Si106  1  0.67776198  0.42877436  0.01397220  1
  Si0+  Si107  1  0.82293900  0.07183321  0.68460680  1
  Si0+  Si108  1  0.17834810  0.42778035  0.01429507  1
  Si0+  Si109  1  0.17976643  0.92868996  0.34526996  1
  Si0+  Si110  1  0.42816608  0.32316341  0.65134216  1
  Si0+  Si111  1  0.57340234  0.67852494  0.31676289  1
  Si0+  Si112  1  0.92533332  0.82146283  0.31733528  1
  Si0+  Si113  1  0.82143111  0.07261367  0.01666629  1
  Si0+  Si114  1  0.57034179  0.18179171  0.98664475  1
  Si0+  Si115  1  0.92932640  0.82067074  0.65262955  1
  Si0+  Si116  1  0.82342852  0.57317107  0.68693665  1
  Si0+  Si117  1  0.92575121  0.32149734  0.98028110  1
  Si0+  Si118  1  0.57234836  0.17820292  0.31608053  1
  Si0+  Si119  1  0.31919509  0.56965147  0.01421401  1
  O2-  O120  1  0.25197177  0.00580595  0.06131896  1
  O2-  O121  1  0.24561193  0.00370852  0.38814421  1
  O2-  O122  1  0.25392145  0.00325504  0.72660063  1
  O2-  O123  1  0.24754640  0.49975424  0.05711320  1
  O2-  O124  1  0.25185536  0.49859766  0.39651358  1
  O2-  O125  1  0.25316848  0.50325941  0.73073669  1
  O2-  O126  1  0.75379664  0.00195436  0.05915489  1
  O2-  O127  1  0.74864407  0.00071515  0.39937519  1
  O2-  O128  1  0.75073991  0.00718320  0.73010210  1
  O2-  O129  1  0.74855403  0.49966079  0.05544673  1
  O2-  O130  1  0.74980922  0.50047973  0.39760443  1
  O2-  O131  1  0.75189735  0.50576357  0.72982929  1
  O2-  O132  1  0.00155332  0.24849144  0.26870758  1
  O2-  O133  1  -0.00130310  0.25553312  0.60696276  1
  O2-  O134  1  -0.00558737  0.25254226  0.93671013  1
  O2-  O135  1  -0.00796001  0.75087494  0.27300001  1
  O2-  O136  1  0.00080465  0.74973137  0.61068287  1
  O2-  O137  1  -0.00215154  0.75620375  0.93837771  1
  O2-  O138  1  0.50914732  0.25241058  0.27151083  1
  O2-  O139  1  0.50135043  0.25912431  0.60809971  1
  O2-  O140  1  0.50093431  0.25382411  0.94276671  1
  O2-  O141  1  0.50721301  0.74885466  0.27067188  1
  O2-  O142  1  0.50342034  0.75206097  0.60033458  1
  O2-  O143  1  0.51113778  0.75108401  0.94079919  1
  O2-  O144  1  0.07034829  0.18072012  0.09606014  1
  O2-  O145  1  0.07417407  0.17574359  0.43125230  1
  O2-  O146  1  0.06838470  0.17788098  0.76642359  1
  O2-  O147  1  0.07004677  0.67623943  0.09725712  1
  O2-  O148  1  0.07012851  0.68333671  0.43577674  1
  O2-  O149  1  0.06940510  0.67842970  0.75763450  1
  O2-  O150  1  0.57067282  0.18407732  0.09138364  1
  O2-  O151  1  0.56826996  0.17674616  0.42151689  1
  O2-  O152  1  0.56893711  0.18062088  0.76734391  1
  O2-  O153  1  0.57116531  0.67065991  0.08966698  1
  O2-  O154  1  0.57169285  0.67821748  0.42187112  1
  O2-  O155  1  0.57068563  0.68033392  0.76522529  1
  O2-  O156  1  0.18159659  0.42826657  0.23125285  1
  O2-  O157  1  0.17941323  0.42890194  0.56933132  1
  O2-  O158  1  0.18165154  0.42831409  0.90888884  1
  O2-  O159  1  0.18222701  0.92760979  0.23998301  1
  O2-  O160  1  0.17854302  0.92901513  0.56562946  1
  O2-  O161  1  0.18214357  0.92897610  0.90130853  1
  O2-  O162  1  0.67818049  0.43211777  0.23255970  1
  O2-  O163  1  0.68085764  0.42839900  0.56927004  1
  O2-  O164  1  0.67778914  0.42788834  0.90896569  1
  O2-  O165  1  0.67594414  0.93233181  0.23595310  1
  O2-  O166  1  0.68035213  0.93247716  0.56829591  1
  O2-  O167  1  0.67721460  0.93067413  0.90036272  1
  O2-  O168  1  0.42908839  0.32604412  0.08865188  1
  O2-  O169  1  0.42945773  0.31796308  0.43385564  1
  O2-  O170  1  0.42821326  0.32020598  0.75799801  1
  O2-  O171  1  0.43043223  0.81956620  0.09792343  1
  O2-  O172  1  0.42776025  0.82176659  0.42955782  1
  O2-  O173  1  0.42873370  0.82025537  0.76382035  1
  O2-  O174  1  0.92443660  0.32379026  0.08517499  1
  O2-  O175  1  0.93057630  0.31971545  0.43248139  1
  O2-  O176  1  0.93041337  0.32259280  0.75652990  1
  O2-  O177  1  0.92529371  0.81830207  0.08966208  1
  O2-  O178  1  0.92979423  0.82330079  0.42322856  1
  O2-  O179  1  0.92905105  0.81954447  0.75807962  1
  O2-  O180  1  0.32252432  0.07168060  0.24253194  1
  O2-  O181  1  0.32013594  0.07552856  0.57729607  1
  O2-  O182  1  0.32388072  0.07614246  0.91247092  1
  O2-  O183  1  0.31787515  0.57471919  0.23410104  1
  O2-  O184  1  0.31980671  0.57334761  0.58103935  1
  O2-  O185  1  0.32035396  0.56614877  0.90913626  1
  O2-  O186  1  0.82164710  0.06681255  0.23519695  1
  O2-  O187  1  0.82417364  0.06900010  0.57973033  1
  O2-  O188  1  0.81963626  0.07401470  0.91085898  1
  O2-  O189  1  0.82266593  0.56928036  0.23426621  1
  O2-  O190  1  0.82852348  0.57205783  0.58233385  1
  O2-  O191  1  0.82233093  0.56965550  0.90995574  1
  O2-  O192  1  0.04184629  0.07734115  0.26460306  1
  O2-  O193  1  0.03982190  0.08181258  0.60023228  1
  O2-  O194  1  0.03873829  0.08052586  0.93088105  1
  O2-  O195  1  0.04167873  0.58290394  0.26756351  1
  O2-  O196  1  0.04123100  0.58564447  0.60737239  1
  O2-  O197  1  0.03696813  0.58328560  0.92865470  1
  O2-  O198  1  0.53777916  0.08837248  0.26742327  1
  O2-  O199  1  0.53881253  0.08750975  0.59594734  1
  O2-  O200  1  0.53934168  0.09108004  0.93886404  1
  O2-  O201  1  0.54735586  0.58555095  0.26935813  1
  O2-  O202  1  0.54353792  0.57938646  0.60049916  1
  O2-  O203  1  0.54149416  0.58550224  0.93521437  1
  O2-  O204  1  0.17169322  0.20138602  0.26297568  1
  O2-  O205  1  0.16933161  0.20722601  0.60287368  1
  O2-  O206  1  0.16679472  0.20924086  0.92921020  1
  O2-  O207  1  0.16352437  0.71442746  0.26563320  1
  O2-  O208  1  0.16295364  0.70390082  0.60622365  1
  O2-  O209  1  0.16680466  0.70792921  0.92879516  1
  O2-  O210  1  0.66811527  0.19609898  0.27248685  1
  O2-  O211  1  0.67120604  0.20803340  0.60225447  1
  O2-  O212  1  0.66227951  0.20761493  0.93800994  1
  O2-  O213  1  0.66888045  0.70174631  0.27258616  1
  O2-  O214  1  0.67473892  0.70037559  0.60231472  1
  O2-  O215  1  0.67021649  0.69513937  0.94172780  1
  O2-  O216  1  0.08374218  0.45301161  0.05608834  1
  O2-  O217  1  0.08277226  0.45448432  0.39886598  1
  O2-  O218  1  0.08377345  0.45938759  0.73888287  1
  O2-  O219  1  0.08094387  0.95528457  0.06640116  1
  O2-  O220  1  0.08573187  0.94911637  0.39061210  1
  O2-  O221  1  0.08284022  0.95843622  0.73469671  1
  O2-  O222  1  0.58453834  0.45608695  0.05916483  1
  O2-  O223  1  0.58014103  0.45563912  0.40055300  1
  O2-  O224  1  0.58162485  0.45753222  0.73689534  1
  O2-  O225  1  0.58157502  0.96375735  0.06691350  1
  O2-  O226  1  0.57681727  0.96154597  0.40041725  1
  O2-  O227  1  0.58086973  0.96357143  0.73236538  1
  O2-  O228  1  0.20764136  0.33579849  0.05950146  1
  O2-  O229  1  0.21098034  0.32793316  0.39656877  1
  O2-  O230  1  0.21276603  0.33294795  0.73775971  1
  O2-  O231  1  0.21280253  0.83091734  0.06581007  1
  O2-  O232  1  0.21241618  0.83945357  0.39386187  1
  O2-  O233  1  0.20931593  0.83163221  0.73347816  1
  O2-  O234  1  0.70395299  0.33674918  0.06151256  1
  O2-  O235  1  0.70405533  0.32860380  0.39714970  1
  O2-  O236  1  0.71256335  0.33372671  0.73822931  1
  O2-  O237  1  0.70506251  0.83087592  0.06729792  1
  O2-  O238  1  0.70090514  0.83127028  0.40275005  1
  O2-  O239  1  0.71159273  0.83457059  0.73438287  1
  O2-  O240  1  0.45828325  0.42073402  0.26563980  1
  O2-  O241  1  0.44751085  0.41904244  0.60988662  1
  O2-  O242  1  0.45574563  0.41519377  0.93462498  1
  O2-  O243  1  0.45782397  0.91890282  0.26194283  1
  O2-  O244  1  0.45241107  0.92133412  0.59869985  1
  O2-  O245  1  0.45600920  0.92140320  0.93338756  1
  O2-  O246  1  0.95635982  0.41796771  0.26403016  1
  O2-  O247  1  0.95457335  0.41880845  0.60776820  1
  O2-  O248  1  0.95078818  0.41410577  0.93148639  1
  O2-  O249  1  0.95200789  0.91318986  0.26857688  1
  O2-  O250  1  0.95779554  0.91151651  0.60456336  1
  O2-  O251  1  0.94606676  0.91628939  0.93932226  1
  O2-  O252  1  0.33823078  0.28735877  0.26231654  1
  O2-  O253  1  0.33644760  0.29271164  0.60527796  1
  O2-  O254  1  0.33796196  0.29447038  0.93511570  1
  O2-  O255  1  0.33487172  0.78775037  0.26143750  1
  O2-  O256  1  0.33036699  0.78967930  0.59803477  1
  O2-  O257  1  0.33721332  0.78602505  0.92972037  1
  O2-  O258  1  0.83057630  0.29104419  0.26380947  1
  O2-  O259  1  0.83564457  0.29976856  0.60593623  1
  O2-  O260  1  0.83127569  0.29528327  0.93450190  1
  O2-  O261  1  0.82984466  0.79893116  0.27406804  1
  O2-  O262  1  0.83840425  0.79273066  0.60461936  1
  O2-  O263  1  0.83359251  0.78989009  0.93730310  1
  O2-  O264  1  0.41412787  0.04926866  0.06606538  1
  O2-  O265  1  0.41011993  0.04150005  0.39636684  1
  O2-  O266  1  0.41588323  0.04816917  0.72872109  1
  O2-  O267  1  0.41117056  0.54148706  0.06190873  1
  O2-  O268  1  0.41970276  0.54986732  0.40042098  1
  O2-  O269  1  0.41468387  0.54804609  0.73405945  1
  O2-  O270  1  0.91532579  0.04917585  0.06202155  1
  O2-  O271  1  0.92065424  0.03847146  0.40329237  1
  O2-  O272  1  0.91415641  0.03944476  0.73256894  1
  O2-  O273  1  0.91366342  0.53767921  0.06100612  1
  O2-  O274  1  0.92069238  0.54137421  0.40293257  1
  O2-  O275  1  0.91489479  0.54432981  0.73723218  1
  O2-  O276  1  0.29580652  0.16920875  0.06260898  1
  O2-  O277  1  0.29579889  0.16350511  0.39633245  1
  O2-  O278  1  0.29760541  0.16556454  0.73206812  1
  O2-  O279  1  0.29210140  0.66211013  0.05932091  1
  O2-  O280  1  0.28781671  0.67106241  0.40205114  1
  O2-  O281  1  0.29282814  0.66498594  0.73355331  1
  O2-  O282  1  0.79302911  0.16576388  0.06290535  1
  O2-  O283  1  0.79913017  0.16858401  0.40235297  1
  O2-  O284  1  0.80342727  0.16721177  0.72964168  1
  O2-  O285  1  0.79841663  0.66051521  0.06471187  1
  O2-  O286  1  0.80043047  0.67014053  0.40192866  1
  O2-  O287  1  0.79940599  0.66670911  0.73451890  1
