# generated using pymatgen
data_Ca2Al2SiO7
_symmetry_space_group_name_H-M   'P 1'
_cell_length_a   15.46475042
_cell_length_b   15.46665703
_cell_length_c   15.29087637
_cell_angle_alpha   89.98727190
_cell_angle_beta   89.99580644
_cell_angle_gamma   90.00353621
_symmetry_Int_Tables_number   1
_chemical_formula_structural   Ca2Al2SiO7
_chemical_formula_sum   'Ca48 Al48 Si24 O168'
_cell_volume   3657.39388907
_cell_formula_units_Z   24
loop_
 _symmetry_equiv_pos_site_id
 _symmetry_equiv_pos_as_xyz
  1  'x, y, z'
loop_
 _atom_type_symbol
 _atom_type_oxidation_number
  Ca2+  2.0
  Al0+  0.0
  Si0+  0.0
  O2-  -2.0
loop_
 _atom_site_type_symbol
 _atom_site_label
 _atom_site_symmetry_multiplicity
 _atom_site_fract_x
 _atom_site_fract_y
 _atom_site_fract_z
 _atom_site_occupancy
  Ca2+  Ca0  1  0.16565570  0.08166549  0.17483486  1
  Ca2+  Ca1  1  0.16658457  0.07437100  0.51008446  1
  Ca2+  Ca2  1  0.17228828  0.07666164  0.82888371  1
  Ca2+  Ca3  1  0.16608990  0.58263088  0.17675316  1
  Ca2+  Ca4  1  0.17472338  0.58288566  0.50508964  1
  Ca2+  Ca5  1  0.16962581  0.58231966  0.83216620  1
  Ca2+  Ca6  1  0.66645181  0.08173178  0.16915965  1
  Ca2+  Ca7  1  0.67434885  0.07820983  0.50780683  1
  Ca2+  Ca8  1  0.67076862  0.08699704  0.83554748  1
  Ca2+  Ca9  1  0.67679370  0.59008020  0.17115696  1
  Ca2+  Ca10  1  0.67411912  0.58869181  0.50707111  1
  Ca2+  Ca11  1  0.67213216  0.57675160  0.83557237  1
  Ca2+  Ca12  1  0.08896033  0.33049585  0.16710216  1
  Ca2+  Ca13  1  0.08513226  0.33493778  0.49730995  1
  Ca2+  Ca14  1  0.07615209  0.33681325  0.82175235  1
  Ca2+  Ca15  1  0.07311229  0.81749895  0.16392672  1
  Ca2+  Ca16  1  0.08052997  0.82751403  0.49298963  1
  Ca2+  Ca17  1  0.08001674  0.82850891  0.83254009  1
  Ca2+  Ca18  1  0.58622479  0.33028942  0.15877507  1
  Ca2+  Ca19  1  0.57806327  0.34188734  0.50431246  1
  Ca2+  Ca20  1  0.58741446  0.33310938  0.82414268  1
  Ca2+  Ca21  1  0.57957354  0.82605702  0.17078821  1
  Ca2+  Ca22  1  0.57231297  0.82158534  0.49759729  1
  Ca2+  Ca23  1  0.57752430  0.82331742  0.82216514  1
  Ca2+  Ca24  1  0.32593744  0.42609251  0.17806628  1
  Ca2+  Ca25  1  0.32389546  0.42531776  0.50641686  1
  Ca2+  Ca26  1  0.33426040  0.41797234  0.82781809  1
  Ca2+  Ca27  1  0.33459720  0.91744480  0.17446186  1
  Ca2+  Ca28  1  0.33170084  0.91779640  0.51221115  1
  Ca2+  Ca29  1  0.33106348  0.91268751  0.82973236  1
  Ca2+  Ca30  1  0.82739029  0.42864288  0.16873607  1
  Ca2+  Ca31  1  0.83059193  0.42934390  0.50943336  1
  Ca2+  Ca32  1  0.82694211  0.42494587  0.83301210  1
  Ca2+  Ca33  1  0.83934990  0.91076098  0.17036587  1
  Ca2+  Ca34  1  0.83925984  0.92221465  0.50654023  1
  Ca2+  Ca35  1  0.83707001  0.92197819  0.83613643  1
  Ca2+  Ca36  1  0.42450329  0.17161424  0.15936395  1
  Ca2+  Ca37  1  0.40539086  0.17478297  0.50219841  1
  Ca2+  Ca38  1  0.42248850  0.17215746  0.82420419  1
  Ca2+  Ca39  1  0.41539425  0.66685321  0.16968752  1
  Ca2+  Ca40  1  0.42262060  0.66286126  0.49565403  1
  Ca2+  Ca41  1  0.42397794  0.66661566  0.81777305  1
  Ca2+  Ca42  1  0.92453160  0.16900839  0.16553503  1
  Ca2+  Ca43  1  0.91914494  0.17527343  0.49850229  1
  Ca2+  Ca44  1  0.91438116  0.17594185  0.82187048  1
  Ca2+  Ca45  1  0.92166079  0.66388481  0.16173412  1
  Ca2+  Ca46  1  0.92006059  0.66617076  0.49017254  1
  Ca2+  Ca47  1  0.91810003  0.65999381  0.83082121  1
  Al0+  Al48  1  0.00194616  -0.00103229  -0.00183877  1
  Al0+  Al49  1  0.00101560  0.00309998  0.32650396  1
  Al0+  Al50  1  0.00096229  0.00006242  0.67666300  1
  Al0+  Al51  1  0.00113256  0.49854020  0.00018305  1
  Al0+  Al52  1  -0.00371649  0.49728134  0.33570682  1
  Al0+  Al53  1  -0.00049590  0.49980746  0.66744289  1
  Al0+  Al54  1  0.50151963  0.00261572  -0.00368932  1
  Al0+  Al55  1  0.50122362  0.00110134  0.33151699  1
  Al0+  Al56  1  0.50143803  -0.00030163  0.66703376  1
  Al0+  Al57  1  0.49732079  0.49936925  0.00411806  1
  Al0+  Al58  1  0.49998381  0.49897263  0.32977289  1
  Al0+  Al59  1  0.50084809  0.49692425  0.66411498  1
  Al0+  Al60  1  0.25219763  0.24870449  0.00025134  1
  Al0+  Al61  1  0.25053023  0.24994689  0.33035265  1
  Al0+  Al62  1  0.25077992  0.24683452  0.67129617  1
  Al0+  Al63  1  0.24709226  0.75101637  -0.00198926  1
  Al0+  Al64  1  0.24864359  0.75178057  0.32947451  1
  Al0+  Al65  1  0.24801317  0.75045547  0.67268260  1
  Al0+  Al66  1  0.75155166  0.24833000  0.00161890  1
  Al0+  Al67  1  0.75043824  0.24920143  0.33279149  1
  Al0+  Al68  1  0.75239054  0.25007539  0.66602773  1
  Al0+  Al69  1  0.74832440  0.75340126  -0.00006770  1
  Al0+  Al70  1  0.74583783  0.75286768  0.33215096  1
  Al0+  Al71  1  0.75106599  0.75200450  0.66723570  1
  Al0+  Al72  1  0.42801827  0.31913034  0.65192075  1
  Al0+  Al73  1  0.42678020  0.82077605  0.65325399  1
  Al0+  Al74  1  0.92716545  0.82082927  0.98245879  1
  Al0+  Al75  1  0.82075788  0.07050779  0.67973613  1
  Al0+  Al76  1  0.07035867  0.67618718  0.98196323  1
  Al0+  Al77  1  0.82206115  0.57489295  0.68089804  1
  Al0+  Al78  1  0.32367106  0.07050032  0.68209573  1
  Al0+  Al79  1  0.67776705  0.42767143  0.01539589  1
  Al0+  Al80  1  0.81804889  0.57282768  0.34668694  1
  Al0+  Al81  1  0.06933893  0.67569427  0.32093692  1
  Al0+  Al82  1  0.56985827  0.67684936  0.31674379  1
  Al0+  Al83  1  0.42765904  0.82294729  0.31903708  1
  Al0+  Al84  1  0.32169739  0.57028817  0.68101282  1
  Al0+  Al85  1  0.17775058  0.42684724  0.34763954  1
  Al0+  Al86  1  0.57219477  0.67685345  0.65244825  1
  Al0+  Al87  1  0.32029741  0.57374046  0.34794742  1
  Al0+  Al88  1  0.17796749  0.92643840  0.68303865  1
  Al0+  Al89  1  0.82014482  0.57216202  0.01593295  1
  Al0+  Al90  1  0.17864460  0.42813695  0.68157483  1
  Al0+  Al91  1  0.07121194  0.18186955  0.32111226  1
  Al0+  Al92  1  0.92913388  0.32236736  0.65213249  1
  Al0+  Al93  1  0.57202774  0.18089002  0.98531352  1
  Al0+  Al94  1  0.92804892  0.82250065  0.32127151  1
  Al0+  Al95  1  0.67926317  0.42950527  0.67887410  1
  Si0+  Si96  1  0.93030961  0.82331454  0.65350285  1
  Si0+  Si97  1  0.82221217  0.07051150  0.34713214  1
  Si0+  Si98  1  0.57399639  0.17773059  0.64816035  1
  Si0+  Si99  1  0.67683351  0.93104457  0.34912224  1
  Si0+  Si100  1  0.56911573  0.67860609  0.98584505  1
  Si0+  Si101  1  0.07430100  0.17775757  0.98313217  1
  Si0+  Si102  1  0.17872017  0.93209341  0.34547926  1
  Si0+  Si103  1  0.42762304  0.32229299  0.98310767  1
  Si0+  Si104  1  0.31981075  0.57328557  0.01504457  1
  Si0+  Si105  1  0.67890085  0.92888412  0.68413638  1
  Si0+  Si106  1  0.18009215  0.42723428  0.01465599  1
  Si0+  Si107  1  0.82302926  0.07012277  0.01711459  1
  Si0+  Si108  1  0.67727186  0.93126601  0.01621480  1
  Si0+  Si109  1  0.92472083  0.32126429  0.31446324  1
  Si0+  Si110  1  0.42934062  0.31974611  0.31714732  1
  Si0+  Si111  1  0.42892123  0.82182178  0.98557401  1
  Si0+  Si112  1  0.57265202  0.17913676  0.31873333  1
  Si0+  Si113  1  0.17926037  0.92945243  0.01927854  1
  Si0+  Si114  1  0.32170484  0.06962975  0.01671896  1
  Si0+  Si115  1  0.07083260  0.17721785  0.65257089  1
  Si0+  Si116  1  0.32335784  0.07065819  0.34648941  1
  Si0+  Si117  1  0.67807700  0.42464266  0.34993435  1
  Si0+  Si118  1  0.93167460  0.31815129  0.98552282  1
  Si0+  Si119  1  0.06965984  0.67866430  0.65193765  1
  O2-  O120  1  0.25138782  -0.00019625  0.06188352  1
  O2-  O121  1  0.25458823  -0.00219964  0.38788836  1
  O2-  O122  1  0.25488603  -0.00486599  0.73172049  1
  O2-  O123  1  0.24892157  0.50087859  0.05566035  1
  O2-  O124  1  0.24470035  0.50414659  0.39585426  1
  O2-  O125  1  0.25070003  0.49861184  0.73370657  1
  O2-  O126  1  0.75311444  -0.00214392  0.05913011  1
  O2-  O127  1  0.75390411  -0.00283467  0.38928795  1
  O2-  O128  1  0.74567100  -0.00144681  0.72983349  1
  O2-  O129  1  0.74486140  0.50325050  0.06655794  1
  O2-  O130  1  0.74280652  0.49755254  0.39171560  1
  O2-  O131  1  0.74775601  0.50426551  0.72882499  1
  O2-  O132  1  -0.00082783  0.25755359  0.27111342  1
  O2-  O133  1  0.00683472  0.24920746  0.60727756  1
  O2-  O134  1  0.00397389  0.24871174  0.94172031  1
  O2-  O135  1  -0.00688723  0.74426614  0.27134061  1
  O2-  O136  1  -0.00231259  0.74978270  0.61092294  1
  O2-  O137  1  -0.00530236  0.74506868  0.93226137  1
  O2-  O138  1  0.50377167  0.25154432  0.27586745  1
  O2-  O139  1  0.50258225  0.24349178  0.60396703  1
  O2-  O140  1  0.50196757  0.25953957  0.93979603  1
  O2-  O141  1  0.49451805  0.74683197  0.26744709  1
  O2-  O142  1  0.49494025  0.74510668  0.60418753  1
  O2-  O143  1  0.49545040  0.74702999  0.94382160  1
  O2-  O144  1  0.07438090  0.17848214  0.08862630  1
  O2-  O145  1  0.06876700  0.17760886  0.43351875  1
  O2-  O146  1  0.06738960  0.17707812  0.75862340  1
  O2-  O147  1  0.07308687  0.67728018  0.09548479  1
  O2-  O148  1  0.07101953  0.68048841  0.43457291  1
  O2-  O149  1  0.06896958  0.67845476  0.75699045  1
  O2-  O150  1  0.56847364  0.17854118  0.09913183  1
  O2-  O151  1  0.57457810  0.17678758  0.42303597  1
  O2-  O152  1  0.57485288  0.17929504  0.75396238  1
  O2-  O153  1  0.56845505  0.68099418  0.09071528  1
  O2-  O154  1  0.57135792  0.67970827  0.42963235  1
  O2-  O155  1  0.57237600  0.68004165  0.76705555  1
  O2-  O156  1  0.18397530  0.42343469  0.23318002  1
  O2-  O157  1  0.17918202  0.42997235  0.56839996  1
  O2-  O158  1  0.18122011  0.42319612  0.91031822  1
  O2-  O159  1  0.17909026  0.93683221  0.24011105  1
  O2-  O160  1  0.17276105  0.93009485  0.56905065  1
  O2-  O161  1  0.18033729  0.93072195  0.91468728  1
  O2-  O162  1  0.68150233  0.41874124  0.24434463  1
  O2-  O163  1  0.68239226  0.42831352  0.56521621  1
  O2-  O164  1  0.67956639  0.42695710  0.90258032  1
  O2-  O165  1  0.67332101  0.93564181  0.24374981  1
  O2-  O166  1  0.68114983  0.93072957  0.57844472  1
  O2-  O167  1  0.67427632  0.93457732  0.91149749  1
  O2-  O168  1  0.42403771  0.31733033  0.08901030  1
  O2-  O169  1  0.42705234  0.31711864  0.42161547  1
  O2-  O170  1  0.42948673  0.31688414  0.76513118  1
  O2-  O171  1  0.43039969  0.82366635  0.09060256  1
  O2-  O172  1  0.43144745  0.83101761  0.43119641  1
  O2-  O173  1  0.43153934  0.81995554  0.76778646  1
  O2-  O174  1  0.93346852  0.31518072  0.09081244  1
  O2-  O175  1  0.91936667  0.31623869  0.41938066  1
  O2-  O176  1  0.92943271  0.31929101  0.76590343  1
  O2-  O177  1  0.93181366  0.82327599  0.09580750  1
  O2-  O178  1  0.93342958  0.82824599  0.43486548  1
  O2-  O179  1  0.93187436  0.82497270  0.75824900  1
  O2-  O180  1  0.32344274  0.07062407  0.24068314  1
  O2-  O181  1  0.31916649  0.07122649  0.56791610  1
  O2-  O182  1  0.32100054  0.06936004  0.91251968  1
  O2-  O183  1  0.31983380  0.56969924  0.23328115  1
  O2-  O184  1  0.31960485  0.57108062  0.56781649  1
  O2-  O185  1  0.32221083  0.57317817  0.91055050  1
  O2-  O186  1  0.82021449  0.07234577  0.24172579  1
  O2-  O187  1  0.82159812  0.06803248  0.56609450  1
  O2-  O188  1  0.82209807  0.07153695  0.91230291  1
  O2-  O189  1  0.81790963  0.57100190  0.23347639  1
  O2-  O190  1  0.82256111  0.57519348  0.56722584  1
  O2-  O191  1  0.81942863  0.56932803  0.90295601  1
  O2-  O192  1  0.03742164  0.08885665  0.26069137  1
  O2-  O193  1  0.03981634  0.08447611  0.60774866  1
  O2-  O194  1  0.04687227  0.08590206  0.93732708  1
  O2-  O195  1  0.04469167  0.57559519  0.26901429  1
  O2-  O196  1  0.04298655  0.58742629  0.60424294  1
  O2-  O197  1  0.04728374  0.57555852  0.93116678  1
  O2-  O198  1  0.54246001  0.08937365  0.26828744  1
  O2-  O199  1  0.55239836  0.08248657  0.60418072  1
  O2-  O200  1  0.53782308  0.08620497  0.92971822  1
  O2-  O201  1  0.54666155  0.57742972  0.26243702  1
  O2-  O202  1  0.54915597  0.57786079  0.60014890  1
  O2-  O203  1  0.54252598  0.58517196  0.94136259  1
  O2-  O204  1  0.16788463  0.20912784  0.26305303  1
  O2-  O205  1  0.16642913  0.19602946  0.60933244  1
  O2-  O206  1  0.16723753  0.20403303  0.93780616  1
  O2-  O207  1  0.16558652  0.70803626  0.26533095  1
  O2-  O208  1  0.16143321  0.70848364  0.60660774  1
  O2-  O209  1  0.16763692  0.71100173  0.92923599  1
  O2-  O210  1  0.66480928  0.20456400  0.26953512  1
  O2-  O211  1  0.66655468  0.20498639  0.60107480  1
  O2-  O212  1  0.67134842  0.20497223  0.93392100  1
  O2-  O213  1  0.66473197  0.71437233  0.26154671  1
  O2-  O214  1  0.66917376  0.71259174  0.60014099  1
  O2-  O215  1  0.65967828  0.70956373  0.93897102  1
  O2-  O216  1  0.08773395  0.45105364  0.06248261  1
  O2-  O217  1  0.07523261  0.44248540  0.39502825  1
  O2-  O218  1  0.08120443  0.45818519  0.73480884  1
  O2-  O219  1  0.08812922  0.96086102  0.06579771  1
  O2-  O220  1  0.08898217  0.96679832  0.39256955  1
  O2-  O221  1  0.08463631  0.96210774  0.74213983  1
  O2-  O222  1  0.57612226  0.44870407  0.06641106  1
  O2-  O223  1  0.58162514  0.44540172  0.39065629  1
  O2-  O224  1  0.57981577  0.45062577  0.73190350  1
  O2-  O225  1  0.58769696  0.96590828  0.06499200  1
  O2-  O226  1  0.58888323  0.96735724  0.39846367  1
  O2-  O227  1  0.58550889  0.95287081  0.73085307  1
  O2-  O228  1  0.21042058  0.33540020  0.06300188  1
  O2-  O229  1  0.21242125  0.32952769  0.39973077  1
  O2-  O230  1  0.20390065  0.32883286  0.73409881  1
  O2-  O231  1  0.20672524  0.83703875  0.06558887  1
  O2-  O232  1  0.19955794  0.83848587  0.39061770  1
  O2-  O233  1  0.20254557  0.82977560  0.74069858  1
  O2-  O234  1  0.71058342  0.32951525  0.06865940  1
  O2-  O235  1  0.70590192  0.33169227  0.39687823  1
  O2-  O236  1  0.71107943  0.33189574  0.73173535  1
  O2-  O237  1  0.70007061  0.83883335  0.06436258  1
  O2-  O238  1  0.69752636  0.83833502  0.39594882  1
  O2-  O239  1  0.70637706  0.83703816  0.73188133  1
  O2-  O240  1  0.45409945  0.41104705  0.26747911  1
  O2-  O241  1  0.45855590  0.41397603  0.59534177  1
  O2-  O242  1  0.44509871  0.41878424  0.94072697  1
  O2-  O243  1  0.46271608  0.92000173  0.26302373  1
  O2-  O244  1  0.45760778  0.91927665  0.60144948  1
  O2-  O245  1  0.46034494  0.91247848  0.93853761  1
  O2-  O246  1  0.94473978  0.41582993  0.26955963  1
  O2-  O247  1  0.95879174  0.41862326  0.59771400  1
  O2-  O248  1  0.95855808  0.40975147  0.93883887  1
  O2-  O249  1  0.96106843  0.91836147  0.26452208  1
  O2-  O250  1  0.96133877  0.91524799  0.60773299  1
  O2-  O251  1  0.96140358  0.91911458  0.93075335  1
  O2-  O252  1  0.34044517  0.28726632  0.26622113  1
  O2-  O253  1  0.33155714  0.28467168  0.59875450  1
  O2-  O254  1  0.33664351  0.28929254  0.93595055  1
  O2-  O255  1  0.32849148  0.80091830  0.26430030  1
  O2-  O256  1  0.32466324  0.80044720  0.60583823  1
  O2-  O257  1  0.33499092  0.79898930  0.94113367  1
  O2-  O258  1  0.83478199  0.28692298  0.26480752  1
  O2-  O259  1  0.83558908  0.28580476  0.59630996  1
  O2-  O260  1  0.84085643  0.28661028  0.93935963  1
  O2-  O261  1  0.82611295  0.80525144  0.27212415  1
  O2-  O262  1  0.83676283  0.80244626  0.60697278  1
  O2-  O263  1  0.82452752  0.80420313  0.93357919  1
  O2-  O264  1  0.41440433  0.04196597  0.06334509  1
  O2-  O265  1  0.41611605  0.04739903  0.39323576  1
  O2-  O266  1  0.42378007  0.04707852  0.73428112  1
  O2-  O267  1  0.41087663  0.54627717  0.06484634  1
  O2-  O268  1  0.41924813  0.54076407  0.39660457  1
  O2-  O269  1  0.41989680  0.54019471  0.73293118  1
  O2-  O270  1  0.91636646  0.04368979  0.06319761  1
  O2-  O271  1  0.91492914  0.04476087  0.39300644  1
  O2-  O272  1  0.91461274  0.04019542  0.73847106  1
  O2-  O273  1  0.91880911  0.53869851  0.06693772  1
  O2-  O274  1  0.91427499  0.54187643  0.40071065  1
  O2-  O275  1  0.91821084  0.54171083  0.73431173  1
  O2-  O276  1  0.29408633  0.16196802  0.06474042  1
  O2-  O277  1  0.29322709  0.16197825  0.39188255  1
  O2-  O278  1  0.29195069  0.16541052  0.73981024  1
  O2-  O279  1  0.29146900  0.66551053  0.06172158  1
  O2-  O280  1  0.29661015  0.67462488  0.39736958  1
  O2-  O281  1  0.29354874  0.66772175  0.73567722  1
  O2-  O282  1  0.79394915  0.16042768  0.06666802  1
  O2-  O283  1  0.79119836  0.16111992  0.39489739  1
  O2-  O284  1  0.79006533  0.16618996  0.73449122  1
  O2-  O285  1  0.79283060  0.67289529  0.06590465  1
  O2-  O286  1  0.78878239  0.67102162  0.39841298  1
  O2-  O287  1  0.79758160  0.67408838  0.73392337  1
