# generated using pymatgen
data_Ca2Al2SiO7
_symmetry_space_group_name_H-M   'P 1'
_cell_length_a   15.46371179
_cell_length_b   15.46380547
_cell_length_c   15.28862385
_cell_angle_alpha   89.99400043
_cell_angle_beta   90.01039461
_cell_angle_gamma   89.99757353
_symmetry_Int_Tables_number   1
_chemical_formula_structural   Ca2Al2SiO7
_chemical_formula_sum   'Ca48 Al48 Si24 O168'
_cell_volume   3655.93537922
_cell_formula_units_Z   24
loop_
 _symmetry_equiv_pos_site_id
 _symmetry_equiv_pos_as_xyz
  1  'x, y, z'
loop_
 _atom_type_symbol
 _atom_type_oxidation_number
  Ca2+  2.0
  Al0+  0.0
  Si0+  0.0
  O2-  -2.0
loop_
 _atom_site_type_symbol
 _atom_site_label
 _atom_site_symmetry_multiplicity
 _atom_site_fract_x
 _atom_site_fract_y
 _atom_site_fract_z
 _atom_site_occupancy
  Ca2+  Ca0  1  0.16612443  0.08670288  0.16759081  1
  Ca2+  Ca1  1  0.17599612  0.08525437  0.51024818  1
  Ca2+  Ca2  1  0.17249117  0.09439084  0.83409883  1
  Ca2+  Ca3  1  0.18218673  0.57115252  0.17354565  1
  Ca2+  Ca4  1  0.17178723  0.57177126  0.50524745  1
  Ca2+  Ca5  1  0.17327111  0.57323630  0.84013271  1
  Ca2+  Ca6  1  0.66352251  0.07931691  0.17369928  1
  Ca2+  Ca7  1  0.66066216  0.08591947  0.50336907  1
  Ca2+  Ca8  1  0.66473256  0.08135374  0.84444872  1
  Ca2+  Ca9  1  0.66673433  0.58684512  0.17414812  1
  Ca2+  Ca10  1  0.66729039  0.58088336  0.50086576  1
  Ca2+  Ca11  1  0.65834333  0.57647730  0.83607963  1
  Ca2+  Ca12  1  0.08452126  0.33423966  0.16112189  1
  Ca2+  Ca13  1  0.09214051  0.33173994  0.49892127  1
  Ca2+  Ca14  1  0.08863196  0.32868939  0.82941862  1
  Ca2+  Ca15  1  0.07877801  0.83153928  0.16113139  1
  Ca2+  Ca16  1  0.08434523  0.82384654  0.49809325  1
  Ca2+  Ca17  1  0.08254356  0.82470186  0.82431594  1
  Ca2+  Ca18  1  0.57259178  0.32846133  0.15889325  1
  Ca2+  Ca19  1  0.57538429  0.32868391  0.49427317  1
  Ca2+  Ca20  1  0.57327629  0.32714337  0.82494117  1
  Ca2+  Ca21  1  0.59618508  0.82470464  0.16550329  1
  Ca2+  Ca22  1  0.58002391  0.83095666  0.49435661  1
  Ca2+  Ca23  1  0.58218508  0.82925735  0.83241245  1
  Ca2+  Ca24  1  0.33108662  0.41497961  0.17005945  1
  Ca2+  Ca25  1  0.33100750  0.41245143  0.50382915  1
  Ca2+  Ca26  1  0.32726069  0.41043182  0.83952077  1
  Ca2+  Ca27  1  0.33201194  0.91946450  0.16967340  1
  Ca2+  Ca28  1  0.34071532  0.92435807  0.50884880  1
  Ca2+  Ca29  1  0.34053117  0.92355377  0.83119272  1
  Ca2+  Ca30  1  0.83027111  0.42296348  0.17356690  1
  Ca2+  Ca31  1  0.82430598  0.41905255  0.50345005  1
  Ca2+  Ca32  1  0.82497437  0.41423579  0.83138473  1
  Ca2+  Ca33  1  0.82180077  0.92983494  0.17017277  1
  Ca2+  Ca34  1  0.82534847  0.92260506  0.49763229  1
  Ca2+  Ca35  1  0.82502185  0.92478406  0.84395567  1
  Ca2+  Ca36  1  0.42550814  0.17798788  0.16333357  1
  Ca2+  Ca37  1  0.42256999  0.17606030  0.49826207  1
  Ca2+  Ca38  1  0.42260448  0.17538252  0.82572903  1
  Ca2+  Ca39  1  0.42405900  0.65969705  0.16311768  1
  Ca2+  Ca40  1  0.41771849  0.67153840  0.49291371  1
  Ca2+  Ca41  1  0.41527699  0.67121698  0.83285616  1
  Ca2+  Ca42  1  0.91989537  0.15906519  0.16127949  1
  Ca2+  Ca43  1  0.92177460  0.16504273  0.49712364  1
  Ca2+  Ca44  1  0.92714922  0.16116777  0.83170965  1
  Ca2+  Ca45  1  0.91357579  0.66675282  0.16337995  1
  Ca2+  Ca46  1  0.92251092  0.65822807  0.49564834  1
  Ca2+  Ca47  1  0.92492554  0.66775176  0.82578840  1
  Al0+  Al48  1  -0.00145557  -0.00032498  -0.00188796  1
  Al0+  Al49  1  -0.00211411  -0.00202989  0.33686052  1
  Al0+  Al50  1  -0.00056985  -0.00112624  0.66178857  1
  Al0+  Al51  1  0.00024033  0.49940733  0.00176493  1
  Al0+  Al52  1  0.00144609  0.49787344  0.33885202  1
  Al0+  Al53  1  0.00054408  0.50004703  0.66704045  1
  Al0+  Al54  1  0.49852726  -0.00268511  0.00455460  1
  Al0+  Al55  1  0.49814830  -0.00119937  0.33313493  1
  Al0+  Al56  1  0.50032787  -0.00130732  0.66609874  1
  Al0+  Al57  1  0.49956526  0.50174384  -0.00549158  1
  Al0+  Al58  1  0.49864656  0.50201448  0.32988989  1
  Al0+  Al59  1  0.50032339  0.50125785  0.66802000  1
  Al0+  Al60  1  0.24795795  0.24884134  -0.00098713  1
  Al0+  Al61  1  0.24958404  0.24751327  0.33185872  1
  Al0+  Al62  1  0.25063355  0.24934805  0.66759109  1
  Al0+  Al63  1  0.25045065  0.74919484  0.00376373  1
  Al0+  Al64  1  0.24884280  0.74757712  0.33411802  1
  Al0+  Al65  1  0.24878053  0.74996226  0.65754848  1
  Al0+  Al66  1  0.75262092  0.25186763  0.00125906  1
  Al0+  Al67  1  0.75389086  0.24942907  0.33312586  1
  Al0+  Al68  1  0.75197690  0.25041102  0.66918208  1
  Al0+  Al69  1  0.74937721  0.75152957  -0.00364946  1
  Al0+  Al70  1  0.75164135  0.75264437  0.33941370  1
  Al0+  Al71  1  0.75161947  0.75243899  0.66773486  1
  Al0+  Al72  1  0.67792524  0.42954149  0.67980512  1
  Al0+  Al73  1  0.18048461  0.42944333  0.68225925  1
  Al0+  Al74  1  0.32245148  0.57243908  0.01528552  1
  Al0+  Al75  1  0.43054872  0.81965901  0.65393781  1
  Al0+  Al76  1  0.07038433  0.17988430  0.65209320  1
  Al0+  Al77  1  0.18140211  0.42682395  0.35030368  1
  Al0+  Al78  1  0.17913267  0.42704064  0.01586979  1
  Al0+  Al79  1  0.42773805  0.32140127  0.31741015  1
  Al0+  Al80  1  0.57177476  0.68053173  0.98566447  1
  Al0+  Al81  1  0.67684993  0.92916737  0.01554224  1
  Al0+  Al82  1  0.32385920  0.57150183  0.35077844  1
  Al0+  Al83  1  0.82192528  0.07315052  0.35136842  1
  Al0+  Al84  1  0.06797692  0.17910192  0.98689421  1
  Al0+  Al85  1  0.32107945  0.06949389  0.68072778  1
  Al0+  Al86  1  0.06983580  0.67767173  0.65173323  1
  Al0+  Al87  1  0.67758181  0.93130186  0.35116954  1
  Al0+  Al88  1  0.82081349  0.57172111  0.34588644  1
  Al0+  Al89  1  0.57151943  0.68173567  0.32171899  1
  Al0+  Al90  1  0.42897876  0.32068636  0.98352502  1
  Al0+  Al91  1  0.57270144  0.17720592  0.98654237  1
  Al0+  Al92  1  0.57313695  0.17824495  0.31834702  1
  Al0+  Al93  1  0.82156112  0.07298111  0.01391615  1
  Al0+  Al94  1  0.57337827  0.17874245  0.65322351  1
  Al0+  Al95  1  0.42859575  0.32271002  0.65136767  1
  Si0+  Si96  1  0.42380326  0.82207943  0.98406203  1
  Si0+  Si97  1  0.06941927  0.17696427  0.31922069  1
  Si0+  Si98  1  0.31983411  0.07047299  0.01577661  1
  Si0+  Si99  1  0.82087373  0.57183826  0.01223384  1
  Si0+  Si100  1  0.17680143  0.92727658  0.68181891  1
  Si0+  Si101  1  0.57435189  0.67855334  0.64986105  1
  Si0+  Si102  1  0.31854530  0.06821713  0.34767803  1
  Si0+  Si103  1  0.42519876  0.82199348  0.31533696  1
  Si0+  Si104  1  0.92709356  0.82197755  0.64721546  1
  Si0+  Si105  1  0.32197681  0.57545438  0.68312862  1
  Si0+  Si106  1  0.17663691  0.92695759  0.34790572  1
  Si0+  Si107  1  0.17758777  0.92762903  0.01300611  1
  Si0+  Si108  1  0.67887672  0.43039536  0.01406795  1
  Si0+  Si109  1  0.07122271  0.67895802  0.98687906  1
  Si0+  Si110  1  0.82319274  0.07070865  0.68275232  1
  Si0+  Si111  1  0.93026676  0.32219102  0.31894031  1
  Si0+  Si112  1  0.92784427  0.32236547  0.64905403  1
  Si0+  Si113  1  0.67755999  0.42785516  0.34673845  1
  Si0+  Si114  1  0.07039360  0.67653400  0.31600078  1
  Si0+  Si115  1  0.67933386  0.92947639  0.68354040  1
  Si0+  Si116  1  0.92742093  0.32717385  0.98225733  1
  Si0+  Si117  1  0.93084177  0.82044712  0.31690956  1
  Si0+  Si118  1  0.82145408  0.57300990  0.68406245  1
  Si0+  Si119  1  0.92999552  0.81977077  0.98448334  1
  O2-  O120  1  0.24781883  -0.00149131  0.05648413  1
  O2-  O121  1  0.24979724  -0.00537134  0.38997930  1
  O2-  O122  1  0.24413137  -0.00437849  0.72783991  1
  O2-  O123  1  0.25388833  0.49659597  0.06418588  1
  O2-  O124  1  0.25510602  0.49664617  0.40052334  1
  O2-  O125  1  0.25727418  0.50305045  0.72752827  1
  O2-  O126  1  0.74208797  0.00886216  0.06324234  1
  O2-  O127  1  0.74320648  0.00906525  0.40213373  1
  O2-  O128  1  0.74859338  0.00304691  0.72428851  1
  O2-  O129  1  0.75029991  0.50179879  0.05578469  1
  O2-  O130  1  0.74411129  0.49913601  0.39132133  1
  O2-  O131  1  0.75045336  0.50735036  0.72826400  1
  O2-  O132  1  -0.00105737  0.24832682  0.27728765  1
  O2-  O133  1  -0.00230045  0.25534258  0.60398089  1
  O2-  O134  1  -0.00568926  0.25518798  0.94081157  1
  O2-  O135  1  0.00007921  0.74812715  0.27269159  1
  O2-  O136  1  -0.00629896  0.75100601  0.60364051  1
  O2-  O137  1  0.00075195  0.74900318  0.94193560  1
  O2-  O138  1  0.50484547  0.25372765  0.26875534  1
  O2-  O139  1  0.50405347  0.25312264  0.60350971  1
  O2-  O140  1  0.50197059  0.24884868  0.93480488  1
  O2-  O141  1  0.49494653  0.75404579  0.27263835  1
  O2-  O142  1  0.50324512  0.74420361  0.60601907  1
  O2-  O143  1  0.49504752  0.75488846  0.94201889  1
  O2-  O144  1  0.06652257  0.17609167  0.10040489  1
  O2-  O145  1  0.06966831  0.17583343  0.42410916  1
  O2-  O146  1  0.06765402  0.17842340  0.76503823  1
  O2-  O147  1  0.06803357  0.68189696  0.09204679  1
  O2-  O148  1  0.06888920  0.67885547  0.42096795  1
  O2-  O149  1  0.06788708  0.68091527  0.76553623  1
  O2-  O150  1  0.56998767  0.17961717  0.09996024  1
  O2-  O151  1  0.56949852  0.17979579  0.43176448  1
  O2-  O152  1  0.57251448  0.17769655  0.76674408  1
  O2-  O153  1  0.57687231  0.68239607  0.09845357  1
  O2-  O154  1  0.57223909  0.68476177  0.43481698  1
  O2-  O155  1  0.57644173  0.68171693  0.75548988  1
  O2-  O156  1  0.17809136  0.42830522  0.23698700  1
  O2-  O157  1  0.17972063  0.43076881  0.56952072  1
  O2-  O158  1  0.17687555  0.43032617  0.90231808  1
  O2-  O159  1  0.17468399  0.92833117  0.24215781  1
  O2-  O160  1  0.17668901  0.92866172  0.57602938  1
  O2-  O161  1  0.17709268  0.92434028  0.90844330  1
  O2-  O162  1  0.68144957  0.42865977  0.24078468  1
  O2-  O163  1  0.68132308  0.43122821  0.56664342  1
  O2-  O164  1  0.68117833  0.43156515  0.90893286  1
  O2-  O165  1  0.68274164  0.92853135  0.23800806  1
  O2-  O166  1  0.68085169  0.92648286  0.57884526  1
  O2-  O167  1  0.68139099  0.92567877  0.90145118  1
  O2-  O168  1  0.42995048  0.31964433  0.09712956  1
  O2-  O169  1  0.42630539  0.31787299  0.43071193  1
  O2-  O170  1  0.42830892  0.31996777  0.76476160  1
  O2-  O171  1  0.41766005  0.82191081  0.08916762  1
  O2-  O172  1  0.42424802  0.82243022  0.42095857  1
  O2-  O173  1  0.43175833  0.81976774  0.76720547  1
  O2-  O174  1  0.92853270  0.33346300  0.08774687  1
  O2-  O175  1  0.93065898  0.32392601  0.42371509  1
  O2-  O176  1  0.92695990  0.32142268  0.75469583  1
  O2-  O177  1  0.93193122  0.81856725  0.08975566  1
  O2-  O178  1  0.93455095  0.82122808  0.42175306  1
  O2-  O179  1  0.92796804  0.82162637  0.75325021  1
  O2-  O180  1  0.31501724  0.06723380  0.24212229  1
  O2-  O181  1  0.31910700  0.06692254  0.56735205  1
  O2-  O182  1  0.31980075  0.06931016  0.91088167  1
  O2-  O183  1  0.32002452  0.57536939  0.23761288  1
  O2-  O184  1  0.31960971  0.57749607  0.57784971  1
  O2-  O185  1  0.31609639  0.57951672  0.90192625  1
  O2-  O186  1  0.83018133  0.06685154  0.23870603  1
  O2-  O187  1  0.82534651  0.06820233  0.57798321  1
  O2-  O188  1  0.82666137  0.06576790  0.90025209  1
  O2-  O189  1  0.82163395  0.57036140  0.23213964  1
  O2-  O190  1  0.82139310  0.57278089  0.57858957  1
  O2-  O191  1  0.82291281  0.57165996  0.90729030  1
  O2-  O192  1  0.04118211  0.08423258  0.27278571  1
  O2-  O193  1  0.04036939  0.08259762  0.59797636  1
  O2-  O194  1  0.03790080  0.08234078  0.93146076  1
  O2-  O195  1  0.04018424  0.58496807  0.27057400  1
  O2-  O196  1  0.03728278  0.58218542  0.59709063  1
  O2-  O197  1  0.04217087  0.58774049  0.93954523  1
  O2-  O198  1  0.53959976  0.08012571  0.26716288  1
  O2-  O199  1  0.54296160  0.08073547  0.60146482  1
  O2-  O200  1  0.54470096  0.07618511  0.93854004  1
  O2-  O201  1  0.54631889  0.58447415  0.26643020  1
  O2-  O202  1  0.55309725  0.58373823  0.60605970  1
  O2-  O203  1  0.54215008  0.58538675  0.92901691  1
  O2-  O204  1  0.16087569  0.20273201  0.27053330  1
  O2-  O205  1  0.16716740  0.20872982  0.59890090  1
  O2-  O206  1  0.16465351  0.20751327  0.93288423  1
  O2-  O207  1  0.16170214  0.70631728  0.26879417  1
  O2-  O208  1  0.16321761  0.71065442  0.59362810  1
  O2-  O209  1  0.16221415  0.70892181  0.94009299  1
  O2-  O210  1  0.67541101  0.19938586  0.26980767  1
  O2-  O211  1  0.67394241  0.20354559  0.60308549  1
  O2-  O212  1  0.67391916  0.20238538  0.93761126  1
  O2-  O213  1  0.66955987  0.71434504  0.26962140  1
  O2-  O214  1  0.66806046  0.70704849  0.60507176  1
  O2-  O215  1  0.66732805  0.71218855  0.92848730  1
  O2-  O216  1  0.08062712  0.45849727  0.06831635  1
  O2-  O217  1  0.08382699  0.45756203  0.40381759  1
  O2-  O218  1  0.08257189  0.46064370  0.73443984  1
  O2-  O219  1  0.08620178  0.95587328  0.06148427  1
  O2-  O220  1  0.08650625  0.95544081  0.39710795  1
  O2-  O221  1  0.08171908  0.95040210  0.72650201  1
  O2-  O222  1  0.58754740  0.45974473  0.05993716  1
  O2-  O223  1  0.58380673  0.45205264  0.39130621  1
  O2-  O224  1  0.58221455  0.45991692  0.73641669  1
  O2-  O225  1  0.57597086  0.94516195  0.06831218  1
  O2-  O226  1  0.57573661  0.95157249  0.40090421  1
  O2-  O227  1  0.58727139  0.95416046  0.73067022  1
  O2-  O228  1  0.20324221  0.32713309  0.06773954  1
  O2-  O229  1  0.20609499  0.32593391  0.40019566  1
  O2-  O230  1  0.20884020  0.33195051  0.73506602  1
  O2-  O231  1  0.20440348  0.83728578  0.06448178  1
  O2-  O232  1  0.20048051  0.83379293  0.39390561  1
  O2-  O233  1  0.20246586  0.83265826  0.72568563  1
  O2-  O234  1  0.70689332  0.33964511  0.06288413  1
  O2-  O235  1  0.70778170  0.33629626  0.39364572  1
  O2-  O236  1  0.71369599  0.33501926  0.73592704  1
  O2-  O237  1  0.71662852  0.83312100  0.06724460  1
  O2-  O238  1  0.71483115  0.83664862  0.40656719  1
  O2-  O239  1  0.71044608  0.83836478  0.73196777  1
  O2-  O240  1  0.45077295  0.42150948  0.26618539  1
  O2-  O241  1  0.45392709  0.42324218  0.60124078  1
  O2-  O242  1  0.45493898  0.41952385  0.93126216  1
  O2-  O243  1  0.44807757  0.91604094  0.26942705  1
  O2-  O244  1  0.46341489  0.91443671  0.59825639  1
  O2-  O245  1  0.44872458  0.91600794  0.93889773  1
  O2-  O246  1  0.96083331  0.41300485  0.26999818  1
  O2-  O247  1  0.95036146  0.41716067  0.60471795  1
  O2-  O248  1  0.95487737  0.41924170  0.93283565  1
  O2-  O249  1  0.96280797  0.91075717  0.26832609  1
  O2-  O250  1  0.95498485  0.91352440  0.59902185  1
  O2-  O251  1  0.95937332  0.90991358  0.93546921  1
  O2-  O252  1  0.33129280  0.28480903  0.26381120  1
  O2-  O253  1  0.33190280  0.28925645  0.59910204  1
  O2-  O254  1  0.33024952  0.28957642  0.93359156  1
  O2-  O255  1  0.33026142  0.79752635  0.27003238  1
  O2-  O256  1  0.33342565  0.79519043  0.59760737  1
  O2-  O257  1  0.33117710  0.79494894  0.93548102  1
  O2-  O258  1  0.83831078  0.29914500  0.26946204  1
  O2-  O259  1  0.83558879  0.29464304  0.60191689  1
  O2-  O260  1  0.83327875  0.30412162  0.93652794  1
  O2-  O261  1  0.83911757  0.79241967  0.27085681  1
  O2-  O262  1  0.83292148  0.79811845  0.60171497  1
  O2-  O263  1  0.83999355  0.79110287  0.93478915  1
  O2-  O264  1  0.40949033  0.04125876  0.06616659  1
  O2-  O265  1  0.40996836  0.04181237  0.39530510  1
  O2-  O266  1  0.41599310  0.03418255  0.73555344  1
  O2-  O267  1  0.42333351  0.54805181  0.06423256  1
  O2-  O268  1  0.42467785  0.55056857  0.40144408  1
  O2-  O269  1  0.41808367  0.55721441  0.72665784  1
  O2-  O270  1  0.91704919  0.03392716  0.06809485  1
  O2-  O271  1  0.91741483  0.03453000  0.40634725  1
  O2-  O272  1  0.91394445  0.03687426  0.72962160  1
  O2-  O273  1  0.91234581  0.54533201  0.06149354  1
  O2-  O274  1  0.91547009  0.53784657  0.40140922  1
  O2-  O275  1  0.91406370  0.54505210  0.73093456  1
  O2-  O276  1  0.28825842  0.16004426  0.06435312  1
  O2-  O277  1  0.28677705  0.15791377  0.39538404  1
  O2-  O278  1  0.28841031  0.16434453  0.73575329  1
  O2-  O279  1  0.29048667  0.66923419  0.07109987  1
  O2-  O280  1  0.29065789  0.66980295  0.40296826  1
  O2-  O281  1  0.29024999  0.66832083  0.72797686  1
  O2-  O282  1  0.80798592  0.17559690  0.06351189  1
  O2-  O283  1  0.80622781  0.17533260  0.40109632  1
  O2-  O284  1  0.80295342  0.16431857  0.72894720  1
  O2-  O285  1  0.79397851  0.66416666  0.05877336  1
  O2-  O286  1  0.79537210  0.66794063  0.40228914  1
  O2-  O287  1  0.80032027  0.66865033  0.72905310  1
