# generated using pymatgen
data_Ca2Al2SiO7
_symmetry_space_group_name_H-M   'P 1'
_cell_length_a   15.46940315
_cell_length_b   15.46922987
_cell_length_c   15.29176021
_cell_angle_alpha   90.00465059
_cell_angle_beta   90.00529955
_cell_angle_gamma   90.02631392
_symmetry_Int_Tables_number   1
_chemical_formula_structural   Ca2Al2SiO7
_chemical_formula_sum   'Ca48 Al48 Si24 O168'
_cell_volume   3659.31403269
_cell_formula_units_Z   24
loop_
 _symmetry_equiv_pos_site_id
 _symmetry_equiv_pos_as_xyz
  1  'x, y, z'
loop_
 _atom_type_symbol
 _atom_type_oxidation_number
  Ca2+  2.0
  Al0+  0.0
  Si0+  0.0
  O2-  -2.0
loop_
 _atom_site_type_symbol
 _atom_site_label
 _atom_site_symmetry_multiplicity
 _atom_site_fract_x
 _atom_site_fract_y
 _atom_site_fract_z
 _atom_site_occupancy
  Ca2+  Ca0  1  0.16480015  0.07071132  0.17007797  1
  Ca2+  Ca1  1  0.16104577  0.07328307  0.50588682  1
  Ca2+  Ca2  1  0.15441418  0.07253867  0.83182198  1
  Ca2+  Ca3  1  0.17346358  0.58166533  0.17408780  1
  Ca2+  Ca4  1  0.16719826  0.57353784  0.51141383  1
  Ca2+  Ca5  1  0.17763946  0.59503541  0.83320432  1
  Ca2+  Ca6  1  0.67877506  0.07723293  0.17635438  1
  Ca2+  Ca7  1  0.67646024  0.07133811  0.50398063  1
  Ca2+  Ca8  1  0.67838031  0.07320853  0.83511629  1
  Ca2+  Ca9  1  0.67092888  0.58220353  0.17498647  1
  Ca2+  Ca10  1  0.66593905  0.58630651  0.49899738  1
  Ca2+  Ca11  1  0.66407281  0.58790717  0.83552542  1
  Ca2+  Ca12  1  0.07089685  0.33673709  0.16512337  1
  Ca2+  Ca13  1  0.08513374  0.32880997  0.49264266  1
  Ca2+  Ca14  1  0.08057592  0.32671960  0.82510589  1
  Ca2+  Ca15  1  0.07919416  0.83929188  0.16130699  1
  Ca2+  Ca16  1  0.08281466  0.83419987  0.50049460  1
  Ca2+  Ca17  1  0.07714850  0.83688887  0.82510086  1
  Ca2+  Ca18  1  0.58826968  0.33472691  0.16479427  1
  Ca2+  Ca19  1  0.58553889  0.33362658  0.49358422  1
  Ca2+  Ca20  1  0.58049711  0.33131836  0.82874751  1
  Ca2+  Ca21  1  0.58881822  0.82307112  0.16557015  1
  Ca2+  Ca22  1  0.58283528  0.82838654  0.49029527  1
  Ca2+  Ca23  1  0.58346098  0.82231081  0.82374748  1
  Ca2+  Ca24  1  0.32698548  0.42415566  0.17174518  1
  Ca2+  Ca25  1  0.32210780  0.42280809  0.50809773  1
  Ca2+  Ca26  1  0.32378864  0.42703665  0.83302661  1
  Ca2+  Ca27  1  0.32313952  0.90840223  0.17256521  1
  Ca2+  Ca28  1  0.32424769  0.90693190  0.50103647  1
  Ca2+  Ca29  1  0.31776753  0.90939087  0.83511037  1
  Ca2+  Ca30  1  0.83299602  0.42102184  0.17999946  1
  Ca2+  Ca31  1  0.83473636  0.42237689  0.49398673  1
  Ca2+  Ca32  1  0.83486279  0.41802681  0.83721594  1
  Ca2+  Ca33  1  0.83411112  0.92666670  0.17357208  1
  Ca2+  Ca34  1  0.82592973  0.92006282  0.50881012  1
  Ca2+  Ca35  1  0.84387998  0.92411536  0.83523125  1
  Ca2+  Ca36  1  0.41998818  0.16807892  0.16438841  1
  Ca2+  Ca37  1  0.41707578  0.16875222  0.49465582  1
  Ca2+  Ca38  1  0.41708804  0.16847110  0.82736722  1
  Ca2+  Ca39  1  0.42689610  0.66733533  0.16453581  1
  Ca2+  Ca40  1  0.42539698  0.66830661  0.49520096  1
  Ca2+  Ca41  1  0.42352084  0.65713064  0.82866460  1
  Ca2+  Ca42  1  0.90634385  0.17599346  0.16354715  1
  Ca2+  Ca43  1  0.91482109  0.16735837  0.49790238  1
  Ca2+  Ca44  1  0.91545762  0.16836665  0.82825533  1
  Ca2+  Ca45  1  0.91624081  0.67239263  0.16131053  1
  Ca2+  Ca46  1  0.91914121  0.67020200  0.49847312  1
  Ca2+  Ca47  1  0.92252841  0.68334375  0.82397455  1
  Al0+  Al48  1  -0.00078031  0.00220239  0.00688200  1
  Al0+  Al49  1  0.00347028  0.00107075  0.33982759  1
  Al0+  Al50  1  -0.00088488  0.00373652  0.66485703  1
  Al0+  Al51  1  0.00029809  0.49955744  -0.00621016  1
  Al0+  Al52  1  0.00047360  0.49888787  0.33648815  1
  Al0+  Al53  1  -0.00334526  0.49884045  0.66890622  1
  Al0+  Al54  1  0.49910980  -0.00164368  -0.00157452  1
  Al0+  Al55  1  0.49876704  0.00116049  0.32975867  1
  Al0+  Al56  1  0.50112694  0.00009074  0.66965250  1
  Al0+  Al57  1  0.49876332  0.49917249  0.00064983  1
  Al0+  Al58  1  0.50036794  0.49962384  0.33159631  1
  Al0+  Al59  1  0.49850424  0.49910573  0.66542261  1
  Al0+  Al60  1  0.25020989  0.24959572  -0.00035781  1
  Al0+  Al61  1  0.24987700  0.24871156  0.33199393  1
  Al0+  Al62  1  0.24888706  0.25115253  0.66633639  1
  Al0+  Al63  1  0.25244754  0.74922105  0.01130314  1
  Al0+  Al64  1  0.25146987  0.74934884  0.33406671  1
  Al0+  Al65  1  0.25113176  0.74904605  0.67135889  1
  Al0+  Al66  1  0.74888960  0.24937923  -0.00302062  1
  Al0+  Al67  1  0.75062689  0.25164873  0.33700336  1
  Al0+  Al68  1  0.74842074  0.24922779  0.66967257  1
  Al0+  Al69  1  0.75024490  0.74950953  -0.00913890  1
  Al0+  Al70  1  0.75231141  0.75032280  0.33439749  1
  Al0+  Al71  1  0.74843705  0.74826764  0.66204621  1
  Al0+  Al72  1  0.32023024  0.56985731  0.68110912  1
  Al0+  Al73  1  0.18009273  0.93102501  0.01424123  1
  Al0+  Al74  1  0.18111085  0.92799522  0.34894627  1
  Al0+  Al75  1  0.82221525  0.07224374  0.34944853  1
  Al0+  Al76  1  0.17478521  0.42707508  0.68286809  1
  Al0+  Al77  1  0.67779995  0.43013254  0.34741045  1
  Al0+  Al78  1  0.93003819  0.82263052  0.64968016  1
  Al0+  Al79  1  0.32123527  0.56892454  0.01718253  1
  Al0+  Al80  1  0.67821660  0.92835411  0.34584208  1
  Al0+  Al81  1  0.17934023  0.42890294  0.34527875  1
  Al0+  Al82  1  0.07026444  0.18195464  0.65236782  1
  Al0+  Al83  1  0.67755157  0.92515241  0.68286515  1
  Al0+  Al84  1  0.57325319  0.67890472  0.31651375  1
  Al0+  Al85  1  0.81993038  0.07044445  0.68371244  1
  Al0+  Al86  1  0.56909702  0.67895911  0.98476201  1
  Al0+  Al87  1  0.93080163  0.31928647  0.32097771  1
  Al0+  Al88  1  0.92740163  0.32192046  0.98560066  1
  Al0+  Al89  1  0.42797517  0.82208947  0.31723410  1
  Al0+  Al90  1  0.82300251  0.57311393  0.34727647  1
  Al0+  Al91  1  0.07274853  0.67866333  0.65256805  1
  Al0+  Al92  1  0.18038076  0.93036759  0.67967236  1
  Al0+  Al93  1  0.56966460  0.67750924  0.65108129  1
  Al0+  Al94  1  0.93137997  0.82212794  0.98874990  1
  Al0+  Al95  1  0.81893088  0.07108288  0.01530265  1
  Si0+  Si96  1  0.07488679  0.67796111  0.98639413  1
  Si0+  Si97  1  0.32320827  0.07405342  0.68238831  1
  Si0+  Si98  1  0.67685940  0.92567237  0.01566152  1
  Si0+  Si99  1  0.07171839  0.17954419  0.98471716  1
  Si0+  Si100  1  0.07076925  0.67808349  0.31965227  1
  Si0+  Si101  1  0.42839257  0.82378224  0.65171480  1
  Si0+  Si102  1  0.92356047  0.32239879  0.64840622  1
  Si0+  Si103  1  0.82058039  0.57162223  0.68344275  1
  Si0+  Si104  1  0.07408874  0.17659730  0.31422015  1
  Si0+  Si105  1  0.42709324  0.32074556  0.31727599  1
  Si0+  Si106  1  0.67982700  0.42958836  0.01232227  1
  Si0+  Si107  1  0.42981781  0.31956159  0.65117020  1
  Si0+  Si108  1  0.57112728  0.18074965  0.31815935  1
  Si0+  Si109  1  0.93152529  0.82296632  0.31917955  1
  Si0+  Si110  1  0.17695421  0.42556109  0.01714679  1
  Si0+  Si111  1  0.42898385  0.31991866  0.98443953  1
  Si0+  Si112  1  0.67834657  0.42970642  0.68212711  1
  Si0+  Si113  1  0.42611757  0.82179496  0.98225500  1
  Si0+  Si114  1  0.82149632  0.57171131  0.01101767  1
  Si0+  Si115  1  0.57086729  0.17871669  0.65111847  1
  Si0+  Si116  1  0.57083417  0.17751140  0.98411529  1
  Si0+  Si117  1  0.32500918  0.07406235  0.01681211  1
  Si0+  Si118  1  0.32221492  0.57087102  0.35070917  1
  Si0+  Si119  1  0.32265577  0.07325219  0.34876283  1
  O2-  O120  1  0.25738425  0.00446028  0.05993666  1
  O2-  O121  1  0.25748817  0.00224995  0.39311030  1
  O2-  O122  1  0.25583498  0.00473130  0.72692113  1
  O2-  O123  1  0.24226646  0.49726186  0.06176496  1
  O2-  O124  1  0.25304199  0.50276440  0.39370504  1
  O2-  O125  1  0.24157641  0.50456849  0.73192985  1
  O2-  O126  1  0.74453987  -0.00487403  0.06006431  1
  O2-  O127  1  0.75322234  -0.00363533  0.39687362  1
  O2-  O128  1  0.75340595  -0.00707910  0.73352231  1
  O2-  O129  1  0.75341013  0.49783207  0.05362906  1
  O2-  O130  1  0.74637857  0.50498614  0.39698452  1
  O2-  O131  1  0.74882489  0.50013935  0.72525254  1
  O2-  O132  1  0.00309166  0.24351493  0.27119536  1
  O2-  O133  1  -0.00272133  0.25855078  0.60611023  1
  O2-  O134  1  0.00441915  0.24942173  0.94029873  1
  O2-  O135  1  0.00178178  0.75082174  0.27637037  1
  O2-  O136  1  0.00253224  0.75061162  0.59978478  1
  O2-  O137  1  0.00703739  0.74758859  0.94326623  1
  O2-  O138  1  0.50047512  0.25219067  0.27455761  1
  O2-  O139  1  0.49793393  0.24681473  0.60760509  1
  O2-  O140  1  0.49693499  0.24601122  0.94153309  1
  O2-  O141  1  0.50292299  0.75302276  0.26673878  1
  O2-  O142  1  0.49912646  0.75731289  0.60788163  1
  O2-  O143  1  0.49578174  0.75489239  0.93746873  1
  O2-  O144  1  0.07340611  0.18090825  0.09012567  1
  O2-  O145  1  0.07811359  0.17880059  0.41940164  1
  O2-  O146  1  0.06985499  0.18215868  0.76598385  1
  O2-  O147  1  0.07211892  0.67552311  0.09240581  1
  O2-  O148  1  0.07038791  0.67778692  0.42426527  1
  O2-  O149  1  0.07103138  0.68240725  0.76668611  1
  O2-  O150  1  0.57085137  0.18023872  0.08924716  1
  O2-  O151  1  0.56798614  0.18174592  0.42324120  1
  O2-  O152  1  0.56936315  0.18225768  0.75662656  1
  O2-  O153  1  0.57086501  0.67743393  0.09726011  1
  O2-  O154  1  0.56847624  0.67693127  0.42965701  1
  O2-  O155  1  0.56584916  0.67420915  0.76459151  1
  O2-  O156  1  0.18081679  0.43174568  0.23165566  1
  O2-  O157  1  0.18101348  0.42502049  0.56932505  1
  O2-  O158  1  0.17988020  0.42170534  0.91218220  1
  O2-  O159  1  0.17977749  0.93029284  0.23559566  1
  O2-  O160  1  0.18331538  0.93102216  0.56700951  1
  O2-  O161  1  0.17975446  0.93247544  0.90125860  1
  O2-  O162  1  0.67979040  0.42813172  0.23318163  1
  O2-  O163  1  0.67731561  0.42813132  0.57765961  1
  O2-  O164  1  0.67797088  0.42898552  0.90693309  1
  O2-  O165  1  0.68066935  0.93096777  0.23155837  1
  O2-  O166  1  0.67457325  0.93009679  0.56960243  1
  O2-  O167  1  0.67545215  0.92779375  0.91045983  1
  O2-  O168  1  0.43031736  0.31927433  0.08963627  1
  O2-  O169  1  0.42551263  0.31790658  0.42227701  1
  O2-  O170  1  0.43276447  0.31871620  0.75672419  1
  O2-  O171  1  0.42680219  0.82148242  0.08746707  1
  O2-  O172  1  0.42615180  0.81895094  0.43081350  1
  O2-  O173  1  0.42867507  0.82431725  0.75752559  1
  O2-  O174  1  0.92607836  0.32293145  0.09855366  1
  O2-  O175  1  0.93251495  0.31971704  0.43351485  1
  O2-  O176  1  0.92028759  0.31928418  0.75441719  1
  O2-  O177  1  0.93104023  0.82001722  0.10233008  1
  O2-  O178  1  0.93307520  0.82331684  0.42371597  1
  O2-  O179  1  0.93285061  0.82225684  0.76388673  1
  O2-  O180  1  0.32060298  0.07736670  0.24309539  1
  O2-  O181  1  0.32452520  0.07610343  0.57704010  1
  O2-  O182  1  0.32670639  0.07711012  0.91161549  1
  O2-  O183  1  0.32129748  0.56830845  0.24462987  1
  O2-  O184  1  0.32351729  0.56497933  0.56793940  1
  O2-  O185  1  0.32221327  0.56617900  0.90447969  1
  O2-  O186  1  0.81900754  0.07267039  0.23524301  1
  O2-  O187  1  0.81539687  0.07389408  0.57080935  1
  O2-  O188  1  0.81847626  0.07220134  0.90268207  1
  O2-  O189  1  0.82493975  0.57043075  0.23268868  1
  O2-  O190  1  0.82158411  0.57043284  0.57878344  1
  O2-  O191  1  0.81892675  0.57066664  0.90602677  1
  O2-  O192  1  0.04969260  0.08174180  0.27025373  1
  O2-  O193  1  0.03941844  0.08685278  0.59677456  1
  O2-  O194  1  0.04256781  0.08662356  0.94018390  1
  O2-  O195  1  0.04192003  0.58725837  0.27082452  1
  O2-  O196  1  0.04285543  0.57851495  0.60318457  1
  O2-  O197  1  0.05236000  0.58473953  0.93846372  1
  O2-  O198  1  0.54282566  0.09080145  0.26747400  1
  O2-  O199  1  0.54467306  0.08651136  0.60445482  1
  O2-  O200  1  0.54506599  0.08509557  0.93672026  1
  O2-  O201  1  0.54307301  0.57960839  0.26392480  1
  O2-  O202  1  0.53564996  0.58137959  0.59777526  1
  O2-  O203  1  0.53654335  0.58137808  0.93231877  1
  O2-  O204  1  0.16705567  0.20339653  0.26627157  1
  O2-  O205  1  0.16817388  0.20990968  0.59842298  1
  O2-  O206  1  0.16647309  0.20200754  0.93832817  1
  O2-  O207  1  0.16357442  0.70381762  0.27281887  1
  O2-  O208  1  0.17309701  0.70352251  0.60213379  1
  O2-  O209  1  0.16991903  0.70444489  0.94470555  1
  O2-  O210  1  0.66203777  0.21072940  0.27062517  1
  O2-  O211  1  0.66059826  0.21177445  0.60396784  1
  O2-  O212  1  0.65933299  0.21000060  0.93376839  1
  O2-  O213  1  0.67370908  0.70487794  0.26467398  1
  O2-  O214  1  0.66751933  0.70102072  0.59794618  1
  O2-  O215  1  0.66542326  0.70694141  0.92867386  1
  O2-  O216  1  0.08105216  0.44951115  0.05924278  1
  O2-  O217  1  0.08453406  0.45812110  0.40083849  1
  O2-  O218  1  0.07320080  0.44541659  0.73258128  1
  O2-  O219  1  0.08594512  0.96477609  0.07119292  1
  O2-  O220  1  0.08669381  0.96006753  0.40469757  1
  O2-  O221  1  0.08448763  0.96471510  0.73225408  1
  O2-  O222  1  0.58875092  0.45753355  0.06055393  1
  O2-  O223  1  0.57730814  0.45209568  0.39930491  1
  O2-  O224  1  0.58635831  0.45644194  0.73009715  1
  O2-  O225  1  0.58196399  0.94997730  0.06017723  1
  O2-  O226  1  0.57955390  0.95973526  0.39618627  1
  O2-  O227  1  0.58078688  0.95880558  0.73765035  1
  O2-  O228  1  0.20650402  0.33332934  0.06441372  1
  O2-  O229  1  0.21106118  0.33172704  0.39684919  1
  O2-  O230  1  0.21236583  0.33177557  0.73717846  1
  O2-  O231  1  0.20851442  0.83507926  0.07084546  1
  O2-  O232  1  0.21107623  0.83088200  0.40186644  1
  O2-  O233  1  0.21016858  0.83470183  0.73584152  1
  O2-  O234  1  0.70361575  0.33640828  0.05843798  1
  O2-  O235  1  0.70734753  0.33356562  0.40246242  1
  O2-  O236  1  0.70511387  0.33808007  0.73126532  1
  O2-  O237  1  0.70474214  0.83139856  0.05846870  1
  O2-  O238  1  0.70255745  0.82945499  0.39735791  1
  O2-  O239  1  0.70003198  0.82385360  0.73145973  1
  O2-  O240  1  0.45311024  0.41244998  0.26917848  1
  O2-  O241  1  0.46120769  0.40886490  0.60243296  1
  O2-  O242  1  0.46203112  0.40901101  0.93596514  1
  O2-  O243  1  0.44781086  0.92352194  0.26526988  1
  O2-  O244  1  0.44982934  0.91909339  0.60669492  1
  O2-  O245  1  0.44650071  0.91733457  0.93695899  1
  O2-  O246  1  0.96344955  0.41590073  0.26623131  1
  O2-  O247  1  0.94213852  0.41860357  0.60644312  1
  O2-  O248  1  0.95487621  0.41863160  0.92913586  1
  O2-  O249  1  0.96258610  0.91479040  0.27258899  1
  O2-  O250  1  0.95654431  0.92151323  0.59862605  1
  O2-  O251  1  0.96291394  0.91963274  0.93729597  1
  O2-  O252  1  0.33752721  0.28960544  0.26650707  1
  O2-  O253  1  0.33800697  0.29353432  0.60377524  1
  O2-  O254  1  0.33670225  0.29423939  0.93666471  1
  O2-  O255  1  0.33046303  0.78881276  0.26325567  1
  O2-  O256  1  0.33557075  0.79506524  0.60670343  1
  O2-  O257  1  0.33191421  0.79312047  0.93917636  1
  O2-  O258  1  0.83236862  0.29119113  0.26745574  1
  O2-  O259  1  0.83108588  0.29163392  0.60276284  1
  O2-  O260  1  0.83090469  0.29085316  0.93070875  1
  O2-  O261  1  0.83956326  0.79739456  0.27131913  1
  O2-  O262  1  0.83166627  0.79193296  0.59885528  1
  O2-  O263  1  0.83683442  0.79115378  0.93126662  1
  O2-  O264  1  0.41940520  0.05028344  0.06302899  1
  O2-  O265  1  0.41778827  0.05355202  0.39337666  1
  O2-  O266  1  0.41716061  0.05146109  0.72950477  1
  O2-  O267  1  0.41578903  0.53121786  0.07133177  1
  O2-  O268  1  0.41529931  0.54317624  0.39480696  1
  O2-  O269  1  0.41563126  0.53109167  0.73551231  1
  O2-  O270  1  0.91494039  0.04355841  0.07114966  1
  O2-  O271  1  0.92232512  0.04993173  0.39942015  1
  O2-  O272  1  0.91990804  0.04717618  0.73516388  1
  O2-  O273  1  0.91554204  0.54807625  0.05612112  1
  O2-  O274  1  0.91768645  0.53834167  0.40309168  1
  O2-  O275  1  0.91088499  0.54414818  0.73396529  1
  O2-  O276  1  0.29942304  0.16789274  0.06362023  1
  O2-  O277  1  0.29592132  0.16589079  0.39639138  1
  O2-  O278  1  0.29769087  0.16731944  0.72915057  1
  O2-  O279  1  0.29499614  0.66481110  0.07415688  1
  O2-  O280  1  0.29777743  0.66424426  0.39535359  1
  O2-  O281  1  0.29848894  0.66865924  0.73679760  1
  O2-  O282  1  0.78369801  0.16782601  0.06736016  1
  O2-  O283  1  0.78971217  0.16854733  0.40213970  1
  O2-  O284  1  0.78437662  0.16725107  0.73775117  1
  O2-  O285  1  0.79146533  0.66299979  0.05794643  1
  O2-  O286  1  0.80050147  0.67181697  0.40034826  1
  O2-  O287  1  0.79154061  0.66282517  0.73055400  1
