# generated using pymatgen
data_Ca2Al2SiO7
_symmetry_space_group_name_H-M   'P 1'
_cell_length_a   15.45712442
_cell_length_b   15.45576035
_cell_length_c   15.28195031
_cell_angle_alpha   90.00448512
_cell_angle_beta   89.99739151
_cell_angle_gamma   89.99871015
_symmetry_Int_Tables_number   1
_chemical_formula_structural   Ca2Al2SiO7
_chemical_formula_sum   'Ca48 Al48 Si24 O168'
_cell_volume   3650.88252625
_cell_formula_units_Z   24
loop_
 _symmetry_equiv_pos_site_id
 _symmetry_equiv_pos_as_xyz
  1  'x, y, z'
loop_
 _atom_type_symbol
 _atom_type_oxidation_number
  Ca2+  2.0
  Al0+  0.0
  Si0+  0.0
  O2-  -2.0
loop_
 _atom_site_type_symbol
 _atom_site_label
 _atom_site_symmetry_multiplicity
 _atom_site_fract_x
 _atom_site_fract_y
 _atom_site_fract_z
 _atom_site_occupancy
  Ca2+  Ca0  1  0.16615795  0.07951040  0.17101194  1
  Ca2+  Ca1  1  0.17615745  0.09255717  0.50112297  1
  Ca2+  Ca2  1  0.17218712  0.07767805  0.83573168  1
  Ca2+  Ca3  1  0.16936243  0.58281462  0.17254710  1
  Ca2+  Ca4  1  0.16125137  0.57102995  0.50288908  1
  Ca2+  Ca5  1  0.17207900  0.58057380  0.84271598  1
  Ca2+  Ca6  1  0.67722037  0.07262994  0.17371964  1
  Ca2+  Ca7  1  0.67733908  0.07967147  0.50504585  1
  Ca2+  Ca8  1  0.67917239  0.07675003  0.84395623  1
  Ca2+  Ca9  1  0.66535350  0.58777464  0.16944231  1
  Ca2+  Ca10  1  0.66068058  0.58171326  0.50494117  1
  Ca2+  Ca11  1  0.65714830  0.58018933  0.83514558  1
  Ca2+  Ca12  1  0.08150239  0.32763440  0.16544233  1
  Ca2+  Ca13  1  0.08770121  0.33011552  0.49102592  1
  Ca2+  Ca14  1  0.07746923  0.33564567  0.83106890  1
  Ca2+  Ca15  1  0.08251494  0.82662561  0.15465051  1
  Ca2+  Ca16  1  0.07664566  0.82930124  0.49504058  1
  Ca2+  Ca17  1  0.07711062  0.83700684  0.83288136  1
  Ca2+  Ca18  1  0.56992345  0.33118744  0.16047410  1
  Ca2+  Ca19  1  0.57055871  0.33640242  0.49688770  1
  Ca2+  Ca20  1  0.57128547  0.33611986  0.82625355  1
  Ca2+  Ca21  1  0.59112405  0.82794610  0.16235237  1
  Ca2+  Ca22  1  0.58877583  0.82480749  0.49393348  1
  Ca2+  Ca23  1  0.59533472  0.82192741  0.83225358  1
  Ca2+  Ca24  1  0.33265260  0.41901187  0.16975711  1
  Ca2+  Ca25  1  0.32340188  0.40863493  0.50391835  1
  Ca2+  Ca26  1  0.33197081  0.41817314  0.83655107  1
  Ca2+  Ca27  1  0.32582917  0.91968388  0.17184911  1
  Ca2+  Ca28  1  0.33491207  0.93093509  0.50369641  1
  Ca2+  Ca29  1  0.32973997  0.92128982  0.84056434  1
  Ca2+  Ca30  1  0.83547927  0.41641424  0.16877652  1
  Ca2+  Ca31  1  0.82370294  0.42079034  0.50881324  1
  Ca2+  Ca32  1  0.82548202  0.41461622  0.83928909  1
  Ca2+  Ca33  1  0.82870933  0.91859710  0.16849995  1
  Ca2+  Ca34  1  0.83439214  0.92379736  0.50242491  1
  Ca2+  Ca35  1  0.83776908  0.92274553  0.84170159  1
  Ca2+  Ca36  1  0.40809363  0.17678036  0.16523144  1
  Ca2+  Ca37  1  0.40763283  0.17456678  0.49355989  1
  Ca2+  Ca38  1  0.41291330  0.17585611  0.82664584  1
  Ca2+  Ca39  1  0.42696127  0.66289025  0.15892932  1
  Ca2+  Ca40  1  0.42855663  0.66516889  0.49597844  1
  Ca2+  Ca41  1  0.42325088  0.66460860  0.83254765  1
  Ca2+  Ca42  1  0.91638749  0.16525098  0.16235093  1
  Ca2+  Ca43  1  0.92079425  0.16308658  0.49416856  1
  Ca2+  Ca44  1  0.91284652  0.16505654  0.83214707  1
  Ca2+  Ca45  1  0.93044515  0.67194120  0.15864086  1
  Ca2+  Ca46  1  0.91971390  0.67355944  0.49516512  1
  Ca2+  Ca47  1  0.91935012  0.68152674  0.83168649  1
  Al0+  Al48  1  0.00303425  0.00067966  0.00442705  1
  Al0+  Al49  1  -0.00029259  0.00022787  0.33243737  1
  Al0+  Al50  1  0.00031278  0.00045147  0.66440802  1
  Al0+  Al51  1  -0.00046961  0.49755197  -0.00763669  1
  Al0+  Al52  1  -0.00070007  0.50083464  0.33452915  1
  Al0+  Al53  1  -0.00161043  0.49983187  0.67172855  1
  Al0+  Al54  1  0.50156865  0.00079125  0.00514633  1
  Al0+  Al55  1  0.50030227  -0.00023584  0.34183630  1
  Al0+  Al56  1  0.50168726  0.00014129  0.67288837  1
  Al0+  Al57  1  0.49803928  0.49903109  -0.00331009  1
  Al0+  Al58  1  0.49887840  0.50080586  0.32509437  1
  Al0+  Al59  1  0.49821248  0.49939083  0.66102776  1
  Al0+  Al60  1  0.24832187  0.25169037  -0.00566039  1
  Al0+  Al61  1  0.24683247  0.25127222  0.32939930  1
  Al0+  Al62  1  0.24848869  0.25058667  0.67361667  1
  Al0+  Al63  1  0.25425914  0.74832875  0.00447193  1
  Al0+  Al64  1  0.25239128  0.74915879  0.33364017  1
  Al0+  Al65  1  0.25030235  0.74945729  0.66353209  1
  Al0+  Al66  1  0.74902923  0.25004012  0.00163501  1
  Al0+  Al67  1  0.74763887  0.25086670  0.33793979  1
  Al0+  Al68  1  0.74852211  0.25075162  0.67468454  1
  Al0+  Al69  1  0.75217957  0.74776486  -0.00468635  1
  Al0+  Al70  1  0.75071901  0.74927032  0.33310831  1
  Al0+  Al71  1  0.75240632  0.74998789  0.65610434  1
  Al0+  Al72  1  0.42823082  0.31780611  0.65119809  1
  Al0+  Al73  1  0.32135076  0.56872284  0.01386713  1
  Al0+  Al74  1  0.67986819  0.92677056  0.35105174  1
  Al0+  Al75  1  0.93150680  0.82232421  0.65037037  1
  Al0+  Al76  1  0.92706908  0.31967484  0.98635950  1
  Al0+  Al77  1  0.57024961  0.68098320  0.31741553  1
  Al0+  Al78  1  0.07195014  0.67774849  0.32096692  1
  Al0+  Al79  1  0.67977396  0.92548494  0.01472972  1
  Al0+  Al80  1  0.93186735  0.82142230  0.98599279  1
  Al0+  Al81  1  0.42891567  0.31915454  0.98386513  1
  Al0+  Al82  1  0.18183233  0.92915813  0.01285152  1
  Al0+  Al83  1  0.31792649  0.07112164  0.34499721  1
  Al0+  Al84  1  0.32201729  0.07106231  0.68135115  1
  Al0+  Al85  1  0.67724199  0.43180274  0.68018959  1
  Al0+  Al86  1  0.57105326  0.68050688  0.98543448  1
  Al0+  Al87  1  0.42834353  0.31867072  0.31849341  1
  Al0+  Al88  1  0.07602553  0.67774023  0.98436144  1
  Al0+  Al89  1  0.56847613  0.68093228  0.65193168  1
  Al0+  Al90  1  0.82227039  0.07241574  0.01695230  1
  Al0+  Al91  1  0.82184374  0.07005675  0.68212479  1
  Al0+  Al92  1  0.17970572  0.43190978  0.34465610  1
  Al0+  Al93  1  0.82222938  0.07272923  0.35041158  1
  Al0+  Al94  1  0.17744023  0.42923031  0.68237050  1
  Al0+  Al95  1  0.06925937  0.17947710  0.32022620  1
  Si0+  Si96  1  0.67585437  0.43006103  0.34671108  1
  Si0+  Si97  1  0.32125203  0.57237661  0.68138581  1
  Si0+  Si98  1  0.82153715  0.57372769  0.68434490  1
  Si0+  Si99  1  0.17746983  0.92474026  0.35056959  1
  Si0+  Si100  1  0.17901654  0.92704184  0.68074673  1
  Si0+  Si101  1  0.32466994  0.57238070  0.35083131  1
  Si0+  Si102  1  0.92990496  0.82117325  0.31540803  1
  Si0+  Si103  1  0.92587221  0.32242003  0.65233991  1
  Si0+  Si104  1  0.17560820  0.42789011  0.01753454  1
  Si0+  Si105  1  0.07317309  0.67589333  0.64982597  1
  Si0+  Si106  1  0.57347286  0.17663766  0.31821773  1
  Si0+  Si107  1  0.32213545  0.07494253  0.01625887  1
  Si0+  Si108  1  0.57353121  0.17692212  0.65135831  1
  Si0+  Si109  1  0.57204622  0.17691009  0.98419565  1
  Si0+  Si110  1  0.67754277  0.43005888  0.01585422  1
  Si0+  Si111  1  0.42539742  0.82550439  0.65013152  1
  Si0+  Si112  1  0.42835310  0.82534927  0.31729539  1
  Si0+  Si113  1  0.07175706  0.17787854  0.98103980  1
  Si0+  Si114  1  0.42882261  0.82472810  0.98528285  1
  Si0+  Si115  1  0.06867519  0.18182327  0.65262117  1
  Si0+  Si116  1  0.92478465  0.32268790  0.32037937  1
  Si0+  Si117  1  0.82196063  0.56912112  0.01368483  1
  Si0+  Si118  1  0.82075047  0.56938524  0.34746565  1
  Si0+  Si119  1  0.67997354  0.92544960  0.68335289  1
  O2-  O120  1  0.25688692  0.00336864  0.06016932  1
  O2-  O121  1  0.24519744  -0.00505333  0.39407531  1
  O2-  O122  1  0.25245361  -0.00949455  0.72546144  1
  O2-  O123  1  0.24264574  0.49819377  0.06101263  1
  O2-  O124  1  0.25275436  0.50688709  0.39455955  1
  O2-  O125  1  0.24920044  0.50765089  0.72629471  1
  O2-  O126  1  0.75098950  -0.00155637  0.06436734  1
  O2-  O127  1  0.75039137  0.00064290  0.40052530  1
  O2-  O128  1  0.74630691  -0.00403764  0.72774635  1
  O2-  O129  1  0.75057925  0.49901016  0.05821338  1
  O2-  O130  1  0.74856336  0.49917817  0.38920999  1
  O2-  O131  1  0.75158586  0.50619557  0.72858708  1
  O2-  O132  1  -0.01089937  0.24997621  0.27638735  1
  O2-  O133  1  -0.00259012  0.25277648  0.60948909  1
  O2-  O134  1  0.00008761  0.24428677  0.93792332  1
  O2-  O135  1  0.00358110  0.75698418  0.27282510  1
  O2-  O136  1  0.00577722  0.74574556  0.60538018  1
  O2-  O137  1  0.00593652  0.75161777  0.93466506  1
  O2-  O138  1  0.50283283  0.24291448  0.27261728  1
  O2-  O139  1  0.50155260  0.24117023  0.60466721  1
  O2-  O140  1  0.50062209  0.24156283  0.93777793  1
  O2-  O141  1  0.49697977  0.75714813  0.27192873  1
  O2-  O142  1  0.49559824  0.75804835  0.60593241  1
  O2-  O143  1  0.50103590  0.76012970  0.93988210  1
  O2-  O144  1  0.07504132  0.18014551  0.08659180  1
  O2-  O145  1  0.07176387  0.18388053  0.43382548  1
  O2-  O146  1  0.06763919  0.18121947  0.75767662  1
  O2-  O147  1  0.07247625  0.67751795  0.09830572  1
  O2-  O148  1  0.06605080  0.67642884  0.43431634  1
  O2-  O149  1  0.07410479  0.67659564  0.75494580  1
  O2-  O150  1  0.57202970  0.18064072  0.08984834  1
  O2-  O151  1  0.57501102  0.18104068  0.42387647  1
  O2-  O152  1  0.57288815  0.18007987  0.75690296  1
  O2-  O153  1  0.57003962  0.67881558  0.09834594  1
  O2-  O154  1  0.56852678  0.67869642  0.43062819  1
  O2-  O155  1  0.56711573  0.68045949  0.76492003  1
  O2-  O156  1  0.17925381  0.43227438  0.23195283  1
  O2-  O157  1  0.17761606  0.42784467  0.56887717  1
  O2-  O158  1  0.17708512  0.42763985  0.91173228  1
  O2-  O159  1  0.17947428  0.92373788  0.24505460  1
  O2-  O160  1  0.17874654  0.92826114  0.57511836  1
  O2-  O161  1  0.18316767  0.93201778  0.89921387  1
  O2-  O162  1  0.67669054  0.43007744  0.24145778  1
  O2-  O163  1  0.67861206  0.43307476  0.56649021  1
  O2-  O164  1  0.67709381  0.43160642  0.91063920  1
  O2-  O165  1  0.68300609  0.92517142  0.23770266  1
  O2-  O166  1  0.68080607  0.92659535  0.57783495  1
  O2-  O167  1  0.68147474  0.92660145  0.90085088  1
  O2-  O168  1  0.42947715  0.31879726  0.09722958  1
  O2-  O169  1  0.42867717  0.31885790  0.43173861  1
  O2-  O170  1  0.42975301  0.31859649  0.76426006  1
  O2-  O171  1  0.42749561  0.82316987  0.09074039  1
  O2-  O172  1  0.42775452  0.82348758  0.42311311  1
  O2-  O173  1  0.42194306  0.82403379  0.75549003  1
  O2-  O174  1  0.92872577  0.32135943  0.09971423  1
  O2-  O175  1  0.92554774  0.32562528  0.42619607  1
  O2-  O176  1  0.92667588  0.32156407  0.75727407  1
  O2-  O177  1  0.93202548  0.81763552  0.09959943  1
  O2-  O178  1  0.93031511  0.81892811  0.42147860  1
  O2-  O179  1  0.93312270  0.82292702  0.76312561  1
  O2-  O180  1  0.31484302  0.07025068  0.23197504  1
  O2-  O181  1  0.31755099  0.07343430  0.56815469  1
  O2-  O182  1  0.32027043  0.07441312  0.91041277  1
  O2-  O183  1  0.32610139  0.57001822  0.24534156  1
  O2-  O184  1  0.32105357  0.57175702  0.57569661  1
  O2-  O185  1  0.32290894  0.56587159  0.90044491  1
  O2-  O186  1  0.82079235  0.07351994  0.23744350  1
  O2-  O187  1  0.82250086  0.07003389  0.56924093  1
  O2-  O188  1  0.82037806  0.07203700  0.90303406  1
  O2-  O189  1  0.82225282  0.56784858  0.24227424  1
  O2-  O190  1  0.82316139  0.57034487  0.57813460  1
  O2-  O191  1  0.82049450  0.56790248  0.90870603  1
  O2-  O192  1  0.04494517  0.08102167  0.26656602  1
  O2-  O193  1  0.04287691  0.09027170  0.60392006  1
  O2-  O194  1  0.04900354  0.08363165  0.93589988  1
  O2-  O195  1  0.03589476  0.58328731  0.26592077  1
  O2-  O196  1  0.04338220  0.58224457  0.60510934  1
  O2-  O197  1  0.04580235  0.58013908  0.93136926  1
  O2-  O198  1  0.55024879  0.08112036  0.27608448  1
  O2-  O199  1  0.55359208  0.08046376  0.60868993  1
  O2-  O200  1  0.55132886  0.08138289  0.93966495  1
  O2-  O201  1  0.53925825  0.58538523  0.26148730  1
  O2-  O202  1  0.53529450  0.58576202  0.59592421  1
  O2-  O203  1  0.53495283  0.58533829  0.93179368  1
  O2-  O204  1  0.16133449  0.21571103  0.26192247  1
  O2-  O205  1  0.16042606  0.21220128  0.60692941  1
  O2-  O206  1  0.16319823  0.20670380  0.93175606  1
  O2-  O207  1  0.17218854  0.70082602  0.27091751  1
  O2-  O208  1  0.16727823  0.69840288  0.60257663  1
  O2-  O209  1  0.17627031  0.70350114  0.93455793  1
  O2-  O210  1  0.66582013  0.20579073  0.27092797  1
  O2-  O211  1  0.66640454  0.20703330  0.60588321  1
  O2-  O212  1  0.66420474  0.20592815  0.93755173  1
  O2-  O213  1  0.66909035  0.70786749  0.26565750  1
  O2-  O214  1  0.66590037  0.70683029  0.59648764  1
  O2-  O215  1  0.66851197  0.70477847  0.92984164  1
  O2-  O216  1  0.08014535  0.44994202  0.06087090  1
  O2-  O217  1  0.08264799  0.46091721  0.40074655  1
  O2-  O218  1  0.07952930  0.45588670  0.73629077  1
  O2-  O219  1  0.08729828  0.96014770  0.06991934  1
  O2-  O220  1  0.08307504  0.94921734  0.39450809  1
  O2-  O221  1  0.08835243  0.96012657  0.72761530  1
  O2-  O222  1  0.58682391  0.46052812  0.06313219  1
  O2-  O223  1  0.58481940  0.46190861  0.39328103  1
  O2-  O224  1  0.58032820  0.46396917  0.73287529  1
  O2-  O225  1  0.58047454  0.95145434  0.06845733  1
  O2-  O226  1  0.58068589  0.95094584  0.40482643  1
  O2-  O227  1  0.58494612  0.94492901  0.72928006  1
  O2-  O228  1  0.20411824  0.33394544  0.06137878  1
  O2-  O229  1  0.21197419  0.33590339  0.39887587  1
  O2-  O230  1  0.21002252  0.33522101  0.73914671  1
  O2-  O231  1  0.21232328  0.83338475  0.06825604  1
  O2-  O232  1  0.20345482  0.83154902  0.39824104  1
  O2-  O233  1  0.19859565  0.83117791  0.72513531  1
  O2-  O234  1  0.70347510  0.33803219  0.06332945  1
  O2-  O235  1  0.69964741  0.33850902  0.39641704  1
  O2-  O236  1  0.70713344  0.33650636  0.73683353  1
  O2-  O237  1  0.70969490  0.82620230  0.06555184  1
  O2-  O238  1  0.71136237  0.82831557  0.40351976  1
  O2-  O239  1  0.70937799  0.83129824  0.72562201  1
  O2-  O240  1  0.46092521  0.41395453  0.26316843  1
  O2-  O241  1  0.45981551  0.41349848  0.59629869  1
  O2-  O242  1  0.46416268  0.41358123  0.92931469  1
  O2-  O243  1  0.45155404  0.92011528  0.27275338  1
  O2-  O244  1  0.45069904  0.92053506  0.60630346  1
  O2-  O245  1  0.44826048  0.92094756  0.94119559  1
  O2-  O246  1  0.95451155  0.41437315  0.27273538  1
  O2-  O247  1  0.95117507  0.41600809  0.60655814  1
  O2-  O248  1  0.95679054  0.41434801  0.92776836  1
  O2-  O249  1  0.94975798  0.91644162  0.27170087  1
  O2-  O250  1  0.96504722  0.91749019  0.59453416  1
  O2-  O251  1  0.96085550  0.92084436  0.93508722  1
  O2-  O252  1  0.33295030  0.28754005  0.26318639  1
  O2-  O253  1  0.32974615  0.28607202  0.60103621  1
  O2-  O254  1  0.33147233  0.29204431  0.92956409  1
  O2-  O255  1  0.33430998  0.80006708  0.27168849  1
  O2-  O256  1  0.33244971  0.80041714  0.60126481  1
  O2-  O257  1  0.33778120  0.79430224  0.93707226  1
  O2-  O258  1  0.82917867  0.30288415  0.27541100  1
  O2-  O259  1  0.83307428  0.29529673  0.60654706  1
  O2-  O260  1  0.82899926  0.29240562  0.93259710  1
  O2-  O261  1  0.83843460  0.78887378  0.27029723  1
  O2-  O262  1  0.83721342  0.79063680  0.59246165  1
  O2-  O263  1  0.83584929  0.78901089  0.93055487  1
  O2-  O264  1  0.41726392  0.05596899  0.06133275  1
  O2-  O265  1  0.41480020  0.04570411  0.40168709  1
  O2-  O266  1  0.41998145  0.04690787  0.73629667  1
  O2-  O267  1  0.41612015  0.53215453  0.06881854  1
  O2-  O268  1  0.41749115  0.54223262  0.39607589  1
  O2-  O269  1  0.41319740  0.54191809  0.72708954  1
  O2-  O270  1  0.92193049  0.04776833  0.06770134  1
  O2-  O271  1  0.92178213  0.04409428  0.40200779  1
  O2-  O272  1  0.91936884  0.03901565  0.73416913  1
  O2-  O273  1  0.91374221  0.53899215  0.06055319  1
  O2-  O274  1  0.91042769  0.54064216  0.39859497  1
  O2-  O275  1  0.91398585  0.54822711  0.73198889  1
  O2-  O276  1  0.29073907  0.16780474  0.06062288  1
  O2-  O277  1  0.28232945  0.16659134  0.39863189  1
  O2-  O278  1  0.28417060  0.16350412  0.73805872  1
  O2-  O279  1  0.29894591  0.66609706  0.06983303  1
  O2-  O280  1  0.30467508  0.66764029  0.39611024  1
  O2-  O281  1  0.30075986  0.66809269  0.72639929  1
  O2-  O282  1  0.79191654  0.17091512  0.06952162  1
  O2-  O283  1  0.79458926  0.17229506  0.40358615  1
  O2-  O284  1  0.79268479  0.16687756  0.73648026  1
  O2-  O285  1  0.79456279  0.66035647  0.06162253  1
  O2-  O286  1  0.79318397  0.66064247  0.39567792  1
  O2-  O287  1  0.79611202  0.66876305  0.72607042  1
