# generated using pymatgen
data_Ca2Al2SiO7
_symmetry_space_group_name_H-M   'P 1'
_cell_length_a   15.45591226
_cell_length_b   15.45645875
_cell_length_c   15.28281389
_cell_angle_alpha   89.99492469
_cell_angle_beta   89.99589571
_cell_angle_gamma   89.99991927
_symmetry_Int_Tables_number   1
_chemical_formula_structural   Ca2Al2SiO7
_chemical_formula_sum   'Ca48 Al48 Si24 O168'
_cell_volume   3650.96747796
_cell_formula_units_Z   24
loop_
 _symmetry_equiv_pos_site_id
 _symmetry_equiv_pos_as_xyz
  1  'x, y, z'
loop_
 _atom_type_symbol
 _atom_type_oxidation_number
  Ca2+  2.0
  Al0+  0.0
  Si0+  0.0
  O2-  -2.0
loop_
 _atom_site_type_symbol
 _atom_site_label
 _atom_site_symmetry_multiplicity
 _atom_site_fract_x
 _atom_site_fract_y
 _atom_site_fract_z
 _atom_site_occupancy
  Ca2+  Ca0  1  0.16877712  0.08614165  0.16485536  1
  Ca2+  Ca1  1  0.17191813  0.07569902  0.51219595  1
  Ca2+  Ca2  1  0.17025934  0.08188969  0.83527884  1
  Ca2+  Ca3  1  0.17668625  0.58426392  0.17772325  1
  Ca2+  Ca4  1  0.16530405  0.58372751  0.49797630  1
  Ca2+  Ca5  1  0.17623837  0.58254331  0.84035732  1
  Ca2+  Ca6  1  0.67286899  0.07427007  0.17994582  1
  Ca2+  Ca7  1  0.67268560  0.07630558  0.49752201  1
  Ca2+  Ca8  1  0.66812959  0.07696524  0.83796587  1
  Ca2+  Ca9  1  0.66525120  0.57895238  0.16773002  1
  Ca2+  Ca10  1  0.66457724  0.58445795  0.50232484  1
  Ca2+  Ca11  1  0.67145036  0.58825703  0.84072912  1
  Ca2+  Ca12  1  0.07971269  0.33317874  0.16503905  1
  Ca2+  Ca13  1  0.07889393  0.33055386  0.49163537  1
  Ca2+  Ca14  1  0.08979868  0.32000727  0.82983928  1
  Ca2+  Ca15  1  0.07765643  0.82666295  0.16441381  1
  Ca2+  Ca16  1  0.08104317  0.83173140  0.49702402  1
  Ca2+  Ca17  1  0.07245615  0.83748742  0.82790039  1
  Ca2+  Ca18  1  0.58023191  0.34094875  0.16003490  1
  Ca2+  Ca19  1  0.58575821  0.33283092  0.49331624  1
  Ca2+  Ca20  1  0.57803451  0.33983024  0.83674947  1
  Ca2+  Ca21  1  0.58314122  0.82352070  0.16674067  1
  Ca2+  Ca22  1  0.57513031  0.82529229  0.49288840  1
  Ca2+  Ca23  1  0.57866027  0.81939058  0.82544994  1
  Ca2+  Ca24  1  0.33158089  0.42672310  0.17036486  1
  Ca2+  Ca25  1  0.32998709  0.42529088  0.49678130  1
  Ca2+  Ca26  1  0.33464913  0.42090595  0.84314998  1
  Ca2+  Ca27  1  0.33980397  0.92288563  0.17199293  1
  Ca2+  Ca28  1  0.33085563  0.91454445  0.51059070  1
  Ca2+  Ca29  1  0.33250536  0.92295059  0.83388211  1
  Ca2+  Ca30  1  0.82312770  0.41624379  0.17412246  1
  Ca2+  Ca31  1  0.83139547  0.42168553  0.50239500  1
  Ca2+  Ca32  1  0.82586232  0.43229456  0.84154663  1
  Ca2+  Ca33  1  0.83014230  0.91985572  0.17238234  1
  Ca2+  Ca34  1  0.83041847  0.91290332  0.50205724  1
  Ca2+  Ca35  1  0.83708282  0.91091342  0.83805738  1
  Ca2+  Ca36  1  0.41631730  0.17462509  0.15739689  1
  Ca2+  Ca37  1  0.41546650  0.16499301  0.49799332  1
  Ca2+  Ca38  1  0.40679546  0.17061095  0.83249563  1
  Ca2+  Ca39  1  0.42484836  0.65964914  0.16425930  1
  Ca2+  Ca40  1  0.42163788  0.67568647  0.48981795  1
  Ca2+  Ca41  1  0.42795017  0.66362940  0.82802198  1
  Ca2+  Ca42  1  0.91757207  0.17173987  0.16394419  1
  Ca2+  Ca43  1  0.92163682  0.16909788  0.49176547  1
  Ca2+  Ca44  1  0.93192343  0.16546018  0.82774882  1
  Ca2+  Ca45  1  0.91962096  0.66725320  0.16098265  1
  Ca2+  Ca46  1  0.91975679  0.66772194  0.49765600  1
  Ca2+  Ca47  1  0.90752995  0.67448152  0.82903940  1
  Al0+  Al48  1  0.00044133  -0.00026027  -0.00594220  1
  Al0+  Al49  1  0.00272095  0.00171195  0.33527875  1
  Al0+  Al50  1  0.00073624  -0.00020554  0.66073142  1
  Al0+  Al51  1  -0.00008795  0.50035565  0.00067029  1
  Al0+  Al52  1  0.00006230  0.49809835  0.32748890  1
  Al0+  Al53  1  -0.00170135  0.49939138  0.67448568  1
  Al0+  Al54  1  0.49931067  0.00027981  0.00454046  1
  Al0+  Al55  1  0.50198209  0.00036148  0.33439812  1
  Al0+  Al56  1  0.50089932  0.00183368  0.66867204  1
  Al0+  Al57  1  0.49942252  0.49977653  -0.00258961  1
  Al0+  Al58  1  0.49965036  0.50027965  0.33952512  1
  Al0+  Al59  1  0.49977407  0.49701672  0.66161480  1
  Al0+  Al60  1  0.25053183  0.24875394  -0.00322042  1
  Al0+  Al61  1  0.24971008  0.25062793  0.33654818  1
  Al0+  Al62  1  0.25035038  0.24969923  0.66294552  1
  Al0+  Al63  1  0.24898011  0.75186294  0.00428582  1
  Al0+  Al64  1  0.25028644  0.75328144  0.32866720  1
  Al0+  Al65  1  0.24860297  0.74956289  0.67149067  1
  Al0+  Al66  1  0.74999204  0.24966109  0.00015520  1
  Al0+  Al67  1  0.75170989  0.25003286  0.33796856  1
  Al0+  Al68  1  0.74881718  0.25032998  0.66981398  1
  Al0+  Al69  1  0.74960841  0.75003361  -0.00215073  1
  Al0+  Al70  1  0.74809710  0.75032113  0.33341863  1
  Al0+  Al71  1  0.75035575  0.74926262  0.66104110  1
  Al0+  Al72  1  0.56761347  0.68044901  0.98595652  1
  Al0+  Al73  1  0.32228256  0.07171781  0.68247738  1
  Al0+  Al74  1  0.07122365  0.18037269  0.64999944  1
  Al0+  Al75  1  0.92835231  0.32011058  0.31978064  1
  Al0+  Al76  1  0.17712432  0.92694576  0.68308924  1
  Al0+  Al77  1  0.32026010  0.57184637  0.01242025  1
  Al0+  Al78  1  0.42814620  0.82153592  0.65439043  1
  Al0+  Al79  1  0.92987811  0.82009248  0.65102031  1
  Al0+  Al80  1  0.42845248  0.82357053  0.31661636  1
  Al0+  Al81  1  0.81938297  0.57109151  0.67996959  1
  Al0+  Al82  1  0.31983172  0.07034444  0.01529312  1
  Al0+  Al83  1  0.67899051  0.92697963  0.34998594  1
  Al0+  Al84  1  0.17736406  0.42880171  0.34794261  1
  Al0+  Al85  1  0.57078028  0.67716798  0.64946965  1
  Al0+  Al86  1  0.32037944  0.57342134  0.34952056  1
  Al0+  Al87  1  0.67906026  0.42999777  0.34816225  1
  Al0+  Al88  1  0.06916306  0.18149874  0.98606248  1
  Al0+  Al89  1  0.93075691  0.81789892  0.98792001  1
  Al0+  Al90  1  0.07004305  0.67915619  0.32050329  1
  Al0+  Al91  1  0.82316596  0.07062944  0.34845399  1
  Al0+  Al92  1  0.67989179  0.42941666  0.01455875  1
  Al0+  Al93  1  0.43124284  0.31945104  0.98765520  1
  Al0+  Al94  1  0.82152114  0.57420615  0.01696007  1
  Al0+  Al95  1  0.57075426  0.67687514  0.31580902  1
  Si0+  Si96  1  0.32170818  0.56955076  0.68114187  1
  Si0+  Si97  1  0.17854537  0.42653893  0.01481635  1
  Si0+  Si98  1  0.67883205  0.92934660  0.01367596  1
  Si0+  Si99  1  0.92782071  0.32196697  0.65203763  1
  Si0+  Si100  1  0.07268705  0.67461301  0.65310102  1
  Si0+  Si101  1  0.17954910  0.92969607  0.34746957  1
  Si0+  Si102  1  0.92452505  0.32378257  0.98130036  1
  Si0+  Si103  1  0.82267752  0.07006414  0.01215027  1
  Si0+  Si104  1  0.68080058  0.92979634  0.68219706  1
  Si0+  Si105  1  0.07475838  0.67618446  0.98322422  1
  Si0+  Si106  1  0.82152656  0.07202666  0.68254125  1
  Si0+  Si107  1  0.92825348  0.82360206  0.31748159  1
  Si0+  Si108  1  0.57135246  0.18008248  0.31962580  1
  Si0+  Si109  1  0.42591239  0.82582116  0.98321517  1
  Si0+  Si110  1  0.82340128  0.57237754  0.34886272  1
  Si0+  Si111  1  0.17902367  0.42879397  0.68192512  1
  Si0+  Si112  1  0.07374589  0.17774619  0.31581016  1
  Si0+  Si113  1  0.57382166  0.17860949  0.65117634  1
  Si0+  Si114  1  0.57367764  0.17496754  0.98452410  1
  Si0+  Si115  1  0.32142280  0.07191309  0.34755420  1
  Si0+  Si116  1  0.42849427  0.31972938  0.31947672  1
  Si0+  Si117  1  0.42901126  0.31984275  0.64880007  1
  Si0+  Si118  1  0.67609250  0.42616252  0.68490515  1
  Si0+  Si119  1  0.17518948  0.92992103  0.01863621  1
  O2-  O120  1  0.24845185  -0.00637168  0.06371685  1
  O2-  O121  1  0.25250053  -0.00074270  0.38876966  1
  O2-  O122  1  0.25106510  -0.00162613  0.73170951  1
  O2-  O123  1  0.24023028  0.50162705  0.05794873  1
  O2-  O124  1  0.24553307  0.50360556  0.39961039  1
  O2-  O125  1  0.24928080  0.50014988  0.72431814  1
  O2-  O126  1  0.74744768  0.00397173  0.05431424  1
  O2-  O127  1  0.75528434  -0.00461987  0.39967457  1
  O2-  O128  1  0.75302583  -0.00062677  0.72639822  1
  O2-  O129  1  0.75434858  0.49749898  0.06626173  1
  O2-  O130  1  0.75195795  0.50672176  0.39396149  1
  O2-  O131  1  0.74227917  0.49789368  0.72612288  1
  O2-  O132  1  0.00383394  0.24554873  0.27295089  1
  O2-  O133  1  -0.00529709  0.25358046  0.60479955  1
  O2-  O134  1  -0.00412100  0.25738799  0.93762233  1
  O2-  O135  1  -0.00715047  0.75153596  0.27320084  1
  O2-  O136  1  0.00638931  0.74538199  0.60836365  1
  O2-  O137  1  0.00305656  0.74151995  0.93919902  1
  O2-  O138  1  0.50104599  0.25077658  0.27640094  1
  O2-  O139  1  0.50170263  0.24893773  0.60910374  1
  O2-  O140  1  0.50584614  0.24423494  0.93983008  1
  O2-  O141  1  0.49753422  0.74873617  0.26670415  1
  O2-  O142  1  0.49641537  0.74795180  0.60204972  1
  O2-  O143  1  0.49088948  0.75385667  0.93944474  1
  O2-  O144  1  0.06708312  0.18150172  0.09919622  1
  O2-  O145  1  0.07464321  0.17804332  0.42122384  1
  O2-  O146  1  0.07141097  0.18224742  0.76342149  1
  O2-  O147  1  0.07581246  0.67869039  0.08874522  1
  O2-  O148  1  0.06861395  0.68141651  0.43406271  1
  O2-  O149  1  0.07228804  0.67245729  0.75858894  1
  O2-  O150  1  0.57311638  0.17327623  0.09003077  1
  O2-  O151  1  0.56864864  0.18021591  0.42517286  1
  O2-  O152  1  0.57775390  0.17881531  0.75610008  1
  O2-  O153  1  0.56856097  0.68053068  0.09842515  1
  O2-  O154  1  0.56889846  0.67776158  0.42922937  1
  O2-  O155  1  0.57012984  0.67743331  0.76356751  1
  O2-  O156  1  0.18153184  0.42567950  0.23444043  1
  O2-  O157  1  0.17798838  0.42942290  0.57720490  1
  O2-  O158  1  0.18217208  0.42546768  0.90845451  1
  O2-  O159  1  0.17559570  0.93286851  0.24241121  1
  O2-  O160  1  0.17751899  0.92859563  0.56896416  1
  O2-  O161  1  0.17274911  0.93215988  0.91340138  1
  O2-  O162  1  0.67894143  0.42720962  0.23559437  1
  O2-  O163  1  0.67768093  0.42162492  0.57953884  1
  O2-  O164  1  0.68011260  0.43034727  0.90067704  1
  O2-  O165  1  0.67973201  0.93066585  0.23569103  1
  O2-  O166  1  0.68151422  0.93315477  0.57759232  1
  O2-  O167  1  0.67908199  0.93073684  0.90808516  1
  O2-  O168  1  0.43093161  0.31808595  0.10083830  1
  O2-  O169  1  0.42787124  0.31595494  0.42491985  1
  O2-  O170  1  0.42835600  0.32209562  0.75391303  1
  O2-  O171  1  0.43003583  0.82918427  0.08838315  1
  O2-  O172  1  0.42861686  0.82520073  0.43025485  1
  O2-  O173  1  0.43202262  0.82068894  0.76824859  1
  O2-  O174  1  0.92276833  0.32023785  0.08677293  1
  O2-  O175  1  0.92930561  0.31856142  0.43328735  1
  O2-  O176  1  0.92969332  0.31915220  0.75757115  1
  O2-  O177  1  0.93286858  0.82101925  0.10097128  1
  O2-  O178  1  0.93162534  0.82447626  0.42297883  1
  O2-  O179  1  0.92868534  0.81962930  0.76430287  1
  O2-  O180  1  0.31982780  0.07457393  0.24239432  1
  O2-  O181  1  0.32089166  0.07263899  0.56842661  1
  O2-  O182  1  0.31840800  0.07085418  0.90275306  1
  O2-  O183  1  0.32095756  0.56874466  0.23588707  1
  O2-  O184  1  0.32092521  0.56798223  0.57647609  1
  O2-  O185  1  0.32035234  0.56803079  0.89843391  1
  O2-  O186  1  0.82113706  0.06989749  0.23403144  1
  O2-  O187  1  0.81839880  0.07467505  0.57799916  1
  O2-  O188  1  0.82234659  0.06821200  0.90665293  1
  O2-  O189  1  0.82389495  0.57048568  0.24349124  1
  O2-  O190  1  0.82329502  0.56701016  0.56700333  1
  O2-  O191  1  0.81736572  0.57538576  0.90311132  1
  O2-  O192  1  0.04929817  0.08393622  0.26922581  1
  O2-  O193  1  0.04100824  0.08443243  0.59591538  1
  O2-  O194  1  0.03628698  0.08648837  0.93009685  1
  O2-  O195  1  0.04406809  0.58252265  0.26479027  1
  O2-  O196  1  0.04383781  0.58127849  0.60739164  1
  O2-  O197  1  0.05556873  0.58015361  0.93881994  1
  O2-  O198  1  0.54397884  0.08887491  0.27125300  1
  O2-  O199  1  0.54656940  0.08730953  0.60308709  1
  O2-  O200  1  0.54694619  0.08171789  0.93771652  1
  O2-  O201  1  0.54068029  0.57696828  0.26618987  1
  O2-  O202  1  0.54539927  0.57695843  0.59879012  1
  O2-  O203  1  0.53734902  0.58459031  0.93032906  1
  O2-  O204  1  0.16721973  0.20555247  0.26997082  1
  O2-  O205  1  0.16718385  0.21221847  0.59577776  1
  O2-  O206  1  0.16515253  0.21192535  0.93058866  1
  O2-  O207  1  0.16441705  0.71334668  0.26452507  1
  O2-  O208  1  0.16719817  0.69722918  0.60804009  1
  O2-  O209  1  0.16785253  0.70464759  0.93671365  1
  O2-  O210  1  0.66398830  0.20596176  0.27418877  1
  O2-  O211  1  0.66497284  0.20822808  0.60236020  1
  O2-  O212  1  0.66796424  0.19788443  0.93747693  1
  O2-  O213  1  0.67024952  0.70567994  0.26442791  1
  O2-  O214  1  0.66771499  0.70756898  0.59652994  1
  O2-  O215  1  0.66320664  0.71506147  0.93194852  1
  O2-  O216  1  0.08165092  0.44340313  0.05710293  1
  O2-  O217  1  0.07750357  0.45405432  0.39936688  1
  O2-  O218  1  0.08778321  0.45305715  0.73244432  1
  O2-  O219  1  0.08387254  0.96274810  0.06560868  1
  O2-  O220  1  0.08922066  0.95878487  0.39750774  1
  O2-  O221  1  0.07845668  0.95995912  0.73379938  1
  O2-  O222  1  0.58145175  0.45925941  0.06537399  1
  O2-  O223  1  0.58241852  0.45579735  0.40463350  1
  O2-  O224  1  0.58016557  0.44863528  0.72783610  1
  O2-  O225  1  0.58750549  0.95499652  0.06268861  1
  O2-  O226  1  0.58333848  0.96367404  0.40413800  1
  O2-  O227  1  0.59069047  0.96068689  0.73122998  1
  O2-  O228  1  0.20981359  0.33550325  0.06151906  1
  O2-  O229  1  0.20958366  0.33177419  0.40337216  1
  O2-  O230  1  0.21092684  0.33768716  0.72805952  1
  O2-  O231  1  0.19475553  0.83455665  0.06328590  1
  O2-  O232  1  0.20464356  0.83799222  0.39504627  1
  O2-  O233  1  0.20026823  0.82784233  0.73811875  1
  O2-  O234  1  0.70292017  0.32778506  0.06553241  1
  O2-  O235  1  0.71119806  0.33414947  0.40359872  1
  O2-  O236  1  0.70259442  0.33338658  0.73352108  1
  O2-  O237  1  0.71088677  0.83999137  0.06141852  1
  O2-  O238  1  0.70377584  0.82815143  0.40320122  1
  O2-  O239  1  0.70861126  0.83731014  0.72742121  1
  O2-  O240  1  0.45501741  0.41245755  0.27528305  1
  O2-  O241  1  0.45654590  0.41021756  0.59862461  1
  O2-  O242  1  0.46237427  0.41376866  0.92928285  1
  O2-  O243  1  0.46090112  0.92217897  0.26434540  1
  O2-  O244  1  0.45717596  0.92106553  0.60361705  1
  O2-  O245  1  0.45489221  0.91884068  0.93711275  1
  O2-  O246  1  0.95755761  0.41465925  0.26185485  1
  O2-  O247  1  0.95506876  0.41582064  0.60781547  1
  O2-  O248  1  0.94790324  0.41902567  0.93736748  1
  O2-  O249  1  0.95871369  0.91645900  0.27153611  1
  O2-  O250  1  0.95781160  0.91662650  0.59594745  1
  O2-  O251  1  0.96230916  0.91348266  0.93113821  1
  O2-  O252  1  0.33746291  0.28929182  0.27191004  1
  O2-  O253  1  0.33860811  0.29109905  0.59968863  1
  O2-  O254  1  0.33593877  0.28766851  0.93113149  1
  O2-  O255  1  0.32854327  0.80327895  0.26372794  1
  O2-  O256  1  0.32709882  0.79621719  0.60523434  1
  O2-  O257  1  0.32906664  0.80554699  0.94194866  1
  O2-  O258  1  0.83259899  0.28576172  0.26558172  1
  O2-  O259  1  0.83248713  0.29780840  0.60847915  1
  O2-  O260  1  0.83202772  0.29588647  0.93382252  1
  O2-  O261  1  0.83266131  0.80357456  0.27414541  1
  O2-  O262  1  0.83494305  0.78842222  0.59526348  1
  O2-  O263  1  0.83385825  0.79088563  0.93219422  1
  O2-  O264  1  0.41796593  0.04443602  0.07007209  1
  O2-  O265  1  0.41457711  0.04823816  0.39365647  1
  O2-  O266  1  0.42246210  0.04899091  0.73560318  1
  O2-  O267  1  0.41413583  0.53429923  0.06564330  1
  O2-  O268  1  0.41534113  0.53924843  0.40537358  1
  O2-  O269  1  0.41309534  0.53673635  0.72698551  1
  O2-  O270  1  0.91250733  0.03806529  0.06009928  1
  O2-  O271  1  0.92335650  0.04733042  0.40021767  1
  O2-  O272  1  0.91436008  0.04494913  0.72713191  1
  O2-  O273  1  0.92370266  0.55175208  0.06495483  1
  O2-  O274  1  0.91588470  0.54274908  0.39451133  1
  O2-  O275  1  0.91445005  0.54005527  0.73849300  1
  O2-  O276  1  0.28642754  0.16678539  0.06862256  1
  O2-  O277  1  0.29266592  0.16241177  0.39704624  1
  O2-  O278  1  0.29102937  0.17105107  0.73311306  1
  O2-  O279  1  0.29556762  0.67001589  0.06633586  1
  O2-  O280  1  0.29273699  0.67366078  0.39838774  1
  O2-  O281  1  0.29668197  0.66079613  0.73040980  1
  O2-  O282  1  0.80004948  0.16355258  0.05834134  1
  O2-  O283  1  0.79018316  0.16596040  0.40433430  1
  O2-  O284  1  0.79198122  0.16297768  0.73193457  1
  O2-  O285  1  0.79047333  0.67178283  0.06943621  1
  O2-  O286  1  0.80224728  0.66772269  0.39305542  1
  O2-  O287  1  0.78881923  0.66879893  0.73222655  1
