# generated using pymatgen
data_Ca2Al2SiO7
_symmetry_space_group_name_H-M   'P 1'
_cell_length_a   15.47014462
_cell_length_b   15.46714970
_cell_length_c   15.29141172
_cell_angle_alpha   89.99238308
_cell_angle_beta   89.99963286
_cell_angle_gamma   90.00685378
_symmetry_Int_Tables_number   1
_chemical_formula_structural   Ca2Al2SiO7
_chemical_formula_sum   'Ca48 Al48 Si24 O168'
_cell_volume   3658.91430003
_cell_formula_units_Z   24
loop_
 _symmetry_equiv_pos_site_id
 _symmetry_equiv_pos_as_xyz
  1  'x, y, z'
loop_
 _atom_type_symbol
 _atom_type_oxidation_number
  Ca2+  2.0
  Al0+  0.0
  Si0+  0.0
  O2-  -2.0
loop_
 _atom_site_type_symbol
 _atom_site_label
 _atom_site_symmetry_multiplicity
 _atom_site_fract_x
 _atom_site_fract_y
 _atom_site_fract_z
 _atom_site_occupancy
  Ca2+  Ca0  1  0.16893831  0.08131338  0.16780463  1
  Ca2+  Ca1  1  0.15936794  0.07597531  0.50289530  1
  Ca2+  Ca2  1  0.17011973  0.09318189  0.84263446  1
  Ca2+  Ca3  1  0.15527171  0.57279561  0.16664265  1
  Ca2+  Ca4  1  0.16582824  0.57909477  0.50894665  1
  Ca2+  Ca5  1  0.16357326  0.58361935  0.84053224  1
  Ca2+  Ca6  1  0.67825524  0.08012664  0.17006473  1
  Ca2+  Ca7  1  0.68031446  0.07343165  0.50394092  1
  Ca2+  Ca8  1  0.67634873  0.08113149  0.83841355  1
  Ca2+  Ca9  1  0.67096573  0.58054834  0.17366904  1
  Ca2+  Ca10  1  0.68270334  0.58286824  0.50159883  1
  Ca2+  Ca11  1  0.67266516  0.58375586  0.83592602  1
  Ca2+  Ca12  1  0.07931247  0.33137052  0.15655310  1
  Ca2+  Ca13  1  0.07862849  0.32947532  0.50041158  1
  Ca2+  Ca14  1  0.07654323  0.32466164  0.83282339  1
  Ca2+  Ca15  1  0.07334576  0.83168284  0.16201510  1
  Ca2+  Ca16  1  0.07686722  0.82772401  0.49234758  1
  Ca2+  Ca17  1  0.07688046  0.82703722  0.83327927  1
  Ca2+  Ca18  1  0.58482443  0.32882930  0.15949165  1
  Ca2+  Ca19  1  0.58470370  0.33638165  0.49343033  1
  Ca2+  Ca20  1  0.58643805  0.32394843  0.83176920  1
  Ca2+  Ca21  1  0.58209263  0.83131787  0.15744145  1
  Ca2+  Ca22  1  0.58820029  0.83825673  0.49526323  1
  Ca2+  Ca23  1  0.57935277  0.83596782  0.83368126  1
  Ca2+  Ca24  1  0.31743829  0.41547099  0.17033244  1
  Ca2+  Ca25  1  0.32496262  0.42272492  0.50512447  1
  Ca2+  Ca26  1  0.32373249  0.42278688  0.84040591  1
  Ca2+  Ca27  1  0.32930655  0.91736851  0.16645204  1
  Ca2+  Ca28  1  0.32385908  0.91361379  0.50158544  1
  Ca2+  Ca29  1  0.32986635  0.92037547  0.84319877  1
  Ca2+  Ca30  1  0.83133681  0.42296829  0.17240131  1
  Ca2+  Ca31  1  0.83659476  0.42557740  0.50364614  1
  Ca2+  Ca32  1  0.84764148  0.41936917  0.83478746  1
  Ca2+  Ca33  1  0.83911003  0.92532740  0.17384677  1
  Ca2+  Ca34  1  0.82920693  0.92077439  0.50342734  1
  Ca2+  Ca35  1  0.83746168  0.92805042  0.83880182  1
  Ca2+  Ca36  1  0.42521958  0.16338149  0.15598250  1
  Ca2+  Ca37  1  0.42091866  0.16826327  0.49570359  1
  Ca2+  Ca38  1  0.42207393  0.16050940  0.83482804  1
  Ca2+  Ca39  1  0.42698666  0.67442834  0.15576357  1
  Ca2+  Ca40  1  0.41779219  0.66358593  0.49812135  1
  Ca2+  Ca41  1  0.41960262  0.66775899  0.83151183  1
  Ca2+  Ca42  1  0.91721630  0.17176360  0.15508599  1
  Ca2+  Ca43  1  0.91323227  0.16453531  0.50017487  1
  Ca2+  Ca44  1  0.91628995  0.17457728  0.82719671  1
  Ca2+  Ca45  1  0.91430785  0.67929870  0.16032888  1
  Ca2+  Ca46  1  0.91460770  0.66774873  0.49582552  1
  Ca2+  Ca47  1  0.92745364  0.66618997  0.82913004  1
  Al0+  Al48  1  0.00287306  0.00049212  -0.00175713  1
  Al0+  Al49  1  0.00370650  -0.00048806  0.33709166  1
  Al0+  Al50  1  -0.00089973  -0.00177352  0.66752493  1
  Al0+  Al51  1  -0.00086838  0.50023798  -0.00014316  1
  Al0+  Al52  1  0.00146905  0.49737801  0.34154006  1
  Al0+  Al53  1  0.00051090  0.49768282  0.66332833  1
  Al0+  Al54  1  0.50011029  0.00078212  -0.00370300  1
  Al0+  Al55  1  0.50004595  0.00143007  0.33465976  1
  Al0+  Al56  1  0.49760732  -0.00083793  0.66677974  1
  Al0+  Al57  1  0.49939996  0.50076625  -0.00287410  1
  Al0+  Al58  1  0.49839150  0.49962199  0.33288962  1
  Al0+  Al59  1  0.49860737  0.50136846  0.66938078  1
  Al0+  Al60  1  0.25097957  0.25197077  0.00681000  1
  Al0+  Al61  1  0.25120308  0.25211893  0.33793833  1
  Al0+  Al62  1  0.25023158  0.24964767  0.66194256  1
  Al0+  Al63  1  0.25155909  0.75026907  -0.00384201  1
  Al0+  Al64  1  0.25142232  0.75010959  0.33423516  1
  Al0+  Al65  1  0.25132967  0.75009589  0.66676443  1
  Al0+  Al66  1  0.74883531  0.25086331  -0.00449009  1
  Al0+  Al67  1  0.74970088  0.24945724  0.33813013  1
  Al0+  Al68  1  0.74803930  0.24882376  0.66248791  1
  Al0+  Al69  1  0.74883795  0.75114777  -0.00847288  1
  Al0+  Al70  1  0.75002073  0.75021197  0.33443634  1
  Al0+  Al71  1  0.74696298  0.74697749  0.67511945  1
  Al0+  Al72  1  0.67703067  0.42858185  0.34597002  1
  Al0+  Al73  1  0.57216002  0.67660098  0.98309487  1
  Al0+  Al74  1  0.67605586  0.92802428  0.68434706  1
  Al0+  Al75  1  0.82434306  0.07147414  0.34725967  1
  Al0+  Al76  1  0.57099411  0.18003432  0.98639437  1
  Al0+  Al77  1  0.92732459  0.32072198  0.98732820  1
  Al0+  Al78  1  0.82265552  0.07202847  0.01318548  1
  Al0+  Al79  1  0.32160449  0.07077172  0.01341012  1
  Al0+  Al80  1  0.32033229  0.57165145  0.68190126  1
  Al0+  Al81  1  0.18100057  0.92830190  0.34658933  1
  Al0+  Al82  1  0.67790054  0.92891736  0.34478927  1
  Al0+  Al83  1  0.92911498  0.82045283  0.32159573  1
  Al0+  Al84  1  0.82126008  0.07039251  0.68413116  1
  Al0+  Al85  1  0.82126092  0.57136327  0.34611314  1
  Al0+  Al86  1  0.17872083  0.43194372  0.01313509  1
  Al0+  Al87  1  0.82258833  0.56797127  0.68312914  1
  Al0+  Al88  1  0.42977746  0.82155067  0.98456802  1
  Al0+  Al89  1  0.06909848  0.67855507  0.98804172  1
  Al0+  Al90  1  0.17873463  0.42818125  0.35017986  1
  Al0+  Al91  1  0.07371591  0.17976958  0.98952530  1
  Al0+  Al92  1  0.92724756  0.31951627  0.64797784  1
  Al0+  Al93  1  0.07175829  0.68044983  0.65253306  1
  Al0+  Al94  1  0.92777203  0.82479974  0.98460127  1
  Al0+  Al95  1  0.07230285  0.17695309  0.64998287  1
  Si0+  Si96  1  0.07344517  0.67595404  0.31844579  1
  Si0+  Si97  1  0.57013432  0.67748216  0.64876416  1
  Si0+  Si98  1  0.31904468  0.07171314  0.68058901  1
  Si0+  Si99  1  0.07318167  0.17948486  0.31832226  1
  Si0+  Si100  1  0.67917594  0.92890594  0.01560360  1
  Si0+  Si101  1  0.57008256  0.67949123  0.32006924  1
  Si0+  Si102  1  0.92565463  0.81952193  0.65035091  1
  Si0+  Si103  1  0.81997282  0.57174695  0.01371576  1
  Si0+  Si104  1  0.17938716  0.92831240  0.68178372  1
  Si0+  Si105  1  0.42720900  0.32218076  0.98392333  1
  Si0+  Si106  1  0.57024517  0.17958966  0.31824943  1
  Si0+  Si107  1  0.56871910  0.17752062  0.64872890  1
  Si0+  Si108  1  0.67645898  0.42804948  0.68327429  1
  Si0+  Si109  1  0.32252130  0.07225345  0.35076964  1
  Si0+  Si110  1  0.43014794  0.32229343  0.65115073  1
  Si0+  Si111  1  0.92907930  0.32039232  0.31867214  1
  Si0+  Si112  1  0.67674448  0.42938722  0.01283548  1
  Si0+  Si113  1  0.32173678  0.57147643  0.34853632  1
  Si0+  Si114  1  0.43003579  0.82127991  0.64871007  1
  Si0+  Si115  1  0.42794844  0.82268642  0.31868524  1
  Si0+  Si116  1  0.42853394  0.32185862  0.31720184  1
  Si0+  Si117  1  0.17932918  0.42691208  0.68504514  1
  Si0+  Si118  1  0.32362182  0.57382558  0.01819952  1
  Si0+  Si119  1  0.17858258  0.92537483  0.01677968  1
  O2-  O120  1  0.24637318  -0.00339402  0.05949252  1
  O2-  O121  1  0.25413051  0.00408504  0.39542627  1
  O2-  O122  1  0.24365496  0.00615014  0.72261644  1
  O2-  O123  1  0.25218397  0.50816197  0.06200788  1
  O2-  O124  1  0.25002645  0.50730080  0.39427931  1
  O2-  O125  1  0.24398773  0.49956615  0.72886715  1
  O2-  O126  1  0.75193371  -0.00705596  0.06001044  1
  O2-  O127  1  0.75328278  -0.00315432  0.39464149  1
  O2-  O128  1  0.75057070  -0.00305427  0.73396155  1
  O2-  O129  1  0.74638255  0.50202228  0.05449750  1
  O2-  O130  1  0.75045797  0.49781572  0.39651161  1
  O2-  O131  1  0.75022713  0.48977556  0.72891019  1
  O2-  O132  1  -0.00075912  0.24802984  0.27687293  1
  O2-  O133  1  -0.00243932  0.24511106  0.59819841  1
  O2-  O134  1  -0.00409459  0.24449778  0.93923466  1
  O2-  O135  1  0.00285840  0.74331084  0.27601197  1
  O2-  O136  1  -0.00558236  0.75140041  0.60459673  1
  O2-  O137  1  -0.00149570  0.75051754  0.93634060  1
  O2-  O138  1  0.50038601  0.25191895  0.27529766  1
  O2-  O139  1  0.50111173  0.25235256  0.60662687  1
  O2-  O140  1  0.49617307  0.25475762  0.93853248  1
  O2-  O141  1  0.50170713  0.75369900  0.27835834  1
  O2-  O142  1  0.50239791  0.75187657  0.60584218  1
  O2-  O143  1  0.49978873  0.74848922  0.93314727  1
  O2-  O144  1  0.07432774  0.18320368  0.10367448  1
  O2-  O145  1  0.07485161  0.18110975  0.42320741  1
  O2-  O146  1  0.07896711  0.18206461  0.76273154  1
  O2-  O147  1  0.06553926  0.67755495  0.10201086  1
  O2-  O148  1  0.07605303  0.67846923  0.42411749  1
  O2-  O149  1  0.07301128  0.68358111  0.76525869  1
  O2-  O150  1  0.57053540  0.18246670  0.09988339  1
  O2-  O151  1  0.56552358  0.17935107  0.42345394  1
  O2-  O152  1  0.56611177  0.17756994  0.75373004  1
  O2-  O153  1  0.57129812  0.67593281  0.09759249  1
  O2-  O154  1  0.56711245  0.67767952  0.42513568  1
  O2-  O155  1  0.56660924  0.67400576  0.75319010  1
  O2-  O156  1  0.17949174  0.42702276  0.23715877  1
  O2-  O157  1  0.18383010  0.42677305  0.57906825  1
  O2-  O158  1  0.18216001  0.43182811  0.90038459  1
  O2-  O159  1  0.18370989  0.92836280  0.23396141  1
  O2-  O160  1  0.18388365  0.92676940  0.57637059  1
  O2-  O161  1  0.18081971  0.92327005  0.91112848  1
  O2-  O162  1  0.67618614  0.43023989  0.23204952  1
  O2-  O163  1  0.67272148  0.43309025  0.57778580  1
  O2-  O164  1  0.67420664  0.42925003  0.90802383  1
  O2-  O165  1  0.67303213  0.93172277  0.23160971  1
  O2-  O166  1  0.67507025  0.93123977  0.57047620  1
  O2-  O167  1  0.67676131  0.93268638  0.91036273  1
  O2-  O168  1  0.42935745  0.32189581  0.08982162  1
  O2-  O169  1  0.42858351  0.32103518  0.42262627  1
  O2-  O170  1  0.43024132  0.32078809  0.75595775  1
  O2-  O171  1  0.43228545  0.82079541  0.09894790  1
  O2-  O172  1  0.42604884  0.82139262  0.42390089  1
  O2-  O173  1  0.42957249  0.82240563  0.75315334  1
  O2-  O174  1  0.92726321  0.32289461  0.10165587  1
  O2-  O175  1  0.93003628  0.32104172  0.42332190  1
  O2-  O176  1  0.93033883  0.31983152  0.76134046  1
  O2-  O177  1  0.92844990  0.82339786  0.09879838  1
  O2-  O178  1  0.93056611  0.81894429  0.43477595  1
  O2-  O179  1  0.92925958  0.81927468  0.75566775  1
  O2-  O180  1  0.32413142  0.07249685  0.24551645  1
  O2-  O181  1  0.32239505  0.06963541  0.57527604  1
  O2-  O182  1  0.32030472  0.07057026  0.89987401  1
  O2-  O183  1  0.32509174  0.56922076  0.24340426  1
  O2-  O184  1  0.32142555  0.56847233  0.56829361  1
  O2-  O185  1  0.32494950  0.57087262  0.91267925  1
  O2-  O186  1  0.82206139  0.07388087  0.23342568  1
  O2-  O187  1  0.81922013  0.06845099  0.57037168  1
  O2-  O188  1  0.81898068  0.07379211  0.90067550  1
  O2-  O189  1  0.81882661  0.57140238  0.23208723  1
  O2-  O190  1  0.81914120  0.57032163  0.57005342  1
  O2-  O191  1  0.82133964  0.56861204  0.90882198  1
  O2-  O192  1  0.05131060  0.08550925  0.27341144  1
  O2-  O193  1  0.04700132  0.07578748  0.59986589  1
  O2-  O194  1  0.05853758  0.07865810  0.93927473  1
  O2-  O195  1  0.04922452  0.58021275  0.27660463  1
  O2-  O196  1  0.04559722  0.58189355  0.60075795  1
  O2-  O197  1  0.03920452  0.58209372  0.93275441  1
  O2-  O198  1  0.53935892  0.08897948  0.27015132  1
  O2-  O199  1  0.53348646  0.08808749  0.60110185  1
  O2-  O200  1  0.53795147  0.08598601  0.93028542  1
  O2-  O201  1  0.53874578  0.58888155  0.27144869  1
  O2-  O202  1  0.53701767  0.58723821  0.60058951  1
  O2-  O203  1  0.54301802  0.57865765  0.92903113  1
  O2-  O204  1  0.16572405  0.21016567  0.27338111  1
  O2-  O205  1  0.17084424  0.20656214  0.59464454  1
  O2-  O206  1  0.17052893  0.21456724  0.93678503  1
  O2-  O207  1  0.16727695  0.70211170  0.27276001  1
  O2-  O208  1  0.16844810  0.71290871  0.59838875  1
  O2-  O209  1  0.16927220  0.70196533  0.93703328  1
  O2-  O210  1  0.66292896  0.20591125  0.27238303  1
  O2-  O211  1  0.66027999  0.20209509  0.60037078  1
  O2-  O212  1  0.66389209  0.21378029  0.92834265  1
  O2-  O213  1  0.66205863  0.70372247  0.27221448  1
  O2-  O214  1  0.66357026  0.70292488  0.60368320  1
  O2-  O215  1  0.66898723  0.70317263  0.92785308  1
  O2-  O216  1  0.08248403  0.46284010  0.06919053  1
  O2-  O217  1  0.08341366  0.45445916  0.40715349  1
  O2-  O218  1  0.08425233  0.44838727  0.72685654  1
  O2-  O219  1  0.08539118  0.94987527  0.06343380  1
  O2-  O220  1  0.08681703  0.95857306  0.40439813  1
  O2-  O221  1  0.08519959  0.94697314  0.72661763  1
  O2-  O222  1  0.58416827  0.45495493  0.06104966  1
  O2-  O223  1  0.57817421  0.45658881  0.39896237  1
  O2-  O224  1  0.58511333  0.45846730  0.73115707  1
  O2-  O225  1  0.58652235  0.95871361  0.06117189  1
  O2-  O226  1  0.58035803  0.95946479  0.40022476  1
  O2-  O227  1  0.57732872  0.96060678  0.73500462  1
  O2-  O228  1  0.21323649  0.33829791  0.07124637  1
  O2-  O229  1  0.21589848  0.33466234  0.40634373  1
  O2-  O230  1  0.21203428  0.33458581  0.72910338  1
  O2-  O231  1  0.20764747  0.83310628  0.06430671  1
  O2-  O232  1  0.21402086  0.83267632  0.40242436  1
  O2-  O233  1  0.21595855  0.84044561  0.73005343  1
  O2-  O234  1  0.70501077  0.33820030  0.06078684  1
  O2-  O235  1  0.70038522  0.32999321  0.39959018  1
  O2-  O236  1  0.69378183  0.33066826  0.72360046  1
  O2-  O237  1  0.69831337  0.83185867  0.05753301  1
  O2-  O238  1  0.70130810  0.82993121  0.39810962  1
  O2-  O239  1  0.69512468  0.82712685  0.73457442  1
  O2-  O240  1  0.45414944  0.41368364  0.26879319  1
  O2-  O241  1  0.45802880  0.41427487  0.60342467  1
  O2-  O242  1  0.45064412  0.41581697  0.93759981  1
  O2-  O243  1  0.45248869  0.91605795  0.27297692  1
  O2-  O244  1  0.45502048  0.91382398  0.60016552  1
  O2-  O245  1  0.45818881  0.91885524  0.92982910  1
  O2-  O246  1  0.95847750  0.41302379  0.27325164  1
  O2-  O247  1  0.95924495  0.41696503  0.59460481  1
  O2-  O248  1  0.96097307  0.41677170  0.93412809  1
  O2-  O249  1  0.96432898  0.91678003  0.26891781  1
  O2-  O250  1  0.95135944  0.91332644  0.60514694  1
  O2-  O251  1  0.96039384  0.92064776  0.92984081  1
  O2-  O252  1  0.33664024  0.29268604  0.27067968  1
  O2-  O253  1  0.33966110  0.29334720  0.60140717  1
  O2-  O254  1  0.33480667  0.29465534  0.93822349  1
  O2-  O255  1  0.33774006  0.79269840  0.26939567  1
  O2-  O256  1  0.33933292  0.79048235  0.60045564  1
  O2-  O257  1  0.33152026  0.79596434  0.93056201  1
  O2-  O258  1  0.83547830  0.29496069  0.27319846  1
  O2-  O259  1  0.82644181  0.29607573  0.59616908  1
  O2-  O260  1  0.82901168  0.29867845  0.93224484  1
  O2-  O261  1  0.83190673  0.79191910  0.26681626  1
  O2-  O262  1  0.83056853  0.79217714  0.60846280  1
  O2-  O263  1  0.82931368  0.80116366  0.93169158  1
  O2-  O264  1  0.41826617  0.03890509  0.06745584  1
  O2-  O265  1  0.41518429  0.04604162  0.39852054  1
  O2-  O266  1  0.40886693  0.03946403  0.72861966  1
  O2-  O267  1  0.41676408  0.54517677  0.06441725  1
  O2-  O268  1  0.41315746  0.54158345  0.39716192  1
  O2-  O269  1  0.41567986  0.53816066  0.73647565  1
  O2-  O270  1  0.92159920  0.04558828  0.06509182  1
  O2-  O271  1  0.92267505  0.04609558  0.40019324  1
  O2-  O272  1  0.92136512  0.04446257  0.73511071  1
  O2-  O273  1  0.90975364  0.54199985  0.06305129  1
  O2-  O274  1  0.91852861  0.54423473  0.40102344  1
  O2-  O275  1  0.92055106  0.53813192  0.73492618  1
  O2-  O276  1  0.29446345  0.16704294  0.07004691  1
  O2-  O277  1  0.29875419  0.16604400  0.39723908  1
  O2-  O278  1  0.29746160  0.16578078  0.72616569  1
  O2-  O279  1  0.30267354  0.66922707  0.06198369  1
  O2-  O280  1  0.30187559  0.66645298  0.39413415  1
  O2-  O281  1  0.29382451  0.66969495  0.73432412  1
  O2-  O282  1  0.78656628  0.16852984  0.06544739  1
  O2-  O283  1  0.79192712  0.16748010  0.40210022  1
  O2-  O284  1  0.78890104  0.17000868  0.73213220  1
  O2-  O285  1  0.79238376  0.66512445  0.05830787  1
  O2-  O286  1  0.78974807  0.66748231  0.40134889  1
  O2-  O287  1  0.78857033  0.66227192  0.73842492  1
