# generated using pymatgen
data_Ca2Al2SiO7
_symmetry_space_group_name_H-M   'P 1'
_cell_length_a   15.46967473
_cell_length_b   15.47112799
_cell_length_c   15.29222630
_cell_angle_alpha   90.01325630
_cell_angle_beta   89.99190783
_cell_angle_gamma   90.02819510
_symmetry_Int_Tables_number   1
_chemical_formula_structural   Ca2Al2SiO7
_chemical_formula_sum   'Ca48 Al48 Si24 O168'
_cell_volume   3659.93867880
_cell_formula_units_Z   24
loop_
 _symmetry_equiv_pos_site_id
 _symmetry_equiv_pos_as_xyz
  1  'x, y, z'
loop_
 _atom_type_symbol
 _atom_type_oxidation_number
  Ca2+  2.0
  Al0+  0.0
  Si0+  0.0
  O2-  -2.0
loop_
 _atom_site_type_symbol
 _atom_site_label
 _atom_site_symmetry_multiplicity
 _atom_site_fract_x
 _atom_site_fract_y
 _atom_site_fract_z
 _atom_site_occupancy
  Ca2+  Ca0  1  0.17082736  0.07125838  0.17469938  1
  Ca2+  Ca1  1  0.17117560  0.07384268  0.50013008  1
  Ca2+  Ca2  1  0.17114757  0.07120780  0.83495387  1
  Ca2+  Ca3  1  0.15975567  0.58031056  0.16312449  1
  Ca2+  Ca4  1  0.16748991  0.58268668  0.50255904  1
  Ca2+  Ca5  1  0.16292624  0.57917589  0.84452047  1
  Ca2+  Ca6  1  0.67512641  0.08216243  0.16390685  1
  Ca2+  Ca7  1  0.67999457  0.08167311  0.50221822  1
  Ca2+  Ca8  1  0.67778188  0.08209049  0.84270718  1
  Ca2+  Ca9  1  0.66618490  0.57215012  0.17376831  1
  Ca2+  Ca10  1  0.67636716  0.57749324  0.50396856  1
  Ca2+  Ca11  1  0.66950994  0.57579436  0.83654526  1
  Ca2+  Ca12  1  0.08609338  0.32352177  0.16064713  1
  Ca2+  Ca13  1  0.07922307  0.32175868  0.49097391  1
  Ca2+  Ca14  1  0.08286023  0.33244519  0.83103819  1
  Ca2+  Ca15  1  0.07571029  0.83542772  0.15956260  1
  Ca2+  Ca16  1  0.07627964  0.84257592  0.49649274  1
  Ca2+  Ca17  1  0.07445547  0.84073560  0.83360385  1
  Ca2+  Ca18  1  0.58439428  0.32857835  0.15493645  1
  Ca2+  Ca19  1  0.58843839  0.33542036  0.49672024  1
  Ca2+  Ca20  1  0.58836050  0.33199112  0.83440109  1
  Ca2+  Ca21  1  0.57175549  0.84383719  0.15914614  1
  Ca2+  Ca22  1  0.57560232  0.83489422  0.49189791  1
  Ca2+  Ca23  1  0.57729675  0.84615532  0.83458079  1
  Ca2+  Ca24  1  0.33091745  0.41174600  0.16438673  1
  Ca2+  Ca25  1  0.33129376  0.41782693  0.50287545  1
  Ca2+  Ca26  1  0.32911491  0.41734188  0.84353653  1
  Ca2+  Ca27  1  0.32521189  0.91361927  0.17461610  1
  Ca2+  Ca28  1  0.32489992  0.92354024  0.50419728  1
  Ca2+  Ca29  1  0.32319793  0.91445478  0.84151162  1
  Ca2+  Ca30  1  0.82242715  0.42406792  0.17403265  1
  Ca2+  Ca31  1  0.82509185  0.42778016  0.50549211  1
  Ca2+  Ca32  1  0.82524719  0.42278524  0.83905369  1
  Ca2+  Ca33  1  0.83989454  0.92272692  0.16888943  1
  Ca2+  Ca34  1  0.84612780  0.92396713  0.50272801  1
  Ca2+  Ca35  1  0.83549994  0.92374049  0.84156812  1
  Ca2+  Ca36  1  0.42368458  0.16866408  0.15668599  1
  Ca2+  Ca37  1  0.41406361  0.16272947  0.49374036  1
  Ca2+  Ca38  1  0.42161771  0.16774616  0.83282887  1
  Ca2+  Ca39  1  0.41765006  0.67884862  0.16167250  1
  Ca2+  Ca40  1  0.41935412  0.67475615  0.49222575  1
  Ca2+  Ca41  1  0.41769825  0.67255038  0.83606078  1
  Ca2+  Ca42  1  0.91929585  0.15904462  0.16458389  1
  Ca2+  Ca43  1  0.92073144  0.15977211  0.49160768  1
  Ca2+  Ca44  1  0.91239150  0.16234451  0.82947956  1
  Ca2+  Ca45  1  0.91771736  0.67681266  0.16055318  1
  Ca2+  Ca46  1  0.90988757  0.67578340  0.49498579  1
  Ca2+  Ca47  1  0.91661827  0.67794277  0.82825828  1
  Al0+  Al48  1  0.00390876  0.00064236  0.00268145  1
  Al0+  Al49  1  0.00192798  -0.00065924  0.33133560  1
  Al0+  Al50  1  0.00254658  0.00050895  0.66998616  1
  Al0+  Al51  1  0.00107477  0.49808500  0.00252997  1
  Al0+  Al52  1  -0.00168291  0.49920272  0.33788095  1
  Al0+  Al53  1  -0.00112591  0.50056420  0.66784470  1
  Al0+  Al54  1  0.50252155  0.00302602  -0.00800381  1
  Al0+  Al55  1  0.49998977  0.00236395  0.33155882  1
  Al0+  Al56  1  0.50022268  0.00438493  0.66515320  1
  Al0+  Al57  1  0.49836781  0.50099858  0.00026232  1
  Al0+  Al58  1  0.49730762  0.49899604  0.33698591  1
  Al0+  Al59  1  0.49808642  0.49936850  0.66802807  1
  Al0+  Al60  1  0.25013624  0.25070022  -0.00145379  1
  Al0+  Al61  1  0.24976412  0.24892289  0.33165312  1
  Al0+  Al62  1  0.25069365  0.25019685  0.66792593  1
  Al0+  Al63  1  0.25083973  0.74791539  -0.00315597  1
  Al0+  Al64  1  0.24831047  0.74765054  0.33408029  1
  Al0+  Al65  1  0.24910066  0.74905819  0.66900597  1
  Al0+  Al66  1  0.75184385  0.25102388  0.00394909  1
  Al0+  Al67  1  0.74930104  0.24906768  0.34018516  1
  Al0+  Al68  1  0.74878185  0.25015113  0.67062713  1
  Al0+  Al69  1  0.74889635  0.75139859  -0.00065060  1
  Al0+  Al70  1  0.74833858  0.74844025  0.33038365  1
  Al0+  Al71  1  0.74867869  0.74989690  0.66453659  1
  Al0+  Al72  1  0.43026269  0.82171579  0.98594884  1
  Al0+  Al73  1  0.42872437  0.32163277  0.98411817  1
  Al0+  Al74  1  0.67892793  0.43150398  0.01422587  1
  Al0+  Al75  1  0.82171114  0.57389748  0.68417392  1
  Al0+  Al76  1  0.32266511  0.07172699  0.34567809  1
  Al0+  Al77  1  0.67794507  0.43007158  0.68398496  1
  Al0+  Al78  1  0.18074881  0.92805150  0.68389956  1
  Al0+  Al79  1  0.67745942  0.92792304  0.01423698  1
  Al0+  Al80  1  0.17833910  0.42759057  0.01419400  1
  Al0+  Al81  1  0.32273209  0.07333424  0.68358155  1
  Al0+  Al82  1  0.07067803  0.17979890  0.31864785  1
  Al0+  Al83  1  0.82175422  0.57341032  0.34808708  1
  Al0+  Al84  1  0.57412179  0.18092587  0.98285111  1
  Al0+  Al85  1  0.67695941  0.42846405  0.34906575  1
  Al0+  Al86  1  0.17930655  0.92616314  0.34817194  1
  Al0+  Al87  1  0.06943937  0.67744617  0.98548382  1
  Al0+  Al88  1  0.92884095  0.82292384  0.98430848  1
  Al0+  Al89  1  0.18226081  0.92714999  0.01535436  1
  Al0+  Al90  1  0.93012588  0.82113371  0.65231810  1
  Al0+  Al91  1  0.92946760  0.81988203  0.31951852  1
  Al0+  Al92  1  0.42900271  0.82156496  0.32120129  1
  Al0+  Al93  1  0.82111906  0.06879517  0.67884485  1
  Al0+  Al94  1  0.82296210  0.07030895  0.01623398  1
  Al0+  Al95  1  0.82087309  0.06734906  0.34685228  1
  Si0+  Si96  1  0.42818418  0.32191730  0.31890533  1
  Si0+  Si97  1  0.92689857  0.32181641  0.31774638  1
  Si0+  Si98  1  0.56940377  0.67655751  0.31729450  1
  Si0+  Si99  1  0.67589706  0.92780159  0.34817071  1
  Si0+  Si100  1  0.31941928  0.56968233  0.34870625  1
  Si0+  Si101  1  0.17902331  0.42965371  0.67973074  1
  Si0+  Si102  1  0.07116641  0.18133092  0.65167341  1
  Si0+  Si103  1  0.92752242  0.32189717  0.65186691  1
  Si0+  Si104  1  0.32039105  0.57092735  0.68164130  1
  Si0+  Si105  1  0.07212675  0.17908574  0.98318556  1
  Si0+  Si106  1  0.56808586  0.67724927  0.65119344  1
  Si0+  Si107  1  0.67589587  0.92759430  0.67984626  1
  Si0+  Si108  1  0.07250629  0.67353157  0.31718936  1
  Si0+  Si109  1  0.42817879  0.82222107  0.65158819  1
  Si0+  Si110  1  0.32179846  0.57153256  0.01835009  1
  Si0+  Si111  1  0.57255169  0.18060403  0.31872950  1
  Si0+  Si112  1  0.17854376  0.42677626  0.34847723  1
  Si0+  Si113  1  0.57224384  0.67658602  0.98355558  1
  Si0+  Si114  1  0.07265911  0.67521507  0.64898221  1
  Si0+  Si115  1  0.82313550  0.57280696  0.01650573  1
  Si0+  Si116  1  0.42836303  0.32079575  0.64965202  1
  Si0+  Si117  1  0.57253481  0.18042953  0.64799398  1
  Si0+  Si118  1  0.32233314  0.07189965  0.01476247  1
  Si0+  Si119  1  0.93024723  0.32018527  0.98607028  1
  O2-  O120  1  0.25998120  -0.00082683  0.06071949  1
  O2-  O121  1  0.25345155  -0.00250008  0.39589399  1
  O2-  O122  1  0.25702253  -0.00382598  0.73315736  1
  O2-  O123  1  0.25271775  0.50225716  0.06134422  1
  O2-  O124  1  0.24738169  0.49956414  0.39144421  1
  O2-  O125  1  0.24563182  0.50383712  0.72241859  1
  O2-  O126  1  0.75331424  -0.00483315  0.06495495  1
  O2-  O127  1  0.74942756  -0.01020421  0.39444182  1
  O2-  O128  1  0.74858990  -0.00813129  0.72322296  1
  O2-  O129  1  0.75010813  0.50883898  0.06098501  1
  O2-  O130  1  0.74954948  0.50061940  0.39703121  1
  O2-  O131  1  0.75086261  0.50079166  0.73365112  1
  O2-  O132  1  -0.00478523  0.25405404  0.27159912  1
  O2-  O133  1  -0.00266244  0.24981397  0.60915123  1
  O2-  O134  1  -0.00111744  0.24800195  0.94135703  1
  O2-  O135  1  0.00308669  0.74221596  0.27567539  1
  O2-  O136  1  0.00418601  0.74421252  0.60585325  1
  O2-  O137  1  -0.00087616  0.74919457  0.93353755  1
  O2-  O138  1  0.50089673  0.25252912  0.27853209  1
  O2-  O139  1  0.49929609  0.25051476  0.60635727  1
  O2-  O140  1  0.50178410  0.25280164  0.93190750  1
  O2-  O141  1  0.50607133  0.74983594  0.27320487  1
  O2-  O142  1  0.50082299  0.75267969  0.60911392  1
  O2-  O143  1  0.50927979  0.75093859  0.93893566  1
  O2-  O144  1  0.07375772  0.18112293  0.08820779  1
  O2-  O145  1  0.07057330  0.18267256  0.43245837  1
  O2-  O146  1  0.07243169  0.18467361  0.75680954  1
  O2-  O147  1  0.06666763  0.67578535  0.09922825  1
  O2-  O148  1  0.07481943  0.67071779  0.42278665  1
  O2-  O149  1  0.07369579  0.67102512  0.75379591  1
  O2-  O150  1  0.57311325  0.18258586  0.09702422  1
  O2-  O151  1  0.57251040  0.18079111  0.42412787  1
  O2-  O152  1  0.57413983  0.18099333  0.75229476  1
  O2-  O153  1  0.56705159  0.67176129  0.08888781  1
  O2-  O154  1  0.56527737  0.67563661  0.42334440  1
  O2-  O155  1  0.56447620  0.67407698  0.75586777  1
  O2-  O156  1  0.18034690  0.42570875  0.24390575  1
  O2-  O157  1  0.18196644  0.42867650  0.57419882  1
  O2-  O158  1  0.17934112  0.42841180  0.90053185  1
  O2-  O159  1  0.18114787  0.92660339  0.23474839  1
  O2-  O160  1  0.18104157  0.92959212  0.57036699  1
  O2-  O161  1  0.18163595  0.93054037  0.90232325  1
  O2-  O162  1  0.67546661  0.42949316  0.23555299  1
  O2-  O163  1  0.67775651  0.43244087  0.57044205  1
  O2-  O164  1  0.68146863  0.43303776  0.90137157  1
  O2-  O165  1  0.67222969  0.93275966  0.24337841  1
  O2-  O166  1  0.67173620  0.93030487  0.57404254  1
  O2-  O167  1  0.67752435  0.93180253  0.90026381  1
  O2-  O168  1  0.42814193  0.31895104  0.09818268  1
  O2-  O169  1  0.42635468  0.32313877  0.42439144  1
  O2-  O170  1  0.42593586  0.32209555  0.75387557  1
  O2-  O171  1  0.42906762  0.81894163  0.09907181  1
  O2-  O172  1  0.43074161  0.81802498  0.43504511  1
  O2-  O173  1  0.42866736  0.82020505  0.75647545  1
  O2-  O174  1  0.93254942  0.32105496  0.09103548  1
  O2-  O175  1  0.93053279  0.32122597  0.42381387  1
  O2-  O176  1  0.93058467  0.32265446  0.75707083  1
  O2-  O177  1  0.93150913  0.82255369  0.09790125  1
  O2-  O178  1  0.93211908  0.82038139  0.43294601  1
  O2-  O179  1  0.93087935  0.82229541  0.76476256  1
  O2-  O180  1  0.32268725  0.07362046  0.23248777  1
  O2-  O181  1  0.32050479  0.07391433  0.57001359  1
  O2-  O182  1  0.31806976  0.07250674  0.90912141  1
  O2-  O183  1  0.32179723  0.56855874  0.24437821  1
  O2-  O184  1  0.32099454  0.56940505  0.57602756  1
  O2-  O185  1  0.32213578  0.57077995  0.91229062  1
  O2-  O186  1  0.81933354  0.06980076  0.23472566  1
  O2-  O187  1  0.82095588  0.06937584  0.56555353  1
  O2-  O188  1  0.82203734  0.07124110  0.90232812  1
  O2-  O189  1  0.82077469  0.57072026  0.23455330  1
  O2-  O190  1  0.82004623  0.57200244  0.57068536  1
  O2-  O191  1  0.82381107  0.56882150  0.91094367  1
  O2-  O192  1  0.04100789  0.08400639  0.26442345  1
  O2-  O193  1  0.04469602  0.08912335  0.60554186  1
  O2-  O194  1  0.04595124  0.08749311  0.93571805  1
  O2-  O195  1  0.04821865  0.57863464  0.27206308  1
  O2-  O196  1  0.04885203  0.58074293  0.60171163  1
  O2-  O197  1  0.04332881  0.57701064  0.93391669  1
  O2-  O198  1  0.54493419  0.08973256  0.27022146  1
  O2-  O199  1  0.54627207  0.08847460  0.59896120  1
  O2-  O200  1  0.54675988  0.08437106  0.92609156  1
  O2-  O201  1  0.53603347  0.58478629  0.27144136  1
  O2-  O202  1  0.53367699  0.58791967  0.60188779  1
  O2-  O203  1  0.53822030  0.58702407  0.93363760  1
  O2-  O204  1  0.16593836  0.21410371  0.26381451  1
  O2-  O205  1  0.16145374  0.21420713  0.60349506  1
  O2-  O206  1  0.16162101  0.21135404  0.93421580  1
  O2-  O207  1  0.16663624  0.69668126  0.27118650  1
  O2-  O208  1  0.16805985  0.69930355  0.60385240  1
  O2-  O209  1  0.16991840  0.69975752  0.93416798  1
  O2-  O210  1  0.66422265  0.20922828  0.27196325  1
  O2-  O211  1  0.66387494  0.21083939  0.59989577  1
  O2-  O212  1  0.67271589  0.21252018  0.93152773  1
  O2-  O213  1  0.66440780  0.69362931  0.27242033  1
  O2-  O214  1  0.66057923  0.70118781  0.60352082  1
  O2-  O215  1  0.66779843  0.69418552  0.93915136  1
  O2-  O216  1  0.08280243  0.45667204  0.07100735  1
  O2-  O217  1  0.08658880  0.45126548  0.39720330  1
  O2-  O218  1  0.08605359  0.45226028  0.72644715  1
  O2-  O219  1  0.08786148  0.96235344  0.06910084  1
  O2-  O220  1  0.08352688  0.96124040  0.40136263  1
  O2-  O221  1  0.08562029  0.96402947  0.73750553  1
  O2-  O222  1  0.58059270  0.45926104  0.06616331  1
  O2-  O223  1  0.57801773  0.45669790  0.40226465  1
  O2-  O224  1  0.57854624  0.45893120  0.73440284  1
  O2-  O225  1  0.57935685  0.96219773  0.06546476  1
  O2-  O226  1  0.58507097  0.95909914  0.39734773  1
  O2-  O227  1  0.58403543  0.95771934  0.72664455  1
  O2-  O228  1  0.21114162  0.33185909  0.06885424  1
  O2-  O229  1  0.21019101  0.33727985  0.39805144  1
  O2-  O230  1  0.21002623  0.33983361  0.72794365  1
  O2-  O231  1  0.21083745  0.82892444  0.06584905  1
  O2-  O232  1  0.20426847  0.82680331  0.40118490  1
  O2-  O233  1  0.20493746  0.82776350  0.73493000  1
  O2-  O234  1  0.71271141  0.33665897  0.06840502  1
  O2-  O235  1  0.70558181  0.33135979  0.40385921  1
  O2-  O236  1  0.70594165  0.33156993  0.73518229  1
  O2-  O237  1  0.69429449  0.82595028  0.06478969  1
  O2-  O238  1  0.69237097  0.83062715  0.38965045  1
  O2-  O239  1  0.69358875  0.83191136  0.72321309  1
  O2-  O240  1  0.45230148  0.41504099  0.27241049  1
  O2-  O241  1  0.45497873  0.41357774  0.60178517  1
  O2-  O242  1  0.45229530  0.42220228  0.93314482  1
  O2-  O243  1  0.45749688  0.91869214  0.26753929  1
  O2-  O244  1  0.45484313  0.91506571  0.60533310  1
  O2-  O245  1  0.45752035  0.91791357  0.92942486  1
  O2-  O246  1  0.95223837  0.41603047  0.27315750  1
  O2-  O247  1  0.95718957  0.41310742  0.60354769  1
  O2-  O248  1  0.96093420  0.41034419  0.93708820  1
  O2-  O249  1  0.96295722  0.91497634  0.26532044  1
  O2-  O250  1  0.96553878  0.91804869  0.59980952  1
  O2-  O251  1  0.96281731  0.92095067  0.93286426  1
  O2-  O252  1  0.33691533  0.29439645  0.27088263  1
  O2-  O253  1  0.33602044  0.29349818  0.60117520  1
  O2-  O254  1  0.33011283  0.29289074  0.93052374  1
  O2-  O255  1  0.33341501  0.78542914  0.26897302  1
  O2-  O256  1  0.33692376  0.79079303  0.60497315  1
  O2-  O257  1  0.33683327  0.78434625  0.92982004  1
  O2-  O258  1  0.83233743  0.29602318  0.27475016  1
  O2-  O259  1  0.83493969  0.29513657  0.60614244  1
  O2-  O260  1  0.83868117  0.29416580  0.93815492  1
  O2-  O261  1  0.83060239  0.79372922  0.26681916  1
  O2-  O262  1  0.83113140  0.79451746  0.59931178  1
  O2-  O263  1  0.82798312  0.79924435  0.93352191  1
  O2-  O264  1  0.41929953  0.05341059  0.05454886  1
  O2-  O265  1  0.42149188  0.04620413  0.39986549  1
  O2-  O266  1  0.42438856  0.05252104  0.73188143  1
  O2-  O267  1  0.41412215  0.54578718  0.06604911  1
  O2-  O268  1  0.40895320  0.54010806  0.40025030  1
  O2-  O269  1  0.40946026  0.53890403  0.73039113  1
  O2-  O270  1  0.92246561  0.04494595  0.06764538  1
  O2-  O271  1  0.91822764  0.03855427  0.39982045  1
  O2-  O272  1  0.91829197  0.04332782  0.73278313  1
  O2-  O273  1  0.91383630  0.54064057  0.06367192  1
  O2-  O274  1  0.91969564  0.54521967  0.40338727  1
  O2-  O275  1  0.92092012  0.54507424  0.73504520  1
  O2-  O276  1  0.29236887  0.16412245  0.06050782  1
  O2-  O277  1  0.29191714  0.16980137  0.39962850  1
  O2-  O278  1  0.28978976  0.17056295  0.73603070  1
  O2-  O279  1  0.29523126  0.66402865  0.06494813  1
  O2-  O280  1  0.29201099  0.66008856  0.39906671  1
  O2-  O281  1  0.29787748  0.66335918  0.72923840  1
  O2-  O282  1  0.79398364  0.16842612  0.06920468  1
  O2-  O283  1  0.78942712  0.16317202  0.40260043  1
  O2-  O284  1  0.78991937  0.16504195  0.73238295  1
  O2-  O285  1  0.80271324  0.66848513  0.05895463  1
  O2-  O286  1  0.79076162  0.67115425  0.40165689  1
  O2-  O287  1  0.79050904  0.67194442  0.73538011  1
