# generated using pymatgen
data_Ca2Al2SiO7
_symmetry_space_group_name_H-M   'P 1'
_cell_length_a   15.45797161
_cell_length_b   15.45822420
_cell_length_c   15.28411959
_cell_angle_alpha   89.99750000
_cell_angle_beta   90.00284649
_cell_angle_gamma   90.01536624
_symmetry_Int_Tables_number   1
_chemical_formula_structural   Ca2Al2SiO7
_chemical_formula_sum   'Ca48 Al48 Si24 O168'
_cell_volume   3652.18289059
_cell_formula_units_Z   24
loop_
 _symmetry_equiv_pos_site_id
 _symmetry_equiv_pos_as_xyz
  1  'x, y, z'
loop_
 _atom_type_symbol
 _atom_type_oxidation_number
  Ca2+  2.0
  Al0+  0.0
  Si0+  0.0
  O2-  -2.0
loop_
 _atom_site_type_symbol
 _atom_site_label
 _atom_site_symmetry_multiplicity
 _atom_site_fract_x
 _atom_site_fract_y
 _atom_site_fract_z
 _atom_site_occupancy
  Ca2+  Ca0  1  0.16587354  0.08198232  0.16912472  1
  Ca2+  Ca1  1  0.15443108  0.07024925  0.49765714  1
  Ca2+  Ca2  1  0.16841486  0.07887101  0.84173421  1
  Ca2+  Ca3  1  0.16768246  0.57202912  0.17781338  1
  Ca2+  Ca4  1  0.17435586  0.58963860  0.50329886  1
  Ca2+  Ca5  1  0.16899473  0.58029804  0.83650282  1
  Ca2+  Ca6  1  0.67525396  0.07183768  0.17339638  1
  Ca2+  Ca7  1  0.67117484  0.07304181  0.50272349  1
  Ca2+  Ca8  1  0.67352602  0.07031226  0.84412572  1
  Ca2+  Ca9  1  0.67820129  0.59238974  0.16693479  1
  Ca2+  Ca10  1  0.67406848  0.58711923  0.50213651  1
  Ca2+  Ca11  1  0.66889674  0.59179101  0.84077823  1
  Ca2+  Ca12  1  0.08499059  0.32746017  0.16406205  1
  Ca2+  Ca13  1  0.07916397  0.32667928  0.48591483  1
  Ca2+  Ca14  1  0.08848322  0.32844813  0.83703271  1
  Ca2+  Ca15  1  0.07988868  0.82915361  0.16334085  1
  Ca2+  Ca16  1  0.09186514  0.82584872  0.49413622  1
  Ca2+  Ca17  1  0.07580147  0.83353826  0.82758640  1
  Ca2+  Ca18  1  0.57478083  0.33174473  0.15974383  1
  Ca2+  Ca19  1  0.58023979  0.33253147  0.49448084  1
  Ca2+  Ca20  1  0.57525964  0.33475386  0.83240185  1
  Ca2+  Ca21  1  0.58189881  0.83338122  0.15638976  1
  Ca2+  Ca22  1  0.58665785  0.83393282  0.49921118  1
  Ca2+  Ca23  1  0.58545641  0.82826922  0.83260722  1
  Ca2+  Ca24  1  0.32401723  0.41852003  0.16991800  1
  Ca2+  Ca25  1  0.32642771  0.42801057  0.50009833  1
  Ca2+  Ca26  1  0.32982872  0.42197148  0.84170064  1
  Ca2+  Ca27  1  0.33288597  0.92047964  0.16996950  1
  Ca2+  Ca28  1  0.31927731  0.91372401  0.50189119  1
  Ca2+  Ca29  1  0.32773530  0.91768121  0.83936349  1
  Ca2+  Ca30  1  0.83989504  0.42784900  0.17133733  1
  Ca2+  Ca31  1  0.84420073  0.42250517  0.49549773  1
  Ca2+  Ca32  1  0.83062099  0.42653950  0.84114969  1
  Ca2+  Ca33  1  0.82824724  0.91972117  0.16791386  1
  Ca2+  Ca34  1  0.82577284  0.91814455  0.49992426  1
  Ca2+  Ca35  1  0.82470938  0.91317491  0.84427701  1
  Ca2+  Ca36  1  0.41213720  0.17153517  0.15509903  1
  Ca2+  Ca37  1  0.41880333  0.16678330  0.49520450  1
  Ca2+  Ca38  1  0.40921805  0.17062730  0.83728129  1
  Ca2+  Ca39  1  0.42210758  0.67249067  0.15827360  1
  Ca2+  Ca40  1  0.41921075  0.66054892  0.49622179  1
  Ca2+  Ca41  1  0.42586011  0.66973823  0.82887887  1
  Ca2+  Ca42  1  0.92509897  0.15959183  0.16349525  1
  Ca2+  Ca43  1  0.91853254  0.17334505  0.48554534  1
  Ca2+  Ca44  1  0.92112861  0.16013767  0.83596331  1
  Ca2+  Ca45  1  0.91782403  0.66778793  0.16155744  1
  Ca2+  Ca46  1  0.93047068  0.66542621  0.49132322  1
  Ca2+  Ca47  1  0.91901526  0.67162989  0.83296720  1
  Al0+  Al48  1  -0.00002888  -0.00143030  -0.00660235  1
  Al0+  Al49  1  -0.00102976  -0.00052322  0.33727454  1
  Al0+  Al50  1  -0.00104024  0.00095035  0.66901311  1
  Al0+  Al51  1  -0.00008499  0.49726848  0.00595925  1
  Al0+  Al52  1  0.00075367  0.49868187  0.33371314  1
  Al0+  Al53  1  0.00068439  0.49984199  0.66439008  1
  Al0+  Al54  1  0.49792373  0.00034406  0.00217553  1
  Al0+  Al55  1  0.50022635  -0.00079569  0.33766614  1
  Al0+  Al56  1  0.50031098  0.00104445  0.66980268  1
  Al0+  Al57  1  0.49982066  0.49930579  -0.00768050  1
  Al0+  Al58  1  0.50099815  0.50064857  0.33404083  1
  Al0+  Al59  1  0.49983176  0.50072350  0.66485004  1
  Al0+  Al60  1  0.24894183  0.24922086  -0.00188587  1
  Al0+  Al61  1  0.25043778  0.25109202  0.33496283  1
  Al0+  Al62  1  0.24890343  0.25134204  0.66244431  1
  Al0+  Al63  1  0.25117346  0.74835417  -0.00417899  1
  Al0+  Al64  1  0.25255263  0.75081189  0.33338903  1
  Al0+  Al65  1  0.25060410  0.75094547  0.67403115  1
  Al0+  Al66  1  0.75108744  0.25086424  0.00232489  1
  Al0+  Al67  1  0.74847528  0.25102990  0.33099956  1
  Al0+  Al68  1  0.74929647  0.25140452  0.66634005  1
  Al0+  Al69  1  0.75187048  0.74957727  0.00066041  1
  Al0+  Al70  1  0.75047680  0.74835196  0.34238662  1
  Al0+  Al71  1  0.74967238  0.75073776  0.66498782  1
  Al0+  Al72  1  0.67908024  0.92833363  0.01516077  1
  Al0+  Al73  1  0.42853288  0.31957339  0.98605005  1
  Al0+  Al74  1  0.07383418  0.68003297  0.31947488  1
  Al0+  Al75  1  0.57115000  0.68107011  0.98627614  1
  Al0+  Al76  1  0.31839659  0.06925330  0.01215536  1
  Al0+  Al77  1  0.32207990  0.57036000  0.68314515  1
  Al0+  Al78  1  0.17873907  0.42809452  0.34991451  1
  Al0+  Al79  1  0.18052198  0.42940943  0.01346725  1
  Al0+  Al80  1  0.32213224  0.57178682  0.34651300  1
  Al0+  Al81  1  0.82112323  0.07228538  0.34856702  1
  Al0+  Al82  1  0.17830280  0.92980723  0.68213745  1
  Al0+  Al83  1  0.67975283  0.92876376  0.68353577  1
  Al0+  Al84  1  0.82390369  0.07214854  0.01503768  1
  Al0+  Al85  1  0.82166014  0.56987630  0.34838122  1
  Al0+  Al86  1  0.57073325  0.67961934  0.64957508  1
  Al0+  Al87  1  0.06935064  0.17970542  0.98519952  1
  Al0+  Al88  1  0.81962626  0.57016931  0.01229080  1
  Al0+  Al89  1  0.17923581  0.92946942  0.34345215  1
  Al0+  Al90  1  0.07106478  0.17675753  0.31721430  1
  Al0+  Al91  1  0.92705833  0.32186590  0.31562613  1
  Al0+  Al92  1  0.93168543  0.81909858  0.98786661  1
  Al0+  Al93  1  0.07112294  0.68046660  0.65402667  1
  Al0+  Al94  1  0.67739604  0.92807082  0.35039174  1
  Al0+  Al95  1  0.42636524  0.82432897  0.98413644  1
  Si0+  Si96  1  0.57218675  0.67922563  0.31929576  1
  Si0+  Si97  1  0.07075561  0.17888009  0.65085242  1
  Si0+  Si98  1  0.32165999  0.07456418  0.68255671  1
  Si0+  Si99  1  0.82011893  0.07484867  0.68415574  1
  Si0+  Si100  1  0.92658369  0.81990293  0.31843587  1
  Si0+  Si101  1  0.07239693  0.67363766  0.98490863  1
  Si0+  Si102  1  0.82184190  0.56936891  0.68105312  1
  Si0+  Si103  1  0.17692113  0.92517217  0.01533377  1
  Si0+  Si104  1  0.92689878  0.32424926  0.98210833  1
  Si0+  Si105  1  0.92800066  0.32074967  0.65236150  1
  Si0+  Si106  1  0.67625864  0.42838638  0.34924203  1
  Si0+  Si107  1  0.43053144  0.32108411  0.31889024  1
  Si0+  Si108  1  0.67849228  0.42822149  0.68116974  1
  Si0+  Si109  1  0.57375446  0.17810578  0.98377992  1
  Si0+  Si110  1  0.17748690  0.42747532  0.68394228  1
  Si0+  Si111  1  0.42818085  0.32138229  0.64914673  1
  Si0+  Si112  1  0.67522489  0.42722320  0.01542875  1
  Si0+  Si113  1  0.56975678  0.17700406  0.31826661  1
  Si0+  Si114  1  0.57104462  0.17979973  0.65199039  1
  Si0+  Si115  1  0.32378877  0.57217758  0.01554147  1
  Si0+  Si116  1  0.92789224  0.82318439  0.64842188  1
  Si0+  Si117  1  0.43005513  0.82194273  0.31971131  1
  Si0+  Si118  1  0.32253471  0.07314044  0.34978491  1
  Si0+  Si119  1  0.42837169  0.82383805  0.64893646  1
  O2-  O120  1  0.24863704  -0.00932582  0.05938598  1
  O2-  O121  1  0.25059056  0.00745201  0.39247920  1
  O2-  O122  1  0.25261190  0.00630333  0.72593989  1
  O2-  O123  1  0.25179734  0.50757757  0.05957566  1
  O2-  O124  1  0.24684996  0.50433774  0.39896330  1
  O2-  O125  1  0.24601530  0.49596742  0.72836625  1
  O2-  O126  1  0.74900481  0.00293374  0.06383119  1
  O2-  O127  1  0.74952211  0.00056153  0.39970413  1
  O2-  O128  1  0.75546508  0.00297324  0.72834778  1
  O2-  O129  1  0.74417421  0.49553062  0.05861544  1
  O2-  O130  1  0.74860578  0.49255942  0.39458218  1
  O2-  O131  1  0.74745506  0.50123739  0.72283080  1
  O2-  O132  1  -0.00200284  0.24787790  0.26725755  1
  O2-  O133  1  -0.00201011  0.24871775  0.61070429  1
  O2-  O134  1  -0.00803416  0.25219946  0.93734746  1
  O2-  O135  1  -0.00322783  0.75276284  0.27386875  1
  O2-  O136  1  -0.00085504  0.75695807  0.60484727  1
  O2-  O137  1  0.00798986  0.74600411  0.94021053  1
  O2-  O138  1  0.49791661  0.24702910  0.27605351  1
  O2-  O139  1  0.49833442  0.24870974  0.60775863  1
  O2-  O140  1  0.50537738  0.24694228  0.93800510  1
  O2-  O141  1  0.50288639  0.75210108  0.27865727  1
  O2-  O142  1  0.49591761  0.75456390  0.60266709  1
  O2-  O143  1  0.49897307  0.75228395  0.93496754  1
  O2-  O144  1  0.07114265  0.17984805  0.09743419  1
  O2-  O145  1  0.06957980  0.17797348  0.43177454  1
  O2-  O146  1  0.07270048  0.18012662  0.75587156  1
  O2-  O147  1  0.07095183  0.67384663  0.09042299  1
  O2-  O148  1  0.07430864  0.68323475  0.43306649  1
  O2-  O149  1  0.06568678  0.67766067  0.76707643  1
  O2-  O150  1  0.57226881  0.18066694  0.08948742  1
  O2-  O151  1  0.56734327  0.17849144  0.42413308  1
  O2-  O152  1  0.57260377  0.18334682  0.75659860  1
  O2-  O153  1  0.57001914  0.68052866  0.10035096  1
  O2-  O154  1  0.57064583  0.67768053  0.42454022  1
  O2-  O155  1  0.57145080  0.67895229  0.76209489  1
  O2-  O156  1  0.18367447  0.42620680  0.23647726  1
  O2-  O157  1  0.17841387  0.42512045  0.57895646  1
  O2-  O158  1  0.18184443  0.43078518  0.89954189  1
  O2-  O159  1  0.18319033  0.92814065  0.23076351  1
  O2-  O160  1  0.17890395  0.93086077  0.56873397  1
  O2-  O161  1  0.17663113  0.92848158  0.90945251  1
  O2-  O162  1  0.66985760  0.43166320  0.24423216  1
  O2-  O163  1  0.67908827  0.42494513  0.57626222  1
  O2-  O164  1  0.67633653  0.42630972  0.90918203  1
  O2-  O165  1  0.67457082  0.92868586  0.23757706  1
  O2-  O166  1  0.68033681  0.93190358  0.57053533  1
  O2-  O167  1  0.68170428  0.92831832  0.90130943  1
  O2-  O168  1  0.43002349  0.31847131  0.09940756  1
  O2-  O169  1  0.43379253  0.32040843  0.42455479  1
  O2-  O170  1  0.42782796  0.32037623  0.75406222  1
  O2-  O171  1  0.42537751  0.82198742  0.09831879  1
  O2-  O172  1  0.42923177  0.82297177  0.42485076  1
  O2-  O173  1  0.43034401  0.82401578  0.75411836  1
  O2-  O174  1  0.92881422  0.32802113  0.08662544  1
  O2-  O175  1  0.92844852  0.31960764  0.43060279  1
  O2-  O176  1  0.92620124  0.32190864  0.75729045  1
  O2-  O177  1  0.93226438  0.81837894  0.10096813  1
  O2-  O178  1  0.92619377  0.81738564  0.42442049  1
  O2-  O179  1  0.92754669  0.82116902  0.75417740  1
  O2-  O180  1  0.32671344  0.07204360  0.24455573  1
  O2-  O181  1  0.32304080  0.07581821  0.57683952  1
  O2-  O182  1  0.31436910  0.07159192  0.89880872  1
  O2-  O183  1  0.32564076  0.56845143  0.23323152  1
  O2-  O184  1  0.32263721  0.56758142  0.57014269  1
  O2-  O185  1  0.32393139  0.56949904  0.90968433  1
  O2-  O186  1  0.81969095  0.06985420  0.23559273  1
  O2-  O187  1  0.81758082  0.07845621  0.57882111  1
  O2-  O188  1  0.82135066  0.07048631  0.90074577  1
  O2-  O189  1  0.81796455  0.57314478  0.23564058  1
  O2-  O190  1  0.82302319  0.56612742  0.57612692  1
  O2-  O191  1  0.81981173  0.56833534  0.89832519  1
  O2-  O192  1  0.04440201  0.07667135  0.26663221  1
  O2-  O193  1  0.04340280  0.08620878  0.60479677  1
  O2-  O194  1  0.04062953  0.08377713  0.92785567  1
  O2-  O195  1  0.04416176  0.58234554  0.26891448  1
  O2-  O196  1  0.03954024  0.58360827  0.59956802  1
  O2-  O197  1  0.04201350  0.58144778  0.93837930  1
  O2-  O198  1  0.54201507  0.08476039  0.27238399  1
  O2-  O199  1  0.54343329  0.08792586  0.60421795  1
  O2-  O200  1  0.54632963  0.08530859  0.93797958  1
  O2-  O201  1  0.54398915  0.58776310  0.27166014  1
  O2-  O202  1  0.54164213  0.58142011  0.59638245  1
  O2-  O203  1  0.54581136  0.58212362  0.93149499  1
  O2-  O204  1  0.17190620  0.20479095  0.26835585  1
  O2-  O205  1  0.16209239  0.20664400  0.60228163  1
  O2-  O206  1  0.16356578  0.21473869  0.92858434  1
  O2-  O207  1  0.17000744  0.71124832  0.26500702  1
  O2-  O208  1  0.16978739  0.71058743  0.60367306  1
  O2-  O209  1  0.16763542  0.69343148  0.93984492  1
  O2-  O210  1  0.66026504  0.20525099  0.27011979  1
  O2-  O211  1  0.66149368  0.21083784  0.60275133  1
  O2-  O212  1  0.66742007  0.20391828  0.93706709  1
  O2-  O213  1  0.66541825  0.70608516  0.27496769  1
  O2-  O214  1  0.66841707  0.70971491  0.59634258  1
  O2-  O215  1  0.66936819  0.70929135  0.93277594  1
  O2-  O216  1  0.08377406  0.45501336  0.06824465  1
  O2-  O217  1  0.07902661  0.45063794  0.40103973  1
  O2-  O218  1  0.08335690  0.45292060  0.72946456  1
  O2-  O219  1  0.08447520  0.95423529  0.05981674  1
  O2-  O220  1  0.08319219  0.95547650  0.40126760  1
  O2-  O221  1  0.08089621  0.96037899  0.73536463  1
  O2-  O222  1  0.58091130  0.45214229  0.06004096  1
  O2-  O223  1  0.58557538  0.45818963  0.40006119  1
  O2-  O224  1  0.58572853  0.45328851  0.72735848  1
  O2-  O225  1  0.57953226  0.95457188  0.06586942  1
  O2-  O226  1  0.58002528  0.95892833  0.40584417  1
  O2-  O227  1  0.58270903  0.96096697  0.73547124  1
  O2-  O228  1  0.21576131  0.33454363  0.06613954  1
  O2-  O229  1  0.21229050  0.33143946  0.40503233  1
  O2-  O230  1  0.20511086  0.33341418  0.72907240  1
  O2-  O231  1  0.19808793  0.82911969  0.05805477  1
  O2-  O232  1  0.21597104  0.83615456  0.40036603  1
  O2-  O233  1  0.20809886  0.83491911  0.73864768  1
  O2-  O234  1  0.69806226  0.33355404  0.06211281  1
  O2-  O235  1  0.69569293  0.33291886  0.39427675  1
  O2-  O236  1  0.70784095  0.33763720  0.73073605  1
  O2-  O237  1  0.71068703  0.83153625  0.06801091  1
  O2-  O238  1  0.70631063  0.83099798  0.40537018  1
  O2-  O239  1  0.71071937  0.83104240  0.73489785  1
  O2-  O240  1  0.46268388  0.41121478  0.27108606  1
  O2-  O241  1  0.45983576  0.41121110  0.60081937  1
  O2-  O242  1  0.45901270  0.41435092  0.92781761  1
  O2-  O243  1  0.45690508  0.91471115  0.27293538  1
  O2-  O244  1  0.45411269  0.91838927  0.60354872  1
  O2-  O245  1  0.45100004  0.92412106  0.93197725  1
  O2-  O246  1  0.95640836  0.42019655  0.26434592  1
  O2-  O247  1  0.95721172  0.41166395  0.60381975  1
  O2-  O248  1  0.95758535  0.41593376  0.93337976  1
  O2-  O249  1  0.95068499  0.91438629  0.27507371  1
  O2-  O250  1  0.95033246  0.91903246  0.60507634  1
  O2-  O251  1  0.95998088  0.91368361  0.92819402  1
  O2-  O252  1  0.33801224  0.29605397  0.27292901  1
  O2-  O253  1  0.33643185  0.29450836  0.60042123  1
  O2-  O254  1  0.33469980  0.28519873  0.92915312  1
  O2-  O255  1  0.34019809  0.79379827  0.26981824  1
  O2-  O256  1  0.33340230  0.79824479  0.60609358  1
  O2-  O257  1  0.32822178  0.79581777  0.92906390  1
  O2-  O258  1  0.82521084  0.30143672  0.26585273  1
  O2-  O259  1  0.83560910  0.29493959  0.60423364  1
  O2-  O260  1  0.83099724  0.30383012  0.93704602  1
  O2-  O261  1  0.83297809  0.79113222  0.27409942  1
  O2-  O262  1  0.83539642  0.79528096  0.60209777  1
  O2-  O263  1  0.83717481  0.78473494  0.93189599  1
  O2-  O264  1  0.41632333  0.04682128  0.06734280  1
  O2-  O265  1  0.41397333  0.04407127  0.39924852  1
  O2-  O266  1  0.41562427  0.05165557  0.72869499  1
  O2-  O267  1  0.41683513  0.54236071  0.05979867  1
  O2-  O268  1  0.41902584  0.53813029  0.40128870  1
  O2-  O269  1  0.41855264  0.53602590  0.73547629  1
  O2-  O270  1  0.92201429  0.03966791  0.06464906  1
  O2-  O271  1  0.91853127  0.04494759  0.40394285  1
  O2-  O272  1  0.91557729  0.05278916  0.72728058  1
  O2-  O273  1  0.91466599  0.53856125  0.06784168  1
  O2-  O274  1  0.91759932  0.53903796  0.40336692  1
  O2-  O275  1  0.91197616  0.53743598  0.72941435  1
  O2-  O276  1  0.28514043  0.16459150  0.06661254  1
  O2-  O277  1  0.30245670  0.16766751  0.39595561  1
  O2-  O278  1  0.29491791  0.16905852  0.72693518  1
  O2-  O279  1  0.30322400  0.66781184  0.05915733  1
  O2-  O280  1  0.29835118  0.67084599  0.39997105  1
  O2-  O281  1  0.29394870  0.66676331  0.73744399  1
  O2-  O282  1  0.80166247  0.17318522  0.06495671  1
  O2-  O283  1  0.79026006  0.17139836  0.40011224  1
  O2-  O284  1  0.79147053  0.16756715  0.73113416  1
  O2-  O285  1  0.78921417  0.66492219  0.06850261  1
  O2-  O286  1  0.78903225  0.66313548  0.40734663  1
  O2-  O287  1  0.79605272  0.66265193  0.72543607  1
