# generated using pymatgen
data_Ca2Al2SiO7
_symmetry_space_group_name_H-M   'P 1'
_cell_length_a   15.45866871
_cell_length_b   15.45894528
_cell_length_c   15.28453308
_cell_angle_alpha   89.99327071
_cell_angle_beta   90.01121009
_cell_angle_gamma   90.00937071
_symmetry_Int_Tables_number   1
_chemical_formula_structural   Ca2Al2SiO7
_chemical_formula_sum   'Ca48 Al48 Si24 O168'
_cell_volume   3652.61677103
_cell_formula_units_Z   24
loop_
 _symmetry_equiv_pos_site_id
 _symmetry_equiv_pos_as_xyz
  1  'x, y, z'
loop_
 _atom_type_symbol
 _atom_type_oxidation_number
  Ca2+  2.0
  Al0+  0.0
  Si0+  0.0
  O2-  -2.0
loop_
 _atom_site_type_symbol
 _atom_site_label
 _atom_site_symmetry_multiplicity
 _atom_site_fract_x
 _atom_site_fract_y
 _atom_site_fract_z
 _atom_site_occupancy
  Ca2+  Ca0  1  0.17030863  0.07357470  0.16960963  1
  Ca2+  Ca1  1  0.15930426  0.07573036  0.50439286  1
  Ca2+  Ca2  1  0.16664229  0.07655939  0.84227540  1
  Ca2+  Ca3  1  0.17355673  0.58308543  0.16621357  1
  Ca2+  Ca4  1  0.17425883  0.58579532  0.49990752  1
  Ca2+  Ca5  1  0.17069868  0.57690878  0.84831273  1
  Ca2+  Ca6  1  0.66396323  0.07820709  0.16965227  1
  Ca2+  Ca7  1  0.65875203  0.08003258  0.50111655  1
  Ca2+  Ca8  1  0.67012775  0.07982152  0.84528323  1
  Ca2+  Ca9  1  0.67601413  0.58616073  0.17184036  1
  Ca2+  Ca10  1  0.67037485  0.57787353  0.49792874  1
  Ca2+  Ca11  1  0.67212812  0.58510104  0.84535396  1
  Ca2+  Ca12  1  0.08800004  0.32942304  0.16127489  1
  Ca2+  Ca13  1  0.08594026  0.31865113  0.49392542  1
  Ca2+  Ca14  1  0.08548491  0.32855187  0.83102215  1
  Ca2+  Ca15  1  0.08010537  0.83009736  0.15661113  1
  Ca2+  Ca16  1  0.07814351  0.84190913  0.49602263  1
  Ca2+  Ca17  1  0.07407327  0.84212264  0.83349440  1
  Ca2+  Ca18  1  0.58354108  0.32580663  0.15859419  1
  Ca2+  Ca19  1  0.58918296  0.32252559  0.49184883  1
  Ca2+  Ca20  1  0.57779657  0.32147002  0.83272574  1
  Ca2+  Ca21  1  0.58033414  0.83409592  0.16001610  1
  Ca2+  Ca22  1  0.57299669  0.83589368  0.48833247  1
  Ca2+  Ca23  1  0.58807074  0.82938305  0.83753412  1
  Ca2+  Ca24  1  0.33806392  0.42499645  0.16294579  1
  Ca2+  Ca25  1  0.33851235  0.42386896  0.49838567  1
  Ca2+  Ca26  1  0.32771135  0.41736373  0.84674398  1
  Ca2+  Ca27  1  0.32463896  0.91382276  0.17083213  1
  Ca2+  Ca28  1  0.32167575  0.91383338  0.50123083  1
  Ca2+  Ca29  1  0.31990634  0.92365651  0.84282311  1
  Ca2+  Ca30  1  0.82875532  0.43006310  0.17278770  1
  Ca2+  Ca31  1  0.83163376  0.41864536  0.49552638  1
  Ca2+  Ca32  1  0.83225139  0.42450145  0.84338264  1
  Ca2+  Ca33  1  0.82161205  0.91510949  0.16326027  1
  Ca2+  Ca34  1  0.82716820  0.91456025  0.50175652  1
  Ca2+  Ca35  1  0.83297509  0.91996907  0.84497525  1
  Ca2+  Ca36  1  0.42623293  0.16866462  0.15572882  1
  Ca2+  Ca37  1  0.42813378  0.16484582  0.49261839  1
  Ca2+  Ca38  1  0.42216280  0.16150546  0.83732901  1
  Ca2+  Ca39  1  0.41755792  0.66803593  0.16027912  1
  Ca2+  Ca40  1  0.41406822  0.67370220  0.48965376  1
  Ca2+  Ca41  1  0.42079736  0.66184351  0.83738074  1
  Ca2+  Ca42  1  0.91974512  0.16323363  0.16336916  1
  Ca2+  Ca43  1  0.92926641  0.16247862  0.49524347  1
  Ca2+  Ca44  1  0.92077451  0.16266749  0.83083825  1
  Ca2+  Ca45  1  0.91798586  0.66932337  0.15330985  1
  Ca2+  Ca46  1  0.91685246  0.67176031  0.49623687  1
  Ca2+  Ca47  1  0.91874771  0.67804987  0.83641258  1
  Al0+  Al48  1  -0.00190769  0.00050283  0.00473072  1
  Al0+  Al49  1  -0.00063127  -0.00078521  0.33057657  1
  Al0+  Al50  1  -0.00278062  -0.00057405  0.66174979  1
  Al0+  Al51  1  0.00017916  0.49950267  0.00347707  1
  Al0+  Al52  1  0.00160851  0.49968997  0.34046237  1
  Al0+  Al53  1  0.00031852  0.50215179  0.66565703  1
  Al0+  Al54  1  0.49927852  -0.00130091  -0.00015284  1
  Al0+  Al55  1  0.49814990  -0.00026944  0.32849575  1
  Al0+  Al56  1  0.49848981  -0.00170566  0.66402800  1
  Al0+  Al57  1  0.49906304  0.49844058  -0.00641896  1
  Al0+  Al58  1  0.50140576  0.50005679  0.34344696  1
  Al0+  Al59  1  0.50208431  0.49942242  0.66688702  1
  Al0+  Al60  1  0.25049582  0.24957248  0.00351312  1
  Al0+  Al61  1  0.25199675  0.24953924  0.32890498  1
  Al0+  Al62  1  0.25227613  0.25140352  0.66100858  1
  Al0+  Al63  1  0.25008690  0.74802063  0.00092259  1
  Al0+  Al64  1  0.24833297  0.75109646  0.33815272  1
  Al0+  Al65  1  0.24955165  0.74984737  0.67331881  1
  Al0+  Al66  1  0.75213457  0.24957885  -0.00144961  1
  Al0+  Al67  1  0.75337645  0.25027347  0.33299101  1
  Al0+  Al68  1  0.74927397  0.25087672  0.66282723  1
  Al0+  Al69  1  0.75010469  0.75117245  -0.00115265  1
  Al0+  Al70  1  0.74981669  0.75192794  0.34343875  1
  Al0+  Al71  1  0.75033613  0.74929973  0.66167826  1
  Al0+  Al72  1  0.67700012  0.93166846  0.34816420  1
  Al0+  Al73  1  0.92948894  0.82025640  0.65060274  1
  Al0+  Al74  1  0.17773372  0.92835793  0.01547007  1
  Al0+  Al75  1  0.42820639  0.31999324  0.98476621  1
  Al0+  Al76  1  0.17673242  0.93127413  0.68151360  1
  Al0+  Al77  1  0.57206167  0.17983064  0.31774387  1
  Al0+  Al78  1  0.57057291  0.67980020  0.98901471  1
  Al0+  Al79  1  0.17841834  0.93083789  0.34823075  1
  Al0+  Al80  1  0.17756242  0.42768303  0.01490855  1
  Al0+  Al81  1  0.92988572  0.82160256  0.98649796  1
  Al0+  Al82  1  0.07165024  0.17773337  0.31643986  1
  Al0+  Al83  1  0.57308092  0.17639691  0.98453888  1
  Al0+  Al84  1  0.32145934  0.07133006  0.01523555  1
  Al0+  Al85  1  0.42696893  0.81928623  0.31944087  1
  Al0+  Al86  1  0.07282558  0.67701280  0.98624318  1
  Al0+  Al87  1  0.31997865  0.57063799  0.34724647  1
  Al0+  Al88  1  0.82134519  0.07403551  0.01494087  1
  Al0+  Al89  1  0.82366397  0.57331352  0.35073513  1
  Al0+  Al90  1  0.32364923  0.57077761  0.01394320  1
  Al0+  Al91  1  0.67851870  0.92871694  0.01297026  1
  Al0+  Al92  1  0.68007073  0.42757335  0.34786721  1
  Al0+  Al93  1  0.07031273  0.18047200  0.65486148  1
  Al0+  Al94  1  0.81957961  0.57124581  0.01094904  1
  Al0+  Al95  1  0.57011921  0.17860576  0.65173815  1
  Si0+  Si96  1  0.07035226  0.67857581  0.32072392  1
  Si0+  Si97  1  0.32156506  0.07282675  0.35031142  1
  Si0+  Si98  1  0.93074306  0.32329846  0.31570757  1
  Si0+  Si99  1  0.32194838  0.57075824  0.68293649  1
  Si0+  Si100  1  0.92761110  0.32577445  0.64945325  1
  Si0+  Si101  1  0.57150703  0.67771588  0.64972209  1
  Si0+  Si102  1  0.17990255  0.42843931  0.67950936  1
  Si0+  Si103  1  0.17862122  0.42555904  0.35245803  1
  Si0+  Si104  1  0.42819768  0.81836267  0.65269157  1
  Si0+  Si105  1  0.82215532  0.07138667  0.35148518  1
  Si0+  Si106  1  0.42578600  0.82233618  0.98181034  1
  Si0+  Si107  1  0.67803963  0.42764339  0.01307543  1
  Si0+  Si108  1  0.82055725  0.57207331  0.68365278  1
  Si0+  Si109  1  0.07332933  0.67721393  0.64909997  1
  Si0+  Si110  1  0.68020779  0.42841514  0.68393765  1
  Si0+  Si111  1  0.07004901  0.17945821  0.98657872  1
  Si0+  Si112  1  0.67661514  0.92823755  0.68054545  1
  Si0+  Si113  1  0.42933064  0.32425985  0.64700673  1
  Si0+  Si114  1  0.32313888  0.07278245  0.68152122  1
  Si0+  Si115  1  0.92907222  0.32228547  0.98607867  1
  Si0+  Si116  1  0.42921317  0.32503496  0.31635563  1
  Si0+  Si117  1  0.81890026  0.07054767  0.67879756  1
  Si0+  Si118  1  0.92698084  0.81944580  0.31778451  1
  Si0+  Si119  1  0.57219893  0.67831717  0.31990026  1
  O2-  O120  1  0.25270682  -0.00322620  0.06572845  1
  O2-  O121  1  0.25020484  0.00794356  0.39659620  1
  O2-  O122  1  0.24952033  0.00919317  0.72532145  1
  O2-  O123  1  0.24911386  0.50104531  0.06299640  1
  O2-  O124  1  0.24735479  0.49452410  0.39664018  1
  O2-  O125  1  0.25064262  0.49904535  0.72244182  1
  O2-  O126  1  0.74540198  0.00542140  0.06290153  1
  O2-  O127  1  0.74957322  0.00761868  0.39732849  1
  O2-  O128  1  0.74574739  0.00170812  0.72094738  1
  O2-  O129  1  0.74328736  0.49883887  0.05769642  1
  O2-  O130  1  0.75136268  0.50033271  0.39957930  1
  O2-  O131  1  0.75123642  0.49940166  0.72604007  1
  O2-  O132  1  -0.00006339  0.25587252  0.27071355  1
  O2-  O133  1  -0.00263457  0.25717653  0.60685872  1
  O2-  O134  1  -0.00057602  0.25065470  0.94347065  1
  O2-  O135  1  -0.00564647  0.74387278  0.27870652  1
  O2-  O136  1  0.00662372  0.74738146  0.60397743  1
  O2-  O137  1  0.00497997  0.75277391  0.93547860  1
  O2-  O138  1  0.49884803  0.25695054  0.27361796  1
  O2-  O139  1  0.49593293  0.25336087  0.60356774  1
  O2-  O140  1  0.49893850  0.24657259  0.93446418  1
  O2-  O141  1  0.50326285  0.74538383  0.27475684  1
  O2-  O142  1  0.49929292  0.74781307  0.60864159  1
  O2-  O143  1  0.49540842  0.75304804  0.93883106  1
  O2-  O144  1  0.06848879  0.18044906  0.09143564  1
  O2-  O145  1  0.06894710  0.17839870  0.43041345  1
  O2-  O146  1  0.06846553  0.18199164  0.76792115  1
  O2-  O147  1  0.06923319  0.67604928  0.10029215  1
  O2-  O148  1  0.07088382  0.68105280  0.42651830  1
  O2-  O149  1  0.07131805  0.67222863  0.75370917  1
  O2-  O150  1  0.57450735  0.18068550  0.09778595  1
  O2-  O151  1  0.56904335  0.17993120  0.43173461  1
  O2-  O152  1  0.57146902  0.17916093  0.76390993  1
  O2-  O153  1  0.57148467  0.68037240  0.10188808  1
  O2-  O154  1  0.56953133  0.68073555  0.42640540  1
  O2-  O155  1  0.57292306  0.67696974  0.75465846  1
  O2-  O156  1  0.17572314  0.42660204  0.24774522  1
  O2-  O157  1  0.18103494  0.42896832  0.57443894  1
  O2-  O158  1  0.17736009  0.42691480  0.90016347  1
  O2-  O159  1  0.17885026  0.92876708  0.23614993  1
  O2-  O160  1  0.17877319  0.93105407  0.56824009  1
  O2-  O161  1  0.17616380  0.93379332  0.90128372  1
  O2-  O162  1  0.68103808  0.42957447  0.23455078  1
  O2-  O163  1  0.68037847  0.42925970  0.57907277  1
  O2-  O164  1  0.68245277  0.42815360  0.90671171  1
  O2-  O165  1  0.67880487  0.92885735  0.23607859  1
  O2-  O166  1  0.67576822  0.92900809  0.57532111  1
  O2-  O167  1  0.68211415  0.92796981  0.89830557  1
  O2-  O168  1  0.43236806  0.32217516  0.09820608  1
  O2-  O169  1  0.42861780  0.32285755  0.42269179  1
  O2-  O170  1  0.42953302  0.32758469  0.75182212  1
  O2-  O171  1  0.42552894  0.82147990  0.08728312  1
  O2-  O172  1  0.42699420  0.81760717  0.43379719  1
  O2-  O173  1  0.42930450  0.81772165  0.75729685  1
  O2-  O174  1  0.92873480  0.32327815  0.09075721  1
  O2-  O175  1  0.93248797  0.32182937  0.42195634  1
  O2-  O176  1  0.92722900  0.32781427  0.75501324  1
  O2-  O177  1  0.92789012  0.81832562  0.10010311  1
  O2-  O178  1  0.92868634  0.82033169  0.42360046  1
  O2-  O179  1  0.92681366  0.82023632  0.76292117  1
  O2-  O180  1  0.32060691  0.07126016  0.24542997  1
  O2-  O181  1  0.32587437  0.06980544  0.57592339  1
  O2-  O182  1  0.31741970  0.07042403  0.90050606  1
  O2-  O183  1  0.31949125  0.57073478  0.23531483  1
  O2-  O184  1  0.32159855  0.57169116  0.57756876  1
  O2-  O185  1  0.32333491  0.56680270  0.89956851  1
  O2-  O186  1  0.82298188  0.06954829  0.24650618  1
  O2-  O187  1  0.81942852  0.06912481  0.57369979  1
  O2-  O188  1  0.82295697  0.07349039  0.90022948  1
  O2-  O189  1  0.82332292  0.57380696  0.23747470  1
  O2-  O190  1  0.81906806  0.57154783  0.57873456  1
  O2-  O191  1  0.81871749  0.56915661  0.89711291  1
  O2-  O192  1  0.03673559  0.08254595  0.26312361  1
  O2-  O193  1  0.03498607  0.08658201  0.59829090  1
  O2-  O194  1  0.03986827  0.08856432  0.93900669  1
  O2-  O195  1  0.04964788  0.58325889  0.27796272  1
  O2-  O196  1  0.04623205  0.58444675  0.60003912  1
  O2-  O197  1  0.04057342  0.57916764  0.93285549  1
  O2-  O198  1  0.53933576  0.08416348  0.26489374  1
  O2-  O199  1  0.53870335  0.08121534  0.59809485  1
  O2-  O200  1  0.54557181  0.07742399  0.93123456  1
  O2-  O201  1  0.54921053  0.58271538  0.27856104  1
  O2-  O202  1  0.54455727  0.58506772  0.60299020  1
  O2-  O203  1  0.54217160  0.58418564  0.93020195  1
  O2-  O204  1  0.16961333  0.20602877  0.26488400  1
  O2-  O205  1  0.16741830  0.20868603  0.59905981  1
  O2-  O206  1  0.16151960  0.20680802  0.93903196  1
  O2-  O207  1  0.16022404  0.71101158  0.27410296  1
  O2-  O208  1  0.16889416  0.70177721  0.60593562  1
  O2-  O209  1  0.17321008  0.69813462  0.93391371  1
  O2-  O210  1  0.67134305  0.20711148  0.26826860  1
  O2-  O211  1  0.66693234  0.20978707  0.59710881  1
  O2-  O212  1  0.67135200  0.20748833  0.93099752  1
  O2-  O213  1  0.66726632  0.70470497  0.27838789  1
  O2-  O214  1  0.66256314  0.70512117  0.60113055  1
  O2-  O215  1  0.66490901  0.71284633  0.93054799  1
  O2-  O216  1  0.08001142  0.45403936  0.06973106  1
  O2-  O217  1  0.08618006  0.45042581  0.40183057  1
  O2-  O218  1  0.08650459  0.45444289  0.72517925  1
  O2-  O219  1  0.08105456  0.95875065  0.06897239  1
  O2-  O220  1  0.08083072  0.96217757  0.40122568  1
  O2-  O221  1  0.07864528  0.96215586  0.73185284  1
  O2-  O222  1  0.58327171  0.44941855  0.05535969  1
  O2-  O223  1  0.58352117  0.45413806  0.40693963  1
  O2-  O224  1  0.58799318  0.45682311  0.73022966  1
  O2-  O225  1  0.57830300  0.94922430  0.06352909  1
  O2-  O226  1  0.57912549  0.96174875  0.40150700  1
  O2-  O227  1  0.58379944  0.95274561  0.72712703  1
  O2-  O228  1  0.20615196  0.33079868  0.06897478  1
  O2-  O229  1  0.20675891  0.33173406  0.39784185  1
  O2-  O230  1  0.20723061  0.33607717  0.72640499  1
  O2-  O231  1  0.20258584  0.82824196  0.06501724  1
  O2-  O232  1  0.21056217  0.83585409  0.40519740  1
  O2-  O233  1  0.20813286  0.83462144  0.73490518  1
  O2-  O234  1  0.70725763  0.33596268  0.05933902  1
  O2-  O235  1  0.71345473  0.33056595  0.40336095  1
  O2-  O236  1  0.70811274  0.33610547  0.73019783  1
  O2-  O237  1  0.71152497  0.83298566  0.06769806  1
  O2-  O238  1  0.70804271  0.83690296  0.40667791  1
  O2-  O239  1  0.70609947  0.83524005  0.72447402  1
  O2-  O240  1  0.45489319  0.42026028  0.27476807  1
  O2-  O241  1  0.45858142  0.41737310  0.60022595  1
  O2-  O242  1  0.45648093  0.41646296  0.92702628  1
  O2-  O243  1  0.45588206  0.91527445  0.26539080  1
  O2-  O244  1  0.45523011  0.90971283  0.60368927  1
  O2-  O245  1  0.45140668  0.91501141  0.93389112  1
  O2-  O246  1  0.95552003  0.41869202  0.27312259  1
  O2-  O247  1  0.95292353  0.41920949  0.60219935  1
  O2-  O248  1  0.95780972  0.41264178  0.93603093  1
  O2-  O249  1  0.95734379  0.90987391  0.27106651  1
  O2-  O250  1  0.95773779  0.91630361  0.59406632  1
  O2-  O251  1  0.95695088  0.92137102  0.93372225  1
  O2-  O252  1  0.33531795  0.30178565  0.27081934  1
  O2-  O253  1  0.33512407  0.30279172  0.59974948  1
  O2-  O254  1  0.32891863  0.29151298  0.93192023  1
  O2-  O255  1  0.33048342  0.78627695  0.26767209  1
  O2-  O256  1  0.33588727  0.78906234  0.60617313  1
  O2-  O257  1  0.33312080  0.79580269  0.93419220  1
  O2-  O258  1  0.83761609  0.29801144  0.26980185  1
  O2-  O259  1  0.83469054  0.29908899  0.60262215  1
  O2-  O260  1  0.83848298  0.29588075  0.93475651  1
  O2-  O261  1  0.83286828  0.79428717  0.27477380  1
  O2-  O262  1  0.83355661  0.78682618  0.59501848  1
  O2-  O263  1  0.83362649  0.78975282  0.93082044  1
  O2-  O264  1  0.42142109  0.04754279  0.06512903  1
  O2-  O265  1  0.41377869  0.04279568  0.39685092  1
  O2-  O266  1  0.41425382  0.04043786  0.72938060  1
  O2-  O267  1  0.42167257  0.53963028  0.06616012  1
  O2-  O268  1  0.41572845  0.54295284  0.40621435  1
  O2-  O269  1  0.41543311  0.54366445  0.72738855  1
  O2-  O270  1  0.91695090  0.04337092  0.07068636  1
  O2-  O271  1  0.91372535  0.03887663  0.39840778  1
  O2-  O272  1  0.90965206  0.04068663  0.72643203  1
  O2-  O273  1  0.91382936  0.53848254  0.06634278  1
  O2-  O274  1  0.92114026  0.54341944  0.40700597  1
  O2-  O275  1  0.91415392  0.54618150  0.72837934  1
  O2-  O276  1  0.29259596  0.16800309  0.06931526  1
  O2-  O277  1  0.30083219  0.16856956  0.39512970  1
  O2-  O278  1  0.30368630  0.16970953  0.72292345  1
  O2-  O279  1  0.29973507  0.66973842  0.06611497  1
  O2-  O280  1  0.28444712  0.66453486  0.40513791  1
  O2-  O281  1  0.29566536  0.66175062  0.73167552  1
  O2-  O282  1  0.79946947  0.17405601  0.06739862  1
  O2-  O283  1  0.80452954  0.16724426  0.39606355  1
  O2-  O284  1  0.79578943  0.16484800  0.72397228  1
  O2-  O285  1  0.78897574  0.66656931  0.06509753  1
  O2-  O286  1  0.79368613  0.66946156  0.40778023  1
  O2-  O287  1  0.78915654  0.66367981  0.72910300  1
