# generated using pymatgen
data_Ca2Al2SiO7
_symmetry_space_group_name_H-M   'P 1'
_cell_length_a   15.46000178
_cell_length_b   15.46022386
_cell_length_c   15.28542456
_cell_angle_alpha   89.99588303
_cell_angle_beta   90.00321569
_cell_angle_gamma   89.99744454
_symmetry_Int_Tables_number   1
_chemical_formula_structural   Ca2Al2SiO7
_chemical_formula_sum   'Ca48 Al48 Si24 O168'
_cell_volume   3653.44708419
_cell_formula_units_Z   24
loop_
 _symmetry_equiv_pos_site_id
 _symmetry_equiv_pos_as_xyz
  1  'x, y, z'
loop_
 _atom_type_symbol
 _atom_type_oxidation_number
  Ca2+  2.0
  Al0+  0.0
  Si0+  0.0
  O2-  -2.0
loop_
 _atom_site_type_symbol
 _atom_site_label
 _atom_site_symmetry_multiplicity
 _atom_site_fract_x
 _atom_site_fract_y
 _atom_site_fract_z
 _atom_site_occupancy
  Ca2+  Ca0  1  0.16974896  0.08116385  0.17098545  1
  Ca2+  Ca1  1  0.16998311  0.07881463  0.51362632  1
  Ca2+  Ca2  1  0.16601974  0.08441644  0.82920775  1
  Ca2+  Ca3  1  0.16900463  0.57467584  0.17592340  1
  Ca2+  Ca4  1  0.17559259  0.58246195  0.50252874  1
  Ca2+  Ca5  1  0.17322295  0.57883265  0.83961073  1
  Ca2+  Ca6  1  0.65654474  0.07847585  0.16442401  1
  Ca2+  Ca7  1  0.66872543  0.07593674  0.51468291  1
  Ca2+  Ca8  1  0.65873284  0.07744796  0.83551927  1
  Ca2+  Ca9  1  0.66779723  0.58225674  0.17781831  1
  Ca2+  Ca10  1  0.67155741  0.58030505  0.50203463  1
  Ca2+  Ca11  1  0.67414471  0.58635913  0.83525604  1
  Ca2+  Ca12  1  0.08599506  0.34099329  0.16315965  1
  Ca2+  Ca13  1  0.08211167  0.33338100  0.50137051  1
  Ca2+  Ca14  1  0.07991880  0.33027278  0.82433087  1
  Ca2+  Ca15  1  0.08307615  0.81572782  0.16221329  1
  Ca2+  Ca16  1  0.07891390  0.83048302  0.49767642  1
  Ca2+  Ca17  1  0.07922877  0.82996569  0.82395545  1
  Ca2+  Ca18  1  0.57031148  0.33953886  0.16091770  1
  Ca2+  Ca19  1  0.57371783  0.33577853  0.49669599  1
  Ca2+  Ca20  1  0.57368295  0.32221944  0.82449832  1
  Ca2+  Ca21  1  0.58692965  0.82077816  0.16103819  1
  Ca2+  Ca22  1  0.58533371  0.82852031  0.49759162  1
  Ca2+  Ca23  1  0.59265475  0.83105280  0.83114683  1
  Ca2+  Ca24  1  0.32702005  0.41613387  0.17478559  1
  Ca2+  Ca25  1  0.33797139  0.42387598  0.50233754  1
  Ca2+  Ca26  1  0.33286211  0.41377829  0.83506192  1
  Ca2+  Ca27  1  0.33529636  0.91949315  0.16897628  1
  Ca2+  Ca28  1  0.32602956  0.92336016  0.51338423  1
  Ca2+  Ca29  1  0.33144020  0.92410357  0.82953761  1
  Ca2+  Ca30  1  0.82147837  0.42388928  0.17848499  1
  Ca2+  Ca31  1  0.83268373  0.42734331  0.50540729  1
  Ca2+  Ca32  1  0.83932785  0.41997279  0.83333817  1
  Ca2+  Ca33  1  0.82776389  0.91719244  0.16620910  1
  Ca2+  Ca34  1  0.82950197  0.91998132  0.51385150  1
  Ca2+  Ca35  1  0.82646786  0.92002347  0.82968581  1
  Ca2+  Ca36  1  0.42145600  0.18154099  0.15929650  1
  Ca2+  Ca37  1  0.41512174  0.17544411  0.50055265  1
  Ca2+  Ca38  1  0.42005451  0.17489372  0.82415262  1
  Ca2+  Ca39  1  0.42830474  0.65662616  0.16708159  1
  Ca2+  Ca40  1  0.41795363  0.66259335  0.49321054  1
  Ca2+  Ca41  1  0.42365496  0.66280942  0.82823640  1
  Ca2+  Ca42  1  0.91895793  0.17133148  0.16361740  1
  Ca2+  Ca43  1  0.91735717  0.16728124  0.50467879  1
  Ca2+  Ca44  1  0.92098286  0.17139597  0.81806625  1
  Ca2+  Ca45  1  0.92867225  0.65376692  0.16680234  1
  Ca2+  Ca46  1  0.91583243  0.66738027  0.49732537  1
  Ca2+  Ca47  1  0.92257366  0.66975133  0.82512826  1
  Al0+  Al48  1  -0.00051648  -0.00012118  0.00358748  1
  Al0+  Al49  1  -0.00086277  0.00019388  0.32948517  1
  Al0+  Al50  1  -0.00231790  -0.00225807  0.66651284  1
  Al0+  Al51  1  0.00254159  0.50056720  -0.00104305  1
  Al0+  Al52  1  -0.00087364  0.49910678  0.33740320  1
  Al0+  Al53  1  0.00093656  0.50046886  0.66665568  1
  Al0+  Al54  1  0.50016764  -0.00107092  0.00503607  1
  Al0+  Al55  1  0.49938213  0.00080182  0.33401631  1
  Al0+  Al56  1  0.49764641  -0.00252929  0.67078875  1
  Al0+  Al57  1  0.50097243  0.50197356  -0.01049322  1
  Al0+  Al58  1  0.49929347  0.49937911  0.33158276  1
  Al0+  Al59  1  0.50153937  0.49961599  0.66823679  1
  Al0+  Al60  1  0.24854694  0.25025359  0.00161170  1
  Al0+  Al61  1  0.24958941  0.24865952  0.33196344  1
  Al0+  Al62  1  0.25013545  0.25078663  0.66177782  1
  Al0+  Al63  1  0.25112797  0.74996321  -0.00279307  1
  Al0+  Al64  1  0.24785479  0.75093393  0.33080642  1
  Al0+  Al65  1  0.25226344  0.74815166  0.67555812  1
  Al0+  Al66  1  0.75053183  0.25083321  -0.00137173  1
  Al0+  Al67  1  0.75038397  0.24742415  0.33497080  1
  Al0+  Al68  1  0.74963202  0.25061541  0.66133809  1
  Al0+  Al69  1  0.75169384  0.75261757  0.00201463  1
  Al0+  Al70  1  0.74972983  0.75305384  0.33202374  1
  Al0+  Al71  1  0.75266153  0.74847889  0.66975907  1
  Al0+  Al72  1  0.67648678  0.42707444  0.34762594  1
  Al0+  Al73  1  0.31977359  0.07316773  0.68163275  1
  Al0+  Al74  1  0.67943303  0.92995301  0.01691080  1
  Al0+  Al75  1  0.57146064  0.17855000  0.98562492  1
  Al0+  Al76  1  0.18086553  0.43006230  0.01296173  1
  Al0+  Al77  1  0.42656234  0.32159250  0.98354135  1
  Al0+  Al78  1  0.57021483  0.68103485  0.32208432  1
  Al0+  Al79  1  0.57270007  0.68073025  0.98480612  1
  Al0+  Al80  1  0.42960443  0.31991403  0.31846365  1
  Al0+  Al81  1  0.56991489  0.17509475  0.65078369  1
  Al0+  Al82  1  0.07004452  0.17849256  0.65180231  1
  Al0+  Al83  1  0.67783342  0.92824111  0.68149751  1
  Al0+  Al84  1  0.32034723  0.57170376  0.34639006  1
  Al0+  Al85  1  0.82166540  0.56950610  0.68182608  1
  Al0+  Al86  1  0.82004170  0.07350679  0.68068944  1
  Al0+  Al87  1  0.17674495  0.92776538  0.68154728  1
  Al0+  Al88  1  0.92961342  0.81835679  0.65381319  1
  Al0+  Al89  1  0.17777774  0.42629403  0.35075081  1
  Al0+  Al90  1  0.92736162  0.32440570  0.64997975  1
  Al0+  Al91  1  0.32358316  0.57017042  0.68204085  1
  Al0+  Al92  1  0.82029889  0.57267252  0.34827865  1
  Al0+  Al93  1  0.07145271  0.67790302  0.98495417  1
  Al0+  Al94  1  0.07021281  0.67829860  0.32112910  1
  Al0+  Al95  1  0.42909019  0.32245307  0.64868184  1
  Si0+  Si96  1  0.82360536  0.07021748  0.34839766  1
  Si0+  Si97  1  0.92970381  0.32091894  0.98771687  1
  Si0+  Si98  1  0.92821201  0.32029701  0.31753560  1
  Si0+  Si99  1  0.32459657  0.57344483  0.01672614  1
  Si0+  Si100  1  0.57343769  0.17564459  0.31636926  1
  Si0+  Si101  1  0.42769118  0.81865434  0.65305838  1
  Si0+  Si102  1  0.07015729  0.17718635  0.98698808  1
  Si0+  Si103  1  0.42768167  0.82354590  0.98248458  1
  Si0+  Si104  1  0.67791810  0.42801250  0.68481743  1
  Si0+  Si105  1  0.67945267  0.42949337  0.01227697  1
  Si0+  Si106  1  0.92999813  0.82345370  0.98286598  1
  Si0+  Si107  1  0.57235370  0.67988663  0.65179757  1
  Si0+  Si108  1  0.92810003  0.82395433  0.31423428  1
  Si0+  Si109  1  0.82334605  0.07427866  0.01842758  1
  Si0+  Si110  1  0.67899858  0.93108406  0.34809186  1
  Si0+  Si111  1  0.31946665  0.07034901  0.01679748  1
  Si0+  Si112  1  0.17785644  0.92955780  0.34608549  1
  Si0+  Si113  1  0.07516170  0.67810559  0.65034100  1
  Si0+  Si114  1  0.17715242  0.92773196  0.01713703  1
  Si0+  Si115  1  0.17890763  0.42912843  0.68287698  1
  Si0+  Si116  1  0.82140377  0.57098860  0.01476316  1
  Si0+  Si117  1  0.42675160  0.82469545  0.31775069  1
  Si0+  Si118  1  0.32019235  0.06974917  0.34738289  1
  Si0+  Si119  1  0.07001729  0.17797803  0.31656253  1
  O2-  O120  1  0.24882719  -0.00181156  0.05996296  1
  O2-  O121  1  0.25068198  -0.00261929  0.38881553  1
  O2-  O122  1  0.24514305  0.00337752  0.73195032  1
  O2-  O123  1  0.25656341  0.50369709  0.05993685  1
  O2-  O124  1  0.24975414  0.49940441  0.39834683  1
  O2-  O125  1  0.24901398  0.49551036  0.72814391  1
  O2-  O126  1  0.75211570  0.00796438  0.06315971  1
  O2-  O127  1  0.74904990  0.00274310  0.38893403  1
  O2-  O128  1  0.74386140  0.00626978  0.73110773  1
  O2-  O129  1  0.74793755  0.50241597  0.05654467  1
  O2-  O130  1  0.74824865  0.50002008  0.39701757  1
  O2-  O131  1  0.75064242  0.49232214  0.73028679  1
  O2-  O132  1  0.00156167  0.25147827  0.27385202  1
  O2-  O133  1  -0.00211971  0.24996744  0.60073924  1
  O2-  O134  1  -0.00181238  0.24723023  0.94667825  1
  O2-  O135  1  -0.00707961  0.75058149  0.27189801  1
  O2-  O136  1  0.00647256  0.74663014  0.60615419  1
  O2-  O137  1  -0.00077205  0.75517372  0.93962038  1
  O2-  O138  1  0.50870455  0.24833230  0.27291585  1
  O2-  O139  1  0.50039247  0.24875552  0.59973746  1
  O2-  O140  1  0.49916165  0.24931475  0.93567217  1
  O2-  O141  1  0.49351913  0.75401056  0.27407470  1
  O2-  O142  1  0.49942590  0.74914776  0.61005369  1
  O2-  O143  1  0.49635592  0.75446722  0.93894404  1
  O2-  O144  1  0.06929907  0.17562195  0.09269563  1
  O2-  O145  1  0.06788696  0.17187349  0.42044843  1
  O2-  O146  1  0.06959721  0.18138576  0.76626612  1
  O2-  O147  1  0.06899144  0.67710182  0.09844791  1
  O2-  O148  1  0.07275049  0.68420261  0.43354572  1
  O2-  O149  1  0.07322908  0.67879954  0.75630349  1
  O2-  O150  1  0.56872094  0.18098313  0.09987037  1
  O2-  O151  1  0.57071105  0.16947181  0.42099875  1
  O2-  O152  1  0.56673143  0.17631423  0.76448628  1
  O2-  O153  1  0.57311843  0.67991302  0.09818174  1
  O2-  O154  1  0.57170057  0.68517574  0.43500265  1
  O2-  O155  1  0.57251403  0.68152410  0.75714036  1
  O2-  O156  1  0.17926027  0.42750846  0.23650193  1
  O2-  O157  1  0.17770281  0.43187939  0.57759600  1
  O2-  O158  1  0.17782476  0.43033677  0.90036381  1
  O2-  O159  1  0.17814227  0.93231331  0.24039178  1
  O2-  O160  1  0.18102511  0.92593199  0.56718185  1
  O2-  O161  1  0.17452110  0.92959711  0.91291455  1
  O2-  O162  1  0.67842501  0.42864284  0.23280148  1
  O2-  O163  1  0.67526038  0.43348365  0.57942785  1
  O2-  O164  1  0.68421560  0.42858505  0.90769195  1
  O2-  O165  1  0.67901138  0.93141359  0.24285662  1
  O2-  O166  1  0.68034557  0.92544846  0.56724884  1
  O2-  O167  1  0.68220625  0.92842088  0.90486823  1
  O2-  O168  1  0.42649531  0.32105951  0.09767185  1
  O2-  O169  1  0.42821193  0.31723978  0.43071713  1
  O2-  O170  1  0.43018164  0.32211121  0.76224788  1
  O2-  O171  1  0.42741248  0.82425530  0.08857441  1
  O2-  O172  1  0.42832668  0.82918332  0.42303091  1
  O2-  O173  1  0.42664726  0.81719106  0.75806698  1
  O2-  O174  1  0.92967789  0.32054588  0.09323667  1
  O2-  O175  1  0.92719175  0.31760123  0.42167195  1
  O2-  O176  1  0.93268198  0.32580222  0.76458420  1
  O2-  O177  1  0.93171825  0.82527492  0.08887993  1
  O2-  O178  1  0.93010082  0.82904291  0.41924690  1
  O2-  O179  1  0.92916527  0.81523502  0.76707136  1
  O2-  O180  1  0.31883790  0.06814502  0.24164390  1
  O2-  O181  1  0.31931808  0.06828189  0.56741627  1
  O2-  O182  1  0.31754495  0.07041172  0.91248625  1
  O2-  O183  1  0.32007481  0.57137259  0.23254781  1
  O2-  O184  1  0.32274328  0.57315555  0.56921309  1
  O2-  O185  1  0.32266083  0.57390294  0.91119716  1
  O2-  O186  1  0.82718461  0.06898999  0.24295428  1
  O2-  O187  1  0.82061472  0.06742740  0.56643985  1
  O2-  O188  1  0.82893732  0.07385600  0.91415578  1
  O2-  O189  1  0.82027979  0.56915284  0.23365242  1
  O2-  O190  1  0.81806719  0.57201278  0.56915446  1
  O2-  O191  1  0.82224299  0.56934750  0.90976147  1
  O2-  O192  1  0.03880181  0.08789569  0.26503600  1
  O2-  O193  1  0.04264385  0.07936480  0.59980974  1
  O2-  O194  1  0.04407632  0.08454523  0.94094559  1
  O2-  O195  1  0.03959317  0.58074848  0.26730584  1
  O2-  O196  1  0.04924359  0.58505989  0.60514625  1
  O2-  O197  1  0.03796311  0.58305611  0.92977315  1
  O2-  O198  1  0.54147179  0.08380952  0.26777153  1
  O2-  O199  1  0.54049532  0.07536998  0.59993598  1
  O2-  O200  1  0.54429577  0.07777579  0.93865612  1
  O2-  O201  1  0.54172035  0.58463391  0.26624688  1
  O2-  O202  1  0.54563927  0.58765321  0.60620652  1
  O2-  O203  1  0.54548390  0.58563380  0.92671821  1
  O2-  O204  1  0.16234533  0.20238606  0.26810515  1
  O2-  O205  1  0.16772296  0.20564010  0.59725508  1
  O2-  O206  1  0.16141316  0.20494367  0.94046054  1
  O2-  O207  1  0.16466564  0.71241401  0.26298172  1
  O2-  O208  1  0.16953706  0.70501780  0.60721678  1
  O2-  O209  1  0.16911695  0.70682576  0.93297104  1
  O2-  O210  1  0.66984617  0.19355704  0.27224272  1
  O2-  O211  1  0.66982300  0.19903311  0.59950721  1
  O2-  O212  1  0.67136912  0.20433028  0.93478769  1
  O2-  O213  1  0.66563579  0.71475585  0.26564535  1
  O2-  O214  1  0.66307444  0.71016700  0.60489814  1
  O2-  O215  1  0.66994975  0.71372456  0.93309643  1
  O2-  O216  1  0.08405933  0.46230522  0.06801067  1
  O2-  O217  1  0.07901728  0.45240839  0.40197627  1
  O2-  O218  1  0.08615762  0.45586837  0.73023379  1
  O2-  O219  1  0.08647897  0.95681223  0.06718288  1
  O2-  O220  1  0.08624045  0.96028520  0.39171730  1
  O2-  O221  1  0.07811663  0.95249521  0.73429431  1
  O2-  O222  1  0.58583795  0.45744960  0.05591945  1
  O2-  O223  1  0.57920251  0.45613413  0.40007101  1
  O2-  O224  1  0.58732565  0.45883690  0.73370994  1
  O2-  O225  1  0.58213325  0.95696107  0.07347362  1
  O2-  O226  1  0.58614375  0.95685513  0.39472598  1
  O2-  O227  1  0.57788124  0.94820889  0.73436743  1
  O2-  O228  1  0.20605716  0.33176302  0.06836277  1
  O2-  O229  1  0.20348856  0.32566676  0.39956473  1
  O2-  O230  1  0.20232310  0.33436303  0.72681762  1
  O2-  O231  1  0.20651667  0.83553916  0.06384285  1
  O2-  O232  1  0.20153273  0.83735561  0.39272987  1
  O2-  O233  1  0.21013196  0.83255856  0.73788557  1
  O2-  O234  1  0.70791590  0.33854753  0.06174691  1
  O2-  O235  1  0.70361117  0.32729161  0.39785478  1
  O2-  O236  1  0.69897797  0.33228376  0.72700917  1
  O2-  O237  1  0.71510651  0.83479133  0.07296034  1
  O2-  O238  1  0.70677282  0.83992307  0.39548613  1
  O2-  O239  1  0.71398532  0.83269026  0.73540872  1
  O2-  O240  1  0.45760984  0.41668259  0.26327821  1
  O2-  O241  1  0.46205057  0.42090720  0.59741359  1
  O2-  O242  1  0.45306826  0.41959602  0.93052553  1
  O2-  O243  1  0.45531722  0.91717108  0.26900595  1
  O2-  O244  1  0.45294789  0.91057273  0.60507610  1
  O2-  O245  1  0.45356532  0.91736441  0.93841705  1
  O2-  O246  1  0.95354404  0.41284690  0.27042632  1
  O2-  O247  1  0.95937219  0.42190920  0.59663309  1
  O2-  O248  1  0.96016785  0.41116630  0.93959328  1
  O2-  O249  1  0.95878766  0.91508657  0.26409229  1
  O2-  O250  1  0.95672576  0.91469824  0.59825133  1
  O2-  O251  1  0.95594694  0.91765667  0.93831085  1
  O2-  O252  1  0.33379825  0.28398809  0.26398377  1
  O2-  O253  1  0.33042854  0.29678596  0.59613824  1
  O2-  O254  1  0.32788220  0.29025987  0.93291640  1
  O2-  O255  1  0.33223321  0.80376334  0.27123467  1
  O2-  O256  1  0.33624560  0.78949825  0.60533908  1
  O2-  O257  1  0.33366984  0.80081618  0.93629618  1
  O2-  O258  1  0.83745177  0.28908169  0.26801848  1
  O2-  O259  1  0.82848349  0.30124329  0.59656672  1
  O2-  O260  1  0.83783071  0.29709456  0.93942852  1
  O2-  O261  1  0.83308232  0.80299552  0.26925751  1
  O2-  O262  1  0.83449351  0.78414516  0.59830771  1
  O2-  O263  1  0.83662597  0.79707245  0.93880840  1
  O2-  O264  1  0.41000796  0.04179211  0.06668392  1
  O2-  O265  1  0.41227009  0.04347952  0.39447689  1
  O2-  O266  1  0.41457465  0.03836079  0.73713849  1
  O2-  O267  1  0.42045134  0.54858793  0.05864379  1
  O2-  O268  1  0.41907071  0.54498608  0.39825693  1
  O2-  O269  1  0.42049028  0.54088359  0.73632287  1
  O2-  O270  1  0.91552570  0.04492643  0.06849233  1
  O2-  O271  1  0.91439380  0.03876709  0.39545396  1
  O2-  O272  1  0.91645264  0.04049795  0.73463135  1
  O2-  O273  1  0.91222809  0.53871098  0.06168728  1
  O2-  O274  1  0.91771895  0.54441779  0.40153739  1
  O2-  O275  1  0.91972289  0.54188122  0.73550396  1
  O2-  O276  1  0.28827154  0.16056603  0.06602890  1
  O2-  O277  1  0.28998572  0.16000043  0.39404267  1
  O2-  O278  1  0.29268408  0.17228469  0.73318201  1
  O2-  O279  1  0.30034212  0.66824893  0.06136405  1
  O2-  O280  1  0.29326099  0.67216926  0.39735734  1
  O2-  O281  1  0.29419016  0.66499135  0.74003278  1
  O2-  O282  1  0.80010402  0.16901748  0.06485756  1
  O2-  O283  1  0.80129926  0.16319931  0.39444264  1
  O2-  O284  1  0.80121481  0.17553857  0.72976994  1
  O2-  O285  1  0.79791007  0.66396504  0.06112912  1
  O2-  O286  1  0.79382202  0.67313310  0.39767160  1
  O2-  O287  1  0.78755791  0.66352473  0.73834832  1
