# generated using pymatgen
data_Ca2Al2SiO7
_symmetry_space_group_name_H-M   'P 1'
_cell_length_a   15.46568545
_cell_length_b   15.46615536
_cell_length_c   15.28940593
_cell_angle_alpha   89.99361163
_cell_angle_beta   89.99097035
_cell_angle_gamma   89.98243031
_symmetry_Int_Tables_number   1
_chemical_formula_structural   Ca2Al2SiO7
_chemical_formula_sum   'Ca48 Al48 Si24 O168'
_cell_volume   3657.14453101
_cell_formula_units_Z   24
loop_
 _symmetry_equiv_pos_site_id
 _symmetry_equiv_pos_as_xyz
  1  'x, y, z'
loop_
 _atom_type_symbol
 _atom_type_oxidation_number
  Ca2+  2.0
  Al0+  0.0
  Si0+  0.0
  O2-  -2.0
loop_
 _atom_site_type_symbol
 _atom_site_label
 _atom_site_symmetry_multiplicity
 _atom_site_fract_x
 _atom_site_fract_y
 _atom_site_fract_z
 _atom_site_occupancy
  Ca2+  Ca0  1  0.16931172  0.06779812  0.17481987  1
  Ca2+  Ca1  1  0.17387762  0.08006657  0.50395113  1
  Ca2+  Ca2  1  0.16714293  0.07933018  0.83570799  1
  Ca2+  Ca3  1  0.16802291  0.58169046  0.17800339  1
  Ca2+  Ca4  1  0.17306616  0.58470621  0.50236818  1
  Ca2+  Ca5  1  0.17044471  0.59143754  0.83361070  1
  Ca2+  Ca6  1  0.67034288  0.08148546  0.17276286  1
  Ca2+  Ca7  1  0.66653106  0.08328394  0.50696532  1
  Ca2+  Ca8  1  0.66578645  0.08340407  0.83369075  1
  Ca2+  Ca9  1  0.67402132  0.59408009  0.16497184  1
  Ca2+  Ca10  1  0.67391416  0.58591124  0.51106350  1
  Ca2+  Ca11  1  0.67676765  0.59577098  0.83716839  1
  Ca2+  Ca12  1  0.08255074  0.33846844  0.16973604  1
  Ca2+  Ca13  1  0.08625212  0.33005592  0.49423487  1
  Ca2+  Ca14  1  0.08453958  0.32518972  0.82562348  1
  Ca2+  Ca15  1  0.08625423  0.82612637  0.16134767  1
  Ca2+  Ca16  1  0.08096596  0.82283832  0.49180652  1
  Ca2+  Ca17  1  0.07638051  0.82682384  0.82929940  1
  Ca2+  Ca18  1  0.56861671  0.33384314  0.16278002  1
  Ca2+  Ca19  1  0.56946583  0.33029404  0.49895235  1
  Ca2+  Ca20  1  0.57167220  0.32960820  0.82563328  1
  Ca2+  Ca21  1  0.57282272  0.82898486  0.16545918  1
  Ca2+  Ca22  1  0.57497405  0.82738274  0.49840717  1
  Ca2+  Ca23  1  0.58500617  0.82211474  0.82978466  1
  Ca2+  Ca24  1  0.32990089  0.42128942  0.17652941  1
  Ca2+  Ca25  1  0.33460085  0.42286559  0.50182369  1
  Ca2+  Ca26  1  0.33888722  0.41788268  0.83164255  1
  Ca2+  Ca27  1  0.32242400  0.91638303  0.17908465  1
  Ca2+  Ca28  1  0.33212749  0.92240505  0.50168796  1
  Ca2+  Ca29  1  0.32632063  0.92422005  0.83801988  1
  Ca2+  Ca30  1  0.83458224  0.42406981  0.17357464  1
  Ca2+  Ca31  1  0.83355939  0.42114597  0.50657919  1
  Ca2+  Ca32  1  0.83362847  0.43420829  0.83852937  1
  Ca2+  Ca33  1  0.83661754  0.90844751  0.16895297  1
  Ca2+  Ca34  1  0.83420192  0.90619906  0.50404797  1
  Ca2+  Ca35  1  0.83839486  0.91121139  0.83660292  1
  Ca2+  Ca36  1  0.40048894  0.17873019  0.16824079  1
  Ca2+  Ca37  1  0.40799173  0.17312735  0.49705700  1
  Ca2+  Ca38  1  0.41491162  0.17730109  0.82231646  1
  Ca2+  Ca39  1  0.41292325  0.67057656  0.16536220  1
  Ca2+  Ca40  1  0.41842057  0.66157827  0.49422233  1
  Ca2+  Ca41  1  0.42788971  0.66137892  0.82550394  1
  Ca2+  Ca42  1  0.91593750  0.17523511  0.16717711  1
  Ca2+  Ca43  1  0.92552447  0.17239596  0.49609521  1
  Ca2+  Ca44  1  0.92454166  0.16838815  0.82560398  1
  Ca2+  Ca45  1  0.93162342  0.67330575  0.16071300  1
  Ca2+  Ca46  1  0.92673481  0.67014286  0.49710664  1
  Ca2+  Ca47  1  0.92455079  0.67006887  0.82628447  1
  Al0+  Al48  1  0.00019554  0.00129186  0.00268045  1
  Al0+  Al49  1  -0.00181001  0.00075409  0.33471233  1
  Al0+  Al50  1  -0.00219519  0.00143819  0.65955245  1
  Al0+  Al51  1  0.00006849  0.50108901  0.00078333  1
  Al0+  Al52  1  -0.00092491  0.49944176  0.33077353  1
  Al0+  Al53  1  -0.00049420  0.50103567  0.66971872  1
  Al0+  Al54  1  0.50123187  0.00323535  0.00314636  1
  Al0+  Al55  1  0.50322702  -0.00278169  0.33288975  1
  Al0+  Al56  1  0.50095338  0.00006788  0.67189325  1
  Al0+  Al57  1  0.50058063  0.49863251  -0.00754165  1
  Al0+  Al58  1  0.50369617  0.49577557  0.33093365  1
  Al0+  Al59  1  0.49981140  0.49840263  0.66264729  1
  Al0+  Al60  1  0.24933953  0.25201579  -0.00435854  1
  Al0+  Al61  1  0.24932427  0.24930329  0.33388178  1
  Al0+  Al62  1  0.24878878  0.24962722  0.66329551  1
  Al0+  Al63  1  0.25027328  0.75127836  -0.00080748  1
  Al0+  Al64  1  0.25245525  0.74918094  0.33420320  1
  Al0+  Al65  1  0.24926995  0.75035739  0.67062268  1
  Al0+  Al66  1  0.74882123  0.25105749  0.00080279  1
  Al0+  Al67  1  0.75059421  0.24953648  0.33016863  1
  Al0+  Al68  1  0.74767231  0.24919961  0.66709324  1
  Al0+  Al69  1  0.74925009  0.75229023  0.00140269  1
  Al0+  Al70  1  0.75166649  0.75009579  0.33200459  1
  Al0+  Al71  1  0.74799735  0.75000887  0.66446794  1
  Al0+  Al72  1  0.82088140  0.57258053  0.01648196  1
  Al0+  Al73  1  0.32159314  0.57120688  0.68121616  1
  Al0+  Al74  1  0.82005677  0.57135690  0.68046010  1
  Al0+  Al75  1  0.17681243  0.42954138  0.34791005  1
  Al0+  Al76  1  0.43044395  0.82004789  0.32158556  1
  Al0+  Al77  1  0.17663035  0.92667636  0.35050781  1
  Al0+  Al78  1  0.07286696  0.67922261  0.31866899  1
  Al0+  Al79  1  0.07366441  0.67671774  0.98305083  1
  Al0+  Al80  1  0.57125543  0.17655278  0.65207858  1
  Al0+  Al81  1  0.32418191  0.57011288  0.34623908  1
  Al0+  Al82  1  0.42834675  0.31917103  0.98480540  1
  Al0+  Al83  1  0.56854419  0.68182474  0.98724606  1
  Al0+  Al84  1  0.56905222  0.67940601  0.65281550  1
  Al0+  Al85  1  0.92855600  0.32052989  0.32036299  1
  Al0+  Al86  1  0.92866866  0.81991941  0.65143279  1
  Al0+  Al87  1  0.18002441  0.93011786  0.01307374  1
  Al0+  Al88  1  0.07374561  0.67744805  0.65008761  1
  Al0+  Al89  1  0.07052909  0.17910426  0.65258642  1
  Al0+  Al90  1  0.32230327  0.06942062  0.34782065  1
  Al0+  Al91  1  0.32035399  0.07101300  0.68157732  1
  Al0+  Al92  1  0.42799269  0.32008617  0.64835677  1
  Al0+  Al93  1  0.92854698  0.82185734  0.31710102  1
  Al0+  Al94  1  0.93066720  0.82220810  0.98519480  1
  Al0+  Al95  1  0.42858787  0.31940163  0.31821405  1
  Si0+  Si96  1  0.32195825  0.07429284  0.01602370  1
  Si0+  Si97  1  0.68035026  0.42548997  0.34878512  1
  Si0+  Si98  1  0.42732658  0.82299523  0.65381960  1
  Si0+  Si99  1  0.67776080  0.42686771  0.68412818  1
  Si0+  Si100  1  0.17766268  0.42812208  0.68395398  1
  Si0+  Si101  1  0.82122640  0.07234957  0.68154910  1
  Si0+  Si102  1  0.06813585  0.18119215  0.98678309  1
  Si0+  Si103  1  0.82098064  0.07292534  0.01558546  1
  Si0+  Si104  1  0.68151497  0.92801851  0.34957880  1
  Si0+  Si105  1  0.17483406  0.92927437  0.68381739  1
  Si0+  Si106  1  0.67969909  0.92908608  0.68307137  1
  Si0+  Si107  1  0.17896171  0.42728152  0.01341448  1
  Si0+  Si108  1  0.67812405  0.42783234  0.01767140  1
  Si0+  Si109  1  0.57482716  0.17743062  0.98347853  1
  Si0+  Si110  1  0.81857547  0.57045132  0.34873985  1
  Si0+  Si111  1  0.67804253  0.92995481  0.01707974  1
  Si0+  Si112  1  0.57354256  0.67581031  0.31752552  1
  Si0+  Si113  1  0.57282850  0.17704259  0.31577625  1
  Si0+  Si114  1  0.32274601  0.56918211  0.01200170  1
  Si0+  Si115  1  0.42692066  0.82560243  0.98345742  1
  Si0+  Si116  1  0.92621712  0.32233114  0.98476824  1
  Si0+  Si117  1  0.07218056  0.17798882  0.31478603  1
  Si0+  Si118  1  0.81988264  0.07370849  0.34950936  1
  Si0+  Si119  1  0.92752552  0.32246367  0.65358698  1
  O2-  O120  1  0.25953988  0.00038383  0.05957632  1
  O2-  O121  1  0.25007957  -0.00160796  0.39892118  1
  O2-  O122  1  0.24501354  -0.00300382  0.72860284  1
  O2-  O123  1  0.24692994  0.50251876  0.05307668  1
  O2-  O124  1  0.24982947  0.50072607  0.39688030  1
  O2-  O125  1  0.24491324  0.49808956  0.72889379  1
  O2-  O126  1  0.74950241  0.00202867  0.05756606  1
  O2-  O127  1  0.75353186  -0.00172134  0.39140607  1
  O2-  O128  1  0.75156264  0.00036548  0.72453086  1
  O2-  O129  1  0.74639875  0.49626957  0.06337261  1
  O2-  O130  1  0.74757620  0.49959840  0.39154881  1
  O2-  O131  1  0.74560195  0.49620026  0.72859387  1
  O2-  O132  1  0.00459077  0.24847515  0.27083143  1
  O2-  O133  1  -0.00283674  0.25616333  0.60814921  1
  O2-  O134  1  -0.00201100  0.25247095  0.94281960  1
  O2-  O135  1  0.00539468  0.75553602  0.26804329  1
  O2-  O136  1  0.00274814  0.75103467  0.60168392  1
  O2-  O137  1  -0.00031714  0.74812749  0.93519960  1
  O2-  O138  1  0.49988221  0.24064477  0.27115211  1
  O2-  O139  1  0.49733275  0.24407520  0.60033406  1
  O2-  O140  1  0.50271424  0.24249891  0.94119001  1
  O2-  O141  1  0.49997969  0.73984486  0.27473989  1
  O2-  O142  1  0.48927469  0.74878992  0.60808406  1
  O2-  O143  1  0.49390411  0.75576289  0.93888040  1
  O2-  O144  1  0.06664131  0.18267517  0.09150952  1
  O2-  O145  1  0.06950810  0.17840383  0.42026902  1
  O2-  O146  1  0.06743981  0.17925130  0.76674217  1
  O2-  O147  1  0.07496974  0.67507758  0.09623449  1
  O2-  O148  1  0.06905832  0.67664818  0.43180655  1
  O2-  O149  1  0.07209039  0.67878878  0.76377127  1
  O2-  O150  1  0.58044009  0.17774872  0.08873080  1
  O2-  O151  1  0.57765588  0.17978621  0.42070925  1
  O2-  O152  1  0.57237643  0.17916992  0.76601211  1
  O2-  O153  1  0.56734944  0.68372103  0.10047355  1
  O2-  O154  1  0.57673830  0.67846927  0.42298466  1
  O2-  O155  1  0.57161324  0.68338617  0.76603954  1
  O2-  O156  1  0.17860390  0.43053668  0.23333461  1
  O2-  O157  1  0.17675271  0.42735459  0.57890790  1
  O2-  O158  1  0.17966681  0.42084995  0.90871578  1
  O2-  O159  1  0.17778423  0.92916761  0.23630345  1
  O2-  O160  1  0.17533129  0.93049957  0.57870150  1
  O2-  O161  1  0.17923453  0.93554089  0.89992545  1
  O2-  O162  1  0.68180448  0.42381476  0.24359498  1
  O2-  O163  1  0.68117739  0.42608967  0.57831116  1
  O2-  O164  1  0.68167690  0.42477011  0.91246786  1
  O2-  O165  1  0.68107467  0.92916691  0.24421446  1
  O2-  O166  1  0.67953081  0.92888697  0.57798703  1
  O2-  O167  1  0.67595895  0.93112332  0.91213873  1
  O2-  O168  1  0.42738487  0.31878936  0.09796559  1
  O2-  O169  1  0.43152203  0.32106032  0.43025271  1
  O2-  O170  1  0.43039332  0.31932498  0.76243404  1
  O2-  O171  1  0.42864805  0.82515318  0.08912162  1
  O2-  O172  1  0.43599311  0.82410853  0.43430606  1
  O2-  O173  1  0.43217120  0.82419299  0.75973917  1
  O2-  O174  1  0.92487209  0.32023431  0.08977346  1
  O2-  O175  1  0.92483779  0.31657074  0.43315895  1
  O2-  O176  1  0.92834957  0.31937881  0.75977581  1
  O2-  O177  1  0.93320360  0.82203132  0.09825752  1
  O2-  O178  1  0.92330136  0.81551100  0.42992089  1
  O2-  O179  1  0.92903468  0.82042964  0.76511493  1
  O2-  O180  1  0.31907404  0.06863355  0.23353693  1
  O2-  O181  1  0.32053566  0.06871689  0.56908908  1
  O2-  O182  1  0.31996951  0.07523677  0.91041068  1
  O2-  O183  1  0.32586752  0.56749748  0.23169765  1
  O2-  O184  1  0.32379999  0.56945933  0.56882519  1
  O2-  O185  1  0.32439615  0.56686587  0.90696114  1
  O2-  O186  1  0.81564670  0.07805978  0.24410012  1
  O2-  O187  1  0.81955533  0.07526405  0.57682325  1
  O2-  O188  1  0.82085486  0.07548091  0.91057123  1
  O2-  O189  1  0.81576727  0.57003758  0.24347779  1
  O2-  O190  1  0.81851055  0.56855954  0.56713091  1
  O2-  O191  1  0.81926005  0.57149279  0.90339888  1
  O2-  O192  1  0.04203564  0.08577569  0.26858047  1
  O2-  O193  1  0.03638432  0.08634755  0.59518399  1
  O2-  O194  1  0.03795946  0.09096193  0.93848969  1
  O2-  O195  1  0.03913306  0.58239863  0.26507991  1
  O2-  O196  1  0.04347384  0.57821009  0.60069474  1
  O2-  O197  1  0.04632406  0.57701534  0.93167371  1
  O2-  O198  1  0.55453671  0.08117245  0.27161050  1
  O2-  O199  1  0.54960146  0.07532574  0.60308473  1
  O2-  O200  1  0.55328897  0.08208939  0.93911005  1
  O2-  O201  1  0.55687486  0.58031715  0.27251341  1
  O2-  O202  1  0.54598167  0.58146463  0.59964543  1
  O2-  O203  1  0.54200954  0.58501622  0.93211064  1
  O2-  O204  1  0.16517978  0.20201837  0.26778646  1
  O2-  O205  1  0.16552637  0.20854960  0.59745025  1
  O2-  O206  1  0.15913240  0.20916385  0.93787480  1
  O2-  O207  1  0.17322854  0.70151337  0.26761369  1
  O2-  O208  1  0.17374921  0.70436791  0.60046411  1
  O2-  O209  1  0.17233322  0.70669167  0.93114222  1
  O2-  O210  1  0.66401390  0.20795517  0.26673195  1
  O2-  O211  1  0.66985817  0.20552691  0.59890590  1
  O2-  O212  1  0.66743886  0.20505435  0.93541689  1
  O2-  O213  1  0.66382982  0.70993269  0.26968846  1
  O2-  O214  1  0.66237749  0.71574724  0.59701572  1
  O2-  O215  1  0.66429764  0.71642626  0.93418158  1
  O2-  O216  1  0.08548111  0.44995671  0.06006132  1
  O2-  O217  1  0.07668894  0.45373258  0.39972128  1
  O2-  O218  1  0.08312834  0.44955255  0.73117769  1
  O2-  O219  1  0.08552808  0.96645104  0.06825592  1
  O2-  O220  1  0.07737920  0.95613666  0.40131202  1
  O2-  O221  1  0.08139667  0.96004638  0.72803594  1
  O2-  O222  1  0.58344173  0.45455317  0.06103379  1
  O2-  O223  1  0.58804586  0.44961114  0.39584924  1
  O2-  O224  1  0.58376028  0.45165394  0.72833462  1
  O2-  O225  1  0.58672817  0.95844737  0.06711467  1
  O2-  O226  1  0.59101817  0.95604583  0.39865001  1
  O2-  O227  1  0.58989041  0.95643789  0.73489807  1
  O2-  O228  1  0.20976044  0.33695856  0.06287537  1
  O2-  O229  1  0.20263379  0.32973466  0.39806305  1
  O2-  O230  1  0.20495277  0.33458726  0.73042221  1
  O2-  O231  1  0.20861555  0.83248260  0.06652532  1
  O2-  O232  1  0.20621953  0.82874053  0.40161529  1
  O2-  O233  1  0.19897956  0.83594985  0.73101646  1
  O2-  O234  1  0.70315491  0.33395480  0.06490709  1
  O2-  O235  1  0.71218424  0.33528931  0.39669659  1
  O2-  O236  1  0.70311752  0.33321976  0.73155453  1
  O2-  O237  1  0.70555466  0.83977303  0.06692804  1
  O2-  O238  1  0.70924948  0.83612878  0.39733364  1
  O2-  O239  1  0.70891594  0.83824588  0.73149953  1
  O2-  O240  1  0.46524590  0.41351398  0.26170365  1
  O2-  O241  1  0.46131080  0.41613287  0.59495763  1
  O2-  O242  1  0.46181100  0.41340486  0.92851498  1
  O2-  O243  1  0.46829479  0.91331618  0.26389516  1
  O2-  O244  1  0.46138677  0.91341718  0.60744316  1
  O2-  O245  1  0.45426211  0.92035101  0.94012244  1
  O2-  O246  1  0.95631418  0.41628964  0.26371548  1
  O2-  O247  1  0.94990870  0.41645219  0.60871173  1
  O2-  O248  1  0.95342422  0.41402356  0.93832520  1
  O2-  O249  1  0.94492202  0.92541930  0.26999523  1
  O2-  O250  1  0.94855725  0.92061170  0.59990737  1
  O2-  O251  1  0.95782473  0.92245431  0.93388416  1
  O2-  O252  1  0.33098642  0.29055781  0.26416784  1
  O2-  O253  1  0.32908987  0.29434577  0.59768837  1
  O2-  O254  1  0.33234646  0.28917175  0.92896659  1
  O2-  O255  1  0.33437243  0.79327336  0.26551271  1
  O2-  O256  1  0.33130223  0.80576067  0.61182973  1
  O2-  O257  1  0.33349104  0.80272931  0.93748223  1
  O2-  O258  1  0.83438282  0.28528917  0.26252662  1
  O2-  O259  1  0.83439282  0.29516052  0.60838927  1
  O2-  O260  1  0.83507867  0.29273924  0.93733811  1
  O2-  O261  1  0.83087498  0.78950486  0.26324261  1
  O2-  O262  1  0.83046065  0.79036044  0.59955185  1
  O2-  O263  1  0.82907095  0.79944687  0.93699926  1
  O2-  O264  1  0.41872123  0.05820590  0.05976839  1
  O2-  O265  1  0.42276396  0.04251549  0.39737317  1
  O2-  O266  1  0.41701163  0.04096592  0.73753256  1
  O2-  O267  1  0.41343048  0.53747347  0.05907617  1
  O2-  O268  1  0.42374113  0.53945641  0.39691107  1
  O2-  O269  1  0.41877038  0.53720947  0.73422662  1
  O2-  O270  1  0.91180005  0.04637938  0.06492021  1
  O2-  O271  1  0.91338317  0.05300345  0.39540875  1
  O2-  O272  1  0.91345665  0.04578614  0.72928588  1
  O2-  O273  1  0.91749394  0.53960879  0.06947636  1
  O2-  O274  1  0.90991918  0.54072929  0.39414609  1
  O2-  O275  1  0.91581760  0.54024796  0.73683210  1
  O2-  O276  1  0.28826388  0.16608960  0.06131639  1
  O2-  O277  1  0.29323572  0.16794547  0.39891882  1
  O2-  O278  1  0.28785293  0.16811335  0.73431021  1
  O2-  O279  1  0.30117698  0.66388991  0.05650580  1
  O2-  O280  1  0.30279764  0.66970150  0.39834282  1
  O2-  O281  1  0.29578852  0.66914683  0.73690311  1
  O2-  O282  1  0.79197536  0.16456504  0.06441589  1
  O2-  O283  1  0.78695848  0.16320828  0.39839958  1
  O2-  O284  1  0.79265878  0.16318533  0.73213698  1
  O2-  O285  1  0.78583101  0.66819395  0.07001978  1
  O2-  O286  1  0.78906378  0.66179019  0.39585542  1
  O2-  O287  1  0.78458129  0.66703674  0.73366997  1
