# generated using pymatgen
data_Ca2Al2SiO7
_symmetry_space_group_name_H-M   'P 1'
_cell_length_a   15.45745986
_cell_length_b   15.45795169
_cell_length_c   15.28368892
_cell_angle_alpha   90.00400603
_cell_angle_beta   90.00190265
_cell_angle_gamma   90.00976134
_symmetry_Int_Tables_number   1
_chemical_formula_structural   Ca2Al2SiO7
_chemical_formula_sum   'Ca48 Al48 Si24 O168'
_cell_volume   3651.89477391
_cell_formula_units_Z   24
loop_
 _symmetry_equiv_pos_site_id
 _symmetry_equiv_pos_as_xyz
  1  'x, y, z'
loop_
 _atom_type_symbol
 _atom_type_oxidation_number
  Ca2+  2.0
  Al0+  0.0
  Si0+  0.0
  O2-  -2.0
loop_
 _atom_site_type_symbol
 _atom_site_label
 _atom_site_symmetry_multiplicity
 _atom_site_fract_x
 _atom_site_fract_y
 _atom_site_fract_z
 _atom_site_occupancy
  Ca2+  Ca0  1  0.17310286  0.07027146  0.17485479  1
  Ca2+  Ca1  1  0.16332833  0.07121144  0.50355127  1
  Ca2+  Ca2  1  0.16511020  0.06902381  0.83816748  1
  Ca2+  Ca3  1  0.16847338  0.58648684  0.17695576  1
  Ca2+  Ca4  1  0.16805940  0.58544498  0.49470725  1
  Ca2+  Ca5  1  0.16657199  0.58589095  0.83928287  1
  Ca2+  Ca6  1  0.66359862  0.07805935  0.17016555  1
  Ca2+  Ca7  1  0.67039620  0.08227217  0.50240093  1
  Ca2+  Ca8  1  0.67260823  0.07832531  0.83772488  1
  Ca2+  Ca9  1  0.67383416  0.57721409  0.17114916  1
  Ca2+  Ca10  1  0.67734387  0.58528873  0.50535819  1
  Ca2+  Ca11  1  0.67661846  0.58543126  0.84137326  1
  Ca2+  Ca12  1  0.07805158  0.33901831  0.16056113  1
  Ca2+  Ca13  1  0.07766245  0.33794103  0.49535985  1
  Ca2+  Ca14  1  0.06738661  0.33348860  0.82799506  1
  Ca2+  Ca15  1  0.08551307  0.82491802  0.16356749  1
  Ca2+  Ca16  1  0.07495547  0.83428155  0.49189746  1
  Ca2+  Ca17  1  0.08248400  0.83005018  0.82964221  1
  Ca2+  Ca18  1  0.59366926  0.33141821  0.16571043  1
  Ca2+  Ca19  1  0.58146253  0.32898862  0.49267423  1
  Ca2+  Ca20  1  0.58059041  0.33763649  0.82813145  1
  Ca2+  Ca21  1  0.57565276  0.82697151  0.15389451  1
  Ca2+  Ca22  1  0.58705239  0.82392190  0.49684754  1
  Ca2+  Ca23  1  0.59160390  0.82311022  0.83418664  1
  Ca2+  Ca24  1  0.32458155  0.42700151  0.17832738  1
  Ca2+  Ca25  1  0.33059447  0.41754233  0.49966663  1
  Ca2+  Ca26  1  0.33467067  0.41611882  0.83491316  1
  Ca2+  Ca27  1  0.32393005  0.91208229  0.17290498  1
  Ca2+  Ca28  1  0.31995920  0.91757243  0.50074170  1
  Ca2+  Ca29  1  0.32340092  0.90721002  0.83914284  1
  Ca2+  Ca30  1  0.82957764  0.42766693  0.16910969  1
  Ca2+  Ca31  1  0.83274237  0.42928246  0.50400147  1
  Ca2+  Ca32  1  0.83269588  0.42494542  0.84168347  1
  Ca2+  Ca33  1  0.82705464  0.90988464  0.16907022  1
  Ca2+  Ca34  1  0.84160220  0.92001970  0.50875196  1
  Ca2+  Ca35  1  0.83381522  0.92010417  0.83432327  1
  Ca2+  Ca36  1  0.41874683  0.16317883  0.16851146  1
  Ca2+  Ca37  1  0.41948545  0.16855247  0.49165584  1
  Ca2+  Ca38  1  0.41917404  0.17441661  0.82667903  1
  Ca2+  Ca39  1  0.41963725  0.66877141  0.15774015  1
  Ca2+  Ca40  1  0.42181233  0.66265988  0.49722771  1
  Ca2+  Ca41  1  0.43128927  0.67054412  0.83294576  1
  Ca2+  Ca42  1  0.91857475  0.17689037  0.16101874  1
  Ca2+  Ca43  1  0.91152236  0.17194467  0.49898108  1
  Ca2+  Ca44  1  0.90852349  0.17816830  0.82761335  1
  Ca2+  Ca45  1  0.92527156  0.66062141  0.16553667  1
  Ca2+  Ca46  1  0.91555359  0.67588555  0.49191898  1
  Ca2+  Ca47  1  0.91830574  0.66681660  0.82806268  1
  Al0+  Al48  1  0.00229790  0.00021009  0.00627080  1
  Al0+  Al49  1  -0.00282630  0.00189069  0.33011439  1
  Al0+  Al50  1  -0.00031379  0.00019820  0.67471107  1
  Al0+  Al51  1  0.00007942  0.49989192  -0.00626000  1
  Al0+  Al52  1  -0.00118959  0.50223624  0.33752201  1
  Al0+  Al53  1  0.00100710  0.49951905  0.66591113  1
  Al0+  Al54  1  0.49916056  0.00207159  -0.00305102  1
  Al0+  Al55  1  0.50076422  0.00047581  0.33372424  1
  Al0+  Al56  1  0.49791662  -0.00113577  0.66739541  1
  Al0+  Al57  1  0.50073858  0.49931818  0.00008555  1
  Al0+  Al58  1  0.49922692  0.49753584  0.33847053  1
  Al0+  Al59  1  0.49916946  0.49965974  0.65772866  1
  Al0+  Al60  1  0.25008115  0.24791397  -0.00123969  1
  Al0+  Al61  1  0.25059319  0.25016806  0.33816556  1
  Al0+  Al62  1  0.24998534  0.24930174  0.66365923  1
  Al0+  Al63  1  0.24930084  0.74937702  -0.00426967  1
  Al0+  Al64  1  0.24941092  0.75017378  0.34059905  1
  Al0+  Al65  1  0.25220747  0.74803957  0.67100630  1
  Al0+  Al66  1  0.74960647  0.25084196  -0.00204342  1
  Al0+  Al67  1  0.74833697  0.24870866  0.33112636  1
  Al0+  Al68  1  0.74912322  0.24999452  0.66527739  1
  Al0+  Al69  1  0.75256343  0.75174578  0.00555464  1
  Al0+  Al70  1  0.74850880  0.75020338  0.33156453  1
  Al0+  Al71  1  0.75152441  0.74913158  0.66267986  1
  Al0+  Al72  1  0.07019640  0.68083323  0.31967233  1
  Al0+  Al73  1  0.82178824  0.57140205  0.68153455  1
  Al0+  Al74  1  0.57020728  0.17945645  0.31803371  1
  Al0+  Al75  1  0.32219026  0.57273986  0.34878827  1
  Al0+  Al76  1  0.82417855  0.57262556  0.01534530  1
  Al0+  Al77  1  0.18046704  0.92717609  0.01579508  1
  Al0+  Al78  1  0.42802219  0.32011250  0.65074994  1
  Al0+  Al79  1  0.17650542  0.92946411  0.34899517  1
  Al0+  Al80  1  0.93220740  0.82050291  0.65580606  1
  Al0+  Al81  1  0.81961409  0.57258753  0.35015970  1
  Al0+  Al82  1  0.67734539  0.42892000  0.01403516  1
  Al0+  Al83  1  0.81944907  0.07203387  0.68017622  1
  Al0+  Al84  1  0.06970633  0.67974466  0.98547745  1
  Al0+  Al85  1  0.57148544  0.68106775  0.65188872  1
  Al0+  Al86  1  0.42841275  0.82249617  0.98535758  1
  Al0+  Al87  1  0.17986728  0.92860627  0.68258895  1
  Al0+  Al88  1  0.92767401  0.32199556  0.65060399  1
  Al0+  Al89  1  0.92648130  0.82438737  0.31608242  1
  Al0+  Al90  1  0.17682790  0.42861782  0.34782540  1
  Al0+  Al91  1  0.32306312  0.06992701  0.34859438  1
  Al0+  Al92  1  0.68003816  0.42616906  0.34996086  1
  Al0+  Al93  1  0.67905508  0.93037995  0.01290966  1
  Al0+  Al94  1  0.57357472  0.67804365  0.98712699  1
  Al0+  Al95  1  0.92941614  0.31968698  0.98643339  1
  Si0+  Si96  1  0.07271539  0.17876302  0.31857070  1
  Si0+  Si97  1  0.32230595  0.07293818  0.68469235  1
  Si0+  Si98  1  0.32285729  0.56892975  0.68443465  1
  Si0+  Si99  1  0.57099244  0.17928862  0.98332738  1
  Si0+  Si100  1  0.43075442  0.81982911  0.32115650  1
  Si0+  Si101  1  0.67642748  0.92693426  0.68175230  1
  Si0+  Si102  1  0.81990540  0.07132436  0.34649545  1
  Si0+  Si103  1  0.57122727  0.17598239  0.65024793  1
  Si0+  Si104  1  0.07312350  0.17699552  0.98354111  1
  Si0+  Si105  1  0.67859424  0.92915239  0.34751559  1
  Si0+  Si106  1  0.32192526  0.07461693  0.01628500  1
  Si0+  Si107  1  0.32030909  0.56905590  0.01164388  1
  Si0+  Si108  1  0.42596554  0.82186965  0.64847668  1
  Si0+  Si109  1  0.92984915  0.32064686  0.31884259  1
  Si0+  Si110  1  0.17966601  0.42738955  0.68347252  1
  Si0+  Si111  1  0.92829783  0.82517627  0.98344253  1
  Si0+  Si112  1  0.82148682  0.07349828  0.01791787  1
  Si0+  Si113  1  0.06987772  0.17841039  0.65075642  1
  Si0+  Si114  1  0.07532886  0.67700470  0.64938398  1
  Si0+  Si115  1  0.67732632  0.42953488  0.68154638  1
  Si0+  Si116  1  0.42709071  0.32089150  0.98672398  1
  Si0+  Si117  1  0.17962318  0.42742473  0.01068375  1
  Si0+  Si118  1  0.57052646  0.67638769  0.31787100  1
  Si0+  Si119  1  0.42664517  0.32221731  0.31445097  1
  O2-  O120  1  0.25699506  0.00203367  0.05912208  1
  O2-  O121  1  0.24711493  0.00315428  0.39927427  1
  O2-  O122  1  0.25690459  0.00193751  0.72963883  1
  O2-  O123  1  0.24980151  0.49786424  0.05360048  1
  O2-  O124  1  0.25025700  0.49944970  0.39779303  1
  O2-  O125  1  0.24999604  0.49909947  0.72656541  1
  O2-  O126  1  0.75489502  0.00307821  0.06235070  1
  O2-  O127  1  0.75433946  -0.00463672  0.38890760  1
  O2-  O128  1  0.74322959  -0.00201623  0.72522490  1
  O2-  O129  1  0.74798678  0.50283731  0.06249282  1
  O2-  O130  1  0.74714837  0.50124853  0.40105640  1
  O2-  O131  1  0.74737124  0.49543849  0.72719700  1
  O2-  O132  1  0.00552527  0.25385469  0.27645081  1
  O2-  O133  1  0.00288142  0.24734384  0.60403081  1
  O2-  O134  1  0.00256879  0.24316544  0.93885988  1
  O2-  O135  1  -0.00046130  0.75281305  0.26728131  1
  O2-  O136  1  0.00634478  0.74620550  0.60781304  1
  O2-  O137  1  -0.00534244  0.75431227  0.93924634  1
  O2-  O138  1  0.49623263  0.25456547  0.26961484  1
  O2-  O139  1  0.50137982  0.24328942  0.60636082  1
  O2-  O140  1  0.50040232  0.25222410  0.94380657  1
  O2-  O141  1  0.49707313  0.74544405  0.27708513  1
  O2-  O142  1  0.49820250  0.75743882  0.60409761  1
  O2-  O143  1  0.50517018  0.75422332  0.93679851  1
  O2-  O144  1  0.07471915  0.18028088  0.08923480  1
  O2-  O145  1  0.06863375  0.17617490  0.42364116  1
  O2-  O146  1  0.06977828  0.18143465  0.75651919  1
  O2-  O147  1  0.07378821  0.67814357  0.09791927  1
  O2-  O148  1  0.06958049  0.68219974  0.43328079  1
  O2-  O149  1  0.07582380  0.67748259  0.75540884  1
  O2-  O150  1  0.57112193  0.17738808  0.08818749  1
  O2-  O151  1  0.57028673  0.17893629  0.43116090  1
  O2-  O152  1  0.57053829  0.17625867  0.75619821  1
  O2-  O153  1  0.56751905  0.67669212  0.10082024  1
  O2-  O154  1  0.57193079  0.68031024  0.42319993  1
  O2-  O155  1  0.57120064  0.68118443  0.76486716  1
  O2-  O156  1  0.17831213  0.42828036  0.23333719  1
  O2-  O157  1  0.18008568  0.42688336  0.57886620  1
  O2-  O158  1  0.18259617  0.42639126  0.90534700  1
  O2-  O159  1  0.18005628  0.92895791  0.23543551  1
  O2-  O160  1  0.17933277  0.93077505  0.56989722  1
  O2-  O161  1  0.18069555  0.92912428  0.90246873  1
  O2-  O162  1  0.68418960  0.42620935  0.23639850  1
  O2-  O163  1  0.67857396  0.43015250  0.57624779  1
  O2-  O164  1  0.67643494  0.42746512  0.90016936  1
  O2-  O165  1  0.67583191  0.93177696  0.24246749  1
  O2-  O166  1  0.67550191  0.92836609  0.57589357  1
  O2-  O167  1  0.68045637  0.93371924  0.89962840  1
  O2-  O168  1  0.42178132  0.31921855  0.09094703  1
  O2-  O169  1  0.42718100  0.32013470  0.41997568  1
  O2-  O170  1  0.42927416  0.31962382  0.76499991  1
  O2-  O171  1  0.42753164  0.81879267  0.09960120  1
  O2-  O172  1  0.43512225  0.82060549  0.42637638  1
  O2-  O173  1  0.42434964  0.81932701  0.75381562  1
  O2-  O174  1  0.93275591  0.31889271  0.09993583  1
  O2-  O175  1  0.92937208  0.31709192  0.42401473  1
  O2-  O176  1  0.92869517  0.32095533  0.76385244  1
  O2-  O177  1  0.93079607  0.82733588  0.08857258  1
  O2-  O178  1  0.92783700  0.82627776  0.43007142  1
  O2-  O179  1  0.93248943  0.82034680  0.76897379  1
  O2-  O180  1  0.32290426  0.06608995  0.23462240  1
  O2-  O181  1  0.32188337  0.07316352  0.57958693  1
  O2-  O182  1  0.31850510  0.08114752  0.91085280  1
  O2-  O183  1  0.32276345  0.57220426  0.23439411  1
  O2-  O184  1  0.32242003  0.56915145  0.57979230  1
  O2-  O185  1  0.32082514  0.56613397  0.90620763  1
  O2-  O186  1  0.81743729  0.07476015  0.24148822  1
  O2-  O187  1  0.81868205  0.07124047  0.56672486  1
  O2-  O188  1  0.81915096  0.07486270  0.91219329  1
  O2-  O189  1  0.82064504  0.57020167  0.23676247  1
  O2-  O190  1  0.82064097  0.57235118  0.56885657  1
  O2-  O191  1  0.82437620  0.56986833  0.90131867  1
  O2-  O192  1  0.04061040  0.09015983  0.26736746  1
  O2-  O193  1  0.04143917  0.08510116  0.60671886  1
  O2-  O194  1  0.04900743  0.08216981  0.93970122  1
  O2-  O195  1  0.04255970  0.58081999  0.26771042  1
  O2-  O196  1  0.05183316  0.58256449  0.60535045  1
  O2-  O197  1  0.04245784  0.58325309  0.92861220  1
  O2-  O198  1  0.53819439  0.08271932  0.26348905  1
  O2-  O199  1  0.54761415  0.08115922  0.60495072  1
  O2-  O200  1  0.54219294  0.08963494  0.93231879  1
  O2-  O201  1  0.54456317  0.58285075  0.27381893  1
  O2-  O202  1  0.53795242  0.58648469  0.59618559  1
  O2-  O203  1  0.54072747  0.58107707  0.93258222  1
  O2-  O204  1  0.16646403  0.20223377  0.27299366  1
  O2-  O205  1  0.16408494  0.20146904  0.60495856  1
  O2-  O206  1  0.16582015  0.20357794  0.93538845  1
  O2-  O207  1  0.17131467  0.70745694  0.26961549  1
  O2-  O208  1  0.17031720  0.70150765  0.60609042  1
  O2-  O209  1  0.16546050  0.71021424  0.92898178  1
  O2-  O210  1  0.66664048  0.20907237  0.26177754  1
  O2-  O211  1  0.66400025  0.20227273  0.60343737  1
  O2-  O212  1  0.66246191  0.20614573  0.93480403  1
  O2-  O213  1  0.66062469  0.70685230  0.26975513  1
  O2-  O214  1  0.66630135  0.71302919  0.59522389  1
  O2-  O215  1  0.67324913  0.70693234  0.93663449  1
  O2-  O216  1  0.08758769  0.45429150  0.05614368  1
  O2-  O217  1  0.08005230  0.45699614  0.40310412  1
  O2-  O218  1  0.08785392  0.45505892  0.73105646  1
  O2-  O219  1  0.08504740  0.95904089  0.07115777  1
  O2-  O220  1  0.07738718  0.96131406  0.39888396  1
  O2-  O221  1  0.08585882  0.96254245  0.73952255  1
  O2-  O222  1  0.57770500  0.45258923  0.06787385  1
  O2-  O223  1  0.57885942  0.44672463  0.39914635  1
  O2-  O224  1  0.58245312  0.45593486  0.72489846  1
  O2-  O225  1  0.58170033  0.96320788  0.06523935  1
  O2-  O226  1  0.59005007  0.96182876  0.39779054  1
  O2-  O227  1  0.58166354  0.94927807  0.72777267  1
  O2-  O228  1  0.20638110  0.33540247  0.05854049  1
  O2-  O229  1  0.20318499  0.33026984  0.40221845  1
  O2-  O230  1  0.20827684  0.33525530  0.73046438  1
  O2-  O231  1  0.21318894  0.83034436  0.06762185  1
  O2-  O232  1  0.20689829  0.83375646  0.40465922  1
  O2-  O233  1  0.21125147  0.83125130  0.73581504  1
  O2-  O234  1  0.70724089  0.32998200  0.06551840  1
  O2-  O235  1  0.71021974  0.32768790  0.40191705  1
  O2-  O236  1  0.69870858  0.33393637  0.72558734  1
  O2-  O237  1  0.70610733  0.83455348  0.06985232  1
  O2-  O238  1  0.70102875  0.83605700  0.39396071  1
  O2-  O239  1  0.70636070  0.83492376  0.72730180  1
  O2-  O240  1  0.45028063  0.41712290  0.26996208  1
  O2-  O241  1  0.45764661  0.41514748  0.59458180  1
  O2-  O242  1  0.45295728  0.41255033  0.93787667  1
  O2-  O243  1  0.46214752  0.90981191  0.27270776  1
  O2-  O244  1  0.44597653  0.91805012  0.60517977  1
  O2-  O245  1  0.44930202  0.92327712  0.93338872  1
  O2-  O246  1  0.95504160  0.41357614  0.27352889  1
  O2-  O247  1  0.96206118  0.41749711  0.59704581  1
  O2-  O248  1  0.96316158  0.41329299  0.92903377  1
  O2-  O249  1  0.94942618  0.92463036  0.26344634  1
  O2-  O250  1  0.96211370  0.91894286  0.60421804  1
  O2-  O251  1  0.95605018  0.91951815  0.93868324  1
  O2-  O252  1  0.33239716  0.29624115  0.26890880  1
  O2-  O253  1  0.33098623  0.29066944  0.59690593  1
  O2-  O254  1  0.33681294  0.29065110  0.93559853  1
  O2-  O255  1  0.33676575  0.79560755  0.27718191  1
  O2-  O256  1  0.33423448  0.79042818  0.60191506  1
  O2-  O257  1  0.33379919  0.78697255  0.92978056  1
  O2-  O258  1  0.84073282  0.28595068  0.27095706  1
  O2-  O259  1  0.83141587  0.28958181  0.59729720  1
  O2-  O260  1  0.83317682  0.28870860  0.93134336  1
  O2-  O261  1  0.82677502  0.79619412  0.26511476  1
  O2-  O262  1  0.83544360  0.79366034  0.60036532  1
  O2-  O263  1  0.83292079  0.80425234  0.93966620  1
  O2-  O264  1  0.41766341  0.05459521  0.05904780  1
  O2-  O265  1  0.42007476  0.03849933  0.40301892  1
  O2-  O266  1  0.41754356  0.05129925  0.73045093  1
  O2-  O267  1  0.41121680  0.54165012  0.06036702  1
  O2-  O268  1  0.41916704  0.54311150  0.40386573  1
  O2-  O269  1  0.41424253  0.53701064  0.73041622  1
  O2-  O270  1  0.91669142  0.05290088  0.06258352  1
  O2-  O271  1  0.91288633  0.05003012  0.39400437  1
  O2-  O272  1  0.91413815  0.04235261  0.73805027  1
  O2-  O273  1  0.92150967  0.53653087  0.06662658  1
  O2-  O274  1  0.91701276  0.54397057  0.40368907  1
  O2-  O275  1  0.92001195  0.54138905  0.73313095  1
  O2-  O276  1  0.29246269  0.16609784  0.06612923  1
  O2-  O277  1  0.30092575  0.17020197  0.39918092  1
  O2-  O278  1  0.29480309  0.16658584  0.73079507  1
  O2-  O279  1  0.29173847  0.66043898  0.05790251  1
  O2-  O280  1  0.29496601  0.66907154  0.40615087  1
  O2-  O281  1  0.29722344  0.66070869  0.73299402  1
  O2-  O282  1  0.79245953  0.16589481  0.06410589  1
  O2-  O283  1  0.78664738  0.16021323  0.39608951  1
  O2-  O284  1  0.78684737  0.16811955  0.73531673  1
  O2-  O285  1  0.80292151  0.67208420  0.06771587  1
  O2-  O286  1  0.78906771  0.67164567  0.40144100  1
  O2-  O287  1  0.78925042  0.66828587  0.73396166  1
