# generated using pymatgen
data_Ca2Al2SiO7
_symmetry_space_group_name_H-M   'P 1'
_cell_length_a   15.45931095
_cell_length_b   15.45897147
_cell_length_c   15.28460653
_cell_angle_alpha   89.99858333
_cell_angle_beta   90.00090588
_cell_angle_gamma   89.97962427
_symmetry_Int_Tables_number   1
_chemical_formula_structural   Ca2Al2SiO7
_chemical_formula_sum   'Ca48 Al48 Si24 O168'
_cell_volume   3652.79217498
_cell_formula_units_Z   24
loop_
 _symmetry_equiv_pos_site_id
 _symmetry_equiv_pos_as_xyz
  1  'x, y, z'
loop_
 _atom_type_symbol
 _atom_type_oxidation_number
  Ca2+  2.0
  Al0+  0.0
  Si0+  0.0
  O2-  -2.0
loop_
 _atom_site_type_symbol
 _atom_site_label
 _atom_site_symmetry_multiplicity
 _atom_site_fract_x
 _atom_site_fract_y
 _atom_site_fract_z
 _atom_site_occupancy
  Ca2+  Ca0  1  0.16398192  0.08059523  0.17824149  1
  Ca2+  Ca1  1  0.15367121  0.07216796  0.50404587  1
  Ca2+  Ca2  1  0.16241098  0.07968040  0.82842706  1
  Ca2+  Ca3  1  0.16916991  0.57954498  0.17525071  1
  Ca2+  Ca4  1  0.16310112  0.57781547  0.50643562  1
  Ca2+  Ca5  1  0.17786943  0.58986634  0.83358742  1
  Ca2+  Ca6  1  0.67193320  0.07187212  0.17972803  1
  Ca2+  Ca7  1  0.67589881  0.09273085  0.50140789  1
  Ca2+  Ca8  1  0.66837442  0.08064637  0.83560862  1
  Ca2+  Ca9  1  0.66806365  0.58238673  0.17561992  1
  Ca2+  Ca10  1  0.67296236  0.58591660  0.50368240  1
  Ca2+  Ca11  1  0.67426427  0.58382038  0.83366255  1
  Ca2+  Ca12  1  0.07499589  0.33400402  0.17005088  1
  Ca2+  Ca13  1  0.08137168  0.32223576  0.48915725  1
  Ca2+  Ca14  1  0.07885835  0.32650686  0.82787142  1
  Ca2+  Ca15  1  0.07031417  0.84173286  0.16966737  1
  Ca2+  Ca16  1  0.08478947  0.82442614  0.49252335  1
  Ca2+  Ca17  1  0.07985117  0.82995746  0.82466980  1
  Ca2+  Ca18  1  0.58221732  0.32539616  0.17044954  1
  Ca2+  Ca19  1  0.57452139  0.32605368  0.49582811  1
  Ca2+  Ca20  1  0.57705771  0.32655432  0.82194672  1
  Ca2+  Ca21  1  0.59384644  0.82992684  0.16591109  1
  Ca2+  Ca22  1  0.57934091  0.83096616  0.49299562  1
  Ca2+  Ca23  1  0.57593525  0.83665308  0.82906881  1
  Ca2+  Ca24  1  0.32817253  0.42018941  0.17635786  1
  Ca2+  Ca25  1  0.33329537  0.41742629  0.50340267  1
  Ca2+  Ca26  1  0.33801112  0.42715756  0.83579694  1
  Ca2+  Ca27  1  0.32333254  0.92052502  0.17556743  1
  Ca2+  Ca28  1  0.32221596  0.91158752  0.50554480  1
  Ca2+  Ca29  1  0.32644533  0.91037203  0.83126631  1
  Ca2+  Ca30  1  0.83981978  0.41463355  0.17327469  1
  Ca2+  Ca31  1  0.83747993  0.42208541  0.50563618  1
  Ca2+  Ca32  1  0.83816738  0.42143182  0.83454831  1
  Ca2+  Ca33  1  0.82938430  0.91630087  0.17777364  1
  Ca2+  Ca34  1  0.83279849  0.92583337  0.50007615  1
  Ca2+  Ca35  1  0.83067762  0.92313035  0.83796574  1
  Ca2+  Ca36  1  0.41738229  0.17001084  0.16923607  1
  Ca2+  Ca37  1  0.42531470  0.17454981  0.49364141  1
  Ca2+  Ca38  1  0.42421408  0.17347295  0.81901438  1
  Ca2+  Ca39  1  0.42131985  0.66424247  0.16722432  1
  Ca2+  Ca40  1  0.41789032  0.66917721  0.49869392  1
  Ca2+  Ca41  1  0.41321446  0.66840382  0.82419039  1
  Ca2+  Ca42  1  0.91565639  0.17139250  0.17030132  1
  Ca2+  Ca43  1  0.92096541  0.16434695  0.49285578  1
  Ca2+  Ca44  1  0.91761626  0.16990748  0.82633256  1
  Ca2+  Ca45  1  0.92229946  0.67937130  0.16712466  1
  Ca2+  Ca46  1  0.92604414  0.67000237  0.49239683  1
  Ca2+  Ca47  1  0.92107582  0.67331851  0.82600325  1
  Al0+  Al48  1  -0.00052182  0.00061890  -0.00466713  1
  Al0+  Al49  1  -0.00093554  -0.00033962  0.33393670  1
  Al0+  Al50  1  -0.00319660  -0.00006066  0.67476713  1
  Al0+  Al51  1  0.00193586  0.49946457  -0.00485381  1
  Al0+  Al52  1  0.00266374  0.50049673  0.33081353  1
  Al0+  Al53  1  0.00043419  0.50108697  0.67144103  1
  Al0+  Al54  1  0.50009600  -0.00165036  0.00423786  1
  Al0+  Al55  1  0.49884905  -0.00084840  0.33309581  1
  Al0+  Al56  1  0.49885074  -0.00040187  0.65768081  1
  Al0+  Al57  1  0.50171461  0.50032491  0.00421779  1
  Al0+  Al58  1  0.50075365  0.50131362  0.32670514  1
  Al0+  Al59  1  0.50019032  0.50028714  0.66784601  1
  Al0+  Al60  1  0.25069056  0.25078607  -0.00155913  1
  Al0+  Al61  1  0.24987300  0.25186240  0.32968865  1
  Al0+  Al62  1  0.24800481  0.24833236  0.66049978  1
  Al0+  Al63  1  0.25167476  0.75024556  0.00764970  1
  Al0+  Al64  1  0.25287276  0.74898386  0.33223447  1
  Al0+  Al65  1  0.24889946  0.74864358  0.66711419  1
  Al0+  Al66  1  0.75094019  0.25055999  -0.00487915  1
  Al0+  Al67  1  0.74788864  0.25059034  0.32998803  1
  Al0+  Al68  1  0.74979466  0.25058745  0.66998581  1
  Al0+  Al69  1  0.75108479  0.74907966  -0.00284634  1
  Al0+  Al70  1  0.74950314  0.74962404  0.33129399  1
  Al0+  Al71  1  0.74929786  0.75086251  0.67340999  1
  Al0+  Al72  1  0.42862267  0.32175635  0.31626964  1
  Al0+  Al73  1  0.82282561  0.57253887  0.68069732  1
  Al0+  Al74  1  0.67748097  0.92577008  0.35045707  1
  Al0+  Al75  1  0.92939469  0.32124410  0.98353447  1
  Al0+  Al76  1  0.17865537  0.42991242  0.34755258  1
  Al0+  Al77  1  0.67956970  0.92953501  0.01378200  1
  Al0+  Al78  1  0.32005791  0.56850693  0.67850063  1
  Al0+  Al79  1  0.06827550  0.17742877  0.65307933  1
  Al0+  Al80  1  0.17941198  0.92847593  0.68085590  1
  Al0+  Al81  1  0.92845062  0.82120845  0.98378553  1
  Al0+  Al82  1  0.92985127  0.82040609  0.32148658  1
  Al0+  Al83  1  0.07001548  0.67995174  0.65461594  1
  Al0+  Al84  1  0.57301467  0.17811245  0.65152440  1
  Al0+  Al85  1  0.57074421  0.68128568  0.32054469  1
  Al0+  Al86  1  0.42796928  0.81972399  0.65380700  1
  Al0+  Al87  1  0.81911350  0.07212238  0.34804080  1
  Al0+  Al88  1  0.07468114  0.67769835  0.31799711  1
  Al0+  Al89  1  0.42764313  0.32371919  0.65229553  1
  Al0+  Al90  1  0.32205462  0.57138322  0.01650706  1
  Al0+  Al91  1  0.17953314  0.92948234  0.34692778  1
  Al0+  Al92  1  0.81906820  0.07146382  0.68255128  1
  Al0+  Al93  1  0.07031789  0.17715121  0.31898685  1
  Al0+  Al94  1  0.57129540  0.17717350  0.31645801  1
  Al0+  Al95  1  0.92797124  0.32219364  0.32149822  1
  Si0+  Si96  1  0.42893920  0.82048297  0.98626514  1
  Si0+  Si97  1  0.07361688  0.67978164  0.98318863  1
  Si0+  Si98  1  0.82229413  0.56976803  0.01583710  1
  Si0+  Si99  1  0.82231929  0.07328151  0.01711192  1
  Si0+  Si100  1  0.42966167  0.32156062  0.98466495  1
  Si0+  Si101  1  0.68017454  0.42860255  0.01572519  1
  Si0+  Si102  1  0.57103771  0.67735913  0.98349415  1
  Si0+  Si103  1  0.07414722  0.17755722  0.98152320  1
  Si0+  Si104  1  0.32422584  0.57070257  0.35119733  1
  Si0+  Si105  1  0.67761920  0.42977261  0.34734942  1
  Si0+  Si106  1  0.82129040  0.57009046  0.34598356  1
  Si0+  Si107  1  0.67476059  0.92757164  0.68366145  1
  Si0+  Si108  1  0.17722000  0.42457900  0.68423183  1
  Si0+  Si109  1  0.32205472  0.07383430  0.35059949  1
  Si0+  Si110  1  0.57369857  0.67847479  0.65244948  1
  Si0+  Si111  1  0.67911337  0.42954436  0.68360189  1
  Si0+  Si112  1  0.17886543  0.42692156  0.01675393  1
  Si0+  Si113  1  0.17858142  0.93073912  0.01500034  1
  Si0+  Si114  1  0.56889165  0.17768823  0.98536608  1
  Si0+  Si115  1  0.92574228  0.82226821  0.65121861  1
  Si0+  Si116  1  0.92861952  0.32285159  0.65149046  1
  Si0+  Si117  1  0.32152130  0.07218519  0.01308359  1
  Si0+  Si118  1  0.42706377  0.82243864  0.31478677  1
  Si0+  Si119  1  0.32267207  0.07189576  0.68107517  1
  O2-  O120  1  0.24648701  0.00548536  0.05543240  1
  O2-  O121  1  0.25261046  0.00566024  0.39425698  1
  O2-  O122  1  0.25463737  0.00355301  0.72816274  1
  O2-  O123  1  0.24716683  0.49625700  0.06062917  1
  O2-  O124  1  0.25306433  0.50468460  0.39461369  1
  O2-  O125  1  0.24832011  0.49173579  0.72800750  1
  O2-  O126  1  0.75583917  0.00227582  0.06024913  1
  O2-  O127  1  0.74528180  0.00190888  0.39917146  1
  O2-  O128  1  0.74207434  -0.00222886  0.72783640  1
  O2-  O129  1  0.75299646  0.49746995  0.05893156  1
  O2-  O130  1  0.75261740  0.49685218  0.38885092  1
  O2-  O131  1  0.74839532  0.49755181  0.72868339  1
  O2-  O132  1  -0.00172903  0.24942317  0.26961951  1
  O2-  O133  1  -0.00403193  0.25415735  0.60715310  1
  O2-  O134  1  0.00375071  0.24552725  0.93869197  1
  O2-  O135  1  0.00491634  0.75228285  0.26913540  1
  O2-  O136  1  -0.00667606  0.75224080  0.60822981  1
  O2-  O137  1  0.00524638  0.74811198  0.93778857  1
  O2-  O138  1  0.49773947  0.24724602  0.26524059  1
  O2-  O139  1  0.49840698  0.24934806  0.60514404  1
  O2-  O140  1  0.49889836  0.24931449  0.94175195  1
  O2-  O141  1  0.49995279  0.75804827  0.27059796  1
  O2-  O142  1  0.50549118  0.74723418  0.60885262  1
  O2-  O143  1  0.49899912  0.74832328  0.94307926  1
  O2-  O144  1  0.07682181  0.17625019  0.08642946  1
  O2-  O145  1  0.06796205  0.17684916  0.43240225  1
  O2-  O146  1  0.06722397  0.17966307  0.76698766  1
  O2-  O147  1  0.07207513  0.67965797  0.08830523  1
  O2-  O148  1  0.07113418  0.67671843  0.43169026  1
  O2-  O149  1  0.07056044  0.68297613  0.76838275  1
  O2-  O150  1  0.56716997  0.17859490  0.08977720  1
  O2-  O151  1  0.57169086  0.18248391  0.42951001  1
  O2-  O152  1  0.57059917  0.17963120  0.76664169  1
  O2-  O153  1  0.57211532  0.67642364  0.08832315  1
  O2-  O154  1  0.56961122  0.67915537  0.43358383  1
  O2-  O155  1  0.57344264  0.67851546  0.75862394  1
  O2-  O156  1  0.17935437  0.43232848  0.23379549  1
  O2-  O157  1  0.17452468  0.42669872  0.57917357  1
  O2-  O158  1  0.18118081  0.42453343  0.91107228  1
  O2-  O159  1  0.18142461  0.93176004  0.23278968  1
  O2-  O160  1  0.17960135  0.92752442  0.56841236  1
  O2-  O161  1  0.18082614  0.92815703  0.90983678  1
  O2-  O162  1  0.67725106  0.43254336  0.24165064  1
  O2-  O163  1  0.67909872  0.43072394  0.57825855  1
  O2-  O164  1  0.67762375  0.43130117  0.91063371  1
  O2-  O165  1  0.68261447  0.92500945  0.23624618  1
  O2-  O166  1  0.67673833  0.92199782  0.57909839  1
  O2-  O167  1  0.67504076  0.93362168  0.90065003  1
  O2-  O168  1  0.42970061  0.32015191  0.08907798  1
  O2-  O169  1  0.43201211  0.32362601  0.42945364  1
  O2-  O170  1  0.43116469  0.32354564  0.76723840  1
  O2-  O171  1  0.42882928  0.82098114  0.09079850  1
  O2-  O172  1  0.42424531  0.81844406  0.42022112  1
  O2-  O173  1  0.42890951  0.81804467  0.76806804  1
  O2-  O174  1  0.92949857  0.32183097  0.09590956  1
  O2-  O175  1  0.92923469  0.32497505  0.43478638  1
  O2-  O176  1  0.93040041  0.32180678  0.75771303  1
  O2-  O177  1  0.92893954  0.82079539  0.09644841  1
  O2-  O178  1  0.92880259  0.81713175  0.43487810  1
  O2-  O179  1  0.92734432  0.82039988  0.75760263  1
  O2-  O180  1  0.32119038  0.07082485  0.24377212  1
  O2-  O181  1  0.32274062  0.07068050  0.57629462  1
  O2-  O182  1  0.32393001  0.07138808  0.90812734  1
  O2-  O183  1  0.32495657  0.56845750  0.24507665  1
  O2-  O184  1  0.32009638  0.56873316  0.56619438  1
  O2-  O185  1  0.32225022  0.57157733  0.90310897  1
  O2-  O186  1  0.81859497  0.07163233  0.23391036  1
  O2-  O187  1  0.82056392  0.07153348  0.57031890  1
  O2-  O188  1  0.81944854  0.07345456  0.91120506  1
  O2-  O189  1  0.81870127  0.56959167  0.24038695  1
  O2-  O190  1  0.82129173  0.57173754  0.56752037  1
  O2-  O191  1  0.81922287  0.56943077  0.91058096  1
  O2-  O192  1  0.04183493  0.07991691  0.26425151  1
  O2-  O193  1  0.03447083  0.08022751  0.60359790  1
  O2-  O194  1  0.04924912  0.08418244  0.93438148  1
  O2-  O195  1  0.04241508  0.58217638  0.26248566  1
  O2-  O196  1  0.04097303  0.58172829  0.60362394  1
  O2-  O197  1  0.05008741  0.58582226  0.93681481  1
  O2-  O198  1  0.54392876  0.07766610  0.26465208  1
  O2-  O199  1  0.54880249  0.08026502  0.59786443  1
  O2-  O200  1  0.53910947  0.08589064  0.93883055  1
  O2-  O201  1  0.53885666  0.58702318  0.26179842  1
  O2-  O202  1  0.54916625  0.58492514  0.60711819  1
  O2-  O203  1  0.54343382  0.58502142  0.93657660  1
  O2-  O204  1  0.16853142  0.20487371  0.26560081  1
  O2-  O205  1  0.16570355  0.20144188  0.59922428  1
  O2-  O206  1  0.16758305  0.20468264  0.93424587  1
  O2-  O207  1  0.17458931  0.70130432  0.26671984  1
  O2-  O208  1  0.16503511  0.71088334  0.60010405  1
  O2-  O209  1  0.16845939  0.70809427  0.94023595  1
  O2-  O210  1  0.66682379  0.20991600  0.26045363  1
  O2-  O211  1  0.67040326  0.21144691  0.60070195  1
  O2-  O212  1  0.66097011  0.20531438  0.93826669  1
  O2-  O213  1  0.66697686  0.70803430  0.26318062  1
  O2-  O214  1  0.66779199  0.70362708  0.60761575  1
  O2-  O215  1  0.66246327  0.70485904  0.93521959  1
  O2-  O216  1  0.08445521  0.45365606  0.06054339  1
  O2-  O217  1  0.08246393  0.46087845  0.40232986  1
  O2-  O218  1  0.08520655  0.45257341  0.73316353  1
  O2-  O219  1  0.08524622  0.95720985  0.05983790  1
  O2-  O220  1  0.08255704  0.95684304  0.40048619  1
  O2-  O221  1  0.08418923  0.95992490  0.73800236  1
  O2-  O222  1  0.58997817  0.45825968  0.06524678  1
  O2-  O223  1  0.58789116  0.46373905  0.39439325  1
  O2-  O224  1  0.58654576  0.45661538  0.73209623  1
  O2-  O225  1  0.58288759  0.95856913  0.06932362  1
  O2-  O226  1  0.57509274  0.94676288  0.39741422  1
  O2-  O227  1  0.57973346  0.95328276  0.72792142  1
  O2-  O228  1  0.20508530  0.33329503  0.06288122  1
  O2-  O229  1  0.20845275  0.33228163  0.39959397  1
  O2-  O230  1  0.20068528  0.32974070  0.72944220  1
  O2-  O231  1  0.20965073  0.84126058  0.06440668  1
  O2-  O232  1  0.21329739  0.83229640  0.39856181  1
  O2-  O233  1  0.21348050  0.83374198  0.73732855  1
  O2-  O234  1  0.70626321  0.33517972  0.06059384  1
  O2-  O235  1  0.70017697  0.33698976  0.39349491  1
  O2-  O236  1  0.70406888  0.33703076  0.73270996  1
  O2-  O237  1  0.70855889  0.83014088  0.06336312  1
  O2-  O238  1  0.70775323  0.82742301  0.40254887  1
  O2-  O239  1  0.70020155  0.83521296  0.73406999  1
  O2-  O240  1  0.46142811  0.41796928  0.26112977  1
  O2-  O241  1  0.45892712  0.42109924  0.59955557  1
  O2-  O242  1  0.46112339  0.41360083  0.93930003  1
  O2-  O243  1  0.44546611  0.91786188  0.27015622  1
  O2-  O244  1  0.45296512  0.91561341  0.59733712  1
  O2-  O245  1  0.45773418  0.91220614  0.93842979  1
  O2-  O246  1  0.95924811  0.41857525  0.26528259  1
  O2-  O247  1  0.95302227  0.41750971  0.60854007  1
  O2-  O248  1  0.96052816  0.41783685  0.92814458  1
  O2-  O249  1  0.95708989  0.91773998  0.26608770  1
  O2-  O250  1  0.95202399  0.91617958  0.60921080  1
  O2-  O251  1  0.95716273  0.91870275  0.92993161  1
  O2-  O252  1  0.33076865  0.29492309  0.26148362  1
  O2-  O253  1  0.32895656  0.29832300  0.60067772  1
  O2-  O254  1  0.33712679  0.29656420  0.93720758  1
  O2-  O255  1  0.33667019  0.79193677  0.26456011  1
  O2-  O256  1  0.33377409  0.78474605  0.59951390  1
  O2-  O257  1  0.33623988  0.79272459  0.93999334  1
  O2-  O258  1  0.82934441  0.29804131  0.26668220  1
  O2-  O259  1  0.83327268  0.30109619  0.60941775  1
  O2-  O260  1  0.83194528  0.29307874  0.92814296  1
  O2-  O261  1  0.83421048  0.78687751  0.26579729  1
  O2-  O262  1  0.83088107  0.79771061  0.60898047  1
  O2-  O263  1  0.83300587  0.78759091  0.92861373  1
  O2-  O264  1  0.41036261  0.04014953  0.06377428  1
  O2-  O265  1  0.41568774  0.04827281  0.39565560  1
  O2-  O266  1  0.41702105  0.04649285  0.72707070  1
  O2-  O267  1  0.41929178  0.54062470  0.06957691  1
  O2-  O268  1  0.41776107  0.54235029  0.39569806  1
  O2-  O269  1  0.41804496  0.54216114  0.73492518  1
  O2-  O270  1  0.91831603  0.05061585  0.05889046  1
  O2-  O271  1  0.91677635  0.04160512  0.40060613  1
  O2-  O272  1  0.91252482  0.03844158  0.74212538  1
  O2-  O273  1  0.91585291  0.54340910  0.05977066  1
  O2-  O274  1  0.91343490  0.54422487  0.39264749  1
  O2-  O275  1  0.91767519  0.54163919  0.73916313  1
  O2-  O276  1  0.29781031  0.16566152  0.05980049  1
  O2-  O277  1  0.30007223  0.16892961  0.39309417  1
  O2-  O278  1  0.29611081  0.16569284  0.72806832  1
  O2-  O279  1  0.29373227  0.66780141  0.07227786  1
  O2-  O280  1  0.30369197  0.66622277  0.39406233  1
  O2-  O281  1  0.28634232  0.66347176  0.73527738  1
  O2-  O282  1  0.79504305  0.16747199  0.06063248  1
  O2-  O283  1  0.79106372  0.17192268  0.39959237  1
  O2-  O284  1  0.79020636  0.16877128  0.73823381  1
  O2-  O285  1  0.79171740  0.66107769  0.06200390  1
  O2-  O286  1  0.78957522  0.65964795  0.39422736  1
  O2-  O287  1  0.79007683  0.66727287  0.73897358  1
