# generated using pymatgen
data_Ca2Al2SiO7
_symmetry_space_group_name_H-M   'P 1'
_cell_length_a   15.45345364
_cell_length_b   15.45305821
_cell_length_c   15.28015793
_cell_angle_alpha   89.99382866
_cell_angle_beta   90.00651224
_cell_angle_gamma   90.00118617
_symmetry_Int_Tables_number   1
_chemical_formula_structural   Ca2Al2SiO7
_chemical_formula_sum   'Ca48 Al48 Si24 O168'
_cell_volume   3648.94932263
_cell_formula_units_Z   24
loop_
 _symmetry_equiv_pos_site_id
 _symmetry_equiv_pos_as_xyz
  1  'x, y, z'
loop_
 _atom_type_symbol
 _atom_type_oxidation_number
  Ca2+  2.0
  Al0+  0.0
  Si0+  0.0
  O2-  -2.0
loop_
 _atom_site_type_symbol
 _atom_site_label
 _atom_site_symmetry_multiplicity
 _atom_site_fract_x
 _atom_site_fract_y
 _atom_site_fract_z
 _atom_site_occupancy
  Ca2+  Ca0  1  0.17793860  0.08545596  0.17866943  1
  Ca2+  Ca1  1  0.15772731  0.07638880  0.50213025  1
  Ca2+  Ca2  1  0.16833663  0.08207226  0.83643618  1
  Ca2+  Ca3  1  0.16257295  0.57842711  0.17127378  1
  Ca2+  Ca4  1  0.16757719  0.57685279  0.50601065  1
  Ca2+  Ca5  1  0.17043518  0.59080208  0.83654928  1
  Ca2+  Ca6  1  0.66621990  0.08363954  0.16783536  1
  Ca2+  Ca7  1  0.66807604  0.08800760  0.49985465  1
  Ca2+  Ca8  1  0.66972691  0.07859845  0.84745584  1
  Ca2+  Ca9  1  0.67549526  0.58194010  0.17599979  1
  Ca2+  Ca10  1  0.66891762  0.57451371  0.50000606  1
  Ca2+  Ca11  1  0.67218933  0.57643045  0.84123260  1
  Ca2+  Ca12  1  0.07529719  0.33546371  0.16657955  1
  Ca2+  Ca13  1  0.08387756  0.32363028  0.48937394  1
  Ca2+  Ca14  1  0.07395930  0.32659077  0.82895930  1
  Ca2+  Ca15  1  0.07994496  0.83122252  0.16675970  1
  Ca2+  Ca16  1  0.08412162  0.83149560  0.49489570  1
  Ca2+  Ca17  1  0.08806509  0.82473368  0.82701751  1
  Ca2+  Ca18  1  0.59185458  0.32141993  0.16609379  1
  Ca2+  Ca19  1  0.57970597  0.33769687  0.49398985  1
  Ca2+  Ca20  1  0.58072539  0.32917611  0.82812497  1
  Ca2+  Ca21  1  0.58983998  0.82257355  0.16057913  1
  Ca2+  Ca22  1  0.57949707  0.82423642  0.48907939  1
  Ca2+  Ca23  1  0.58861073  0.82943434  0.83650297  1
  Ca2+  Ca24  1  0.32402993  0.41663916  0.17378228  1
  Ca2+  Ca25  1  0.33061404  0.41886873  0.50436077  1
  Ca2+  Ca26  1  0.33488052  0.41793413  0.83005679  1
  Ca2+  Ca27  1  0.32793288  0.92692355  0.17339830  1
  Ca2+  Ca28  1  0.32125307  0.92247594  0.50133140  1
  Ca2+  Ca29  1  0.32614178  0.92190906  0.83937628  1
  Ca2+  Ca30  1  0.83735793  0.42604449  0.17485116  1
  Ca2+  Ca31  1  0.82458562  0.41230439  0.49683825  1
  Ca2+  Ca32  1  0.82998281  0.41751757  0.84023131  1
  Ca2+  Ca33  1  0.83171962  0.91839992  0.16813016  1
  Ca2+  Ca34  1  0.83737785  0.91585605  0.49950748  1
  Ca2+  Ca35  1  0.82752406  0.92604721  0.84317527  1
  Ca2+  Ca36  1  0.42333931  0.15818343  0.16337548  1
  Ca2+  Ca37  1  0.42040215  0.17141494  0.49253570  1
  Ca2+  Ca38  1  0.41921604  0.16904169  0.83206520  1
  Ca2+  Ca39  1  0.43205049  0.66400910  0.16230652  1
  Ca2+  Ca40  1  0.41989159  0.66323466  0.49607269  1
  Ca2+  Ca41  1  0.42171645  0.66376435  0.82824226  1
  Ca2+  Ca42  1  0.91478448  0.18069355  0.16238768  1
  Ca2+  Ca43  1  0.92820206  0.17177911  0.49092038  1
  Ca2+  Ca44  1  0.91427018  0.17027137  0.83125263  1
  Ca2+  Ca45  1  0.91450496  0.66856994  0.16081683  1
  Ca2+  Ca46  1  0.91835478  0.67179019  0.49263458  1
  Ca2+  Ca47  1  0.92724403  0.66248782  0.83362384  1
  Al0+  Al48  1  -0.00052867  0.00020008  0.00466950  1
  Al0+  Al49  1  0.00064927  -0.00117996  0.32744789  1
  Al0+  Al50  1  -0.00085722  -0.00068008  0.66987891  1
  Al0+  Al51  1  -0.00066456  0.49943275  -0.00692884  1
  Al0+  Al52  1  0.00103777  0.50098840  0.34198153  1
  Al0+  Al53  1  -0.00085889  0.50000723  0.66153315  1
  Al0+  Al54  1  0.49823149  -0.00159101  0.00224829  1
  Al0+  Al55  1  0.49904723  0.00028102  0.33568851  1
  Al0+  Al56  1  0.49969506  -0.00140492  0.66644634  1
  Al0+  Al57  1  0.49900304  0.49974203  -0.00386769  1
  Al0+  Al58  1  0.50087585  0.50006160  0.32988633  1
  Al0+  Al59  1  0.50047594  0.49842731  0.67147815  1
  Al0+  Al60  1  0.24932444  0.25050845  0.00311041  1
  Al0+  Al61  1  0.25225948  0.25159090  0.33806828  1
  Al0+  Al62  1  0.25095647  0.25029704  0.65979426  1
  Al0+  Al63  1  0.25148798  0.74958271  -0.00074540  1
  Al0+  Al64  1  0.25083838  0.75261343  0.33496130  1
  Al0+  Al65  1  0.25079734  0.75018680  0.66993228  1
  Al0+  Al66  1  0.74883504  0.24959352  -0.00660184  1
  Al0+  Al67  1  0.74951436  0.25058885  0.33092940  1
  Al0+  Al68  1  0.74944562  0.24963157  0.67126146  1
  Al0+  Al69  1  0.75103362  0.74926686  -0.00062368  1
  Al0+  Al70  1  0.75147869  0.75039441  0.33069188  1
  Al0+  Al71  1  0.75072260  0.74932179  0.66767700  1
  Al0+  Al72  1  0.57015494  0.17876216  0.32038025  1
  Al0+  Al73  1  0.31921213  0.56952383  0.68048421  1
  Al0+  Al74  1  0.07270659  0.67937606  0.65166323  1
  Al0+  Al75  1  0.82159885  0.56768922  0.01193874  1
  Al0+  Al76  1  0.82183722  0.07411241  0.01733328  1
  Al0+  Al77  1  0.56990280  0.67879625  0.32051748  1
  Al0+  Al78  1  0.07341317  0.17889155  0.31697576  1
  Al0+  Al79  1  0.17682132  0.92970217  0.34871842  1
  Al0+  Al80  1  0.67918500  0.42776397  0.34662363  1
  Al0+  Al81  1  0.92935909  0.32040059  0.98514891  1
  Al0+  Al82  1  0.67998519  0.42935234  0.68248399  1
  Al0+  Al83  1  0.92927027  0.82068339  0.31867329  1
  Al0+  Al84  1  0.43144335  0.32114358  0.65253474  1
  Al0+  Al85  1  0.06912178  0.17877599  0.65423168  1
  Al0+  Al86  1  0.32308041  0.07196461  0.35164041  1
  Al0+  Al87  1  0.31825305  0.07154945  0.01284418  1
  Al0+  Al88  1  0.67911815  0.92876722  0.01618473  1
  Al0+  Al89  1  0.92965252  0.32217451  0.31947879  1
  Al0+  Al90  1  0.17883863  0.43051550  0.34727937  1
  Al0+  Al91  1  0.56836378  0.17827549  0.98588619  1
  Al0+  Al92  1  0.82202547  0.57387209  0.35005813  1
  Al0+  Al93  1  0.07062811  0.68026474  0.98711947  1
  Al0+  Al94  1  0.17866940  0.93056728  0.68223838  1
  Al0+  Al95  1  0.57291706  0.67806854  0.98405681  1
  Si0+  Si96  1  0.32330165  0.07320470  0.68383646  1
  Si0+  Si97  1  0.82015440  0.07139176  0.34744722  1
  Si0+  Si98  1  0.32323171  0.57262911  0.34729625  1
  Si0+  Si99  1  0.42733056  0.82234340  0.31657723  1
  Si0+  Si100  1  0.57246463  0.17619953  0.65085168  1
  Si0+  Si101  1  0.82268633  0.57387468  0.68492132  1
  Si0+  Si102  1  0.57127017  0.67954619  0.65240834  1
  Si0+  Si103  1  0.67692667  0.92688255  0.68022875  1
  Si0+  Si104  1  0.67939169  0.92846133  0.34870487  1
  Si0+  Si105  1  0.92521832  0.32177326  0.64868144  1
  Si0+  Si106  1  0.17796142  0.92526319  0.01733351  1
  Si0+  Si107  1  0.17625585  0.42597791  0.68384327  1
  Si0+  Si108  1  0.42862639  0.82013677  0.98220290  1
  Si0+  Si109  1  0.92776289  0.82118444  0.65150438  1
  Si0+  Si110  1  0.42415303  0.32241851  0.98302499  1
  Si0+  Si111  1  0.07392156  0.67824613  0.31879495  1
  Si0+  Si112  1  0.92820123  0.82403400  0.98187066  1
  Si0+  Si113  1  0.81955187  0.06932935  0.68028331  1
  Si0+  Si114  1  0.07374578  0.17760296  0.98502885  1
  Si0+  Si115  1  0.42832784  0.32344652  0.31562206  1
  Si0+  Si116  1  0.42917621  0.82187230  0.65151425  1
  Si0+  Si117  1  0.32222975  0.57226130  0.01533232  1
  Si0+  Si118  1  0.67555362  0.42802890  0.01621618  1
  Si0+  Si119  1  0.17929481  0.43078128  0.01194032  1
  O2-  O120  1  0.24084665  -0.00026053  0.05959834  1
  O2-  O121  1  0.24567187  0.00455284  0.39991762  1
  O2-  O122  1  0.25266759  0.00656855  0.72840231  1
  O2-  O123  1  0.25103149  0.50113022  0.05549304  1
  O2-  O124  1  0.25300568  0.50676429  0.39245450  1
  O2-  O125  1  0.24153559  0.49786482  0.72915858  1
  O2-  O126  1  0.74987049  0.00159027  0.06698680  1
  O2-  O127  1  0.74922646  0.00034868  0.39175580  1
  O2-  O128  1  0.74529224  0.00067288  0.72105114  1
  O2-  O129  1  0.74406203  0.49675337  0.05963099  1
  O2-  O130  1  0.75069721  0.49981494  0.39799766  1
  O2-  O131  1  0.75695994  0.50208972  0.72850875  1
  O2-  O132  1  0.00176414  0.25128818  0.26742927  1
  O2-  O133  1  -0.00187614  0.25672161  0.60683732  1
  O2-  O134  1  0.00016718  0.24057346  0.93979558  1
  O2-  O135  1  0.00400112  0.74491952  0.27383498  1
  O2-  O136  1  -0.00421911  0.75243300  0.60684249  1
  O2-  O137  1  -0.00024450  0.75797460  0.93826104  1
  O2-  O138  1  0.49565303  0.25312363  0.27240229  1
  O2-  O139  1  0.50468485  0.24477130  0.60635745  1
  O2-  O140  1  0.49444767  0.25433049  0.94029932  1
  O2-  O141  1  0.49522347  0.75303433  0.27248362  1
  O2-  O142  1  0.50151881  0.75164717  0.60959923  1
  O2-  O143  1  0.49768392  0.75219024  0.93643340  1
  O2-  O144  1  0.07757816  0.18275567  0.08977461  1
  O2-  O145  1  0.06854670  0.17827404  0.43106399  1
  O2-  O146  1  0.06598149  0.17913313  0.76783811  1
  O2-  O147  1  0.07067671  0.67917820  0.10003863  1
  O2-  O148  1  0.07525888  0.68101073  0.42440499  1
  O2-  O149  1  0.07216700  0.68156534  0.76508543  1
  O2-  O150  1  0.56761214  0.17888929  0.09875799  1
  O2-  O151  1  0.57013917  0.17891543  0.43386549  1
  O2-  O152  1  0.57125590  0.17455649  0.75641010  1
  O2-  O153  1  0.57083137  0.67728605  0.09699172  1
  O2-  O154  1  0.56739377  0.68029645  0.43450081  1
  O2-  O155  1  0.57145210  0.68209908  0.75750969  1
  O2-  O156  1  0.17935066  0.43317581  0.23324286  1
  O2-  O157  1  0.17921537  0.42691336  0.57855180  1
  O2-  O158  1  0.18126701  0.43013838  0.90681024  1
  O2-  O159  1  0.18096552  0.92633938  0.23517017  1
  O2-  O160  1  0.17864080  0.93092211  0.56977429  1
  O2-  O161  1  0.18115295  0.92341494  0.91132272  1
  O2-  O162  1  0.67909668  0.42859931  0.23324281  1
  O2-  O163  1  0.67938971  0.43030988  0.56968942  1
  O2-  O164  1  0.67589156  0.43023025  0.91004888  1
  O2-  O165  1  0.67948864  0.92764091  0.24410423  1
  O2-  O166  1  0.67659942  0.92465608  0.57511726  1
  O2-  O167  1  0.68117469  0.93036384  0.90140161  1
  O2-  O168  1  0.42058889  0.32431107  0.08810102  1
  O2-  O169  1  0.43097157  0.32585481  0.42137713  1
  O2-  O170  1  0.43257134  0.31922074  0.76596649  1
  O2-  O171  1  0.42651483  0.81636679  0.08752293  1
  O2-  O172  1  0.42907207  0.82085078  0.42277762  1
  O2-  O173  1  0.43106313  0.82356766  0.75655781  1
  O2-  O174  1  0.93303867  0.32491939  0.09755287  1
  O2-  O175  1  0.92858573  0.31692275  0.43331818  1
  O2-  O176  1  0.92446089  0.31963404  0.75469214  1
  O2-  O177  1  0.92806776  0.82241187  0.08727918  1
  O2-  O178  1  0.92812631  0.82025124  0.43230119  1
  O2-  O179  1  0.92601447  0.82155128  0.75689742  1
  O2-  O180  1  0.32437932  0.06754969  0.23776520  1
  O2-  O181  1  0.32737055  0.06987551  0.57908437  1
  O2-  O182  1  0.31633871  0.07103960  0.89911555  1
  O2-  O183  1  0.32338107  0.57094871  0.24128377  1
  O2-  O184  1  0.32062486  0.56837121  0.56741782  1
  O2-  O185  1  0.32237326  0.57309485  0.91023050  1
  O2-  O186  1  0.81739535  0.07149605  0.24289437  1
  O2-  O187  1  0.81964710  0.06901488  0.57502119  1
  O2-  O188  1  0.82021991  0.07163615  0.90255683  1
  O2-  O189  1  0.82105035  0.57426140  0.23616766  1
  O2-  O190  1  0.81893568  0.57945291  0.58000522  1
  O2-  O191  1  0.82184708  0.56466080  0.89840594  1
  O2-  O192  1  0.04800146  0.08022056  0.26479561  1
  O2-  O193  1  0.03381025  0.08280991  0.60138004  1
  O2-  O194  1  0.05391431  0.08075974  0.94264676  1
  O2-  O195  1  0.05031529  0.58334883  0.27589757  1
  O2-  O196  1  0.04535242  0.58146698  0.59833817  1
  O2-  O197  1  0.03857802  0.58597013  0.92915363  1
  O2-  O198  1  0.54039573  0.08106595  0.26770754  1
  O2-  O199  1  0.54889559  0.08151091  0.60495078  1
  O2-  O200  1  0.53687882  0.08112998  0.93229035  1
  O2-  O201  1  0.53933884  0.58379804  0.26343093  1
  O2-  O202  1  0.54051863  0.58816337  0.60752039  1
  O2-  O203  1  0.53967424  0.58205098  0.92932374  1
  O2-  O204  1  0.17333206  0.20862768  0.26870233  1
  O2-  O205  1  0.16670632  0.20420526  0.60030981  1
  O2-  O206  1  0.16491456  0.20894204  0.93603666  1
  O2-  O207  1  0.16771112  0.70408942  0.27189579  1
  O2-  O208  1  0.16969681  0.71122562  0.59963530  1
  O2-  O209  1  0.16890191  0.70900910  0.93364214  1
  O2-  O210  1  0.66606035  0.20879195  0.26516083  1
  O2-  O211  1  0.66730418  0.20124058  0.60717797  1
  O2-  O212  1  0.66403963  0.20744640  0.92891367  1
  O2-  O213  1  0.66521804  0.71210219  0.26706577  1
  O2-  O214  1  0.66344464  0.70721208  0.60552063  1
  O2-  O215  1  0.66873274  0.71009896  0.92878595  1
  O2-  O216  1  0.08871374  0.46195158  0.05839833  1
  O2-  O217  1  0.08493618  0.45894640  0.40691528  1
  O2-  O218  1  0.07981696  0.44773846  0.72614447  1
  O2-  O219  1  0.08176302  0.94289585  0.05981385  1
  O2-  O220  1  0.07665179  0.95474525  0.40056534  1
  O2-  O221  1  0.08163513  0.95914429  0.73744574  1
  O2-  O222  1  0.58056637  0.45176618  0.06002322  1
  O2-  O223  1  0.58037828  0.45864709  0.39879795  1
  O2-  O224  1  0.58531344  0.46203162  0.73849361  1
  O2-  O225  1  0.57940923  0.95267130  0.06712789  1
  O2-  O226  1  0.58751607  0.95451183  0.39711575  1
  O2-  O227  1  0.58453400  0.95159457  0.72848518  1
  O2-  O228  1  0.20629668  0.34004753  0.06163877  1
  O2-  O229  1  0.21129150  0.33577669  0.40326559  1
  O2-  O230  1  0.20618683  0.33311932  0.72958151  1
  O2-  O231  1  0.21004946  0.83397593  0.06456522  1
  O2-  O232  1  0.20904468  0.83197830  0.40314108  1
  O2-  O233  1  0.21350117  0.83543678  0.73663476  1
  O2-  O234  1  0.70095309  0.33312204  0.05727500  1
  O2-  O235  1  0.70717334  0.32949428  0.40166454  1
  O2-  O236  1  0.70819864  0.33157454  0.73718810  1
  O2-  O237  1  0.70931180  0.83030882  0.06731331  1
  O2-  O238  1  0.70921607  0.83801145  0.39756449  1
  O2-  O239  1  0.70694889  0.83622413  0.72937609  1
  O2-  O240  1  0.45262833  0.41634319  0.26730255  1
  O2-  O241  1  0.46441779  0.41755654  0.59931273  1
  O2-  O242  1  0.44930094  0.41586971  0.93555907  1
  O2-  O243  1  0.45479994  0.91528644  0.27165551  1
  O2-  O244  1  0.45677843  0.91323621  0.60237692  1
  O2-  O245  1  0.45339015  0.91354292  0.93552483  1
  O2-  O246  1  0.95923726  0.42243920  0.27099366  1
  O2-  O247  1  0.94406842  0.41728364  0.60480473  1
  O2-  O248  1  0.96544802  0.41282374  0.92604510  1
  O2-  O249  1  0.95854473  0.91574508  0.26146050  1
  O2-  O250  1  0.95331223  0.91478560  0.60574900  1
  O2-  O251  1  0.95059525  0.91961063  0.93723149  1
  O2-  O252  1  0.33403905  0.29969817  0.27105326  1
  O2-  O253  1  0.33461540  0.29462913  0.59725543  1
  O2-  O254  1  0.33152514  0.29485856  0.93490051  1
  O2-  O255  1  0.33374156  0.79855630  0.26978051  1
  O2-  O256  1  0.33851011  0.79183305  0.60436839  1
  O2-  O257  1  0.33598187  0.79270717  0.93414099  1
  O2-  O258  1  0.83206368  0.29312875  0.26584924  1
  O2-  O259  1  0.83265900  0.29042871  0.60380194  1
  O2-  O260  1  0.83290851  0.29227218  0.92877168  1
  O2-  O261  1  0.83326989  0.79137619  0.26308302  1
  O2-  O262  1  0.83357985  0.79616215  0.60438287  1
  O2-  O263  1  0.83588126  0.79625029  0.93452271  1
  O2-  O264  1  0.41319804  0.03751022  0.06687736  1
  O2-  O265  1  0.41963306  0.03836342  0.40679742  1
  O2-  O266  1  0.41661832  0.04426779  0.73076000  1
  O2-  O267  1  0.41401831  0.54326712  0.06221718  1
  O2-  O268  1  0.41573943  0.54481261  0.39424330  1
  O2-  O269  1  0.41428749  0.53630287  0.73682717  1
  O2-  O270  1  0.92120816  0.04849801  0.06953252  1
  O2-  O271  1  0.91184228  0.04124489  0.39336418  1
  O2-  O272  1  0.90857169  0.03874381  0.73109764  1
  O2-  O273  1  0.91826326  0.53551464  0.06463406  1
  O2-  O274  1  0.91987474  0.54885072  0.40483863  1
  O2-  O275  1  0.91856441  0.54980672  0.72736178  1
  O2-  O276  1  0.29152484  0.16872258  0.06816836  1
  O2-  O277  1  0.30273540  0.17270968  0.40149825  1
  O2-  O278  1  0.29864114  0.16817595  0.72731575  1
  O2-  O279  1  0.29511261  0.66362379  0.06343480  1
  O2-  O280  1  0.30230736  0.66758724  0.39249801  1
  O2-  O281  1  0.29244004  0.66655972  0.73619947  1
  O2-  O282  1  0.79154785  0.17338112  0.06627819  1
  O2-  O283  1  0.79112013  0.16175213  0.39683039  1
  O2-  O284  1  0.79434447  0.16101936  0.72942969  1
  O2-  O285  1  0.79498041  0.66619179  0.06278243  1
  O2-  O286  1  0.78983740  0.67164631  0.40309068  1
  O2-  O287  1  0.79452719  0.66649034  0.73307702  1
