# generated using pymatgen
data_Ca2Al2SiO7
_symmetry_space_group_name_H-M   'P 1'
_cell_length_a   15.46118787
_cell_length_b   15.46043004
_cell_length_c   15.28546415
_cell_angle_alpha   90.01580640
_cell_angle_beta   89.98941911
_cell_angle_gamma   89.99027384
_symmetry_Int_Tables_number   1
_chemical_formula_structural   Ca2Al2SiO7
_chemical_formula_sum   'Ca48 Al48 Si24 O168'
_cell_volume   3653.78533098
_cell_formula_units_Z   24
loop_
 _symmetry_equiv_pos_site_id
 _symmetry_equiv_pos_as_xyz
  1  'x, y, z'
loop_
 _atom_type_symbol
 _atom_type_oxidation_number
  Ca2+  2.0
  Al0+  0.0
  Si0+  0.0
  O2-  -2.0
loop_
 _atom_site_type_symbol
 _atom_site_label
 _atom_site_symmetry_multiplicity
 _atom_site_fract_x
 _atom_site_fract_y
 _atom_site_fract_z
 _atom_site_occupancy
  Ca2+  Ca0  1  0.16915256  0.08037973  0.16496205  1
  Ca2+  Ca1  1  0.15978878  0.08531701  0.50171058  1
  Ca2+  Ca2  1  0.16867599  0.08091565  0.83887063  1
  Ca2+  Ca3  1  0.17141697  0.57201917  0.16978222  1
  Ca2+  Ca4  1  0.17093907  0.57316792  0.51101978  1
  Ca2+  Ca5  1  0.17132044  0.57685443  0.83704009  1
  Ca2+  Ca6  1  0.67243676  0.07539041  0.17198454  1
  Ca2+  Ca7  1  0.68211522  0.08463722  0.50691657  1
  Ca2+  Ca8  1  0.67592059  0.07836686  0.83834299  1
  Ca2+  Ca9  1  0.66499790  0.58764546  0.16975254  1
  Ca2+  Ca10  1  0.66546339  0.58113113  0.50501736  1
  Ca2+  Ca11  1  0.66822466  0.57868265  0.83216452  1
  Ca2+  Ca12  1  0.09376458  0.32956755  0.16506392  1
  Ca2+  Ca13  1  0.09196819  0.32428559  0.49767995  1
  Ca2+  Ca14  1  0.08407720  0.33039962  0.82286306  1
  Ca2+  Ca15  1  0.07295468  0.84051191  0.15979501  1
  Ca2+  Ca16  1  0.07589796  0.82579120  0.50041845  1
  Ca2+  Ca17  1  0.07854996  0.83309876  0.82626286  1
  Ca2+  Ca18  1  0.56826592  0.33226554  0.16101813  1
  Ca2+  Ca19  1  0.57181461  0.34161494  0.49850408  1
  Ca2+  Ca20  1  0.57124394  0.33839568  0.82727195  1
  Ca2+  Ca21  1  0.57641563  0.83135651  0.16127266  1
  Ca2+  Ca22  1  0.57629443  0.82445909  0.49036821  1
  Ca2+  Ca23  1  0.57851393  0.83784126  0.83609712  1
  Ca2+  Ca24  1  0.32788044  0.41383254  0.16810949  1
  Ca2+  Ca25  1  0.32807978  0.41793425  0.50840855  1
  Ca2+  Ca26  1  0.32636756  0.42256334  0.83860176  1
  Ca2+  Ca27  1  0.33545828  0.91663580  0.16798680  1
  Ca2+  Ca28  1  0.33440022  0.91706248  0.50415589  1
  Ca2+  Ca29  1  0.32473943  0.92313972  0.84908923  1
  Ca2+  Ca30  1  0.82990427  0.42025995  0.17235382  1
  Ca2+  Ca31  1  0.82358980  0.41104420  0.51098021  1
  Ca2+  Ca32  1  0.82856924  0.40905166  0.83270407  1
  Ca2+  Ca33  1  0.83091063  0.91360955  0.17281445  1
  Ca2+  Ca34  1  0.84562815  0.92407669  0.50280721  1
  Ca2+  Ca35  1  0.83608463  0.91799296  0.83826067  1
  Ca2+  Ca36  1  0.40713844  0.17645273  0.16041734  1
  Ca2+  Ca37  1  0.41374845  0.18221714  0.49626083  1
  Ca2+  Ca38  1  0.40928075  0.17794153  0.83136292  1
  Ca2+  Ca39  1  0.41813502  0.67275949  0.16286624  1
  Ca2+  Ca40  1  0.42008558  0.66692851  0.49431552  1
  Ca2+  Ca41  1  0.40443316  0.66861291  0.83241027  1
  Ca2+  Ca42  1  0.92151409  0.16236133  0.16910651  1
  Ca2+  Ca43  1  0.92395473  0.16616375  0.49950506  1
  Ca2+  Ca44  1  0.92525405  0.16894419  0.82091867  1
  Ca2+  Ca45  1  0.91780371  0.67829123  0.16034384  1
  Ca2+  Ca46  1  0.91983219  0.67388900  0.49765852  1
  Ca2+  Ca47  1  0.92635973  0.67840783  0.82576521  1
  Al0+  Al48  1  0.00035263  0.00293929  -0.00126326  1
  Al0+  Al49  1  0.00111307  0.00105526  0.32914041  1
  Al0+  Al50  1  0.00029798  0.00133650  0.66463185  1
  Al0+  Al51  1  -0.00180481  0.49990692  0.00396030  1
  Al0+  Al52  1  -0.00079085  0.49855242  0.33902932  1
  Al0+  Al53  1  -0.00191900  0.50064790  0.66353658  1
  Al0+  Al54  1  0.50336140  0.00004727  0.00409745  1
  Al0+  Al55  1  0.50056682  0.00050144  0.33419418  1
  Al0+  Al56  1  0.50157423  0.00120076  0.66622715  1
  Al0+  Al57  1  0.50061980  0.49974383  -0.00108058  1
  Al0+  Al58  1  0.49954525  0.50011171  0.32392878  1
  Al0+  Al59  1  0.50043829  0.50191755  0.67114423  1
  Al0+  Al60  1  0.24967437  0.24949709  0.00045994  1
  Al0+  Al61  1  0.24890329  0.24793766  0.32920494  1
  Al0+  Al62  1  0.25106365  0.25007815  0.66158869  1
  Al0+  Al63  1  0.24903025  0.74815446  0.00530554  1
  Al0+  Al64  1  0.24935976  0.74898774  0.33145203  1
  Al0+  Al65  1  0.24862804  0.75112343  0.66477278  1
  Al0+  Al66  1  0.74949850  0.24984019  0.00269482  1
  Al0+  Al67  1  0.75076755  0.24937639  0.33739237  1
  Al0+  Al68  1  0.74989291  0.24749885  0.67472500  1
  Al0+  Al69  1  0.75051436  0.75089465  -0.00228924  1
  Al0+  Al70  1  0.74972369  0.74943449  0.32819114  1
  Al0+  Al71  1  0.74694267  0.75129265  0.66345574  1
  Al0+  Al72  1  0.67993223  0.42958217  0.68066008  1
  Al0+  Al73  1  0.93282720  0.81938185  0.31873810  1
  Al0+  Al74  1  0.42955605  0.31874317  0.31843147  1
  Al0+  Al75  1  0.18031084  0.42731583  0.34958048  1
  Al0+  Al76  1  0.07323386  0.67771068  0.65197974  1
  Al0+  Al77  1  0.32174330  0.07054208  0.01429997  1
  Al0+  Al78  1  0.17745219  0.42883725  0.01511134  1
  Al0+  Al79  1  0.42913681  0.31970915  0.98362390  1
  Al0+  Al80  1  0.32099664  0.57260898  0.68091266  1
  Al0+  Al81  1  0.17761534  0.42698716  0.68086119  1
  Al0+  Al82  1  0.82175999  0.06921185  0.34851423  1
  Al0+  Al83  1  0.17694533  0.92826063  0.01446345  1
  Al0+  Al84  1  0.42836864  0.82060692  0.98599115  1
  Al0+  Al85  1  0.92765305  0.82112285  0.65158243  1
  Al0+  Al86  1  0.82195001  0.06802589  0.68200603  1
  Al0+  Al87  1  0.07199484  0.18080521  0.65142350  1
  Al0+  Al88  1  0.43143112  0.32181907  0.65374682  1
  Al0+  Al89  1  0.42665197  0.82346654  0.31838643  1
  Al0+  Al90  1  0.92573073  0.32178514  0.65326408  1
  Al0+  Al91  1  0.93029878  0.82199792  0.98528613  1
  Al0+  Al92  1  0.68130919  0.92831150  0.01472848  1
  Al0+  Al93  1  0.57046062  0.67898631  0.31750173  1
  Al0+  Al94  1  0.06938511  0.18054593  0.31614618  1
  Al0+  Al95  1  0.32322233  0.57160216  0.01795418  1
  Si0+  Si96  1  0.82020203  0.57251756  0.34845892  1
  Si0+  Si97  1  0.42838197  0.82339979  0.65428444  1
  Si0+  Si98  1  0.07104260  0.67535816  0.98526807  1
  Si0+  Si99  1  0.57266264  0.67824569  0.97974954  1
  Si0+  Si100  1  0.57521382  0.17793156  0.98297696  1
  Si0+  Si101  1  0.07187826  0.67393120  0.31575125  1
  Si0+  Si102  1  0.32267685  0.57136497  0.34951689  1
  Si0+  Si103  1  0.57217037  0.17630530  0.65072697  1
  Si0+  Si104  1  0.67809198  0.92650412  0.35160660  1
  Si0+  Si105  1  0.32163367  0.07040696  0.34952485  1
  Si0+  Si106  1  0.17898563  0.92833716  0.34879475  1
  Si0+  Si107  1  0.18074857  0.93072268  0.67905148  1
  Si0+  Si108  1  0.67896353  0.42801225  0.01653835  1
  Si0+  Si109  1  0.82163394  0.57589460  0.68260112  1
  Si0+  Si110  1  0.81935482  0.57061131  0.01430928  1
  Si0+  Si111  1  0.82250018  0.07339154  0.01834706  1
  Si0+  Si112  1  0.92610663  0.32301573  0.98695040  1
  Si0+  Si113  1  0.32383544  0.07115531  0.67941701  1
  Si0+  Si114  1  0.92512376  0.32285409  0.31687344  1
  Si0+  Si115  1  0.56990413  0.67976306  0.65305263  1
  Si0+  Si116  1  0.57517623  0.17848831  0.31804718  1
  Si0+  Si117  1  0.67546723  0.92670961  0.68344525  1
  Si0+  Si118  1  0.67835862  0.43007368  0.34655692  1
  Si0+  Si119  1  0.06922561  0.18188244  0.98461011  1
  O2-  O120  1  0.25436646  -0.00566354  0.06532135  1
  O2-  O121  1  0.25532475  -0.00560888  0.39123818  1
  O2-  O122  1  0.25347048  -0.00021891  0.72103322  1
  O2-  O123  1  0.25112387  0.49871124  0.06613071  1
  O2-  O124  1  0.25345842  0.50428943  0.39466063  1
  O2-  O125  1  0.24807799  0.50096403  0.72987217  1
  O2-  O126  1  0.75650161  0.00221695  0.06206155  1
  O2-  O127  1  0.74647136  -0.00509118  0.39631351  1
  O2-  O128  1  0.74805128  -0.00844921  0.72687107  1
  O2-  O129  1  0.74904643  0.49964103  0.05877362  1
  O2-  O130  1  0.74980049  0.50021159  0.38959879  1
  O2-  O131  1  0.75893576  0.50103937  0.72699859  1
  O2-  O132  1  -0.00414551  0.25772762  0.27086527  1
  O2-  O133  1  0.00241298  0.25592516  0.60180429  1
  O2-  O134  1  -0.00176337  0.25391717  0.94496738  1
  O2-  O135  1  0.00612115  0.74452924  0.26995339  1
  O2-  O136  1  -0.00337077  0.74580378  0.60256340  1
  O2-  O137  1  0.00902975  0.75064221  0.94102854  1
  O2-  O138  1  0.50400603  0.24298754  0.27213223  1
  O2-  O139  1  0.50606765  0.24693348  0.60581146  1
  O2-  O140  1  0.50421002  0.24384814  0.93841378  1
  O2-  O141  1  0.49949742  0.75230306  0.26902761  1
  O2-  O142  1  0.49812506  0.75097283  0.61279050  1
  O2-  O143  1  0.50027433  0.74372188  0.93628351  1
  O2-  O144  1  0.06782829  0.18053298  0.08980123  1
  O2-  O145  1  0.06907833  0.17965882  0.42872342  1
  O2-  O146  1  0.07162901  0.17753986  0.76523598  1
  O2-  O147  1  0.06382589  0.67144602  0.09078791  1
  O2-  O148  1  0.06983375  0.67518821  0.42121813  1
  O2-  O149  1  0.07466158  0.68332534  0.76579315  1
  O2-  O150  1  0.58059707  0.18324781  0.08853717  1
  O2-  O151  1  0.57568009  0.18144004  0.42363617  1
  O2-  O152  1  0.56865513  0.17313726  0.75610495  1
  O2-  O153  1  0.57563860  0.68002747  0.08515823  1
  O2-  O154  1  0.56983582  0.67762842  0.43171967  1
  O2-  O155  1  0.57373106  0.68021923  0.75771384  1
  O2-  O156  1  0.18156758  0.42851582  0.23654288  1
  O2-  O157  1  0.18408423  0.42565124  0.56715614  1
  O2-  O158  1  0.17429981  0.42918275  0.90198249  1
  O2-  O159  1  0.17740357  0.93070478  0.24402664  1
  O2-  O160  1  0.18290104  0.93014882  0.57353751  1
  O2-  O161  1  0.17558380  0.93287533  0.90027960  1
  O2-  O162  1  0.68120207  0.42962398  0.24120578  1
  O2-  O163  1  0.67725776  0.43349771  0.56703707  1
  O2-  O164  1  0.68083467  0.42705368  0.91161348  1
  O2-  O165  1  0.67935416  0.92750993  0.24602092  1
  O2-  O166  1  0.66993217  0.92851433  0.57826532  1
  O2-  O167  1  0.68298644  0.92957011  0.90136220  1
  O2-  O168  1  0.43106418  0.31777102  0.09698122  1
  O2-  O169  1  0.43178528  0.32040843  0.43174983  1
  O2-  O170  1  0.43136791  0.31986443  0.76658990  1
  O2-  O171  1  0.43290748  0.82069556  0.09850423  1
  O2-  O172  1  0.42863026  0.82286304  0.43298885  1
  O2-  O173  1  0.42898347  0.82620938  0.75910906  1
  O2-  O174  1  0.92227642  0.32247193  0.09205136  1
  O2-  O175  1  0.92006111  0.32130682  0.42170171  1
  O2-  O176  1  0.92520241  0.31610128  0.76748045  1
  O2-  O177  1  0.92884078  0.81919379  0.09861795  1
  O2-  O178  1  0.93414671  0.81807120  0.43153654  1
  O2-  O179  1  0.93003634  0.82126095  0.76534046  1
  O2-  O180  1  0.32038663  0.07191789  0.24479476  1
  O2-  O181  1  0.32668498  0.06837589  0.57405283  1
  O2-  O182  1  0.31724397  0.07181862  0.90007645  1
  O2-  O183  1  0.32233005  0.57065415  0.24428742  1
  O2-  O184  1  0.32378080  0.57230000  0.56696727  1
  O2-  O185  1  0.32148808  0.56976405  0.90435785  1
  O2-  O186  1  0.81910932  0.06859952  0.23524419  1
  O2-  O187  1  0.82145536  0.06707341  0.56881088  1
  O2-  O188  1  0.82119518  0.07514445  0.91290328  1
  O2-  O189  1  0.81999409  0.57140040  0.24290727  1
  O2-  O190  1  0.81480827  0.57983052  0.57705111  1
  O2-  O191  1  0.81869614  0.56897013  0.90947906  1
  O2-  O192  1  0.03633202  0.08561041  0.26071141  1
  O2-  O193  1  0.04033602  0.08364051  0.59763832  1
  O2-  O194  1  0.04049348  0.09119986  0.93544888  1
  O2-  O195  1  0.04268745  0.58072316  0.27080879  1
  O2-  O196  1  0.04844294  0.57902874  0.59862466  1
  O2-  O197  1  0.03670638  0.58496140  0.93705280  1
  O2-  O198  1  0.55361023  0.08286046  0.27482044  1
  O2-  O199  1  0.54607757  0.08392366  0.60121877  1
  O2-  O200  1  0.55466182  0.08261045  0.93967432  1
  O2-  O201  1  0.54410393  0.58207330  0.26060010  1
  O2-  O202  1  0.54224697  0.58868520  0.60465876  1
  O2-  O203  1  0.55231438  0.58245105  0.93638792  1
  O2-  O204  1  0.16563226  0.20958771  0.26116305  1
  O2-  O205  1  0.17067506  0.20423736  0.59584599  1
  O2-  O206  1  0.16091814  0.20803431  0.93728320  1
  O2-  O207  1  0.16676912  0.69628965  0.27204900  1
  O2-  O208  1  0.16846878  0.71251645  0.59482148  1
  O2-  O209  1  0.16736281  0.69323205  0.94376060  1
  O2-  O210  1  0.66755710  0.20640834  0.27046966  1
  O2-  O211  1  0.66693786  0.20081290  0.60825180  1
  O2-  O212  1  0.66791381  0.20712984  0.93529703  1
  O2-  O213  1  0.66874995  0.70563851  0.26313303  1
  O2-  O214  1  0.65984716  0.70731557  0.60136012  1
  O2-  O215  1  0.66482198  0.70776352  0.93250643  1
  O2-  O216  1  0.07842858  0.45627739  0.06971761  1
  O2-  O217  1  0.08118696  0.45318801  0.40159903  1
  O2-  O218  1  0.07584309  0.45036743  0.72950667  1
  O2-  O219  1  0.08116903  0.96546131  0.06850573  1
  O2-  O220  1  0.08979710  0.96293299  0.39642487  1
  O2-  O221  1  0.08996344  0.96029700  0.72636059  1
  O2-  O222  1  0.58771028  0.45572383  0.06385017  1
  O2-  O223  1  0.58612242  0.45975459  0.39183833  1
  O2-  O224  1  0.58692952  0.46621663  0.73761497  1
  O2-  O225  1  0.58647411  0.95925139  0.07141589  1
  O2-  O226  1  0.58363656  0.95094296  0.39735738  1
  O2-  O227  1  0.58379082  0.95725356  0.73242177  1
  O2-  O228  1  0.20729593  0.33063311  0.06704730  1
  O2-  O229  1  0.21350428  0.32972207  0.39981238  1
  O2-  O230  1  0.20858007  0.32800702  0.73192070  1
  O2-  O231  1  0.19464994  0.82766292  0.06564389  1
  O2-  O232  1  0.20163641  0.83437849  0.39535150  1
  O2-  O233  1  0.20687237  0.83933479  0.72720635  1
  O2-  O234  1  0.70792428  0.33715840  0.06566242  1
  O2-  O235  1  0.70464729  0.33859230  0.39521188  1
  O2-  O236  1  0.70579391  0.33292032  0.73717044  1
  O2-  O237  1  0.71212069  0.83133334  0.06813275  1
  O2-  O238  1  0.70342988  0.83168518  0.39526041  1
  O2-  O239  1  0.69637048  0.83165757  0.72829457  1
  O2-  O240  1  0.46136876  0.41327845  0.26211428  1
  O2-  O241  1  0.46519413  0.41833233  0.60120776  1
  O2-  O242  1  0.46356974  0.41598850  0.93154329  1
  O2-  O243  1  0.45363253  0.92341441  0.26773231  1
  O2-  O244  1  0.45790852  0.91422597  0.60490590  1
  O2-  O245  1  0.46227021  0.91806691  0.93386858  1
  O2-  O246  1  0.94729841  0.41862875  0.27332436  1
  O2-  O247  1  0.93891582  0.42437973  0.60416331  1
  O2-  O248  1  0.94977578  0.41609337  0.94061370  1
  O2-  O249  1  0.96379016  0.91511604  0.26423786  1
  O2-  O250  1  0.96256370  0.91697565  0.59866921  1
  O2-  O251  1  0.95733612  0.92069900  0.93375639  1
  O2-  O252  1  0.33484224  0.28451209  0.26428187  1
  O2-  O253  1  0.33742612  0.28826973  0.59723492  1
  O2-  O254  1  0.33247476  0.28720035  0.93117874  1
  O2-  O255  1  0.32755545  0.79676410  0.26648272  1
  O2-  O256  1  0.33709837  0.79811131  0.60541700  1
  O2-  O257  1  0.32879755  0.79360892  0.93484416  1
  O2-  O258  1  0.83226578  0.29470433  0.26887778  1
  O2-  O259  1  0.82745788  0.28799063  0.60206637  1
  O2-  O260  1  0.83423866  0.29408731  0.93961026  1
  O2-  O261  1  0.83548393  0.78932612  0.26597693  1
  O2-  O262  1  0.82735380  0.79739150  0.59975101  1
  O2-  O263  1  0.83510643  0.78727017  0.93124741  1
  O2-  O264  1  0.42236211  0.05054740  0.06565988  1
  O2-  O265  1  0.41532968  0.04864661  0.39730627  1
  O2-  O266  1  0.41557767  0.04505734  0.72780457  1
  O2-  O267  1  0.42343009  0.54391421  0.06797251  1
  O2-  O268  1  0.41766185  0.54427691  0.39249147  1
  O2-  O269  1  0.41907236  0.54682268  0.73501066  1
  O2-  O270  1  0.91689793  0.05044259  0.06244829  1
  O2-  O271  1  0.91891208  0.03679265  0.40013731  1
  O2-  O272  1  0.91875755  0.03785596  0.73619667  1
  O2-  O273  1  0.90929311  0.54312159  0.06536964  1
  O2-  O274  1  0.91174219  0.54753882  0.39705003  1
  O2-  O275  1  0.91746969  0.55862127  0.72606665  1
  O2-  O276  1  0.28635714  0.16594516  0.06856215  1
  O2-  O277  1  0.28799791  0.16008734  0.39724397  1
  O2-  O278  1  0.29467563  0.16255521  0.72541480  1
  O2-  O279  1  0.29655284  0.66959004  0.07201475  1
  O2-  O280  1  0.29985717  0.66662267  0.39454486  1
  O2-  O281  1  0.29220513  0.67230522  0.73229849  1
  O2-  O282  1  0.79420417  0.16604495  0.06612472  1
  O2-  O283  1  0.79131526  0.16641528  0.40262396  1
  O2-  O284  1  0.78955832  0.16219831  0.73963887  1
  O2-  O285  1  0.78974806  0.66167306  0.06204396  1
  O2-  O286  1  0.79005578  0.66356700  0.39593278  1
  O2-  O287  1  0.78770176  0.66658624  0.73092814  1
