# generated using pymatgen
data_Ca2Al2SiO7
_symmetry_space_group_name_H-M   'P 1'
_cell_length_a   15.46401607
_cell_length_b   15.46340572
_cell_length_c   15.28716173
_cell_angle_alpha   90.00767637
_cell_angle_beta   90.02126365
_cell_angle_gamma   89.99445957
_symmetry_Int_Tables_number   1
_chemical_formula_structural   Ca2Al2SiO7
_chemical_formula_sum   'Ca48 Al48 Si24 O168'
_cell_volume   3655.56295532
_cell_formula_units_Z   24
loop_
 _symmetry_equiv_pos_site_id
 _symmetry_equiv_pos_as_xyz
  1  'x, y, z'
loop_
 _atom_type_symbol
 _atom_type_oxidation_number
  Ca2+  2.0
  Al0+  0.0
  Si0+  0.0
  O2-  -2.0
loop_
 _atom_site_type_symbol
 _atom_site_label
 _atom_site_symmetry_multiplicity
 _atom_site_fract_x
 _atom_site_fract_y
 _atom_site_fract_z
 _atom_site_occupancy
  Ca2+  Ca0  1  0.17025832  0.08225921  0.17465785  1
  Ca2+  Ca1  1  0.17127237  0.08103067  0.50003362  1
  Ca2+  Ca2  1  0.16390215  0.07319937  0.84040591  1
  Ca2+  Ca3  1  0.17256649  0.57824381  0.18096386  1
  Ca2+  Ca4  1  0.16935934  0.58995611  0.50052028  1
  Ca2+  Ca5  1  0.16654386  0.58373226  0.83560871  1
  Ca2+  Ca6  1  0.67033674  0.07349599  0.17926367  1
  Ca2+  Ca7  1  0.66239071  0.07471839  0.50175963  1
  Ca2+  Ca8  1  0.66187347  0.07469558  0.83348336  1
  Ca2+  Ca9  1  0.65674541  0.58012173  0.17562335  1
  Ca2+  Ca10  1  0.65834350  0.57180212  0.50119447  1
  Ca2+  Ca11  1  0.66244140  0.57769798  0.83699747  1
  Ca2+  Ca12  1  0.09322155  0.32036014  0.16790817  1
  Ca2+  Ca13  1  0.07701649  0.33175605  0.49070653  1
  Ca2+  Ca14  1  0.07733887  0.32480744  0.82648030  1
  Ca2+  Ca15  1  0.07928246  0.83554592  0.16630238  1
  Ca2+  Ca16  1  0.08253555  0.82716272  0.49185750  1
  Ca2+  Ca17  1  0.08778597  0.83212267  0.82549189  1
  Ca2+  Ca18  1  0.58956129  0.32696745  0.16982392  1
  Ca2+  Ca19  1  0.58728784  0.32476682  0.49590421  1
  Ca2+  Ca20  1  0.57908453  0.32642824  0.81842378  1
  Ca2+  Ca21  1  0.57448648  0.83508918  0.16221584  1
  Ca2+  Ca22  1  0.58256697  0.83119567  0.48585447  1
  Ca2+  Ca23  1  0.58360317  0.83520765  0.83264753  1
  Ca2+  Ca24  1  0.32898219  0.42624439  0.18092361  1
  Ca2+  Ca25  1  0.33165870  0.42112719  0.49907450  1
  Ca2+  Ca26  1  0.33728177  0.41712847  0.83499182  1
  Ca2+  Ca27  1  0.33140583  0.91434320  0.17292308  1
  Ca2+  Ca28  1  0.33590393  0.92304718  0.50085278  1
  Ca2+  Ca29  1  0.32334262  0.91345838  0.83814161  1
  Ca2+  Ca30  1  0.82683479  0.42245373  0.17619945  1
  Ca2+  Ca31  1  0.82348005  0.41139716  0.50406973  1
  Ca2+  Ca32  1  0.83079626  0.41262645  0.82960970  1
  Ca2+  Ca33  1  0.82349601  0.91770188  0.17676106  1
  Ca2+  Ca34  1  0.82680133  0.91738226  0.49835614  1
  Ca2+  Ca35  1  0.82051672  0.91525006  0.83698090  1
  Ca2+  Ca36  1  0.42039656  0.16094469  0.17062004  1
  Ca2+  Ca37  1  0.42695514  0.16639883  0.49393623  1
  Ca2+  Ca38  1  0.42332744  0.17351208  0.82385213  1
  Ca2+  Ca39  1  0.42336734  0.67460257  0.16860136  1
  Ca2+  Ca40  1  0.42020257  0.67477057  0.48861313  1
  Ca2+  Ca41  1  0.42064241  0.67385343  0.83539693  1
  Ca2+  Ca42  1  0.92763440  0.15706769  0.16887713  1
  Ca2+  Ca43  1  0.91851046  0.16804025  0.49209084  1
  Ca2+  Ca44  1  0.92104928  0.16900035  0.82974347  1
  Ca2+  Ca45  1  0.91754464  0.67313745  0.17134381  1
  Ca2+  Ca46  1  0.92736769  0.67292931  0.49204642  1
  Ca2+  Ca47  1  0.92512149  0.66946401  0.82516278  1
  Al0+  Al48  1  0.00019975  -0.00069699  -0.00238027  1
  Al0+  Al49  1  -0.00116294  0.00084492  0.33014277  1
  Al0+  Al50  1  -0.00132455  -0.00099764  0.67095155  1
  Al0+  Al51  1  -0.00174226  0.49943788  0.00088664  1
  Al0+  Al52  1  -0.00147105  0.49924160  0.33188779  1
  Al0+  Al53  1  0.00136710  0.49991226  0.66012506  1
  Al0+  Al54  1  0.49778884  0.00079869  -0.00250992  1
  Al0+  Al55  1  0.49891003  0.00133656  0.33232805  1
  Al0+  Al56  1  0.49909231  0.00079203  0.66999479  1
  Al0+  Al57  1  0.49997509  0.50077716  -0.00216580  1
  Al0+  Al58  1  0.49725271  0.50000580  0.33949115  1
  Al0+  Al59  1  0.49864581  0.50137794  0.66982712  1
  Al0+  Al60  1  0.24898618  0.24885827  -0.00692174  1
  Al0+  Al61  1  0.24993497  0.24990965  0.33897055  1
  Al0+  Al62  1  0.25048344  0.25189234  0.66490218  1
  Al0+  Al63  1  0.25064132  0.74950684  0.00174899  1
  Al0+  Al64  1  0.25037222  0.74873389  0.32952047  1
  Al0+  Al65  1  0.25223690  0.74928604  0.66786513  1
  Al0+  Al66  1  0.75108537  0.25115269  -0.00032372  1
  Al0+  Al67  1  0.75084139  0.25012613  0.33410209  1
  Al0+  Al68  1  0.75085145  0.24936896  0.66547200  1
  Al0+  Al69  1  0.75064214  0.74820055  -0.00070150  1
  Al0+  Al70  1  0.75162365  0.74744509  0.33003343  1
  Al0+  Al71  1  0.75173202  0.74919544  0.67120859  1
  Al0+  Al72  1  0.67871386  0.92770439  0.34644085  1
  Al0+  Al73  1  0.31963002  0.57302467  0.35011418  1
  Al0+  Al74  1  0.07057631  0.17864236  0.98477996  1
  Al0+  Al75  1  0.17752137  0.42832870  0.34895842  1
  Al0+  Al76  1  0.07270606  0.68114839  0.65371034  1
  Al0+  Al77  1  0.42792650  0.82263248  0.98240246  1
  Al0+  Al78  1  0.42734971  0.32470081  0.64956659  1
  Al0+  Al79  1  0.32132203  0.07090601  0.34678230  1
  Al0+  Al80  1  0.07159340  0.67796239  0.31666709  1
  Al0+  Al81  1  0.18058430  0.92945800  0.67799599  1
  Al0+  Al82  1  0.67892060  0.42985271  0.34681002  1
  Al0+  Al83  1  0.57249763  0.17978390  0.31872739  1
  Al0+  Al84  1  0.67945816  0.42951541  0.68140164  1
  Al0+  Al85  1  0.17889441  0.92822503  0.01519832  1
  Al0+  Al86  1  0.67796375  0.92933178  0.01441661  1
  Al0+  Al87  1  0.93052889  0.31968182  0.65219311  1
  Al0+  Al88  1  0.57117882  0.67663094  0.32182121  1
  Al0+  Al89  1  0.57190690  0.67845315  0.98312809  1
  Al0+  Al90  1  0.07213312  0.18038383  0.32157659  1
  Al0+  Al91  1  0.82280193  0.07072276  0.34813155  1
  Al0+  Al92  1  0.92900300  0.82228670  0.31790936  1
  Al0+  Al93  1  0.67814877  0.92755069  0.68084247  1
  Al0+  Al94  1  0.57006317  0.17798959  0.65086293  1
  Al0+  Al95  1  0.42959566  0.82385087  0.31972990  1
  Si0+  Si96  1  0.82278548  0.57057920  0.01512375  1
  Si0+  Si97  1  0.07164887  0.17517503  0.64982684  1
  Si0+  Si98  1  0.32134552  0.07381971  0.68474530  1
  Si0+  Si99  1  0.07006481  0.67799860  0.98557133  1
  Si0+  Si100  1  0.92914680  0.82060062  0.98310643  1
  Si0+  Si101  1  0.82396544  0.57051332  0.68356042  1
  Si0+  Si102  1  0.57280617  0.17996990  0.98540394  1
  Si0+  Si103  1  0.82225047  0.07211244  0.68488268  1
  Si0+  Si104  1  0.17747264  0.92820576  0.34782469  1
  Si0+  Si105  1  0.32019179  0.57123657  0.68541222  1
  Si0+  Si106  1  0.67853350  0.42968292  0.01432110  1
  Si0+  Si107  1  0.82111053  0.07318122  0.01605139  1
  Si0+  Si108  1  0.43025679  0.81993353  0.65336085  1
  Si0+  Si109  1  0.92635088  0.82242119  0.65106453  1
  Si0+  Si110  1  0.92691989  0.32192912  0.31503109  1
  Si0+  Si111  1  0.82338366  0.57248680  0.35130398  1
  Si0+  Si112  1  0.32000161  0.07460915  0.01570156  1
  Si0+  Si113  1  0.32087584  0.56917830  0.01520191  1
  Si0+  Si114  1  0.17821514  0.42827910  0.01236622  1
  Si0+  Si115  1  0.42857878  0.32070855  0.31744604  1
  Si0+  Si116  1  0.42971399  0.32127423  0.98681416  1
  Si0+  Si117  1  0.57301624  0.68027109  0.65341894  1
  Si0+  Si118  1  0.17720240  0.42920724  0.68303668  1
  Si0+  Si119  1  0.92742245  0.32392667  0.98269964  1
  O2-  O120  1  0.25397128  0.00330926  0.05956842  1
  O2-  O121  1  0.24827556  -0.00585961  0.39259287  1
  O2-  O122  1  0.25006519  0.00752868  0.72851841  1
  O2-  O123  1  0.24905793  0.49814216  0.05551590  1
  O2-  O124  1  0.24441200  0.50421724  0.40041548  1
  O2-  O125  1  0.25043349  0.49767661  0.72711236  1
  O2-  O126  1  0.75105012  0.00614822  0.05950363  1
  O2-  O127  1  0.74981986  -0.00009077  0.39790410  1
  O2-  O128  1  0.75256599  0.00323729  0.72775148  1
  O2-  O129  1  0.74839408  0.50194359  0.05576485  1
  O2-  O130  1  0.75200124  0.50593041  0.39406201  1
  O2-  O131  1  0.75378142  0.50412663  0.73009945  1
  O2-  O132  1  -0.00212039  0.25484865  0.27204352  1
  O2-  O133  1  0.00461182  0.24488241  0.60591572  1
  O2-  O134  1  -0.00471693  0.25373098  0.93970493  1
  O2-  O135  1  0.00226904  0.75188707  0.26599031  1
  O2-  O136  1  -0.00101852  0.75709259  0.60901962  1
  O2-  O137  1  0.00245281  0.75108449  0.94113629  1
  O2-  O138  1  0.49800783  0.25445017  0.27033533  1
  O2-  O139  1  0.49923209  0.25186296  0.60166409  1
  O2-  O140  1  0.50153124  0.25141342  0.94420531  1
  O2-  O141  1  0.50484190  0.75360348  0.27163382  1
  O2-  O142  1  0.50824537  0.75672872  0.61221927  1
  O2-  O143  1  0.50393195  0.75410917  0.93222834  1
  O2-  O144  1  0.07281149  0.18107320  0.09743068  1
  O2-  O145  1  0.07077209  0.18119507  0.43454665  1
  O2-  O146  1  0.06996898  0.17645056  0.75606981  1
  O2-  O147  1  0.06731648  0.67499374  0.08970631  1
  O2-  O148  1  0.07005766  0.68067711  0.43044880  1
  O2-  O149  1  0.07128456  0.68101592  0.76796503  1
  O2-  O150  1  0.57462214  0.18187405  0.09014327  1
  O2-  O151  1  0.57148126  0.17992140  0.43118003  1
  O2-  O152  1  0.56755073  0.17910379  0.76582589  1
  O2-  O153  1  0.56753490  0.67230102  0.09550583  1
  O2-  O154  1  0.56812801  0.67668701  0.43603844  1
  O2-  O155  1  0.57070467  0.67920466  0.75866607  1
  O2-  O156  1  0.18290952  0.42709683  0.23412906  1
  O2-  O157  1  0.17549289  0.43066844  0.57908338  1
  O2-  O158  1  0.17823006  0.43045248  0.90688121  1
  O2-  O159  1  0.17748558  0.93131346  0.24197237  1
  O2-  O160  1  0.18336421  0.92898062  0.56545029  1
  O2-  O161  1  0.17940811  0.92889239  0.90151074  1
  O2-  O162  1  0.68085282  0.43012034  0.23264168  1
  O2-  O163  1  0.67978522  0.43124542  0.56902989  1
  O2-  O164  1  0.67917200  0.42840969  0.90932691  1
  O2-  O165  1  0.67893860  0.93017847  0.23262535  1
  O2-  O166  1  0.67877465  0.92456100  0.56871041  1
  O2-  O167  1  0.68075452  0.93159711  0.90063869  1
  O2-  O168  1  0.42861628  0.32278487  0.09138600  1
  O2-  O169  1  0.42955798  0.31928644  0.42257272  1
  O2-  O170  1  0.42930562  0.32287876  0.76471423  1
  O2-  O171  1  0.42642666  0.82031364  0.09508907  1
  O2-  O172  1  0.42980797  0.82300467  0.43412299  1
  O2-  O173  1  0.42752773  0.81649475  0.75844792  1
  O2-  O174  1  0.92577354  0.32775563  0.08739929  1
  O2-  O175  1  0.92675738  0.32088678  0.42061646  1
  O2-  O176  1  0.93335664  0.31891878  0.76617770  1
  O2-  O177  1  0.92901136  0.81970061  0.08745145  1
  O2-  O178  1  0.93084035  0.82103886  0.43186119  1
  O2-  O179  1  0.92558582  0.81958229  0.75734450  1
  O2-  O180  1  0.31871039  0.07242063  0.23336849  1
  O2-  O181  1  0.32284940  0.07188310  0.57952806  1
  O2-  O182  1  0.31731571  0.07779839  0.90996787  1
  O2-  O183  1  0.32096726  0.56876576  0.23578727  1
  O2-  O184  1  0.31952800  0.57460692  0.58126661  1
  O2-  O185  1  0.32019188  0.56761050  0.90948705  1
  O2-  O186  1  0.82158913  0.06959604  0.23390643  1
  O2-  O187  1  0.82602814  0.07126927  0.58020999  1
  O2-  O188  1  0.81996294  0.07439892  0.91007069  1
  O2-  O189  1  0.82537095  0.56918072  0.24508934  1
  O2-  O190  1  0.82337914  0.57094336  0.57873621  1
  O2-  O191  1  0.82746213  0.56799082  0.91014396  1
  O2-  O192  1  0.04153542  0.08511174  0.26520736  1
  O2-  O193  1  0.04512884  0.08132376  0.60579287  1
  O2-  O194  1  0.03869537  0.08258411  0.92964816  1
  O2-  O195  1  0.04127634  0.57939306  0.26402421  1
  O2-  O196  1  0.04288011  0.58547264  0.59961679  1
  O2-  O197  1  0.03942654  0.58656619  0.93700815  1
  O2-  O198  1  0.53883188  0.08520131  0.26353815  1
  O2-  O199  1  0.53922424  0.07938803  0.59984017  1
  O2-  O200  1  0.54428491  0.08911288  0.93704967  1
  O2-  O201  1  0.53634333  0.57966565  0.26843042  1
  O2-  O202  1  0.53934423  0.59002927  0.60798882  1
  O2-  O203  1  0.53814374  0.58090946  0.92822320  1
  O2-  O204  1  0.16833965  0.21299033  0.26675235  1
  O2-  O205  1  0.16680396  0.19888601  0.60781596  1
  O2-  O206  1  0.16530450  0.21063580  0.92671895  1
  O2-  O207  1  0.17038635  0.70202627  0.26364989  1
  O2-  O208  1  0.16946044  0.71158479  0.60098548  1
  O2-  O209  1  0.16324637  0.70254198  0.93949483  1
  O2-  O210  1  0.66809531  0.21275722  0.26350457  1
  O2-  O211  1  0.66959977  0.20378721  0.60169391  1
  O2-  O212  1  0.66445852  0.20843203  0.93736536  1
  O2-  O213  1  0.67220203  0.69311149  0.27067456  1
  O2-  O214  1  0.66777864  0.70047301  0.60963148  1
  O2-  O215  1  0.67291533  0.70051161  0.93163643  1
  O2-  O216  1  0.08615046  0.45485057  0.05914779  1
  O2-  O217  1  0.07615098  0.45039297  0.39727467  1
  O2-  O218  1  0.08646731  0.46019992  0.73184722  1
  O2-  O219  1  0.08090420  0.95865464  0.06602872  1
  O2-  O220  1  0.08509273  0.95626798  0.39380109  1
  O2-  O221  1  0.08208726  0.95426028  0.73326557  1
  O2-  O222  1  0.58597770  0.45598733  0.06078146  1
  O2-  O223  1  0.58277492  0.45789188  0.40191396  1
  O2-  O224  1  0.58284791  0.46154043  0.73644632  1
  O2-  O225  1  0.57924931  0.95880481  0.06384850  1
  O2-  O226  1  0.58066485  0.95725537  0.39823961  1
  O2-  O227  1  0.58170118  0.95905635  0.73637382  1
  O2-  O228  1  0.20643051  0.33539197  0.05658107  1
  O2-  O229  1  0.20891202  0.33283415  0.40466046  1
  O2-  O230  1  0.20288539  0.33608502  0.73080691  1
  O2-  O231  1  0.20740112  0.83062187  0.06803492  1
  O2-  O232  1  0.19971344  0.83301078  0.39055887  1
  O2-  O233  1  0.21576170  0.83431487  0.73419728  1
  O2-  O234  1  0.70756350  0.33796047  0.06173186  1
  O2-  O235  1  0.71224549  0.33452092  0.40051659  1
  O2-  O236  1  0.71137487  0.33265271  0.73558220  1
  O2-  O237  1  0.70956053  0.83125227  0.06403027  1
  O2-  O238  1  0.70693735  0.82795994  0.39655290  1
  O2-  O239  1  0.71084950  0.83171284  0.73750313  1
  O2-  O240  1  0.45332115  0.41495261  0.27274693  1
  O2-  O241  1  0.45421090  0.42465426  0.60073206  1
  O2-  O242  1  0.45686583  0.41241493  0.93744797  1
  O2-  O243  1  0.45408121  0.92170716  0.26442659  1
  O2-  O244  1  0.44981116  0.91505076  0.61057031  1
  O2-  O245  1  0.45075250  0.92297098  0.92949621  1
  O2-  O246  1  0.94922711  0.41603694  0.26879544  1
  O2-  O247  1  0.96059211  0.41534179  0.59748509  1
  O2-  O248  1  0.95525928  0.41641285  0.93432526  1
  O2-  O249  1  0.95606799  0.91977672  0.26266500  1
  O2-  O250  1  0.94808905  0.91770462  0.60839204  1
  O2-  O251  1  0.95471171  0.91249372  0.93467503  1
  O2-  O252  1  0.33540960  0.29336507  0.27173705  1
  O2-  O253  1  0.32701676  0.30067286  0.59948543  1
  O2-  O254  1  0.33875660  0.29403584  0.93634719  1
  O2-  O255  1  0.33243042  0.79335948  0.26583439  1
  O2-  O256  1  0.34205634  0.78470047  0.60498543  1
  O2-  O257  1  0.33041398  0.78667827  0.92948657  1
  O2-  O258  1  0.83466028  0.29540728  0.26697422  1
  O2-  O259  1  0.83358623  0.29125997  0.59959613  1
  O2-  O260  1  0.83376410  0.29776662  0.93531338  1
  O2-  O261  1  0.83288520  0.78976021  0.26201577  1
  O2-  O262  1  0.83457500  0.79217881  0.60453550  1
  O2-  O263  1  0.83889684  0.78934201  0.93430891  1
  O2-  O264  1  0.41553639  0.05309238  0.05880754  1
  O2-  O265  1  0.41694079  0.04121428  0.40247590  1
  O2-  O266  1  0.41318788  0.04596357  0.73352386  1
  O2-  O267  1  0.41212141  0.53884796  0.06159148  1
  O2-  O268  1  0.41498577  0.54089519  0.40633521  1
  O2-  O269  1  0.41126520  0.54397708  0.73532636  1
  O2-  O270  1  0.91490956  0.04530473  0.05941459  1
  O2-  O271  1  0.92097476  0.04243367  0.40176104  1
  O2-  O272  1  0.91473212  0.04559613  0.73473468  1
  O2-  O273  1  0.91228814  0.53913430  0.06579625  1
  O2-  O274  1  0.91567080  0.54441798  0.39810347  1
  O2-  O275  1  0.91734813  0.54150328  0.73000825  1
  O2-  O276  1  0.29165966  0.16777363  0.06179207  1
  O2-  O277  1  0.28927496  0.16498042  0.40382829  1
  O2-  O278  1  0.29882038  0.16932425  0.72954020  1
  O2-  O279  1  0.29316249  0.66039423  0.06178339  1
  O2-  O280  1  0.29297038  0.67222507  0.40266086  1
  O2-  O281  1  0.28879732  0.66090206  0.73569965  1
  O2-  O282  1  0.79903661  0.16827333  0.06105916  1
  O2-  O283  1  0.79736097  0.17014689  0.39883628  1
  O2-  O284  1  0.79690171  0.16536871  0.73222173  1
  O2-  O285  1  0.79924819  0.66322198  0.06163491  1
  O2-  O286  1  0.80280683  0.66687195  0.39648459  1
  O2-  O287  1  0.80106366  0.66416982  0.73181177  1
