# generated using pymatgen
data_Ca2Al2SiO7
_symmetry_space_group_name_H-M   'P 1'
_cell_length_a   15.45691578
_cell_length_b   15.45612998
_cell_length_c   15.28214254
_cell_angle_alpha   89.98964247
_cell_angle_beta   89.99707421
_cell_angle_gamma   89.98721211
_symmetry_Int_Tables_number   1
_chemical_formula_structural   Ca2Al2SiO7
_chemical_formula_sum   'Ca48 Al48 Si24 O168'
_cell_volume   3650.96634537
_cell_formula_units_Z   24
loop_
 _symmetry_equiv_pos_site_id
 _symmetry_equiv_pos_as_xyz
  1  'x, y, z'
loop_
 _atom_type_symbol
 _atom_type_oxidation_number
  Ca2+  2.0
  Al0+  0.0
  Si0+  0.0
  O2-  -2.0
loop_
 _atom_site_type_symbol
 _atom_site_label
 _atom_site_symmetry_multiplicity
 _atom_site_fract_x
 _atom_site_fract_y
 _atom_site_fract_z
 _atom_site_occupancy
  Ca2+  Ca0  1  0.17014445  0.08367489  0.16961331  1
  Ca2+  Ca1  1  0.16105129  0.07599945  0.50574336  1
  Ca2+  Ca2  1  0.16985421  0.07064971  0.84443464  1
  Ca2+  Ca3  1  0.17096021  0.58206398  0.17697531  1
  Ca2+  Ca4  1  0.16850625  0.59313987  0.50197311  1
  Ca2+  Ca5  1  0.16646971  0.58350242  0.83498763  1
  Ca2+  Ca6  1  0.67396375  0.09368507  0.17042611  1
  Ca2+  Ca7  1  0.67464996  0.08840278  0.50309164  1
  Ca2+  Ca8  1  0.67241962  0.09463961  0.83560223  1
  Ca2+  Ca9  1  0.66631995  0.57485479  0.17158588  1
  Ca2+  Ca10  1  0.68119080  0.58520135  0.50678958  1
  Ca2+  Ca11  1  0.66850969  0.58050803  0.84008414  1
  Ca2+  Ca12  1  0.07090994  0.32935578  0.16562344  1
  Ca2+  Ca13  1  0.07105636  0.32666145  0.49196302  1
  Ca2+  Ca14  1  0.06923104  0.33193852  0.82822182  1
  Ca2+  Ca15  1  0.08045949  0.83202829  0.16904779  1
  Ca2+  Ca16  1  0.07942074  0.82673370  0.49435203  1
  Ca2+  Ca17  1  0.08825002  0.83247927  0.82900913  1
  Ca2+  Ca18  1  0.58340306  0.32594958  0.15777719  1
  Ca2+  Ca19  1  0.58740202  0.32140006  0.49773161  1
  Ca2+  Ca20  1  0.58427794  0.32613528  0.83680090  1
  Ca2+  Ca21  1  0.57894452  0.82684520  0.16366725  1
  Ca2+  Ca22  1  0.57858459  0.82974764  0.49487130  1
  Ca2+  Ca23  1  0.58807247  0.82130785  0.82997166  1
  Ca2+  Ca24  1  0.33734577  0.42159162  0.17278310  1
  Ca2+  Ca25  1  0.33070477  0.42311418  0.50045030  1
  Ca2+  Ca26  1  0.33425032  0.41485580  0.84084788  1
  Ca2+  Ca27  1  0.33108274  0.91738005  0.16890977  1
  Ca2+  Ca28  1  0.32775775  0.91310090  0.50433554  1
  Ca2+  Ca29  1  0.32297708  0.92054067  0.83983701  1
  Ca2+  Ca30  1  0.83000543  0.41422926  0.17092355  1
  Ca2+  Ca31  1  0.84341652  0.42405790  0.50259409  1
  Ca2+  Ca32  1  0.83076912  0.41858248  0.83775772  1
  Ca2+  Ca33  1  0.83353637  0.92696869  0.17371820  1
  Ca2+  Ca34  1  0.84378975  0.92936680  0.50123194  1
  Ca2+  Ca35  1  0.83385256  0.93241710  0.83882594  1
  Ca2+  Ca36  1  0.42769526  0.16912664  0.15573533  1
  Ca2+  Ca37  1  0.43083065  0.16073458  0.49415769  1
  Ca2+  Ca38  1  0.42413929  0.16362097  0.83253202  1
  Ca2+  Ca39  1  0.41632147  0.67049879  0.16375837  1
  Ca2+  Ca40  1  0.42087279  0.67112534  0.49353914  1
  Ca2+  Ca41  1  0.43221009  0.66353635  0.83029769  1
  Ca2+  Ca42  1  0.91133702  0.17279654  0.16377212  1
  Ca2+  Ca43  1  0.91313518  0.17473394  0.49157402  1
  Ca2+  Ca44  1  0.90224963  0.17752163  0.83094100  1
  Ca2+  Ca45  1  0.91457311  0.66928613  0.16848993  1
  Ca2+  Ca46  1  0.92451003  0.66601388  0.49057786  1
  Ca2+  Ca47  1  0.92209751  0.66918849  0.82228090  1
  Al0+  Al48  1  -0.00052914  -0.00135412  0.00887789  1
  Al0+  Al49  1  0.00101585  -0.00084692  0.33139442  1
  Al0+  Al50  1  0.00030292  0.00107019  0.67895458  1
  Al0+  Al51  1  0.00125178  0.50081003  -0.00380464  1
  Al0+  Al52  1  0.00015069  0.49785276  0.32855731  1
  Al0+  Al53  1  0.00121160  0.50105754  0.66370419  1
  Al0+  Al54  1  0.49988151  -0.00207489  -0.00249708  1
  Al0+  Al55  1  0.50026063  -0.00197281  0.32487950  1
  Al0+  Al56  1  0.50017789  -0.00044418  0.66378269  1
  Al0+  Al57  1  0.50127530  0.49947281  -0.00265768  1
  Al0+  Al58  1  0.49938883  0.49883170  0.34288678  1
  Al0+  Al59  1  0.50069818  0.50024086  0.66136818  1
  Al0+  Al60  1  0.24812524  0.24962111  0.00093051  1
  Al0+  Al61  1  0.25060076  0.25006366  0.33398162  1
  Al0+  Al62  1  0.25016575  0.25141501  0.66726866  1
  Al0+  Al63  1  0.24928033  0.74974123  0.00312027  1
  Al0+  Al64  1  0.25116187  0.74983911  0.33045383  1
  Al0+  Al65  1  0.25069670  0.74964875  0.67007616  1
  Al0+  Al66  1  0.74916754  0.25361547  0.00057892  1
  Al0+  Al67  1  0.74870935  0.24940477  0.33115583  1
  Al0+  Al68  1  0.74796357  0.25282075  0.66146560  1
  Al0+  Al69  1  0.75273780  0.75233989  -0.00454324  1
  Al0+  Al70  1  0.74924183  0.74898958  0.33368463  1
  Al0+  Al71  1  0.75169143  0.75166790  0.66584959  1
  Al0+  Al72  1  0.56846925  0.17987059  0.65152910  1
  Al0+  Al73  1  0.57165073  0.67949535  0.98831639  1
  Al0+  Al74  1  0.07080136  0.67880930  0.31735113  1
  Al0+  Al75  1  0.07108031  0.68096384  0.65383895  1
  Al0+  Al76  1  0.92965832  0.32081084  0.98452894  1
  Al0+  Al77  1  0.57437583  0.67783561  0.65096050  1
  Al0+  Al78  1  0.82299040  0.57173286  0.68036379  1
  Al0+  Al79  1  0.81641633  0.07192276  0.01486070  1
  Al0+  Al80  1  0.82085180  0.57045326  0.34564702  1
  Al0+  Al81  1  0.81831299  0.07272656  0.68019944  1
  Al0+  Al82  1  0.32228152  0.07190610  0.01595018  1
  Al0+  Al83  1  0.42922190  0.81932866  0.31920564  1
  Al0+  Al84  1  0.42650396  0.32148549  0.98644024  1
  Al0+  Al85  1  0.92936717  0.32001708  0.65257294  1
  Al0+  Al86  1  0.17905705  0.92694396  0.02077453  1
  Al0+  Al87  1  0.57135315  0.17765773  0.98404780  1
  Al0+  Al88  1  0.32011345  0.57187095  0.34831928  1
  Al0+  Al89  1  0.07336042  0.17639191  0.31918351  1
  Al0+  Al90  1  0.68012348  0.43264203  0.01295521  1
  Al0+  Al91  1  0.56969176  0.17955684  0.31824699  1
  Al0+  Al92  1  0.82031048  0.06984663  0.34725384  1
  Al0+  Al93  1  0.18008451  0.92925375  0.68002621  1
  Al0+  Al94  1  0.92839472  0.31984505  0.31650835  1
  Al0+  Al95  1  0.92665451  0.82153273  0.31869277  1
  Si0+  Si96  1  0.07160326  0.67979276  0.98413770  1
  Si0+  Si97  1  0.57197389  0.67551428  0.31830907  1
  Si0+  Si98  1  0.42596454  0.82033499  0.98147504  1
  Si0+  Si99  1  0.32337280  0.07115661  0.34808181  1
  Si0+  Si100  1  0.42798655  0.32311773  0.31928569  1
  Si0+  Si101  1  0.17924876  0.42890390  0.68205024  1
  Si0+  Si102  1  0.32080260  0.56824003  0.01337124  1
  Si0+  Si103  1  0.07321935  0.17698269  0.65420668  1
  Si0+  Si104  1  0.67811986  0.92368806  0.01616632  1
  Si0+  Si105  1  0.92898090  0.82571653  0.65241333  1
  Si0+  Si106  1  0.32410245  0.07294123  0.68164068  1
  Si0+  Si107  1  0.82467056  0.57436860  0.01512282  1
  Si0+  Si108  1  0.17777348  0.42710676  0.35072494  1
  Si0+  Si109  1  0.32177426  0.57028177  0.68319558  1
  Si0+  Si110  1  0.67589273  0.92698262  0.34910391  1
  Si0+  Si111  1  0.17601164  0.42894599  0.01448739  1
  Si0+  Si112  1  0.67516916  0.92814585  0.68284939  1
  Si0+  Si113  1  0.67726849  0.43016503  0.68357864  1
  Si0+  Si114  1  0.42410244  0.32315038  0.64739788  1
  Si0+  Si115  1  0.07065929  0.17600622  0.98337438  1
  Si0+  Si116  1  0.18075024  0.92962730  0.34963646  1
  Si0+  Si117  1  0.93000632  0.82267616  0.98330456  1
  Si0+  Si118  1  0.67760989  0.42709582  0.35258265  1
  Si0+  Si119  1  0.42927502  0.81935481  0.65182073  1
  O2-  O120  1  0.25110324  0.00022893  0.06847616  1
  O2-  O121  1  0.24938681  0.00372232  0.39187963  1
  O2-  O122  1  0.25229233  0.00742702  0.72509011  1
  O2-  O123  1  0.25160690  0.49575965  0.05587836  1
  O2-  O124  1  0.24417915  0.49841730  0.39572610  1
  O2-  O125  1  0.25277761  0.49741226  0.72568586  1
  O2-  O126  1  0.73950143  -0.00163353  0.06046783  1
  O2-  O127  1  0.74675392  -0.00683999  0.39407907  1
  O2-  O128  1  0.74332828  -0.00247540  0.72664919  1
  O2-  O129  1  0.75463629  0.50778960  0.05934220  1
  O2-  O130  1  0.74668108  0.49635604  0.39502679  1
  O2-  O131  1  0.74477074  0.50082812  0.72728805  1
  O2-  O132  1  -0.00101838  0.24522853  0.26837167  1
  O2-  O133  1  0.00321773  0.24287686  0.60871905  1
  O2-  O134  1  0.00166286  0.24326891  0.93718894  1
  O2-  O135  1  -0.00385371  0.74747616  0.26686517  1
  O2-  O136  1  -0.00527384  0.75411877  0.60853140  1
  O2-  O137  1  0.00106645  0.75093412  0.94170682  1
  O2-  O138  1  0.49434907  0.25422565  0.27384286  1
  O2-  O139  1  0.49063320  0.25200643  0.60465047  1
  O2-  O140  1  0.49402403  0.24574356  0.93564704  1
  O2-  O141  1  0.50295171  0.74314090  0.27339945  1
  O2-  O142  1  0.50014902  0.75391240  0.60625631  1
  O2-  O143  1  0.49849284  0.75504537  0.93856504  1
  O2-  O144  1  0.07073597  0.17914701  0.08870244  1
  O2-  O145  1  0.07345082  0.17796305  0.43361845  1
  O2-  O146  1  0.07631708  0.18042301  0.75950457  1
  O2-  O147  1  0.07225080  0.67763180  0.08862169  1
  O2-  O148  1  0.07224075  0.68295726  0.43112692  1
  O2-  O149  1  0.07210168  0.68166715  0.76751084  1
  O2-  O150  1  0.57211412  0.18222284  0.09735930  1
  O2-  O151  1  0.56884301  0.17927686  0.43184589  1
  O2-  O152  1  0.56765724  0.18132700  0.76412014  1
  O2-  O153  1  0.56829178  0.67982430  0.10134298  1
  O2-  O154  1  0.57089941  0.67805811  0.42399312  1
  O2-  O155  1  0.57132279  0.67719231  0.76441129  1
  O2-  O156  1  0.18115256  0.42729219  0.24495011  1
  O2-  O157  1  0.18092391  0.42839038  0.57729330  1
  O2-  O158  1  0.17395105  0.43336054  0.90897374  1
  O2-  O159  1  0.18327196  0.92818758  0.24501261  1
  O2-  O160  1  0.18149825  0.92853811  0.56668711  1
  O2-  O161  1  0.18137617  0.92505289  0.90664234  1
  O2-  O162  1  0.67414122  0.42919448  0.24695481  1
  O2-  O163  1  0.67716693  0.43033733  0.57798478  1
  O2-  O164  1  0.68068087  0.43380036  0.89968820  1
  O2-  O165  1  0.67476002  0.92719031  0.24356793  1
  O2-  O166  1  0.67188590  0.92880977  0.57743679  1
  O2-  O167  1  0.68392939  0.91739947  0.91071374  1
  O2-  O168  1  0.43011866  0.32545614  0.09990063  1
  O2-  O169  1  0.42807305  0.32199041  0.42506298  1
  O2-  O170  1  0.42191803  0.32463915  0.75259198  1
  O2-  O171  1  0.42425757  0.81690249  0.08702467  1
  O2-  O172  1  0.42963127  0.81910803  0.43280718  1
  O2-  O173  1  0.42874375  0.81692452  0.75726840  1
  O2-  O174  1  0.93152246  0.32274048  0.09693670  1
  O2-  O175  1  0.93046910  0.32005566  0.43042193  1
  O2-  O176  1  0.92964815  0.32012052  0.76594541  1
  O2-  O177  1  0.92764152  0.82060251  0.08798925  1
  O2-  O178  1  0.93136075  0.82378174  0.43258376  1
  O2-  O179  1  0.93080963  0.82531335  0.75841078  1
  O2-  O180  1  0.32334814  0.06981073  0.24352002  1
  O2-  O181  1  0.32518986  0.07077432  0.57575146  1
  O2-  O182  1  0.31916334  0.06931555  0.90158634  1
  O2-  O183  1  0.32140889  0.56916244  0.23474993  1
  O2-  O184  1  0.32006895  0.57153605  0.57826064  1
  O2-  O185  1  0.31875990  0.56895320  0.90785470  1
  O2-  O186  1  0.81733358  0.07050860  0.23437958  1
  O2-  O187  1  0.81986165  0.07126144  0.56721468  1
  O2-  O188  1  0.81561651  0.07113139  0.90128423  1
  O2-  O189  1  0.81666879  0.57048583  0.23235927  1
  O2-  O190  1  0.82452982  0.56949392  0.56738978  1
  O2-  O191  1  0.82545783  0.57349565  0.90922612  1
  O2-  O192  1  0.05143228  0.07719100  0.26713528  1
  O2-  O193  1  0.04916113  0.08142558  0.61211785  1
  O2-  O194  1  0.04654314  0.08016448  0.94140580  1
  O2-  O195  1  0.04807436  0.57915361  0.26544231  1
  O2-  O196  1  0.04426229  0.58429150  0.59925998  1
  O2-  O197  1  0.04493761  0.58859247  0.93446051  1
  O2-  O198  1  0.54045259  0.08370801  0.26363240  1
  O2-  O199  1  0.54000206  0.08212697  0.59721866  1
  O2-  O200  1  0.55010235  0.07630571  0.93258313  1
  O2-  O201  1  0.54501000  0.58056379  0.27634716  1
  O2-  O202  1  0.54158616  0.58270609  0.59595377  1
  O2-  O203  1  0.53779383  0.58558007  0.93131544  1
  O2-  O204  1  0.17183147  0.20713357  0.26660327  1
  O2-  O205  1  0.16704327  0.20181021  0.60679414  1
  O2-  O206  1  0.16427805  0.20139965  0.93724515  1
  O2-  O207  1  0.16816354  0.70987657  0.26425553  1
  O2-  O208  1  0.16864076  0.71203356  0.60166483  1
  O2-  O209  1  0.16407780  0.70745432  0.93690038  1
  O2-  O210  1  0.66451680  0.21258797  0.26440851  1
  O2-  O211  1  0.66273780  0.21446642  0.59567411  1
  O2-  O212  1  0.66665298  0.21532494  0.93079448  1
  O2-  O213  1  0.66457390  0.70031630  0.27120691  1
  O2-  O214  1  0.67110309  0.70876401  0.59768220  1
  O2-  O215  1  0.66863950  0.70912310  0.93305618  1
  O2-  O216  1  0.08724313  0.46340680  0.06375291  1
  O2-  O217  1  0.08334384  0.45014542  0.39496101  1
  O2-  O218  1  0.08945748  0.46078965  0.73055551  1
  O2-  O219  1  0.08048624  0.95288088  0.07302526  1
  O2-  O220  1  0.08840281  0.95459506  0.39719780  1
  O2-  O221  1  0.08543537  0.95684727  0.73972393  1
  O2-  O222  1  0.58368770  0.46396518  0.06786997  1
  O2-  O223  1  0.58458841  0.45039393  0.40187985  1
  O2-  O224  1  0.58216336  0.45453898  0.72799288  1
  O2-  O225  1  0.58035225  0.93957188  0.05640683  1
  O2-  O226  1  0.58223967  0.95505231  0.39485366  1
  O2-  O227  1  0.58107633  0.95152998  0.72990094  1
  O2-  O228  1  0.19670854  0.33556358  0.06062713  1
  O2-  O229  1  0.20640548  0.33490103  0.39959500  1
  O2-  O230  1  0.20418758  0.33638164  0.73090967  1
  O2-  O231  1  0.20949182  0.82829147  0.07288788  1
  O2-  O232  1  0.21318171  0.83893112  0.39654084  1
  O2-  O233  1  0.21476588  0.83430112  0.73642353  1
  O2-  O234  1  0.71147558  0.33773826  0.06870232  1
  O2-  O235  1  0.70461907  0.33372537  0.39768161  1
  O2-  O236  1  0.70525305  0.33724861  0.72886966  1
  O2-  O237  1  0.71024677  0.83310282  0.06570088  1
  O2-  O238  1  0.69687080  0.83205498  0.39476596  1
  O2-  O239  1  0.70198795  0.83467858  0.72894258  1
  O2-  O240  1  0.45385178  0.41789366  0.27569300  1
  O2-  O241  1  0.45171970  0.41601930  0.60061475  1
  O2-  O242  1  0.45813038  0.41809744  0.93058987  1
  O2-  O243  1  0.45999889  0.91328492  0.26101084  1
  O2-  O244  1  0.45051796  0.91381197  0.60524518  1
  O2-  O245  1  0.44654664  0.91488512  0.93595088  1
  O2-  O246  1  0.95859984  0.41642805  0.26160404  1
  O2-  O247  1  0.96540935  0.41482362  0.59901026  1
  O2-  O248  1  0.96403050  0.41698700  0.93003363  1
  O2-  O249  1  0.95850230  0.91777990  0.26433512  1
  O2-  O250  1  0.95973688  0.91889161  0.60826768  1
  O2-  O251  1  0.95950854  0.91472962  0.93732763  1
  O2-  O252  1  0.33346848  0.30166265  0.27416254  1
  O2-  O253  1  0.32937980  0.30111696  0.60093263  1
  O2-  O254  1  0.32513457  0.30006244  0.93475052  1
  O2-  O255  1  0.33489106  0.78732496  0.26296102  1
  O2-  O256  1  0.33726471  0.78929576  0.60511554  1
  O2-  O257  1  0.33373261  0.78913123  0.93523055  1
  O2-  O258  1  0.82961415  0.29279663  0.26513262  1
  O2-  O259  1  0.83292843  0.29309812  0.59771930  1
  O2-  O260  1  0.83266760  0.29208229  0.93117481  1
  O2-  O261  1  0.82721748  0.79546467  0.26607449  1
  O2-  O262  1  0.83410407  0.80657065  0.60745251  1
  O2-  O263  1  0.83935217  0.79651982  0.93254144  1
  O2-  O264  1  0.42234046  0.04377054  0.06627656  1
  O2-  O265  1  0.41416396  0.03761921  0.39471880  1
  O2-  O266  1  0.41605058  0.04340585  0.72900648  1
  O2-  O267  1  0.41255949  0.54246134  0.06085433  1
  O2-  O268  1  0.41512407  0.54067633  0.40662126  1
  O2-  O269  1  0.41493361  0.54269034  0.72850413  1
  O2-  O270  1  0.91256318  0.03987027  0.06810339  1
  O2-  O271  1  0.91849235  0.04020864  0.40013885  1
  O2-  O272  1  0.91376449  0.04411583  0.73826735  1
  O2-  O273  1  0.91849509  0.54773988  0.05990159  1
  O2-  O274  1  0.91909787  0.53986211  0.39723931  1
  O2-  O275  1  0.91968052  0.53966414  0.73431463  1
  O2-  O276  1  0.29481724  0.17137371  0.06819958  1
  O2-  O277  1  0.30125644  0.16471138  0.39535183  1
  O2-  O278  1  0.30320812  0.16865377  0.72555957  1
  O2-  O279  1  0.29122722  0.65930136  0.06099235  1
  O2-  O280  1  0.28943362  0.66868634  0.40239030  1
  O2-  O281  1  0.29254395  0.66044625  0.73274384  1
  O2-  O282  1  0.78707796  0.16899246  0.06756910  1
  O2-  O283  1  0.78669892  0.16636885  0.40026697  1
  O2-  O284  1  0.78371619  0.16969938  0.73172590  1
  O2-  O285  1  0.80125021  0.66959719  0.05834833  1
  O2-  O286  1  0.79158525  0.66750786  0.40092018  1
  O2-  O287  1  0.79673568  0.67100504  0.73243758  1
