# generated using pymatgen
data_Ca2Al2SiO7
_symmetry_space_group_name_H-M   'P 1'
_cell_length_a   15.46136790
_cell_length_b   15.46401955
_cell_length_c   15.28695323
_cell_angle_alpha   89.99149442
_cell_angle_beta   90.00785535
_cell_angle_gamma   90.00247412
_symmetry_Int_Tables_number   1
_chemical_formula_structural   Ca2Al2SiO7
_chemical_formula_sum   'Ca48 Al48 Si24 O168'
_cell_volume   3655.03240686
_cell_formula_units_Z   24
loop_
 _symmetry_equiv_pos_site_id
 _symmetry_equiv_pos_as_xyz
  1  'x, y, z'
loop_
 _atom_type_symbol
 _atom_type_oxidation_number
  Ca2+  2.0
  Al0+  0.0
  Si0+  0.0
  O2-  -2.0
loop_
 _atom_site_type_symbol
 _atom_site_label
 _atom_site_symmetry_multiplicity
 _atom_site_fract_x
 _atom_site_fract_y
 _atom_site_fract_z
 _atom_site_occupancy
  Ca2+  Ca0  1  0.15824473  0.08395957  0.16710709  1
  Ca2+  Ca1  1  0.16536386  0.08734824  0.50026570  1
  Ca2+  Ca2  1  0.16471299  0.07699754  0.84398384  1
  Ca2+  Ca3  1  0.16888080  0.57209009  0.16642420  1
  Ca2+  Ca4  1  0.16546446  0.56672139  0.50585424  1
  Ca2+  Ca5  1  0.17224890  0.57286863  0.84409766  1
  Ca2+  Ca6  1  0.66769882  0.07774240  0.16546574  1
  Ca2+  Ca7  1  0.67180778  0.08741936  0.51148685  1
  Ca2+  Ca8  1  0.67457587  0.08379838  0.83999168  1
  Ca2+  Ca9  1  0.67373205  0.58502810  0.17358286  1
  Ca2+  Ca10  1  0.67123576  0.58130743  0.49976832  1
  Ca2+  Ca11  1  0.67490557  0.59340999  0.83833163  1
  Ca2+  Ca12  1  0.08461309  0.32948492  0.16255925  1
  Ca2+  Ca13  1  0.07403042  0.33636711  0.49330962  1
  Ca2+  Ca14  1  0.08046717  0.33497990  0.83114507  1
  Ca2+  Ca15  1  0.08168309  0.82573552  0.15541026  1
  Ca2+  Ca16  1  0.07929775  0.82873467  0.49561860  1
  Ca2+  Ca17  1  0.08785894  0.82648513  0.83589371  1
  Ca2+  Ca18  1  0.57093729  0.34924464  0.16486267  1
  Ca2+  Ca19  1  0.58352520  0.33146262  0.49232989  1
  Ca2+  Ca20  1  0.57559599  0.33206804  0.82974574  1
  Ca2+  Ca21  1  0.58769802  0.82228730  0.15919908  1
  Ca2+  Ca22  1  0.58353827  0.82138935  0.49939100  1
  Ca2+  Ca23  1  0.58473178  0.82541412  0.82856598  1
  Ca2+  Ca24  1  0.32800037  0.41322669  0.16860780  1
  Ca2+  Ca25  1  0.32147652  0.40500307  0.49977502  1
  Ca2+  Ca26  1  0.32406669  0.41772320  0.84379287  1
  Ca2+  Ca27  1  0.32587536  0.91590294  0.16639021  1
  Ca2+  Ca28  1  0.33460031  0.91573154  0.50573395  1
  Ca2+  Ca29  1  0.33168892  0.91487299  0.83933924  1
  Ca2+  Ca30  1  0.83106652  0.42784160  0.17541780  1
  Ca2+  Ca31  1  0.83777272  0.42394239  0.50452180  1
  Ca2+  Ca32  1  0.83288339  0.42355922  0.83515791  1
  Ca2+  Ca33  1  0.83178792  0.92177780  0.16194732  1
  Ca2+  Ca34  1  0.83121742  0.92730401  0.50713236  1
  Ca2+  Ca35  1  0.82775794  0.92996988  0.84241195  1
  Ca2+  Ca36  1  0.41579604  0.18187980  0.16181219  1
  Ca2+  Ca37  1  0.42544083  0.17132882  0.49577828  1
  Ca2+  Ca38  1  0.42127881  0.17168476  0.83150022  1
  Ca2+  Ca39  1  0.42932938  0.65674441  0.15838082  1
  Ca2+  Ca40  1  0.42767407  0.66673588  0.49742093  1
  Ca2+  Ca41  1  0.42745786  0.66696373  0.82909569  1
  Ca2+  Ca42  1  0.92351596  0.17336468  0.16139867  1
  Ca2+  Ca43  1  0.91687626  0.18211655  0.49443820  1
  Ca2+  Ca44  1  0.91627135  0.16974480  0.82852216  1
  Ca2+  Ca45  1  0.91920135  0.66027701  0.15827249  1
  Ca2+  Ca46  1  0.91036487  0.66354367  0.49723851  1
  Ca2+  Ca47  1  0.92071474  0.65628242  0.83297435  1
  Al0+  Al48  1  0.00021097  0.00052358  0.00381940  1
  Al0+  Al49  1  -0.00038017  -0.00181750  0.33224291  1
  Al0+  Al50  1  0.00050225  -0.00133633  0.67005312  1
  Al0+  Al51  1  0.00021253  0.49916056  0.00238488  1
  Al0+  Al52  1  0.00157042  0.50101680  0.33716939  1
  Al0+  Al53  1  0.00041897  0.49857020  0.67128767  1
  Al0+  Al54  1  0.49981582  0.00043941  0.00578444  1
  Al0+  Al55  1  0.49816709  -0.00163379  0.33392964  1
  Al0+  Al56  1  0.49887735  -0.00016036  0.65980177  1
  Al0+  Al57  1  0.49941550  0.50133258  -0.01107051  1
  Al0+  Al58  1  0.50162905  0.50134506  0.33086915  1
  Al0+  Al59  1  0.49821806  0.49989499  0.66041126  1
  Al0+  Al60  1  0.24875653  0.24877106  -0.00649452  1
  Al0+  Al61  1  0.25204295  0.24733266  0.33171844  1
  Al0+  Al62  1  0.24900531  0.24608460  0.67263128  1
  Al0+  Al63  1  0.25028315  0.74931479  0.00457079  1
  Al0+  Al64  1  0.24956398  0.75107196  0.33549063  1
  Al0+  Al65  1  0.24965105  0.74848445  0.66166192  1
  Al0+  Al66  1  0.74974105  0.25117655  0.00580798  1
  Al0+  Al67  1  0.75055562  0.24912415  0.32984363  1
  Al0+  Al68  1  0.75112554  0.25264637  0.66406070  1
  Al0+  Al69  1  0.75084785  0.75257395  0.00259664  1
  Al0+  Al70  1  0.74971051  0.75287223  0.33387641  1
  Al0+  Al71  1  0.75153365  0.75087587  0.66595613  1
  Al0+  Al72  1  0.18180604  0.42756682  0.34738124  1
  Al0+  Al73  1  0.07110750  0.67771000  0.98682580  1
  Al0+  Al74  1  0.81866819  0.57138668  0.68203094  1
  Al0+  Al75  1  0.81998377  0.57003194  0.01239298  1
  Al0+  Al76  1  0.18042383  0.42744303  0.68196370  1
  Al0+  Al77  1  0.42940688  0.32111625  0.98432534  1
  Al0+  Al78  1  0.82210920  0.07440745  0.01724969  1
  Al0+  Al79  1  0.57452700  0.67779123  0.64909115  1
  Al0+  Al80  1  0.17962050  0.42668535  0.01607109  1
  Al0+  Al81  1  0.82154578  0.57213060  0.34908715  1
  Al0+  Al82  1  0.06859975  0.17877392  0.98449321  1
  Al0+  Al83  1  0.93139540  0.32139935  0.65439436  1
  Al0+  Al84  1  0.32318772  0.57066680  0.01347243  1
  Al0+  Al85  1  0.17999235  0.92865213  0.01349725  1
  Al0+  Al86  1  0.67783842  0.42828417  0.34762865  1
  Al0+  Al87  1  0.07016804  0.17883232  0.31905596  1
  Al0+  Al88  1  0.82089560  0.07378259  0.67910634  1
  Al0+  Al89  1  0.42746486  0.82045765  0.65167376  1
  Al0+  Al90  1  0.67775771  0.92961197  0.01467269  1
  Al0+  Al91  1  0.92812747  0.32456863  0.31640641  1
  Al0+  Al92  1  0.57262625  0.68079736  0.98528384  1
  Al0+  Al93  1  0.43154223  0.31944921  0.32083374  1
  Al0+  Al94  1  0.57084229  0.18168122  0.65561357  1
  Al0+  Al95  1  0.56999858  0.68193791  0.31762021  1
  Si0+  Si96  1  0.92905832  0.82214904  0.98226993  1
  Si0+  Si97  1  0.82170193  0.06932788  0.34897767  1
  Si0+  Si98  1  0.57222652  0.17627877  0.98547721  1
  Si0+  Si99  1  0.17797752  0.92823847  0.35043134  1
  Si0+  Si100  1  0.32279208  0.57334933  0.35092803  1
  Si0+  Si101  1  0.32218537  0.07258976  0.01743288  1
  Si0+  Si102  1  0.07198424  0.67970464  0.31961996  1
  Si0+  Si103  1  0.32169297  0.57310692  0.68190338  1
  Si0+  Si104  1  0.17882013  0.92641205  0.68109468  1
  Si0+  Si105  1  0.32175021  0.06849567  0.68199412  1
  Si0+  Si106  1  0.42463280  0.32043898  0.64995666  1
  Si0+  Si107  1  0.93063391  0.82309352  0.65246159  1
  Si0+  Si108  1  0.07212295  0.17449565  0.65124012  1
  Si0+  Si109  1  0.92596356  0.32256638  0.98296722  1
  Si0+  Si110  1  0.67768869  0.93001316  0.68143232  1
  Si0+  Si111  1  0.92944146  0.82120526  0.31830708  1
  Si0+  Si112  1  0.57355870  0.17436691  0.31576430  1
  Si0+  Si113  1  0.42567110  0.82290678  0.31392904  1
  Si0+  Si114  1  0.67756064  0.93044333  0.35067156  1
  Si0+  Si115  1  0.06977885  0.67867976  0.65177482  1
  Si0+  Si116  1  0.42763572  0.82372637  0.98602315  1
  Si0+  Si117  1  0.32104831  0.06939541  0.34959039  1
  Si0+  Si118  1  0.67620130  0.42821250  0.01373142  1
  Si0+  Si119  1  0.67504480  0.42806068  0.68262590  1
  O2-  O120  1  0.25328606  0.00393463  0.06162224  1
  O2-  O121  1  0.24915392  -0.00119756  0.39259412  1
  O2-  O122  1  0.25073456  -0.00337817  0.72248283  1
  O2-  O123  1  0.25283030  0.49805526  0.06497837  1
  O2-  O124  1  0.25564301  0.50325319  0.39571704  1
  O2-  O125  1  0.25857467  0.49961670  0.72604418  1
  O2-  O126  1  0.74810558  0.00305783  0.06551160  1
  O2-  O127  1  0.74473038  0.00517853  0.39290908  1
  O2-  O128  1  0.74389912  0.00104975  0.72514247  1
  O2-  O129  1  0.74502637  0.49622335  0.05821806  1
  O2-  O130  1  0.75319965  0.49633661  0.39900243  1
  O2-  O131  1  0.73873475  0.50133907  0.72726253  1
  O2-  O132  1  0.00130308  0.25270106  0.26802327  1
  O2-  O133  1  0.00515385  0.24470571  0.60829117  1
  O2-  O134  1  -0.00704782  0.25212335  0.93817893  1
  O2-  O135  1  -0.00330986  0.74634256  0.27768383  1
  O2-  O136  1  -0.00178689  0.74926140  0.60893605  1
  O2-  O137  1  -0.00422725  0.75140774  0.93780118  1
  O2-  O138  1  0.51046546  0.24876714  0.27314763  1
  O2-  O139  1  0.49837157  0.25716542  0.60606269  1
  O2-  O140  1  0.50544330  0.24601429  0.94023869  1
  O2-  O141  1  0.49259071  0.75372536  0.26979053  1
  O2-  O142  1  0.49940954  0.74875647  0.60147838  1
  O2-  O143  1  0.49719218  0.75672775  0.94140846  1
  O2-  O144  1  0.06815551  0.17916862  0.09734701  1
  O2-  O145  1  0.06739077  0.17635440  0.43319109  1
  O2-  O146  1  0.07148833  0.17109020  0.75641334  1
  O2-  O147  1  0.06932527  0.67973185  0.10027646  1
  O2-  O148  1  0.07407037  0.68396589  0.42526008  1
  O2-  O149  1  0.07113536  0.68097605  0.75659405  1
  O2-  O150  1  0.56897992  0.17417034  0.09090819  1
  O2-  O151  1  0.57013177  0.17076818  0.42171295  1
  O2-  O152  1  0.56793319  0.18109134  0.76861622  1
  O2-  O153  1  0.57245518  0.68080534  0.09836704  1
  O2-  O154  1  0.57014262  0.68495779  0.43058920  1
  O2-  O155  1  0.57560889  0.68237492  0.76250442  1
  O2-  O156  1  0.18289011  0.42808703  0.23503775  1
  O2-  O157  1  0.18073757  0.42796895  0.56831598  1
  O2-  O158  1  0.18004000  0.42892274  0.90218715  1
  O2-  O159  1  0.17799756  0.92627103  0.24594818  1
  O2-  O160  1  0.17697097  0.92721934  0.57564269  1
  O2-  O161  1  0.18251613  0.92907512  0.89980337  1
  O2-  O162  1  0.67564562  0.43460588  0.23413366  1
  O2-  O163  1  0.67734236  0.42594494  0.57732694  1
  O2-  O164  1  0.67808904  0.42578699  0.90787586  1
  O2-  O165  1  0.67811936  0.93029275  0.24601373  1
  O2-  O166  1  0.68099672  0.93114623  0.57525160  1
  O2-  O167  1  0.67828696  0.93133620  0.90075884  1
  O2-  O168  1  0.43021833  0.32002929  0.09755118  1
  O2-  O169  1  0.42967458  0.31327216  0.43412494  1
  O2-  O170  1  0.42402554  0.31713237  0.75534778  1
  O2-  O171  1  0.42816283  0.82439836  0.09160078  1
  O2-  O172  1  0.42573384  0.82392840  0.41954484  1
  O2-  O173  1  0.42546362  0.82088070  0.76506408  1
  O2-  O174  1  0.92663482  0.32270506  0.08824888  1
  O2-  O175  1  0.92984997  0.32287370  0.43055598  1
  O2-  O176  1  0.93183794  0.32124115  0.76729220  1
  O2-  O177  1  0.93097156  0.82177738  0.08840148  1
  O2-  O178  1  0.93239811  0.82499015  0.42398660  1
  O2-  O179  1  0.93330139  0.82712494  0.75671228  1
  O2-  O180  1  0.32277078  0.06753402  0.24502512  1
  O2-  O181  1  0.32013301  0.07024640  0.57666676  1
  O2-  O182  1  0.32386977  0.06999762  0.91147240  1
  O2-  O183  1  0.32016711  0.57544011  0.24575930  1
  O2-  O184  1  0.31758853  0.57572383  0.57618172  1
  O2-  O185  1  0.32191573  0.56981343  0.89942090  1
  O2-  O186  1  0.82344003  0.06444829  0.24451932  1
  O2-  O187  1  0.82132927  0.07020858  0.56544077  1
  O2-  O188  1  0.82034122  0.07319972  0.90314049  1
  O2-  O189  1  0.82024446  0.57494476  0.23570576  1
  O2-  O190  1  0.82074686  0.57084549  0.56934530  1
  O2-  O191  1  0.81954844  0.56856976  0.89906304  1
  O2-  O192  1  0.04059072  0.07948841  0.26759002  1
  O2-  O193  1  0.04744168  0.08055223  0.60455922  1
  O2-  O194  1  0.03989494  0.08022918  0.93231522  1
  O2-  O195  1  0.04885737  0.58693148  0.27399251  1
  O2-  O196  1  0.04090921  0.58711242  0.60541279  1
  O2-  O197  1  0.03981725  0.58153389  0.93211798  1
  O2-  O198  1  0.54061546  0.08260831  0.26968983  1
  O2-  O199  1  0.53977535  0.08624847  0.59837516  1
  O2-  O200  1  0.54467639  0.08316222  0.93890508  1
  O2-  O201  1  0.54179157  0.58497863  0.26431111  1
  O2-  O202  1  0.54704122  0.57880361  0.59607326  1
  O2-  O203  1  0.54285322  0.58652761  0.92675623  1
  O2-  O204  1  0.17066473  0.20077527  0.26858450  1
  O2-  O205  1  0.16741048  0.19827812  0.60736896  1
  O2-  O206  1  0.16548230  0.20538809  0.92874387  1
  O2-  O207  1  0.16219796  0.71268832  0.27234086  1
  O2-  O208  1  0.15965605  0.70762454  0.60123750  1
  O2-  O209  1  0.16745885  0.71188890  0.93369167  1
  O2-  O210  1  0.66937019  0.19040247  0.27213677  1
  O2-  O211  1  0.66687549  0.21003686  0.59931230  1
  O2-  O212  1  0.66735398  0.20063896  0.94220805  1
  O2-  O213  1  0.66632707  0.71756659  0.26584296  1
  O2-  O214  1  0.67179315  0.71131453  0.59589507  1
  O2-  O215  1  0.66887531  0.71525119  0.93241273  1
  O2-  O216  1  0.08202059  0.45684589  0.06829907  1
  O2-  O217  1  0.08642245  0.46081143  0.40270661  1
  O2-  O218  1  0.08623633  0.46264215  0.73646183  1
  O2-  O219  1  0.08388955  0.95739877  0.06865162  1
  O2-  O220  1  0.08605993  0.95601306  0.39865755  1
  O2-  O221  1  0.08815667  0.95389014  0.73023719  1
  O2-  O222  1  0.58229364  0.45658572  0.05570105  1
  O2-  O223  1  0.58006442  0.45891823  0.40192112  1
  O2-  O224  1  0.57778866  0.44704142  0.72467815  1
  O2-  O225  1  0.57987083  0.95553741  0.07118501  1
  O2-  O226  1  0.58357720  0.95325990  0.39671181  1
  O2-  O227  1  0.58217154  0.95243031  0.72381562  1
  O2-  O228  1  0.20855574  0.32706392  0.06508240  1
  O2-  O229  1  0.21441318  0.33059410  0.40079695  1
  O2-  O230  1  0.20671128  0.32921929  0.73517025  1
  O2-  O231  1  0.21047968  0.83398569  0.07122851  1
  O2-  O232  1  0.20590807  0.83710206  0.40041520  1
  O2-  O233  1  0.20599381  0.83377006  0.72697431  1
  O2-  O234  1  0.69638576  0.33480117  0.06237360  1
  O2-  O235  1  0.69854635  0.32507080  0.39551255  1
  O2-  O236  1  0.70545973  0.33670123  0.73034601  1
  O2-  O237  1  0.71115791  0.83438496  0.07092438  1
  O2-  O238  1  0.71111421  0.84145045  0.39968968  1
  O2-  O239  1  0.70716602  0.83789015  0.72711685  1
  O2-  O240  1  0.45725756  0.41728798  0.26723583  1
  O2-  O241  1  0.44092915  0.41624694  0.60553025  1
  O2-  O242  1  0.45978390  0.41487622  0.92504356  1
  O2-  O243  1  0.45121940  0.91698586  0.26896369  1
  O2-  O244  1  0.45414701  0.91833572  0.59556362  1
  O2-  O245  1  0.45091748  0.91890378  0.94109002  1
  O2-  O246  1  0.95656944  0.42432414  0.26701450  1
  O2-  O247  1  0.96557299  0.41699801  0.59990827  1
  O2-  O248  1  0.95464226  0.41503471  0.93660380  1
  O2-  O249  1  0.96235332  0.90983015  0.26843472  1
  O2-  O250  1  0.96267029  0.91263995  0.60125308  1
  O2-  O251  1  0.95781306  0.91493150  0.93695905  1
  O2-  O252  1  0.33773025  0.28290136  0.26552593  1
  O2-  O253  1  0.33306889  0.28579179  0.60445569  1
  O2-  O254  1  0.33488908  0.28686544  0.92873103  1
  O2-  O255  1  0.32984213  0.80026645  0.27091815  1
  O2-  O256  1  0.32902897  0.79316436  0.59561805  1
  O2-  O257  1  0.33388711  0.79845953  0.94062434  1
  O2-  O258  1  0.82954499  0.29576033  0.26402459  1
  O2-  O259  1  0.83526500  0.29270809  0.59864864  1
  O2-  O260  1  0.83072966  0.29857408  0.93856991  1
  O2-  O261  1  0.83626254  0.79933270  0.27225515  1
  O2-  O262  1  0.83844409  0.79876838  0.60410313  1
  O2-  O263  1  0.83475629  0.79998077  0.93742360  1
  O2-  O264  1  0.41460904  0.04871755  0.06639498  1
  O2-  O265  1  0.41213152  0.03990838  0.39925750  1
  O2-  O266  1  0.41378334  0.04077759  0.72876351  1
  O2-  O267  1  0.42258943  0.54067585  0.06301732  1
  O2-  O268  1  0.41689659  0.54892364  0.39520058  1
  O2-  O269  1  0.41845448  0.55335410  0.72362285  1
  O2-  O270  1  0.91792495  0.04040846  0.07104221  1
  O2-  O271  1  0.91078551  0.03349990  0.39744842  1
  O2-  O272  1  0.91642803  0.03906439  0.73302830  1
  O2-  O273  1  0.91594102  0.53986400  0.06703417  1
  O2-  O274  1  0.92169723  0.54933673  0.40191841  1
  O2-  O275  1  0.91459316  0.53711032  0.73540288  1
  O2-  O276  1  0.29374821  0.16549855  0.06164818  1
  O2-  O277  1  0.29345436  0.15976258  0.39941658  1
  O2-  O278  1  0.29409275  0.15841813  0.73288853  1
  O2-  O279  1  0.29683224  0.66826310  0.06813227  1
  O2-  O280  1  0.29554666  0.66713510  0.39747398  1
  O2-  O281  1  0.29083033  0.66511992  0.72816975  1
  O2-  O282  1  0.79522624  0.17209200  0.07209339  1
  O2-  O283  1  0.79964135  0.16371041  0.39333127  1
  O2-  O284  1  0.79159821  0.17042784  0.73254873  1
  O2-  O285  1  0.79388030  0.66807075  0.06487612  1
  O2-  O286  1  0.79135571  0.67176960  0.40078286  1
  O2-  O287  1  0.79492065  0.67112691  0.73407313  1
