# generated using pymatgen
data_Ca2Al2SiO7
_symmetry_space_group_name_H-M   'P 1'
_cell_length_a   15.45737777
_cell_length_b   15.45750711
_cell_length_c   15.28351087
_cell_angle_alpha   89.99469615
_cell_angle_beta   90.00122770
_cell_angle_gamma   89.99670593
_symmetry_Int_Tables_number   1
_chemical_formula_structural   Ca2Al2SiO7
_chemical_formula_sum   'Ca48 Al48 Si24 O168'
_cell_volume   3651.72784894
_cell_formula_units_Z   24
loop_
 _symmetry_equiv_pos_site_id
 _symmetry_equiv_pos_as_xyz
  1  'x, y, z'
loop_
 _atom_type_symbol
 _atom_type_oxidation_number
  Ca2+  2.0
  Al0+  0.0
  Si0+  0.0
  O2-  -2.0
loop_
 _atom_site_type_symbol
 _atom_site_label
 _atom_site_symmetry_multiplicity
 _atom_site_fract_x
 _atom_site_fract_y
 _atom_site_fract_z
 _atom_site_occupancy
  Ca2+  Ca0  1  0.16058392  0.07897749  0.16947821  1
  Ca2+  Ca1  1  0.16665946  0.08591773  0.50036310  1
  Ca2+  Ca2  1  0.16673185  0.07836467  0.84359374  1
  Ca2+  Ca3  1  0.17364700  0.59101346  0.17091944  1
  Ca2+  Ca4  1  0.17251422  0.58724382  0.50374231  1
  Ca2+  Ca5  1  0.18088784  0.58833372  0.83801902  1
  Ca2+  Ca6  1  0.66843631  0.07220726  0.17761790  1
  Ca2+  Ca7  1  0.66098066  0.08128284  0.49998228  1
  Ca2+  Ca8  1  0.66719721  0.07648960  0.83862925  1
  Ca2+  Ca9  1  0.67680745  0.58660886  0.17179559  1
  Ca2+  Ca10  1  0.67109093  0.57298529  0.50769027  1
  Ca2+  Ca11  1  0.67210996  0.58751991  0.83671975  1
  Ca2+  Ca12  1  0.08276490  0.32027407  0.16269812  1
  Ca2+  Ca13  1  0.07400259  0.33264361  0.49330825  1
  Ca2+  Ca14  1  0.07701892  0.33027344  0.83040811  1
  Ca2+  Ca15  1  0.07506583  0.83014995  0.16061666  1
  Ca2+  Ca16  1  0.07450462  0.82553595  0.49546223  1
  Ca2+  Ca17  1  0.07095832  0.83732460  0.83220612  1
  Ca2+  Ca18  1  0.58768933  0.33351345  0.17150585  1
  Ca2+  Ca19  1  0.58836991  0.32939414  0.49332363  1
  Ca2+  Ca20  1  0.58953605  0.32678095  0.82365664  1
  Ca2+  Ca21  1  0.57814219  0.83568572  0.15837244  1
  Ca2+  Ca22  1  0.58024986  0.82661608  0.49398447  1
  Ca2+  Ca23  1  0.58856470  0.81925641  0.83396573  1
  Ca2+  Ca24  1  0.33666770  0.42142168  0.16987036  1
  Ca2+  Ca25  1  0.33331530  0.41830479  0.50467191  1
  Ca2+  Ca26  1  0.33820168  0.43080202  0.83639702  1
  Ca2+  Ca27  1  0.32996320  0.90784498  0.16986195  1
  Ca2+  Ca28  1  0.33439522  0.91383349  0.50091702  1
  Ca2+  Ca29  1  0.32604082  0.91448749  0.84374825  1
  Ca2+  Ca30  1  0.82799323  0.42895593  0.17518174  1
  Ca2+  Ca31  1  0.82748603  0.42383927  0.50700829  1
  Ca2+  Ca32  1  0.83168420  0.42497735  0.83341610  1
  Ca2+  Ca33  1  0.82124732  0.91489042  0.17095760  1
  Ca2+  Ca34  1  0.83090433  0.92058068  0.49876083  1
  Ca2+  Ca35  1  0.82992038  0.91077083  0.84155838  1
  Ca2+  Ca36  1  0.42216612  0.17263282  0.16892954  1
  Ca2+  Ca37  1  0.43016777  0.17462882  0.49071059  1
  Ca2+  Ca38  1  0.42501520  0.16805120  0.82761419  1
  Ca2+  Ca39  1  0.42503738  0.67612796  0.15739527  1
  Ca2+  Ca40  1  0.42319635  0.66541849  0.49639384  1
  Ca2+  Ca41  1  0.42522496  0.66350436  0.83138589  1
  Ca2+  Ca42  1  0.92340058  0.15705822  0.16544145  1
  Ca2+  Ca43  1  0.91578793  0.17298750  0.49306698  1
  Ca2+  Ca44  1  0.92118060  0.17244779  0.82782696  1
  Ca2+  Ca45  1  0.91744767  0.66471044  0.16053941  1
  Ca2+  Ca46  1  0.91404744  0.66548272  0.49700092  1
  Ca2+  Ca47  1  0.90464169  0.67578951  0.82975706  1
  Al0+  Al48  1  0.00204315  -0.00026040  -0.00479314  1
  Al0+  Al49  1  -0.00063693  -0.00210380  0.33536137  1
  Al0+  Al50  1  -0.00044501  -0.00137611  0.66184886  1
  Al0+  Al51  1  0.00139342  0.49817201  0.00270336  1
  Al0+  Al52  1  0.00333517  0.50019989  0.33143112  1
  Al0+  Al53  1  0.00075131  0.50006077  0.66760737  1
  Al0+  Al54  1  0.49790718  0.00181507  -0.00041138  1
  Al0+  Al55  1  0.49699034  0.00108368  0.33064998  1
  Al0+  Al56  1  0.49930294  0.00009720  0.66513856  1
  Al0+  Al57  1  0.50008969  0.49914411  0.00184080  1
  Al0+  Al58  1  0.50012470  0.50170476  0.33266943  1
  Al0+  Al59  1  0.49932788  0.49888383  0.67040423  1
  Al0+  Al60  1  0.25085383  0.25002253  -0.00580853  1
  Al0+  Al61  1  0.24938801  0.25023507  0.32672707  1
  Al0+  Al62  1  0.25107359  0.24820106  0.66998693  1
  Al0+  Al63  1  0.24951547  0.75104598  0.00619755  1
  Al0+  Al64  1  0.24830050  0.75012353  0.32878341  1
  Al0+  Al65  1  0.24836842  0.75156812  0.67231739  1
  Al0+  Al66  1  0.75145183  0.25123332  -0.00010124  1
  Al0+  Al67  1  0.75096272  0.25043378  0.33257123  1
  Al0+  Al68  1  0.75260434  0.24836649  0.66264813  1
  Al0+  Al69  1  0.74954834  0.75001483  0.00250177  1
  Al0+  Al70  1  0.74991218  0.75182232  0.34253494  1
  Al0+  Al71  1  0.74807296  0.75096520  0.65794631  1
  Al0+  Al72  1  0.57100225  0.67874430  0.98596963  1
  Al0+  Al73  1  0.32141172  0.57054962  0.01673298  1
  Al0+  Al74  1  0.82051274  0.57077690  0.01315476  1
  Al0+  Al75  1  0.07043680  0.17916983  0.98477106  1
  Al0+  Al76  1  0.82251990  0.06981411  0.34813965  1
  Al0+  Al77  1  0.42879678  0.32379603  0.31826478  1
  Al0+  Al78  1  0.56940798  0.67725844  0.65148335  1
  Al0+  Al79  1  0.57358529  0.17968973  0.31636924  1
  Al0+  Al80  1  0.67409013  0.93004995  0.35090632  1
  Al0+  Al81  1  0.82098955  0.57304439  0.68301908  1
  Al0+  Al82  1  0.42898496  0.82029477  0.32092314  1
  Al0+  Al83  1  0.17867631  0.93052690  0.01518196  1
  Al0+  Al84  1  0.06976294  0.67833684  0.31981928  1
  Al0+  Al85  1  0.82485504  0.57161459  0.34967267  1
  Al0+  Al86  1  0.42704017  0.82281453  0.98388230  1
  Al0+  Al87  1  0.57139987  0.17800450  0.65328490  1
  Al0+  Al88  1  0.06935760  0.17831726  0.32026379  1
  Al0+  Al89  1  0.67789093  0.43070599  0.34828448  1
  Al0+  Al90  1  0.67862926  0.93052888  0.01124516  1
  Al0+  Al91  1  0.32046191  0.57118297  0.67956823  1
  Al0+  Al92  1  0.92975283  0.81803237  0.98854755  1
  Al0+  Al93  1  0.68011923  0.42641409  0.68245300  1
  Al0+  Al94  1  0.93117362  0.32192246  0.65268785  1
  Al0+  Al95  1  0.92745249  0.82108764  0.65069336  1
  Si0+  Si96  1  0.17798100  0.93078980  0.68167404  1
  Si0+  Si97  1  0.31842537  0.07302371  0.34818447  1
  Si0+  Si98  1  0.07420930  0.67958894  0.65281484  1
  Si0+  Si99  1  0.32170681  0.07043351  0.68165288  1
  Si0+  Si100  1  0.42734927  0.32117998  0.65203263  1
  Si0+  Si101  1  0.42562590  0.82118287  0.65169962  1
  Si0+  Si102  1  0.67793237  0.42478841  0.01715609  1
  Si0+  Si103  1  0.17920984  0.42644208  0.01744049  1
  Si0+  Si104  1  0.82227171  0.07364884  0.01339859  1
  Si0+  Si105  1  0.07326280  0.17766982  0.64978028  1
  Si0+  Si106  1  0.07266510  0.67542921  0.98321580  1
  Si0+  Si107  1  0.57212919  0.17980522  0.98527041  1
  Si0+  Si108  1  0.17765306  0.42530454  0.68361929  1
  Si0+  Si109  1  0.31909041  0.57220317  0.34767936  1
  Si0+  Si110  1  0.92763114  0.32369958  0.98291248  1
  Si0+  Si111  1  0.92725289  0.82085755  0.31663267  1
  Si0+  Si112  1  0.67759192  0.93002452  0.68178098  1
  Si0+  Si113  1  0.32189287  0.07456567  0.01818118  1
  Si0+  Si114  1  0.92820082  0.32302827  0.31507043  1
  Si0+  Si115  1  0.18108972  0.42661894  0.34729623  1
  Si0+  Si116  1  0.82272993  0.06961704  0.68186639  1
  Si0+  Si117  1  0.57319649  0.67933756  0.31783208  1
  Si0+  Si118  1  0.42932660  0.32107207  0.98281800  1
  Si0+  Si119  1  0.17934254  0.92791913  0.34993367  1
  O2-  O120  1  0.25538042  0.00361390  0.06221716  1
  O2-  O121  1  0.24930665  0.00026035  0.39215719  1
  O2-  O122  1  0.24906729  0.00161554  0.72396981  1
  O2-  O123  1  0.24436813  0.49751252  0.06323349  1
  O2-  O124  1  0.25126354  0.49812941  0.39037085  1
  O2-  O125  1  0.24597578  0.49520638  0.72629582  1
  O2-  O126  1  0.75167399  0.00733337  0.05691223  1
  O2-  O127  1  0.74595138  0.00352158  0.40033092  1
  O2-  O128  1  0.75135602  -0.00112132  0.72406379  1
  O2-  O129  1  0.74557543  0.49564420  0.05856040  1
  O2-  O130  1  0.75142265  0.50066621  0.39863438  1
  O2-  O131  1  0.74840032  0.50145757  0.73362715  1
  O2-  O132  1  -0.00770654  0.24918103  0.27150804  1
  O2-  O133  1  0.00806733  0.24876643  0.60587685  1
  O2-  O134  1  -0.00456681  0.25343446  0.93908822  1
  O2-  O135  1  -0.01001267  0.74677485  0.27290673  1
  O2-  O136  1  -0.00002617  0.74188231  0.60815450  1
  O2-  O137  1  0.00193141  0.74151474  0.93874013  1
  O2-  O138  1  0.50362943  0.25489302  0.26756241  1
  O2-  O139  1  0.49885931  0.25576386  0.60848399  1
  O2-  O140  1  0.50296547  0.25211360  0.94167356  1
  O2-  O141  1  0.50842338  0.75177350  0.27398168  1
  O2-  O142  1  0.49194185  0.75109370  0.60722640  1
  O2-  O143  1  0.49817586  0.75014931  0.93424516  1
  O2-  O144  1  0.06932616  0.17920764  0.09784625  1
  O2-  O145  1  0.07205918  0.18266798  0.43345632  1
  O2-  O146  1  0.07259179  0.17647119  0.75537981  1
  O2-  O147  1  0.07130568  0.67693226  0.08895900  1
  O2-  O148  1  0.07550280  0.68248637  0.43307725  1
  O2-  O149  1  0.08005101  0.68472594  0.75797451  1
  O2-  O150  1  0.57177779  0.18015734  0.08971189  1
  O2-  O151  1  0.56854854  0.17905775  0.43005156  1
  O2-  O152  1  0.56805796  0.17571448  0.76715596  1
  O2-  O153  1  0.57127898  0.68028153  0.09950996  1
  O2-  O154  1  0.56814686  0.67750939  0.42357741  1
  O2-  O155  1  0.57039375  0.67969795  0.76439951  1
  O2-  O156  1  0.18214750  0.42527960  0.24242596  1
  O2-  O157  1  0.17965796  0.42199665  0.57785775  1
  O2-  O158  1  0.18113100  0.42617200  0.91164367  1
  O2-  O159  1  0.17897416  0.92863963  0.24512756  1
  O2-  O160  1  0.17943930  0.93040591  0.57638101  1
  O2-  O161  1  0.17747909  0.93412871  0.90140320  1
  O2-  O162  1  0.67899808  0.43441018  0.23419081  1
  O2-  O163  1  0.68132930  0.42639553  0.56933766  1
  O2-  O164  1  0.67939977  0.41907132  0.91193004  1
  O2-  O165  1  0.67533668  0.92939562  0.23698621  1
  O2-  O166  1  0.67462928  0.93308770  0.57715585  1
  O2-  O167  1  0.68113448  0.93162000  0.89745179  1
  O2-  O168  1  0.42677849  0.31960914  0.08750906  1
  O2-  O169  1  0.42360213  0.32019167  0.43189040  1
  O2-  O170  1  0.42470894  0.31714277  0.75786244  1
  O2-  O171  1  0.42930515  0.82145899  0.09748096  1
  O2-  O172  1  0.42518916  0.81523227  0.43453437  1
  O2-  O173  1  0.42452317  0.82304434  0.75673759  1
  O2-  O174  1  0.92788958  0.32403893  0.08817036  1
  O2-  O175  1  0.93313897  0.32434612  0.42075267  1
  O2-  O176  1  0.93319790  0.31815989  0.76611776  1
  O2-  O177  1  0.93070676  0.81839123  0.10129788  1
  O2-  O178  1  0.93267312  0.82332096  0.42236612  1
  O2-  O179  1  0.92996177  0.82493417  0.76393785  1
  O2-  O180  1  0.31642663  0.07415839  0.24336717  1
  O2-  O181  1  0.32084874  0.07135940  0.57666144  1
  O2-  O182  1  0.32040976  0.07562250  0.91189743  1
  O2-  O183  1  0.31651965  0.57227935  0.24288444  1
  O2-  O184  1  0.31729884  0.57172514  0.56604482  1
  O2-  O185  1  0.32085698  0.56822097  0.90324080  1
  O2-  O186  1  0.82565476  0.06317505  0.23425410  1
  O2-  O187  1  0.82479479  0.06875961  0.57728049  1
  O2-  O188  1  0.82007669  0.07573340  0.90730513  1
  O2-  O189  1  0.82455130  0.57024746  0.23564850  1
  O2-  O190  1  0.82134731  0.57025230  0.56993918  1
  O2-  O191  1  0.81985046  0.57033074  0.90031264  1
  O2-  O192  1  0.04141716  0.07969544  0.26834147  1
  O2-  O193  1  0.04636687  0.08514032  0.60271319  1
  O2-  O194  1  0.04033316  0.08416275  0.92790475  1
  O2-  O195  1  0.04905643  0.57988406  0.26463407  1
  O2-  O196  1  0.05740786  0.58296044  0.61000595  1
  O2-  O197  1  0.05337494  0.57942708  0.93950828  1
  O2-  O198  1  0.53815999  0.08334871  0.26359701  1
  O2-  O199  1  0.53505360  0.08347527  0.59829918  1
  O2-  O200  1  0.54204262  0.08946624  0.93609069  1
  O2-  O201  1  0.54424848  0.58785436  0.27044175  1
  O2-  O202  1  0.53712915  0.58010479  0.59938300  1
  O2-  O203  1  0.54350822  0.57888913  0.93456279  1
  O2-  O204  1  0.16367348  0.21087114  0.26346759  1
  O2-  O205  1  0.16931086  0.19969350  0.60661247  1
  O2-  O206  1  0.16688947  0.21008372  0.92937932  1
  O2-  O207  1  0.16295271  0.71533505  0.26306039  1
  O2-  O208  1  0.16469241  0.71270699  0.60325169  1
  O2-  O209  1  0.16603718  0.70464181  0.93962382  1
  O2-  O210  1  0.67313102  0.20319202  0.26330591  1
  O2-  O211  1  0.66895545  0.20298069  0.60033445  1
  O2-  O212  1  0.66510832  0.20558370  0.93798406  1
  O2-  O213  1  0.66932827  0.70212588  0.27650540  1
  O2-  O214  1  0.66285986  0.71043160  0.59439928  1
  O2-  O215  1  0.66804803  0.71091399  0.93236325  1
  O2-  O216  1  0.08429730  0.44581476  0.06309617  1
  O2-  O217  1  0.08998250  0.45494416  0.39546418  1
  O2-  O218  1  0.08458926  0.44969071  0.73046398  1
  O2-  O219  1  0.08270667  0.96485593  0.06878929  1
  O2-  O220  1  0.08825038  0.95507863  0.39868192  1
  O2-  O221  1  0.08616050  0.96026527  0.72835650  1
  O2-  O222  1  0.58318018  0.44675572  0.06135757  1
  O2-  O223  1  0.57850496  0.45809025  0.40121272  1
  O2-  O224  1  0.57889418  0.44773812  0.73292771  1
  O2-  O225  1  0.58141239  0.96107902  0.06391109  1
  O2-  O226  1  0.57434910  0.95797247  0.40255842  1
  O2-  O227  1  0.58632270  0.96004629  0.72979499  1
  O2-  O228  1  0.20965474  0.33331953  0.06216018  1
  O2-  O229  1  0.20914898  0.33543044  0.39618886  1
  O2-  O230  1  0.20365002  0.33186918  0.73166073  1
  O2-  O231  1  0.20491481  0.83396103  0.07097818  1
  O2-  O232  1  0.21084489  0.83719330  0.39778464  1
  O2-  O233  1  0.20437594  0.84022015  0.73164414  1
  O2-  O234  1  0.70641982  0.33251748  0.06583774  1
  O2-  O235  1  0.70249052  0.32984281  0.39699590  1
  O2-  O236  1  0.71231732  0.32756139  0.73424519  1
  O2-  O237  1  0.71087635  0.83609759  0.06719754  1
  O2-  O238  1  0.70309391  0.83291975  0.40587990  1
  O2-  O239  1  0.70558997  0.83723101  0.72571723  1
  O2-  O240  1  0.45383614  0.42314767  0.26514905  1
  O2-  O241  1  0.44673357  0.41622149  0.60797486  1
  O2-  O242  1  0.45526828  0.41341385  0.93624630  1
  O2-  O243  1  0.44941964  0.91932626  0.26802893  1
  O2-  O244  1  0.45281832  0.91431030  0.60489567  1
  O2-  O245  1  0.45051732  0.92380241  0.93291617  1
  O2-  O246  1  0.96122846  0.41364342  0.26762299  1
  O2-  O247  1  0.96173695  0.41847723  0.59803635  1
  O2-  O248  1  0.95693821  0.41572028  0.93519891  1
  O2-  O249  1  0.96025088  0.91157228  0.26984891  1
  O2-  O250  1  0.96411516  0.91526438  0.59471307  1
  O2-  O251  1  0.96208624  0.91361350  0.93226070  1
  O2-  O252  1  0.33280341  0.29093589  0.26221076  1
  O2-  O253  1  0.33413930  0.29222727  0.60569782  1
  O2-  O254  1  0.33937195  0.29152657  0.93243436  1
  O2-  O255  1  0.33423353  0.78623751  0.26552076  1
  O2-  O256  1  0.33038340  0.79854688  0.60681516  1
  O2-  O257  1  0.32628970  0.79535697  0.93509282  1
  O2-  O258  1  0.83351881  0.30372474  0.27015603  1
  O2-  O259  1  0.83734846  0.28739558  0.59703744  1
  O2-  O260  1  0.83418653  0.29809007  0.93594081  1
  O2-  O261  1  0.83025773  0.80213488  0.27587856  1
  O2-  O262  1  0.83147100  0.79586065  0.59446797  1
  O2-  O263  1  0.83339379  0.78883284  0.93358922  1
  O2-  O264  1  0.41643616  0.05324544  0.06327683  1
  O2-  O265  1  0.40991168  0.04636032  0.39616518  1
  O2-  O266  1  0.41249289  0.04117810  0.73067806  1
  O2-  O267  1  0.41710625  0.53685917  0.07055227  1
  O2-  O268  1  0.41179605  0.54766575  0.39404998  1
  O2-  O269  1  0.41502615  0.53952406  0.73659221  1
  O2-  O270  1  0.91594032  0.04591154  0.05655259  1
  O2-  O271  1  0.91934475  0.03770670  0.40460401  1
  O2-  O272  1  0.91542404  0.04162144  0.72867824  1
  O2-  O273  1  0.91858562  0.54113986  0.06602168  1
  O2-  O274  1  0.92479091  0.54280716  0.40024064  1
  O2-  O275  1  0.92174383  0.54704483  0.73370622  1
  O2-  O276  1  0.29326623  0.16794389  0.06270095  1
  O2-  O277  1  0.28666155  0.16357461  0.39628249  1
  O2-  O278  1  0.29638833  0.16214574  0.73178361  1
  O2-  O279  1  0.29122358  0.66675063  0.07105630  1
  O2-  O280  1  0.28560753  0.66215144  0.39554175  1
  O2-  O281  1  0.28841641  0.66695525  0.73546457  1
  O2-  O282  1  0.80065728  0.16793219  0.06014577  1
  O2-  O283  1  0.80293788  0.17195274  0.39604515  1
  O2-  O284  1  0.79560508  0.16110641  0.72959839  1
  O2-  O285  1  0.78957867  0.66600020  0.06902381  1
  O2-  O286  1  0.80100118  0.67106189  0.40139781  1
  O2-  O287  1  0.79020584  0.67378333  0.73064035  1
