# generated using pymatgen
data_Ca2Al2SiO7
_symmetry_space_group_name_H-M   'P 1'
_cell_length_a   15.45333805
_cell_length_b   15.45292224
_cell_length_c   15.28023160
_cell_angle_alpha   89.99472566
_cell_angle_beta   90.00335899
_cell_angle_gamma   89.99534616
_symmetry_Int_Tables_number   1
_chemical_formula_structural   Ca2Al2SiO7
_chemical_formula_sum   'Ca48 Al48 Si24 O168'
_cell_volume   3648.90752582
_cell_formula_units_Z   24
loop_
 _symmetry_equiv_pos_site_id
 _symmetry_equiv_pos_as_xyz
  1  'x, y, z'
loop_
 _atom_type_symbol
 _atom_type_oxidation_number
  Ca2+  2.0
  Al0+  0.0
  Si0+  0.0
  O2-  -2.0
loop_
 _atom_site_type_symbol
 _atom_site_label
 _atom_site_symmetry_multiplicity
 _atom_site_fract_x
 _atom_site_fract_y
 _atom_site_fract_z
 _atom_site_occupancy
  Ca2+  Ca0  1  0.17569903  0.09373185  0.17090168  1
  Ca2+  Ca1  1  0.17255596  0.09117831  0.49927939  1
  Ca2+  Ca2  1  0.17247673  0.08194781  0.84446795  1
  Ca2+  Ca3  1  0.17613643  0.59120323  0.17118308  1
  Ca2+  Ca4  1  0.17161753  0.59116080  0.49920414  1
  Ca2+  Ca5  1  0.17419595  0.58106051  0.84297621  1
  Ca2+  Ca6  1  0.65484081  0.07043887  0.16922759  1
  Ca2+  Ca7  1  0.66880005  0.07932268  0.50618442  1
  Ca2+  Ca8  1  0.66494705  0.08389007  0.83771671  1
  Ca2+  Ca9  1  0.65824386  0.57009286  0.17005603  1
  Ca2+  Ca10  1  0.67015377  0.57042517  0.50978591  1
  Ca2+  Ca11  1  0.66192488  0.57611804  0.83968409  1
  Ca2+  Ca12  1  0.07930238  0.32597603  0.16365758  1
  Ca2+  Ca13  1  0.06663413  0.33170254  0.49053794  1
  Ca2+  Ca14  1  0.07833954  0.32659513  0.82929782  1
  Ca2+  Ca15  1  0.08584194  0.82321476  0.16415157  1
  Ca2+  Ca16  1  0.07881936  0.82764651  0.49241958  1
  Ca2+  Ca17  1  0.08523928  0.82660375  0.83337193  1
  Ca2+  Ca18  1  0.58072641  0.33012071  0.15708508  1
  Ca2+  Ca19  1  0.59571949  0.32827718  0.49997095  1
  Ca2+  Ca20  1  0.58604328  0.32955896  0.83288218  1
  Ca2+  Ca21  1  0.58197795  0.83159529  0.16078858  1
  Ca2+  Ca22  1  0.57715076  0.83051988  0.49570088  1
  Ca2+  Ca23  1  0.58370345  0.82254422  0.82830451  1
  Ca2+  Ca24  1  0.34143548  0.42996645  0.16913191  1
  Ca2+  Ca25  1  0.33089607  0.42449211  0.49997168  1
  Ca2+  Ca26  1  0.33788046  0.42163481  0.84369904  1
  Ca2+  Ca27  1  0.33990164  0.93113393  0.17341761  1
  Ca2+  Ca28  1  0.33869224  0.91632270  0.49889198  1
  Ca2+  Ca29  1  0.33887271  0.92104237  0.83711805  1
  Ca2+  Ca30  1  0.82192448  0.41014366  0.17053247  1
  Ca2+  Ca31  1  0.82829755  0.41438648  0.50850344  1
  Ca2+  Ca32  1  0.82364378  0.41634310  0.83121649  1
  Ca2+  Ca33  1  0.81968635  0.91561019  0.16968104  1
  Ca2+  Ca34  1  0.82791567  0.92301599  0.50541322  1
  Ca2+  Ca35  1  0.82622796  0.92410824  0.83977136  1
  Ca2+  Ca36  1  0.41654420  0.17259697  0.15634127  1
  Ca2+  Ca37  1  0.42311170  0.16536891  0.49652069  1
  Ca2+  Ca38  1  0.42703696  0.16719080  0.83502365  1
  Ca2+  Ca39  1  0.41667483  0.67085613  0.16043884  1
  Ca2+  Ca40  1  0.42015514  0.67605373  0.49510221  1
  Ca2+  Ca41  1  0.42991360  0.66588035  0.82963690  1
  Ca2+  Ca42  1  0.92595422  0.16878019  0.16468640  1
  Ca2+  Ca43  1  0.91326598  0.17648628  0.49456112  1
  Ca2+  Ca44  1  0.91621266  0.17016008  0.82640655  1
  Ca2+  Ca45  1  0.92940444  0.66213113  0.16246326  1
  Ca2+  Ca46  1  0.92100247  0.65999230  0.49483799  1
  Ca2+  Ca47  1  0.91912316  0.66157265  0.83060622  1
  Al0+  Al48  1  -0.00043078  -0.00065930  -0.00235624  1
  Al0+  Al49  1  0.00000607  -0.00046723  0.32866709  1
  Al0+  Al50  1  0.00249398  -0.00216746  0.67110138  1
  Al0+  Al51  1  0.00007591  0.49985819  -0.00502134  1
  Al0+  Al52  1  -0.00050302  0.49920726  0.32169198  1
  Al0+  Al53  1  0.00049296  0.49791179  0.66656914  1
  Al0+  Al54  1  0.49915117  0.00124554  0.00429828  1
  Al0+  Al55  1  0.49888260  -0.00100950  0.34002413  1
  Al0+  Al56  1  0.49902006  0.00088318  0.65983584  1
  Al0+  Al57  1  0.49938654  0.50130814  0.00193622  1
  Al0+  Al58  1  0.50044698  0.49996162  0.34647264  1
  Al0+  Al59  1  0.49882621  0.49948966  0.66567382  1
  Al0+  Al60  1  0.24812318  0.25154368  -0.00529824  1
  Al0+  Al61  1  0.25118885  0.25231781  0.33737641  1
  Al0+  Al62  1  0.25176394  0.24949271  0.66770966  1
  Al0+  Al63  1  0.24859342  0.75098087  -0.00160014  1
  Al0+  Al64  1  0.25165481  0.75331397  0.33000113  1
  Al0+  Al65  1  0.25004462  0.75117696  0.66469730  1
  Al0+  Al66  1  0.75123836  0.24981369  0.00200156  1
  Al0+  Al67  1  0.74928087  0.24797997  0.33025297  1
  Al0+  Al68  1  0.75063419  0.24923265  0.66729340  1
  Al0+  Al69  1  0.75101346  0.75054381  0.00092271  1
  Al0+  Al70  1  0.74855769  0.74825698  0.33842373  1
  Al0+  Al71  1  0.75206617  0.74921706  0.66501226  1
  Al0+  Al72  1  0.07303800  0.17883892  0.31923763  1
  Al0+  Al73  1  0.68001328  0.42980439  0.01467023  1
  Al0+  Al74  1  0.42927651  0.81991232  0.65121596  1
  Al0+  Al75  1  0.57143143  0.17726800  0.98713302  1
  Al0+  Al76  1  0.82135442  0.07000876  0.67951074  1
  Al0+  Al77  1  0.57103167  0.67958090  0.98954350  1
  Al0+  Al78  1  0.07044720  0.17878640  0.98463896  1
  Al0+  Al79  1  0.31888830  0.07104297  0.01237972  1
  Al0+  Al80  1  0.42945718  0.32281866  0.98713638  1
  Al0+  Al81  1  0.32013818  0.57097294  0.01261477  1
  Al0+  Al82  1  0.67943652  0.92925715  0.01219833  1
  Al0+  Al83  1  0.57438581  0.67616670  0.64988923  1
  Al0+  Al84  1  0.31971228  0.57405092  0.34860482  1
  Al0+  Al85  1  0.31953835  0.07339303  0.34890574  1
  Al0+  Al86  1  0.93136997  0.31844359  0.65389775  1
  Al0+  Al87  1  0.67788679  0.42909604  0.68416987  1
  Al0+  Al88  1  0.67825896  0.92726805  0.34954374  1
  Al0+  Al89  1  0.68000464  0.42728120  0.34805806  1
  Al0+  Al90  1  0.57021460  0.18150974  0.65212414  1
  Al0+  Al91  1  0.92554172  0.32074888  0.31512895  1
  Al0+  Al92  1  0.82355936  0.57215538  0.68176841  1
  Al0+  Al93  1  0.07174697  0.67937703  0.98402445  1
  Al0+  Al94  1  0.07026073  0.68067555  0.31975446  1
  Al0+  Al95  1  0.43160327  0.82109999  0.31677377  1
  Si0+  Si96  1  0.17677472  0.42962269  0.34888519  1
  Si0+  Si97  1  0.42984229  0.32317274  0.32152040  1
  Si0+  Si98  1  0.42478354  0.32284645  0.64768517  1
  Si0+  Si99  1  0.82296663  0.06960551  0.34842621  1
  Si0+  Si100  1  0.82402100  0.07239100  0.01824679  1
  Si0+  Si101  1  0.56916922  0.17886704  0.31931705  1
  Si0+  Si102  1  0.82430670  0.57034901  0.34723148  1
  Si0+  Si103  1  0.17573879  0.42829453  0.01629465  1
  Si0+  Si104  1  0.17931545  0.42853391  0.68067012  1
  Si0+  Si105  1  0.92689239  0.32172551  0.98043918  1
  Si0+  Si106  1  0.92430704  0.82277094  0.31688769  1
  Si0+  Si107  1  0.92737071  0.82113551  0.98204710  1
  Si0+  Si108  1  0.17725162  0.92862859  0.34925930  1
  Si0+  Si109  1  0.92985630  0.82329491  0.65261801  1
  Si0+  Si110  1  0.07420424  0.17504652  0.65048615  1
  Si0+  Si111  1  0.32174237  0.07120103  0.68272883  1
  Si0+  Si112  1  0.42834357  0.82356302  0.98517236  1
  Si0+  Si113  1  0.82360188  0.57259232  0.01765131  1
  Si0+  Si114  1  0.17975771  0.92760068  0.68264920  1
  Si0+  Si115  1  0.67654918  0.92875897  0.68275540  1
  Si0+  Si116  1  0.31838512  0.57223080  0.68163706  1
  Si0+  Si117  1  0.17602573  0.92798912  0.01771429  1
  Si0+  Si118  1  0.57155210  0.67619199  0.31775363  1
  Si0+  Si119  1  0.06995760  0.67930248  0.65215831  1
  O2-  O120  1  0.24314140  -0.00200923  0.06111305  1
  O2-  O121  1  0.24112866  0.00120196  0.39471902  1
  O2-  O122  1  0.24943000  0.00050278  0.72361148  1
  O2-  O123  1  0.24444536  0.49710310  0.06015940  1
  O2-  O124  1  0.24188280  0.50138636  0.39468879  1
  O2-  O125  1  0.25213644  0.49694527  0.72413926  1
  O2-  O126  1  0.75145394  0.00673128  0.06065764  1
  O2-  O127  1  0.75602314  -0.00004662  0.39388985  1
  O2-  O128  1  0.74624365  -0.00379456  0.72733749  1
  O2-  O129  1  0.75461192  0.50487680  0.06231737  1
  O2-  O130  1  0.75697011  0.50121676  0.39186625  1
  O2-  O131  1  0.74573795  0.50677689  0.73227004  1
  O2-  O132  1  0.00022718  0.24933317  0.26842751  1
  O2-  O133  1  0.00460714  0.24202317  0.60669612  1
  O2-  O134  1  -0.00532004  0.25128999  0.93695624  1
  O2-  O135  1  -0.00700474  0.75349591  0.27348923  1
  O2-  O136  1  -0.00443479  0.74695247  0.61029220  1
  O2-  O137  1  -0.00396181  0.75248638  0.93676641  1
  O2-  O138  1  0.49997540  0.25203782  0.27856977  1
  O2-  O139  1  0.49707529  0.25777363  0.60412734  1
  O2-  O140  1  0.50165989  0.25126570  0.93664666  1
  O2-  O141  1  0.50559508  0.74590192  0.27087060  1
  O2-  O142  1  0.50283093  0.74957319  0.60102650  1
  O2-  O143  1  0.49682827  0.75472443  0.94176912  1
  O2-  O144  1  0.07044943  0.18074719  0.09748478  1
  O2-  O145  1  0.07159466  0.18118188  0.43321369  1
  O2-  O146  1  0.07545659  0.17622853  0.75610994  1
  O2-  O147  1  0.07181746  0.68172540  0.09698508  1
  O2-  O148  1  0.06878183  0.68244622  0.43367247  1
  O2-  O149  1  0.07272235  0.68177747  0.75704577  1
  O2-  O150  1  0.56737765  0.17619810  0.10111617  1
  O2-  O151  1  0.56998705  0.17991858  0.42467478  1
  O2-  O152  1  0.56741685  0.17843578  0.76480663  1
  O2-  O153  1  0.56877755  0.67966333  0.10265682  1
  O2-  O154  1  0.56977344  0.67758853  0.42312110  1
  O2-  O155  1  0.57128328  0.67721022  0.76398847  1
  O2-  O156  1  0.17982236  0.42818883  0.24359038  1
  O2-  O157  1  0.17896711  0.43034681  0.57562168  1
  O2-  O158  1  0.17539805  0.43063888  0.90997705  1
  O2-  O159  1  0.17936892  0.92656548  0.24401160  1
  O2-  O160  1  0.17677630  0.92531878  0.57789988  1
  O2-  O161  1  0.17667554  0.92750377  0.91150710  1
  O2-  O162  1  0.67693468  0.42797391  0.23484893  1
  O2-  O163  1  0.68346287  0.42738624  0.57039625  1
  O2-  O164  1  0.68073547  0.42982803  0.90207522  1
  O2-  O165  1  0.67835664  0.92844297  0.23621519  1
  O2-  O166  1  0.67871850  0.93098703  0.57701602  1
  O2-  O167  1  0.68182508  0.92817699  0.89907384  1
  O2-  O168  1  0.43060055  0.32325435  0.10136039  1
  O2-  O169  1  0.42897073  0.32164467  0.42672506  1
  O2-  O170  1  0.41917300  0.32050071  0.75282448  1
  O2-  O171  1  0.42907814  0.82371334  0.09072063  1
  O2-  O172  1  0.43172930  0.81959152  0.42974990  1
  O2-  O173  1  0.42748980  0.81890845  0.76503924  1
  O2-  O174  1  0.92811838  0.32153891  0.08592803  1
  O2-  O175  1  0.92612035  0.32020824  0.42909371  1
  O2-  O176  1  0.93489091  0.31756637  0.76683789  1
  O2-  O177  1  0.92787292  0.82053131  0.08766953  1
  O2-  O178  1  0.92665537  0.82377620  0.42290602  1
  O2-  O179  1  0.93422812  0.82658113  0.75735345  1
  O2-  O180  1  0.32075267  0.07406238  0.23592649  1
  O2-  O181  1  0.31947529  0.07295344  0.57772260  1
  O2-  O182  1  0.31896774  0.06703155  0.89878024  1
  O2-  O183  1  0.32083920  0.57244417  0.23559922  1
  O2-  O184  1  0.31361959  0.57379964  0.57645642  1
  O2-  O185  1  0.31867586  0.57039411  0.89895935  1
  O2-  O186  1  0.82282149  0.06811755  0.24293303  1
  O2-  O187  1  0.82193105  0.06716095  0.56620661  1
  O2-  O188  1  0.82631128  0.06968195  0.91242775  1
  O2-  O189  1  0.82351638  0.57197460  0.24182458  1
  O2-  O190  1  0.82881697  0.56740170  0.56811501  1
  O2-  O191  1  0.82406074  0.57185017  0.91218025  1
  O2-  O192  1  0.04859594  0.07928476  0.26595964  1
  O2-  O193  1  0.05208677  0.07952141  0.60721909  1
  O2-  O194  1  0.04307685  0.08033453  0.93168919  1
  O2-  O195  1  0.04420399  0.58497040  0.26211598  1
  O2-  O196  1  0.04622660  0.58654973  0.60526757  1
  O2-  O197  1  0.04320791  0.58232577  0.92952336  1
  O2-  O198  1  0.53774509  0.08733926  0.27486088  1
  O2-  O199  1  0.53737430  0.08646388  0.59562854  1
  O2-  O200  1  0.53954984  0.08009220  0.93307599  1
  O2-  O201  1  0.54220670  0.58169479  0.27582746  1
  O2-  O202  1  0.54346660  0.57795112  0.59782324  1
  O2-  O203  1  0.53704709  0.58535281  0.93402441  1
  O2-  O204  1  0.17168090  0.21102246  0.26834270  1
  O2-  O205  1  0.16803299  0.20266935  0.60567420  1
  O2-  O206  1  0.16497889  0.21064761  0.92727667  1
  O2-  O207  1  0.16514896  0.71555896  0.26565016  1
  O2-  O208  1  0.15963131  0.71226861  0.60347375  1
  O2-  O209  1  0.16691395  0.71290750  0.92776871  1
  O2-  O210  1  0.66111133  0.20237559  0.27102422  1
  O2-  O211  1  0.66725295  0.20988337  0.59780263  1
  O2-  O212  1  0.67205389  0.20173545  0.93726693  1
  O2-  O213  1  0.66721203  0.69840876  0.27434902  1
  O2-  O214  1  0.67436718  0.70151075  0.59815637  1
  O2-  O215  1  0.66828374  0.70862514  0.93580126  1
  O2-  O216  1  0.08175040  0.45396777  0.06144659  1
  O2-  O217  1  0.08095001  0.45393250  0.39123531  1
  O2-  O218  1  0.08948279  0.45793323  0.73020418  1
  O2-  O219  1  0.08100068  0.95016940  0.06225127  1
  O2-  O220  1  0.08077529  0.94809218  0.39362006  1
  O2-  O221  1  0.08899231  0.95294264  0.73382140  1
  O2-  O222  1  0.58398932  0.46210333  0.06899040  1
  O2-  O223  1  0.58592985  0.45742226  0.40717222  1
  O2-  O224  1  0.57570166  0.45124080  0.73302986  1
  O2-  O225  1  0.58342981  0.95879393  0.06846476  1
  O2-  O226  1  0.58464734  0.96241397  0.40555025  1
  O2-  O227  1  0.58255763  0.95621667  0.72630893  1
  O2-  O228  1  0.19985623  0.33417561  0.06042429  1
  O2-  O229  1  0.20564165  0.33904389  0.39945169  1
  O2-  O230  1  0.20482472  0.33542659  0.72776921  1
  O2-  O231  1  0.20209326  0.83441411  0.06296618  1
  O2-  O232  1  0.20781176  0.83759049  0.39808341  1
  O2-  O233  1  0.20980384  0.83665666  0.73169937  1
  O2-  O234  1  0.71030815  0.33245411  0.06876222  1
  O2-  O235  1  0.71046205  0.32909722  0.39945934  1
  O2-  O236  1  0.71189599  0.33200821  0.73591533  1
  O2-  O237  1  0.71316926  0.83414031  0.06862803  1
  O2-  O238  1  0.70648419  0.83013575  0.40446558  1
  O2-  O239  1  0.70194362  0.83402089  0.72608951  1
  O2-  O240  1  0.45885447  0.41599892  0.27712148  1
  O2-  O241  1  0.44432608  0.41846690  0.60387984  1
  O2-  O242  1  0.45818735  0.42032653  0.93312082  1
  O2-  O243  1  0.46346581  0.91913232  0.26620653  1
  O2-  O244  1  0.45401823  0.91866781  0.59726998  1
  O2-  O245  1  0.45462534  0.91654657  0.93912924  1
  O2-  O246  1  0.95218750  0.41798052  0.25947625  1
  O2-  O247  1  0.96537278  0.41398736  0.59860722  1
  O2-  O248  1  0.95378723  0.41473942  0.93398712  1
  O2-  O249  1  0.94903803  0.91541963  0.26869597  1
  O2-  O250  1  0.96479767  0.91196873  0.60239898  1
  O2-  O251  1  0.95362128  0.91432999  0.93508192  1
  O2-  O252  1  0.33758240  0.29740795  0.27477285  1
  O2-  O253  1  0.33258982  0.29272271  0.59926135  1
  O2-  O254  1  0.33097193  0.29731619  0.93260891  1
  O2-  O255  1  0.33457201  0.79331335  0.26307374  1
  O2-  O256  1  0.33068258  0.78986351  0.59723223  1
  O2-  O257  1  0.33389060  0.80035003  0.93965441  1
  O2-  O258  1  0.82915869  0.28746363  0.26062746  1
  O2-  O259  1  0.83549692  0.28741085  0.59993455  1
  O2-  O260  1  0.83354332  0.29572446  0.93512185  1
  O2-  O261  1  0.83021895  0.79657228  0.27222366  1
  O2-  O262  1  0.83667422  0.80317994  0.60523998  1
  O2-  O263  1  0.83487082  0.79552094  0.93433921  1
  O2-  O264  1  0.41392644  0.04058434  0.06931977  1
  O2-  O265  1  0.41339844  0.03797149  0.40523408  1
  O2-  O266  1  0.41326386  0.04090266  0.72857066  1
  O2-  O267  1  0.41477438  0.54015362  0.06966916  1
  O2-  O268  1  0.41278188  0.54013184  0.40738685  1
  O2-  O269  1  0.41187169  0.54802061  0.72641824  1
  O2-  O270  1  0.91625369  0.04138179  0.06498855  1
  O2-  O271  1  0.91757685  0.04628436  0.39448566  1
  O2-  O272  1  0.91826495  0.03861209  0.73423285  1
  O2-  O273  1  0.91822261  0.54526077  0.06183564  1
  O2-  O274  1  0.91975473  0.54616863  0.39089126  1
  O2-  O275  1  0.92110321  0.53900862  0.73589551  1
  O2-  O276  1  0.28812794  0.16928925  0.06334145  1
  O2-  O277  1  0.29139854  0.16996879  0.40582940  1
  O2-  O278  1  0.29522512  0.16338598  0.73046560  1
  O2-  O279  1  0.28843932  0.66843308  0.06506231  1
  O2-  O280  1  0.28700088  0.67067269  0.40168524  1
  O2-  O281  1  0.28551371  0.66237248  0.72913699  1
  O2-  O282  1  0.80431783  0.16720124  0.06297438  1
  O2-  O283  1  0.79379180  0.16240640  0.39369959  1
  O2-  O284  1  0.79124357  0.16533094  0.73469129  1
  O2-  O285  1  0.80227181  0.66730019  0.06271141  1
  O2-  O286  1  0.80137722  0.66407479  0.39526709  1
  O2-  O287  1  0.80594516  0.67497168  0.73122173  1
