# generated using pymatgen
data_Ca2Al2SiO7
_symmetry_space_group_name_H-M   'P 1'
_cell_length_a   15.45954082
_cell_length_b   15.45929917
_cell_length_c   15.28450997
_cell_angle_alpha   89.99118171
_cell_angle_beta   89.99828096
_cell_angle_gamma   89.98794112
_symmetry_Int_Tables_number   1
_chemical_formula_structural   Ca2Al2SiO7
_chemical_formula_sum   'Ca48 Al48 Si24 O168'
_cell_volume   3652.90095249
_cell_formula_units_Z   24
loop_
 _symmetry_equiv_pos_site_id
 _symmetry_equiv_pos_as_xyz
  1  'x, y, z'
loop_
 _atom_type_symbol
 _atom_type_oxidation_number
  Ca2+  2.0
  Al0+  0.0
  Si0+  0.0
  O2-  -2.0
loop_
 _atom_site_type_symbol
 _atom_site_label
 _atom_site_symmetry_multiplicity
 _atom_site_fract_x
 _atom_site_fract_y
 _atom_site_fract_z
 _atom_site_occupancy
  Ca2+  Ca0  1  0.17354326  0.07762237  0.16972971  1
  Ca2+  Ca1  1  0.16036625  0.07879180  0.50553611  1
  Ca2+  Ca2  1  0.16911907  0.08670672  0.83733215  1
  Ca2+  Ca3  1  0.17757896  0.58349513  0.17419573  1
  Ca2+  Ca4  1  0.16741219  0.57296423  0.50850747  1
  Ca2+  Ca5  1  0.16423704  0.58001663  0.83645773  1
  Ca2+  Ca6  1  0.67384780  0.07369366  0.17484336  1
  Ca2+  Ca7  1  0.67192530  0.08663687  0.50565923  1
  Ca2+  Ca8  1  0.67657619  0.08161755  0.84043816  1
  Ca2+  Ca9  1  0.66401021  0.58346760  0.16746756  1
  Ca2+  Ca10  1  0.67213757  0.58298315  0.51095647  1
  Ca2+  Ca11  1  0.66941039  0.59115351  0.83489129  1
  Ca2+  Ca12  1  0.08532191  0.33464887  0.16651720  1
  Ca2+  Ca13  1  0.08339306  0.33410953  0.50305101  1
  Ca2+  Ca14  1  0.07932970  0.32714829  0.82073063  1
  Ca2+  Ca15  1  0.08034047  0.83150469  0.15778090  1
  Ca2+  Ca16  1  0.07783744  0.83371150  0.49831426  1
  Ca2+  Ca17  1  0.07433009  0.82388292  0.82759395  1
  Ca2+  Ca18  1  0.57748275  0.32477493  0.16115670  1
  Ca2+  Ca19  1  0.58390310  0.32183449  0.49996421  1
  Ca2+  Ca20  1  0.56902677  0.32860268  0.82529171  1
  Ca2+  Ca21  1  0.58896273  0.83079283  0.16100728  1
  Ca2+  Ca22  1  0.58707853  0.82969609  0.49808394  1
  Ca2+  Ca23  1  0.58954612  0.82609420  0.83203308  1
  Ca2+  Ca24  1  0.33351175  0.42657000  0.16959032  1
  Ca2+  Ca25  1  0.32544946  0.41555483  0.50463620  1
  Ca2+  Ca26  1  0.33020427  0.41438150  0.83891911  1
  Ca2+  Ca27  1  0.32891002  0.92007593  0.17053037  1
  Ca2+  Ca28  1  0.32573518  0.91550781  0.50064556  1
  Ca2+  Ca29  1  0.33249159  0.92582584  0.83908440  1
  Ca2+  Ca30  1  0.83104638  0.41998994  0.17033161  1
  Ca2+  Ca31  1  0.83487885  0.42163823  0.51178982  1
  Ca2+  Ca32  1  0.83756564  0.42126946  0.82954852  1
  Ca2+  Ca33  1  0.82716023  0.92129053  0.16861989  1
  Ca2+  Ca34  1  0.83023723  0.92605697  0.50645129  1
  Ca2+  Ca35  1  0.83610846  0.92289571  0.83899668  1
  Ca2+  Ca36  1  0.41938138  0.16943420  0.15911343  1
  Ca2+  Ca37  1  0.42754410  0.17009892  0.49775465  1
  Ca2+  Ca38  1  0.41686989  0.17503340  0.82480983  1
  Ca2+  Ca39  1  0.41793344  0.66413007  0.15840669  1
  Ca2+  Ca40  1  0.41995850  0.66249087  0.49848128  1
  Ca2+  Ca41  1  0.42718449  0.66003607  0.83235584  1
  Ca2+  Ca42  1  0.91363815  0.16113440  0.16519113  1
  Ca2+  Ca43  1  0.91381919  0.16640365  0.50123603  1
  Ca2+  Ca44  1  0.91806989  0.16756489  0.82230025  1
  Ca2+  Ca45  1  0.92715118  0.67676000  0.15305772  1
  Ca2+  Ca46  1  0.91901287  0.66800863  0.50386354  1
  Ca2+  Ca47  1  0.92067323  0.67764639  0.82421760  1
  Al0+  Al48  1  0.00034064  0.00116320  0.00043590  1
  Al0+  Al49  1  -0.00057297  0.00120053  0.33786344  1
  Al0+  Al50  1  -0.00156329  -0.00152173  0.66521982  1
  Al0+  Al51  1  -0.00009495  0.49781059  -0.00131201  1
  Al0+  Al52  1  0.00131096  0.50015734  0.33303895  1
  Al0+  Al53  1  0.00039855  0.50017313  0.66975901  1
  Al0+  Al54  1  0.50148915  -0.00053547  0.00749470  1
  Al0+  Al55  1  0.50096512  -0.00251473  0.33167649  1
  Al0+  Al56  1  0.49870785  -0.00157197  0.66366640  1
  Al0+  Al57  1  0.49872701  0.49848154  -0.00339929  1
  Al0+  Al58  1  0.50105815  0.49935956  0.33685200  1
  Al0+  Al59  1  0.49893031  0.50021043  0.65783714  1
  Al0+  Al60  1  0.24895037  0.25068501  0.00278542  1
  Al0+  Al61  1  0.24963517  0.25138086  0.33403634  1
  Al0+  Al62  1  0.24882051  0.25019525  0.66181727  1
  Al0+  Al63  1  0.25176987  0.74876459  -0.00180012  1
  Al0+  Al64  1  0.25212424  0.75060526  0.34066624  1
  Al0+  Al65  1  0.25023634  0.74891797  0.66566061  1
  Al0+  Al66  1  0.74984514  0.25112885  0.00406527  1
  Al0+  Al67  1  0.75008137  0.25090797  0.32990232  1
  Al0+  Al68  1  0.74919847  0.25076264  0.66639571  1
  Al0+  Al69  1  0.75145408  0.75037641  -0.00276330  1
  Al0+  Al70  1  0.75099637  0.75160110  0.33416672  1
  Al0+  Al71  1  0.74958094  0.75011858  0.66217294  1
  Al0+  Al72  1  0.81948941  0.07127834  0.68176277  1
  Al0+  Al73  1  0.68017646  0.92669202  0.01468509  1
  Al0+  Al74  1  0.32117813  0.56964410  0.01144426  1
  Al0+  Al75  1  0.56998674  0.68057472  0.65225497  1
  Al0+  Al76  1  0.57089834  0.17727451  0.65419048  1
  Al0+  Al77  1  0.17772645  0.42907448  0.34996136  1
  Al0+  Al78  1  0.32114727  0.07316439  0.01213161  1
  Al0+  Al79  1  0.17944383  0.93046044  0.34649131  1
  Al0+  Al80  1  0.81932634  0.07236493  0.35100327  1
  Al0+  Al81  1  0.42889174  0.31857632  0.98767064  1
  Al0+  Al82  1  0.82263167  0.07335088  0.01588326  1
  Al0+  Al83  1  0.57158870  0.17792059  0.31672996  1
  Al0+  Al84  1  0.07209329  0.67822824  0.65010957  1
  Al0+  Al85  1  0.92834401  0.82132929  0.64894347  1
  Al0+  Al86  1  0.07059035  0.17769050  0.65180761  1
  Al0+  Al87  1  0.32322783  0.57117312  0.35058042  1
  Al0+  Al88  1  0.18074441  0.42881371  0.68275429  1
  Al0+  Al89  1  0.07469954  0.67694931  0.98573340  1
  Al0+  Al90  1  0.81980599  0.57163642  0.68120355  1
  Al0+  Al91  1  0.67798995  0.92713073  0.35113857  1
  Al0+  Al92  1  0.93021766  0.82238171  0.98518337  1
  Al0+  Al93  1  0.56988110  0.67942156  0.98799150  1
  Al0+  Al94  1  0.42665025  0.32172795  0.64931366  1
  Al0+  Al95  1  0.92873450  0.32117606  0.65275377  1
  Si0+  Si96  1  0.07155211  0.67949792  0.31895094  1
  Si0+  Si97  1  0.17964611  0.92837304  0.01383044  1
  Si0+  Si98  1  0.82179342  0.57039608  0.01450720  1
  Si0+  Si99  1  0.67796673  0.43026038  0.01437276  1
  Si0+  Si100  1  0.17628735  0.42770533  0.01734692  1
  Si0+  Si101  1  0.32035669  0.06946867  0.67928744  1
  Si0+  Si102  1  0.07103590  0.17781663  0.31681469  1
  Si0+  Si103  1  0.82114550  0.57114814  0.34575439  1
  Si0+  Si104  1  0.32338630  0.57258734  0.68532921  1
  Si0+  Si105  1  0.57172426  0.67869246  0.31819634  1
  Si0+  Si106  1  0.92588970  0.32184678  0.98562152  1
  Si0+  Si107  1  0.42811441  0.32162198  0.31486369  1
  Si0+  Si108  1  0.92964496  0.32264504  0.31701940  1
  Si0+  Si109  1  0.68007097  0.42967787  0.34762819  1
  Si0+  Si110  1  0.67596595  0.42848038  0.68371213  1
  Si0+  Si111  1  0.07001913  0.18107532  0.98812448  1
  Si0+  Si112  1  0.32282851  0.07264755  0.34992825  1
  Si0+  Si113  1  0.93021937  0.82200726  0.31722009  1
  Si0+  Si114  1  0.67595089  0.92793043  0.68370007  1
  Si0+  Si115  1  0.17797737  0.92742231  0.68289971  1
  Si0+  Si116  1  0.42734718  0.82483327  0.98434862  1
  Si0+  Si117  1  0.42650903  0.82332674  0.64903101  1
  Si0+  Si118  1  0.42745105  0.81941761  0.31732606  1
  Si0+  Si119  1  0.57266820  0.17661848  0.98483703  1
  O2-  O120  1  0.25002129  -0.00501847  0.05903525  1
  O2-  O121  1  0.25186782  0.00678814  0.39474929  1
  O2-  O122  1  0.24835922  0.00005577  0.72342630  1
  O2-  O123  1  0.24178701  0.50043343  0.05948560  1
  O2-  O124  1  0.25067512  0.49984313  0.39960700  1
  O2-  O125  1  0.25544499  0.50354570  0.72974594  1
  O2-  O126  1  0.75020522  0.00107186  0.06422586  1
  O2-  O127  1  0.74551143  0.00261720  0.40110985  1
  O2-  O128  1  0.74343312  -0.00239462  0.72770735  1
  O2-  O129  1  0.75003127  0.50048727  0.05795344  1
  O2-  O130  1  0.74989090  0.50151384  0.38909547  1
  O2-  O131  1  0.74358093  0.49809278  0.72865126  1
  O2-  O132  1  0.00040368  0.25042983  0.27510182  1
  O2-  O133  1  -0.00200467  0.24825037  0.60034926  1
  O2-  O134  1  -0.00465052  0.24827438  0.94673839  1
  O2-  O135  1  0.00225708  0.75143721  0.27510849  1
  O2-  O136  1  0.00145686  0.75039858  0.59821962  1
  O2-  O137  1  0.00152812  0.74841284  0.93736800  1
  O2-  O138  1  0.49388357  0.25028422  0.26996547  1
  O2-  O139  1  0.50065992  0.25020435  0.60231625  1
  O2-  O140  1  0.49995503  0.24070172  0.94071175  1
  O2-  O141  1  0.49957322  0.74839580  0.27594535  1
  O2-  O142  1  0.49479519  0.75404942  0.60506039  1
  O2-  O143  1  0.49704745  0.75638242  0.94156565  1
  O2-  O144  1  0.07190811  0.18266291  0.09361812  1
  O2-  O145  1  0.07110374  0.17665372  0.42104916  1
  O2-  O146  1  0.07191840  0.17889654  0.76615062  1
  O2-  O147  1  0.07311060  0.67852119  0.10055250  1
  O2-  O148  1  0.06782189  0.67820322  0.42335793  1
  O2-  O149  1  0.07176752  0.68084477  0.76362422  1
  O2-  O150  1  0.57251400  0.18095304  0.09065295  1
  O2-  O151  1  0.57142150  0.18192214  0.42951264  1
  O2-  O152  1  0.56744857  0.17697154  0.76806483  1
  O2-  O153  1  0.56814365  0.67744733  0.10162714  1
  O2-  O154  1  0.57259559  0.67914392  0.42289813  1
  O2-  O155  1  0.56929815  0.68146441  0.76550020  1
  O2-  O156  1  0.17587570  0.43222508  0.23589066  1
  O2-  O157  1  0.18170703  0.42945221  0.56986792  1
  O2-  O158  1  0.17654114  0.42379063  0.91228762  1
  O2-  O159  1  0.18127647  0.93081303  0.23291754  1
  O2-  O160  1  0.17995041  0.92754630  0.57754959  1
  O2-  O161  1  0.17987729  0.93091472  0.90832360  1
  O2-  O162  1  0.67996568  0.43153002  0.24183831  1
  O2-  O163  1  0.67802468  0.42990742  0.57755931  1
  O2-  O164  1  0.67851100  0.42940392  0.90995134  1
  O2-  O165  1  0.68233046  0.92331539  0.23782433  1
  O2-  O166  1  0.67590889  0.92872502  0.57816236  1
  O2-  O167  1  0.67979479  0.92747816  0.90123284  1
  O2-  O168  1  0.43192847  0.31926954  0.10101093  1
  O2-  O169  1  0.42984093  0.32099253  0.41991648  1
  O2-  O170  1  0.42686253  0.31948789  0.76352429  1
  O2-  O171  1  0.42450593  0.82316923  0.09010080  1
  O2-  O172  1  0.42613447  0.81925672  0.42222888  1
  O2-  O173  1  0.42594651  0.82684722  0.75454548  1
  O2-  O174  1  0.92661140  0.32578062  0.09115355  1
  O2-  O175  1  0.92824931  0.32587737  0.42104846  1
  O2-  O176  1  0.93045654  0.31941332  0.76692933  1
  O2-  O177  1  0.93249612  0.82037835  0.09984480  1
  O2-  O178  1  0.93008963  0.82015867  0.42173099  1
  O2-  O179  1  0.93045274  0.82158142  0.76250622  1
  O2-  O180  1  0.32052243  0.07116489  0.24383392  1
  O2-  O181  1  0.32100651  0.06581320  0.57423595  1
  O2-  O182  1  0.31743363  0.07350559  0.89880165  1
  O2-  O183  1  0.32353545  0.57100410  0.23632809  1
  O2-  O184  1  0.32199307  0.57284422  0.57978049  1
  O2-  O185  1  0.32464918  0.56509762  0.89914662  1
  O2-  O186  1  0.82041128  0.06979181  0.23728225  1
  O2-  O187  1  0.81825135  0.07090513  0.56902067  1
  O2-  O188  1  0.82202479  0.07633598  0.90267024  1
  O2-  O189  1  0.82025306  0.56925322  0.24001636  1
  O2-  O190  1  0.81732299  0.56958944  0.56723083  1
  O2-  O191  1  0.82192174  0.56882002  0.90999764  1
  O2-  O192  1  0.04192831  0.08641514  0.26839417  1
  O2-  O193  1  0.04404288  0.07907054  0.59973674  1
  O2-  O194  1  0.04833013  0.08806989  0.94096036  1
  O2-  O195  1  0.04265819  0.58831769  0.27010612  1
  O2-  O196  1  0.04082219  0.58053300  0.59895850  1
  O2-  O197  1  0.04647384  0.57729366  0.93600621  1
  O2-  O198  1  0.54314380  0.07953230  0.26483059  1
  O2-  O199  1  0.54086857  0.08014433  0.59918296  1
  O2-  O200  1  0.55241666  0.08060900  0.94324388  1
  O2-  O201  1  0.54609064  0.58509582  0.27213210  1
  O2-  O202  1  0.54241015  0.58458992  0.59544333  1
  O2-  O203  1  0.53804095  0.58414628  0.93259140  1
  O2-  O204  1  0.16370617  0.20511423  0.26916436  1
  O2-  O205  1  0.16773805  0.20493943  0.59664250  1
  O2-  O206  1  0.16013974  0.21179415  0.93951399  1
  O2-  O207  1  0.16532082  0.70758465  0.27555777  1
  O2-  O208  1  0.17146578  0.70523873  0.59837568  1
  O2-  O209  1  0.17275579  0.70354143  0.93200706  1
  O2-  O210  1  0.66661107  0.21392099  0.26180018  1
  O2-  O211  1  0.66760926  0.20818639  0.60013207  1
  O2-  O212  1  0.66518247  0.20807296  0.94019463  1
  O2-  O213  1  0.66408791  0.70647808  0.27060216  1
  O2-  O214  1  0.66517482  0.71042519  0.59580524  1
  O2-  O215  1  0.66714785  0.70686115  0.93424918  1
  O2-  O216  1  0.08100927  0.44854390  0.06328491  1
  O2-  O217  1  0.07900059  0.45830441  0.40178953  1
  O2-  O218  1  0.08411819  0.45862845  0.73710097  1
  O2-  O219  1  0.08779847  0.95678960  0.06190781  1
  O2-  O220  1  0.08392474  0.96041822  0.40166045  1
  O2-  O221  1  0.08659370  0.95488101  0.73002300  1
  O2-  O222  1  0.58786466  0.46040649  0.06377273  1
  O2-  O223  1  0.58906453  0.45557603  0.39638063  1
  O2-  O224  1  0.58099007  0.45471338  0.72632908  1
  O2-  O225  1  0.58107913  0.94994882  0.06968020  1
  O2-  O226  1  0.57621142  0.94812593  0.39975401  1
  O2-  O227  1  0.58048993  0.94995423  0.72824224  1
  O2-  O228  1  0.20581168  0.33653932  0.06662615  1
  O2-  O229  1  0.20318358  0.32889035  0.40029796  1
  O2-  O230  1  0.21042352  0.33024172  0.73467473  1
  O2-  O231  1  0.20370667  0.83435932  0.05986678  1
  O2-  O232  1  0.21205898  0.83628971  0.40333424  1
  O2-  O233  1  0.20827586  0.83636555  0.73026955  1
  O2-  O234  1  0.70623423  0.33978303  0.06519141  1
  O2-  O235  1  0.70990682  0.33882745  0.39398155  1
  O2-  O236  1  0.70165742  0.33589297  0.73104757  1
  O2-  O237  1  0.71025351  0.82825450  0.06869024  1
  O2-  O238  1  0.70967903  0.82909978  0.40385525  1
  O2-  O239  1  0.70309327  0.83392146  0.72720429  1
  O2-  O240  1  0.45914232  0.41506989  0.27027166  1
  O2-  O241  1  0.45328839  0.41918899  0.59474588  1
  O2-  O242  1  0.46350902  0.41218228  0.93167191  1
  O2-  O243  1  0.45288198  0.91143145  0.26886041  1
  O2-  O244  1  0.45166278  0.91523911  0.59936638  1
  O2-  O245  1  0.45212314  0.91937130  0.93938897  1
  O2-  O246  1  0.95889227  0.41376954  0.26658667  1
  O2-  O247  1  0.95808366  0.41920916  0.60064969  1
  O2-  O248  1  0.95452672  0.41240369  0.93672169  1
  O2-  O249  1  0.95880285  0.91436216  0.27143753  1
  O2-  O250  1  0.95835989  0.91839173  0.59539366  1
  O2-  O251  1  0.95923950  0.92092019  0.93312671  1
  O2-  O252  1  0.33285853  0.29964383  0.26975290  1
  O2-  O253  1  0.33103038  0.28989365  0.59475118  1
  O2-  O254  1  0.33086931  0.29006048  0.93552187  1
  O2-  O255  1  0.33568930  0.79111268  0.26904482  1
  O2-  O256  1  0.33350658  0.79692383  0.60229138  1
  O2-  O257  1  0.33460835  0.80030376  0.93634241  1
  O2-  O258  1  0.83802860  0.29675079  0.26726996  1
  O2-  O259  1  0.82899946  0.29796507  0.60064488  1
  O2-  O260  1  0.83290015  0.29789116  0.93935554  1
  O2-  O261  1  0.83882594  0.79150050  0.26999851  1
  O2-  O262  1  0.83124537  0.79131425  0.59527134  1
  O2-  O263  1  0.83300980  0.79306918  0.93216138  1
  O2-  O264  1  0.41750158  0.04641430  0.06807105  1
  O2-  O265  1  0.41518776  0.04303392  0.39487317  1
  O2-  O266  1  0.41112028  0.03970348  0.72829065  1
  O2-  O267  1  0.41613806  0.53408384  0.06745435  1
  O2-  O268  1  0.42210193  0.54289208  0.40303907  1
  O2-  O269  1  0.41892183  0.54682059  0.72719351  1
  O2-  O270  1  0.92197233  0.04570626  0.06864016  1
  O2-  O271  1  0.91800960  0.04421532  0.40210206  1
  O2-  O272  1  0.91709959  0.03950108  0.73402923  1
  O2-  O273  1  0.91273898  0.53990328  0.06361480  1
  O2-  O274  1  0.91243228  0.54247926  0.39225128  1
  O2-  O275  1  0.91492092  0.53988148  0.73665360  1
  O2-  O276  1  0.28550953  0.16643831  0.07024619  1
  O2-  O277  1  0.30057963  0.16753154  0.39332877  1
  O2-  O278  1  0.29307572  0.16171571  0.72522541  1
  O2-  O279  1  0.29669143  0.66862255  0.06539487  1
  O2-  O280  1  0.29850589  0.66978624  0.40338427  1
  O2-  O281  1  0.29995236  0.66750307  0.73026095  1
  O2-  O282  1  0.79544386  0.17245823  0.07005231  1
  O2-  O283  1  0.79369405  0.17362260  0.39899303  1
  O2-  O284  1  0.79109276  0.16938984  0.73470800  1
  O2-  O285  1  0.79508479  0.66198418  0.06227582  1
  O2-  O286  1  0.79435846  0.66266664  0.39276594  1
  O2-  O287  1  0.78710161  0.66842834  0.73370367  1
