# generated using pymatgen
data_Ca2Al2SiO7
_symmetry_space_group_name_H-M   'P 1'
_cell_length_a   15.46412695
_cell_length_b   15.46370553
_cell_length_c   15.28817079
_cell_angle_alpha   90.00870177
_cell_angle_beta   90.00935018
_cell_angle_gamma   90.00757197
_symmetry_Int_Tables_number   1
_chemical_formula_structural   Ca2Al2SiO7
_chemical_formula_sum   'Ca48 Al48 Si24 O168'
_cell_volume   3655.90151999
_cell_formula_units_Z   24
loop_
 _symmetry_equiv_pos_site_id
 _symmetry_equiv_pos_as_xyz
  1  'x, y, z'
loop_
 _atom_type_symbol
 _atom_type_oxidation_number
  Ca2+  2.0
  Al0+  0.0
  Si0+  0.0
  O2-  -2.0
loop_
 _atom_site_type_symbol
 _atom_site_label
 _atom_site_symmetry_multiplicity
 _atom_site_fract_x
 _atom_site_fract_y
 _atom_site_fract_z
 _atom_site_occupancy
  Ca2+  Ca0  1  0.17502228  0.07271671  0.16824834  1
  Ca2+  Ca1  1  0.16896070  0.07875260  0.49823914  1
  Ca2+  Ca2  1  0.17605461  0.07960177  0.84667353  1
  Ca2+  Ca3  1  0.16836402  0.57475711  0.17307027  1
  Ca2+  Ca4  1  0.16405399  0.57958727  0.49734931  1
  Ca2+  Ca5  1  0.17101371  0.57470321  0.84115555  1
  Ca2+  Ca6  1  0.66840008  0.07925235  0.16850280  1
  Ca2+  Ca7  1  0.67279379  0.08450074  0.50237999  1
  Ca2+  Ca8  1  0.67270545  0.08780799  0.84194421  1
  Ca2+  Ca9  1  0.65495699  0.58070444  0.16747019  1
  Ca2+  Ca10  1  0.66952119  0.57651970  0.50802527  1
  Ca2+  Ca11  1  0.66612513  0.57316343  0.83943173  1
  Ca2+  Ca12  1  0.07752018  0.33969051  0.16371389  1
  Ca2+  Ca13  1  0.06945576  0.33488154  0.49079599  1
  Ca2+  Ca14  1  0.07728569  0.33238649  0.82961078  1
  Ca2+  Ca15  1  0.09077611  0.83304662  0.16358610  1
  Ca2+  Ca16  1  0.08136550  0.82674254  0.48809385  1
  Ca2+  Ca17  1  0.08284196  0.83654176  0.83223709  1
  Ca2+  Ca18  1  0.57192978  0.32940188  0.15604151  1
  Ca2+  Ca19  1  0.58671624  0.32822338  0.49632982  1
  Ca2+  Ca20  1  0.59099235  0.32440697  0.83294310  1
  Ca2+  Ca21  1  0.58411495  0.83059179  0.15748871  1
  Ca2+  Ca22  1  0.58167428  0.82582745  0.48590325  1
  Ca2+  Ca23  1  0.58247178  0.83786758  0.83640785  1
  Ca2+  Ca24  1  0.32551944  0.40723679  0.17306903  1
  Ca2+  Ca25  1  0.32886881  0.40997554  0.49725437  1
  Ca2+  Ca26  1  0.32736534  0.41206724  0.84594229  1
  Ca2+  Ca27  1  0.33579680  0.91560283  0.16989002  1
  Ca2+  Ca28  1  0.32886761  0.90506633  0.49723193  1
  Ca2+  Ca29  1  0.32969083  0.92208030  0.84670419  1
  Ca2+  Ca30  1  0.82513222  0.41419909  0.16913459  1
  Ca2+  Ca31  1  0.83202935  0.41869051  0.50872488  1
  Ca2+  Ca32  1  0.82240802  0.41470790  0.83173995  1
  Ca2+  Ca33  1  0.82183670  0.92816836  0.17193089  1
  Ca2+  Ca34  1  0.82810678  0.92740194  0.50129829  1
  Ca2+  Ca35  1  0.82711315  0.93105187  0.84390719  1
  Ca2+  Ca36  1  0.41758761  0.17291019  0.15687724  1
  Ca2+  Ca37  1  0.42561720  0.17319887  0.49549558  1
  Ca2+  Ca38  1  0.42981635  0.16264671  0.83604538  1
  Ca2+  Ca39  1  0.42736302  0.67901852  0.16355153  1
  Ca2+  Ca40  1  0.42617785  0.67069902  0.48776777  1
  Ca2+  Ca41  1  0.42380793  0.66965051  0.83964717  1
  Ca2+  Ca42  1  0.91182457  0.16557600  0.16572873  1
  Ca2+  Ca43  1  0.90658329  0.17552909  0.49643027  1
  Ca2+  Ca44  1  0.91142945  0.16892091  0.82664534  1
  Ca2+  Ca45  1  0.92456743  0.66689046  0.16490715  1
  Ca2+  Ca46  1  0.92086212  0.66317360  0.49211081  1
  Ca2+  Ca47  1  0.91478989  0.66647378  0.82949084  1
  Al0+  Al48  1  0.00078683  0.00070005  0.00601925  1
  Al0+  Al49  1  0.00103637  0.00150606  0.34254481  1
  Al0+  Al50  1  0.00015694  -0.00145151  0.66799294  1
  Al0+  Al51  1  0.00046161  0.50059033  0.00060536  1
  Al0+  Al52  1  -0.00020701  0.49887542  0.32813954  1
  Al0+  Al53  1  0.00110855  0.50044051  0.66713403  1
  Al0+  Al54  1  0.50044788  0.00147895  -0.00130606  1
  Al0+  Al55  1  0.50039254  0.00087495  0.33649908  1
  Al0+  Al56  1  0.49747010  0.00073930  0.65898380  1
  Al0+  Al57  1  0.49835249  0.50267565  -0.00365052  1
  Al0+  Al58  1  0.49793446  0.49939419  0.32799294  1
  Al0+  Al59  1  0.49684117  0.50112161  0.67019667  1
  Al0+  Al60  1  0.24600320  0.24852255  0.00472494  1
  Al0+  Al61  1  0.24690484  0.24836999  0.33782027  1
  Al0+  Al62  1  0.25000641  0.24753256  0.66673386  1
  Al0+  Al63  1  0.24981243  0.74633135  -0.00318552  1
  Al0+  Al64  1  0.25181468  0.74759954  0.33023701  1
  Al0+  Al65  1  0.24891568  0.74790629  0.66801325  1
  Al0+  Al66  1  0.75018568  0.25508260  0.00510020  1
  Al0+  Al67  1  0.75030454  0.25217916  0.33149991  1
  Al0+  Al68  1  0.74989206  0.24989384  0.66466431  1
  Al0+  Al69  1  0.75415124  0.75009504  -0.00271961  1
  Al0+  Al70  1  0.75279723  0.74917569  0.33239603  1
  Al0+  Al71  1  0.75005046  0.75094666  0.66833500  1
  Al0+  Al72  1  0.82155690  0.07485708  0.01557645  1
  Al0+  Al73  1  0.17712926  0.42810812  0.34890361  1
  Al0+  Al74  1  0.32247970  0.07032094  0.01469856  1
  Al0+  Al75  1  0.57229831  0.18112150  0.98635502  1
  Al0+  Al76  1  0.67774212  0.43246751  0.01508315  1
  Al0+  Al77  1  0.81986274  0.07322848  0.35089360  1
  Al0+  Al78  1  0.57526995  0.67845454  0.31944762  1
  Al0+  Al79  1  0.67760330  0.92709785  0.34881460  1
  Al0+  Al80  1  0.43054794  0.82232564  0.31905390  1
  Al0+  Al81  1  0.42752590  0.31871345  0.32110764  1
  Al0+  Al82  1  0.42465265  0.32090899  0.98561514  1
  Al0+  Al83  1  0.57059236  0.18051562  0.65154162  1
  Al0+  Al84  1  0.17945086  0.92629504  0.01393007  1
  Al0+  Al85  1  0.67719761  0.42926573  0.68080540  1
  Al0+  Al86  1  0.67940460  0.92852929  0.01283892  1
  Al0+  Al87  1  0.81949669  0.06988950  0.68056526  1
  Al0+  Al88  1  0.92891766  0.32023044  0.31755394  1
  Al0+  Al89  1  0.17897187  0.42890609  0.01383711  1
  Al0+  Al90  1  0.93170808  0.31947158  0.65408403  1
  Al0+  Al91  1  0.07033335  0.67952076  0.31888883  1
  Al0+  Al92  1  0.42912171  0.82206916  0.98397413  1
  Al0+  Al93  1  0.57522103  0.67965545  0.98184649  1
  Al0+  Al94  1  0.18241872  0.92692998  0.34816752  1
  Al0+  Al95  1  0.82308962  0.57287529  0.68081829  1
  Si0+  Si96  1  0.57265513  0.17922658  0.31657664  1
  Si0+  Si97  1  0.31953882  0.57290654  0.68275648  1
  Si0+  Si98  1  0.07024793  0.67738970  0.98245077  1
  Si0+  Si99  1  0.32082670  0.07068541  0.68132626  1
  Si0+  Si100  1  0.18029444  0.42849154  0.68066833  1
  Si0+  Si101  1  0.07163783  0.17619560  0.31635000  1
  Si0+  Si102  1  0.82339232  0.57238947  0.01754185  1
  Si0+  Si103  1  0.32121707  0.56902495  0.35039537  1
  Si0+  Si104  1  0.82266429  0.56967419  0.34546477  1
  Si0+  Si105  1  0.67519294  0.92812892  0.68200252  1
  Si0+  Si106  1  0.18050722  0.92705871  0.68122856  1
  Si0+  Si107  1  0.42457345  0.32391144  0.65070602  1
  Si0+  Si108  1  0.92954606  0.82448142  0.31669487  1
  Si0+  Si109  1  0.92843473  0.82271537  0.65137034  1
  Si0+  Si110  1  0.07448095  0.17533652  0.64957531  1
  Si0+  Si111  1  0.32284748  0.07338826  0.35320854  1
  Si0+  Si112  1  0.32188638  0.57174584  0.01820791  1
  Si0+  Si113  1  0.06796268  0.17784742  0.98632373  1
  Si0+  Si114  1  0.92954838  0.32325650  0.98363426  1
  Si0+  Si115  1  0.42787470  0.81936501  0.65144247  1
  Si0+  Si116  1  0.07065367  0.68065325  0.65152977  1
  Si0+  Si117  1  0.57103045  0.67845880  0.65218903  1
  Si0+  Si118  1  0.67687550  0.43163709  0.34684293  1
  Si0+  Si119  1  0.93194785  0.82251874  0.98472540  1
  O2-  O120  1  0.25643136  -0.00785413  0.06371235  1
  O2-  O121  1  0.25872438  -0.00080870  0.39725797  1
  O2-  O122  1  0.24867337  0.00020881  0.72280666  1
  O2-  O123  1  0.25864517  0.49736796  0.06104558  1
  O2-  O124  1  0.25330811  0.50044745  0.39736998  1
  O2-  O125  1  0.25463164  0.49532019  0.72352376  1
  O2-  O126  1  0.74705560  0.00441442  0.06267599  1
  O2-  O127  1  0.74748117  0.00081356  0.39996079  1
  O2-  O128  1  0.74395166  -0.00371908  0.72661359  1
  O2-  O129  1  0.74963069  0.51016865  0.06231383  1
  O2-  O130  1  0.74658165  0.50453961  0.38796804  1
  O2-  O131  1  0.74845484  0.50347605  0.72980298  1
  O2-  O132  1  0.00240371  0.24399705  0.27167493  1
  O2-  O133  1  0.00534543  0.24374885  0.60620391  1
  O2-  O134  1  -0.00317533  0.24807796  0.94252963  1
  O2-  O135  1  0.00011016  0.75787110  0.27149799  1
  O2-  O136  1  -0.00326692  0.74840087  0.60928781  1
  O2-  O137  1  0.00285231  0.75155916  0.94011770  1
  O2-  O138  1  0.49956901  0.24327069  0.27360834  1
  O2-  O139  1  0.49765466  0.25942468  0.60760267  1
  O2-  O140  1  0.49969856  0.25280531  0.93460573  1
  O2-  O141  1  0.51054451  0.75809528  0.27155117  1
  O2-  O142  1  0.50233271  0.75174867  0.60983946  1
  O2-  O143  1  0.50510176  0.75448935  0.93224906  1
  O2-  O144  1  0.06762603  0.17764433  0.09099556  1
  O2-  O145  1  0.07264846  0.17842617  0.42245468  1
  O2-  O146  1  0.07768724  0.17663479  0.75522898  1
  O2-  O147  1  0.06780246  0.67438735  0.08717006  1
  O2-  O148  1  0.06708360  0.67898539  0.43292471  1
  O2-  O149  1  0.07360955  0.68255258  0.75656820  1
  O2-  O150  1  0.57245941  0.18351238  0.09972900  1
  O2-  O151  1  0.57338087  0.18307058  0.42283600  1
  O2-  O152  1  0.56959841  0.17756976  0.76399756  1
  O2-  O153  1  0.57289157  0.68054375  0.09501023  1
  O2-  O154  1  0.57190307  0.67491821  0.43414469  1
  O2-  O155  1  0.56966614  0.67795376  0.75659337  1
  O2-  O156  1  0.17717235  0.43096555  0.23632736  1
  O2-  O157  1  0.17940790  0.43076656  0.57583983  1
  O2-  O158  1  0.17620162  0.43231355  0.89972607  1
  O2-  O159  1  0.18266766  0.92821318  0.23595111  1
  O2-  O160  1  0.18230453  0.92339955  0.57635581  1
  O2-  O161  1  0.17731468  0.93104616  0.89936266  1
  O2-  O162  1  0.67714555  0.43160339  0.24197842  1
  O2-  O163  1  0.67730499  0.43168299  0.56646728  1
  O2-  O164  1  0.68259665  0.42997171  0.90209276  1
  O2-  O165  1  0.67992361  0.92690460  0.23583395  1
  O2-  O166  1  0.67741159  0.92642037  0.57659488  1
  O2-  O167  1  0.68428029  0.92903173  0.89863132  1
  O2-  O168  1  0.42461198  0.31757073  0.09921289  1
  O2-  O169  1  0.43067085  0.31858334  0.43495117  1
  O2-  O170  1  0.41788005  0.32126629  0.75532734  1
  O2-  O171  1  0.42639098  0.81804611  0.09669295  1
  O2-  O172  1  0.42828950  0.81440813  0.43375533  1
  O2-  O173  1  0.42531471  0.81901127  0.75592359  1
  O2-  O174  1  0.93211557  0.32661816  0.08853283  1
  O2-  O175  1  0.92936125  0.32227333  0.43099397  1
  O2-  O176  1  0.93471617  0.31947426  0.76735122  1
  O2-  O177  1  0.93353368  0.82047792  0.08948039  1
  O2-  O178  1  0.93083726  0.82051398  0.42296623  1
  O2-  O179  1  0.93273704  0.82478563  0.75637281  1
  O2-  O180  1  0.31960554  0.07686539  0.24832227  1
  O2-  O181  1  0.31935550  0.07145024  0.57642846  1
  O2-  O182  1  0.31787946  0.07097561  0.90012858  1
  O2-  O183  1  0.31979901  0.56803819  0.24547367  1
  O2-  O184  1  0.31721694  0.57793700  0.57809005  1
  O2-  O185  1  0.31643717  0.57330547  0.91164808  1
  O2-  O186  1  0.81882941  0.07241488  0.23780864  1
  O2-  O187  1  0.81967814  0.06836295  0.56800611  1
  O2-  O188  1  0.82394158  0.07243699  0.90146913  1
  O2-  O189  1  0.82647326  0.56684274  0.24068725  1
  O2-  O190  1  0.82380676  0.57183848  0.56684592  1
  O2-  O191  1  0.82727909  0.56875794  0.91200634  1
  O2-  O192  1  0.04681246  0.08159327  0.27275630  1
  O2-  O193  1  0.05032141  0.08049741  0.60505734  1
  O2-  O194  1  0.04219917  0.08586350  0.93719448  1
  O2-  O195  1  0.03543549  0.58567486  0.26325253  1
  O2-  O196  1  0.04644408  0.58765154  0.60484129  1
  O2-  O197  1  0.03755214  0.58758834  0.93260854  1
  O2-  O198  1  0.55213398  0.08318908  0.27534907  1
  O2-  O199  1  0.53604100  0.08573329  0.59444435  1
  O2-  O200  1  0.54610543  0.08287136  0.93163791  1
  O2-  O201  1  0.53813649  0.58369256  0.26520895  1
  O2-  O202  1  0.54020280  0.58706847  0.60482155  1
  O2-  O203  1  0.54047027  0.58343260  0.92712300  1
  O2-  O204  1  0.16500137  0.20216771  0.27150207  1
  O2-  O205  1  0.16770155  0.20112638  0.60214747  1
  O2-  O206  1  0.15869492  0.20725305  0.93740408  1
  O2-  O207  1  0.16773223  0.70517432  0.26595042  1
  O2-  O208  1  0.16126133  0.71162651  0.60283977  1
  O2-  O209  1  0.16230603  0.70021473  0.93326706  1
  O2-  O210  1  0.66376317  0.20957100  0.27010043  1
  O2-  O211  1  0.66620819  0.21119561  0.59600189  1
  O2-  O212  1  0.67101747  0.21405525  0.93426181  1
  O2-  O213  1  0.67670469  0.69574711  0.26887077  1
  O2-  O214  1  0.66457301  0.70313241  0.60596168  1
  O2-  O215  1  0.67598921  0.70248001  0.93013766  1
  O2-  O216  1  0.08451827  0.46662977  0.06736838  1
  O2-  O217  1  0.08139049  0.46451633  0.40181223  1
  O2-  O218  1  0.09065472  0.46048052  0.72949334  1
  O2-  O219  1  0.08414036  0.95872775  0.06909278  1
  O2-  O220  1  0.08679761  0.95809032  0.40515414  1
  O2-  O221  1  0.08736949  0.95141464  0.72716940  1
  O2-  O222  1  0.57914299  0.46087404  0.06597343  1
  O2-  O223  1  0.58468916  0.45757037  0.39445725  1
  O2-  O224  1  0.57741448  0.45457334  0.73275417  1
  O2-  O225  1  0.57933570  0.95062946  0.06254941  1
  O2-  O226  1  0.57826898  0.95197750  0.40295150  1
  O2-  O227  1  0.57963782  0.95355329  0.72358449  1
  O2-  O228  1  0.20054601  0.33131943  0.06831967  1
  O2-  O229  1  0.20485847  0.33142908  0.40470285  1
  O2-  O230  1  0.20357061  0.33452817  0.72650925  1
  O2-  O231  1  0.19908376  0.82387322  0.06042210  1
  O2-  O232  1  0.21205709  0.82894603  0.40229215  1
  O2-  O233  1  0.20950398  0.83597218  0.72998438  1
  O2-  O234  1  0.71206297  0.33922350  0.07212111  1
  O2-  O235  1  0.70756218  0.34071765  0.39391172  1
  O2-  O236  1  0.71050597  0.33243980  0.73287214  1
  O2-  O237  1  0.71322945  0.83086197  0.06409912  1
  O2-  O238  1  0.70910436  0.82803909  0.40142808  1
  O2-  O239  1  0.69940984  0.83424565  0.72778938  1
  O2-  O240  1  0.45572201  0.41479561  0.26649742  1
  O2-  O241  1  0.44333145  0.42050644  0.60731693  1
  O2-  O242  1  0.44602245  0.42210447  0.93596458  1
  O2-  O243  1  0.44661175  0.92543697  0.27285337  1
  O2-  O244  1  0.44871939  0.91198996  0.60270716  1
  O2-  O245  1  0.45228900  0.92164977  0.93065713  1
  O2-  O246  1  0.96262414  0.41444691  0.26170614  1
  O2-  O247  1  0.96430460  0.41651660  0.60040372  1
  O2-  O248  1  0.96326574  0.41294742  0.93511312  1
  O2-  O249  1  0.95448448  0.91952597  0.27537354  1
  O2-  O250  1  0.96024154  0.91239609  0.60167122  1
  O2-  O251  1  0.96182624  0.91411050  0.93701350  1
  O2-  O252  1  0.32842941  0.29015939  0.27185016  1
  O2-  O253  1  0.33282073  0.29252578  0.60187054  1
  O2-  O254  1  0.32492882  0.29108032  0.93468088  1
  O2-  O255  1  0.33524600  0.78706461  0.26548692  1
  O2-  O256  1  0.33663595  0.78577256  0.60482281  1
  O2-  O257  1  0.33146013  0.78720813  0.92922378  1
  O2-  O258  1  0.83195898  0.29207150  0.26321698  1
  O2-  O259  1  0.83512989  0.29107617  0.59957888  1
  O2-  O260  1  0.83662278  0.29886338  0.93822438  1
  O2-  O261  1  0.83779414  0.79616423  0.26957662  1
  O2-  O262  1  0.83509153  0.79885090  0.60515259  1
  O2-  O263  1  0.84212917  0.79469760  0.93379175  1
  O2-  O264  1  0.42212980  0.05006214  0.06615266  1
  O2-  O265  1  0.41814243  0.05469510  0.39847366  1
  O2-  O266  1  0.41252151  0.04067000  0.72690445  1
  O2-  O267  1  0.41765675  0.55529488  0.06076848  1
  O2-  O268  1  0.41451738  0.54190258  0.39761524  1
  O2-  O269  1  0.41242827  0.55220561  0.73039924  1
  O2-  O270  1  0.91811264  0.04274057  0.06916900  1
  O2-  O271  1  0.91857100  0.04695848  0.40516565  1
  O2-  O272  1  0.91793109  0.03971273  0.73311824  1
  O2-  O273  1  0.91470392  0.54056899  0.06490698  1
  O2-  O274  1  0.91180700  0.53622918  0.39493990  1
  O2-  O275  1  0.92190957  0.54455621  0.73419103  1
  O2-  O276  1  0.28512829  0.16450275  0.06967956  1
  O2-  O277  1  0.28942424  0.16292814  0.40404723  1
  O2-  O278  1  0.29368050  0.16223809  0.72962141  1
  O2-  O279  1  0.28793590  0.66185296  0.06480149  1
  O2-  O280  1  0.29385332  0.66165087  0.39778243  1
  O2-  O281  1  0.28335938  0.66052477  0.73374066  1
  O2-  O282  1  0.79813292  0.17405726  0.06734471  1
  O2-  O283  1  0.78886751  0.17254158  0.40214768  1
  O2-  O284  1  0.79101128  0.16727349  0.73252545  1
  O2-  O285  1  0.80742033  0.66881467  0.06021422  1
  O2-  O286  1  0.80416287  0.66368562  0.39247838  1
  O2-  O287  1  0.79932127  0.67306310  0.73284356  1
