# generated using pymatgen
data_Ca2Al2SiO7
_symmetry_space_group_name_H-M   'P 1'
_cell_length_a   15.45437365
_cell_length_b   15.45437751
_cell_length_c   15.28057836
_cell_angle_alpha   90.01012073
_cell_angle_beta   90.01260090
_cell_angle_gamma   90.00159524
_symmetry_Int_Tables_number   1
_chemical_formula_structural   Ca2Al2SiO7
_chemical_formula_sum   'Ca48 Al48 Si24 O168'
_cell_volume   3649.57841835
_cell_formula_units_Z   24
loop_
 _symmetry_equiv_pos_site_id
 _symmetry_equiv_pos_as_xyz
  1  'x, y, z'
loop_
 _atom_type_symbol
 _atom_type_oxidation_number
  Ca2+  2.0
  Al0+  0.0
  Si0+  0.0
  O2-  -2.0
loop_
 _atom_site_type_symbol
 _atom_site_label
 _atom_site_symmetry_multiplicity
 _atom_site_fract_x
 _atom_site_fract_y
 _atom_site_fract_z
 _atom_site_occupancy
  Ca2+  Ca0  1  0.17158688  0.07394797  0.17873265  1
  Ca2+  Ca1  1  0.16291510  0.08032077  0.50196518  1
  Ca2+  Ca2  1  0.15547539  0.07330575  0.83500244  1
  Ca2+  Ca3  1  0.16138792  0.56904963  0.17131684  1
  Ca2+  Ca4  1  0.17089670  0.58035624  0.50678038  1
  Ca2+  Ca5  1  0.17104617  0.58187482  0.83416827  1
  Ca2+  Ca6  1  0.67183208  0.08561737  0.16984063  1
  Ca2+  Ca7  1  0.66278195  0.07323051  0.50739391  1
  Ca2+  Ca8  1  0.66933259  0.08580254  0.83667304  1
  Ca2+  Ca9  1  0.66936146  0.58207210  0.16913087  1
  Ca2+  Ca10  1  0.67661828  0.57857029  0.50663664  1
  Ca2+  Ca11  1  0.66327551  0.56986172  0.83802893  1
  Ca2+  Ca12  1  0.08300890  0.33250445  0.16623721  1
  Ca2+  Ca13  1  0.07918285  0.32685937  0.48945155  1
  Ca2+  Ca14  1  0.07665326  0.32799459  0.82177756  1
  Ca2+  Ca15  1  0.08758469  0.83655444  0.16343822  1
  Ca2+  Ca16  1  0.08607667  0.83232017  0.50035452  1
  Ca2+  Ca17  1  0.07977520  0.83456163  0.82052623  1
  Ca2+  Ca18  1  0.58206913  0.32912491  0.15657941  1
  Ca2+  Ca19  1  0.58035878  0.33257642  0.50394485  1
  Ca2+  Ca20  1  0.58622502  0.32620547  0.82323645  1
  Ca2+  Ca21  1  0.57985872  0.83280938  0.16486935  1
  Ca2+  Ca22  1  0.57876502  0.83984959  0.49054240  1
  Ca2+  Ca23  1  0.58662930  0.82575104  0.82778418  1
  Ca2+  Ca24  1  0.32036112  0.41256789  0.17063717  1
  Ca2+  Ca25  1  0.33017462  0.41932191  0.50772324  1
  Ca2+  Ca26  1  0.33251381  0.41848467  0.83331195  1
  Ca2+  Ca27  1  0.32749302  0.92060179  0.17669316  1
  Ca2+  Ca28  1  0.32654354  0.92105061  0.50139105  1
  Ca2+  Ca29  1  0.31919922  0.91796246  0.83539857  1
  Ca2+  Ca30  1  0.82892504  0.42067198  0.17361716  1
  Ca2+  Ca31  1  0.83630558  0.41573519  0.50326730  1
  Ca2+  Ca32  1  0.82216012  0.40513444  0.83371877  1
  Ca2+  Ca33  1  0.82726044  0.92573614  0.17098785  1
  Ca2+  Ca34  1  0.82261337  0.91293045  0.50797873  1
  Ca2+  Ca35  1  0.83294227  0.92274762  0.83436869  1
  Ca2+  Ca36  1  0.42127784  0.16255168  0.16401667  1
  Ca2+  Ca37  1  0.41873476  0.16442576  0.49886892  1
  Ca2+  Ca38  1  0.42808330  0.17433597  0.82564038  1
  Ca2+  Ca39  1  0.42079807  0.67514772  0.16259734  1
  Ca2+  Ca40  1  0.41489782  0.67254899  0.49623847  1
  Ca2+  Ca41  1  0.41961121  0.66287134  0.82910569  1
  Ca2+  Ca42  1  0.91937239  0.16730162  0.16634329  1
  Ca2+  Ca43  1  0.92718286  0.17669799  0.49743052  1
  Ca2+  Ca44  1  0.91907177  0.16929775  0.82381264  1
  Ca2+  Ca45  1  0.91391879  0.66691408  0.16660789  1
  Ca2+  Ca46  1  0.91892381  0.66824855  0.49912854  1
  Ca2+  Ca47  1  0.92646958  0.67560953  0.82281579  1
  Al0+  Al48  1  -0.00185725  0.00060218  0.00956746  1
  Al0+  Al49  1  -0.00095328  -0.00022226  0.33269007  1
  Al0+  Al50  1  -0.00251984  -0.00023404  0.66105362  1
  Al0+  Al51  1  -0.00049462  0.50087248  0.00087916  1
  Al0+  Al52  1  -0.00156489  0.50042395  0.33741307  1
  Al0+  Al53  1  0.00110411  0.50236229  0.66153109  1
  Al0+  Al54  1  0.49869291  -0.00085886  -0.00737178  1
  Al0+  Al55  1  0.49878505  -0.00051830  0.33355832  1
  Al0+  Al56  1  0.49918246  -0.00151968  0.67146611  1
  Al0+  Al57  1  0.49922667  0.50156337  0.00217989  1
  Al0+  Al58  1  0.50089825  0.49909519  0.33003642  1
  Al0+  Al59  1  0.50082856  0.50000712  0.67006473  1
  Al0+  Al60  1  0.24978170  0.24917255  0.00148311  1
  Al0+  Al61  1  0.25074616  0.24883672  0.33659764  1
  Al0+  Al62  1  0.25241393  0.24989432  0.66178854  1
  Al0+  Al63  1  0.24970160  0.74962294  0.00379012  1
  Al0+  Al64  1  0.25051178  0.74984812  0.32875111  1
  Al0+  Al65  1  0.25143037  0.74979517  0.67261774  1
  Al0+  Al66  1  0.75023530  0.25003059  0.00637156  1
  Al0+  Al67  1  0.75015198  0.25093988  0.33024334  1
  Al0+  Al68  1  0.75006259  0.24850285  0.65984806  1
  Al0+  Al69  1  0.74989426  0.75036336  -0.00608456  1
  Al0+  Al70  1  0.75113318  0.74821198  0.33941283  1
  Al0+  Al71  1  0.75050494  0.74879973  0.66917509  1
  Al0+  Al72  1  0.17921759  0.93244535  0.67929877  1
  Al0+  Al73  1  0.81962717  0.56996112  0.34785367  1
  Al0+  Al74  1  0.67861628  0.42934686  0.01390933  1
  Al0+  Al75  1  0.57244114  0.18002074  0.98691094  1
  Al0+  Al76  1  0.17882842  0.92955622  0.01447076  1
  Al0+  Al77  1  0.07461494  0.68062709  0.65143158  1
  Al0+  Al78  1  0.92924916  0.32284332  0.31443518  1
  Al0+  Al79  1  0.92760847  0.82091998  0.65052599  1
  Al0+  Al80  1  0.32080799  0.57071515  0.68008458  1
  Al0+  Al81  1  0.32182830  0.07084024  0.34926826  1
  Al0+  Al82  1  0.81919414  0.07101856  0.01405987  1
  Al0+  Al83  1  0.68099070  0.93136615  0.34435610  1
  Al0+  Al84  1  0.57084169  0.67948172  0.98530730  1
  Al0+  Al85  1  0.92833083  0.32205105  0.65249268  1
  Al0+  Al86  1  0.67641302  0.92703447  0.68265649  1
  Al0+  Al87  1  0.07254256  0.17772394  0.65268872  1
  Al0+  Al88  1  0.43051423  0.32323992  0.65167615  1
  Al0+  Al89  1  0.17833486  0.42894596  0.01173268  1
  Al0+  Al90  1  0.68255890  0.42956982  0.67882687  1
  Al0+  Al91  1  0.17724040  0.92667525  0.34992479  1
  Al0+  Al92  1  0.57080480  0.17674093  0.65032574  1
  Al0+  Al93  1  0.17994802  0.42966701  0.34826169  1
  Al0+  Al94  1  0.42928161  0.82084995  0.31984315  1
  Al0+  Al95  1  0.07224225  0.17828423  0.31492609  1
  Si0+  Si96  1  0.81937299  0.07034616  0.68082179  1
  Si0+  Si97  1  0.07078186  0.67993749  0.31705324  1
  Si0+  Si98  1  0.42569219  0.82115582  0.98022215  1
  Si0+  Si99  1  0.07067607  0.67809529  0.98662711  1
  Si0+  Si100  1  0.32364494  0.57133769  0.34737909  1
  Si0+  Si101  1  0.93050416  0.82281823  0.98684548  1
  Si0+  Si102  1  0.82502250  0.57266104  0.68588060  1
  Si0+  Si103  1  0.42992957  0.81950258  0.65364677  1
  Si0+  Si104  1  0.42911189  0.32303728  0.31708814  1
  Si0+  Si105  1  0.42609166  0.32200097  0.98456833  1
  Si0+  Si106  1  0.93022470  0.32210471  0.98627823  1
  Si0+  Si107  1  0.82222461  0.07458077  0.35205873  1
  Si0+  Si108  1  0.32312761  0.07445978  0.68617426  1
  Si0+  Si109  1  0.67582985  0.42612719  0.35027047  1
  Si0+  Si110  1  0.92617727  0.82012557  0.31732047  1
  Si0+  Si111  1  0.57106455  0.67803320  0.65184515  1
  Si0+  Si112  1  0.32327026  0.07125159  0.01482878  1
  Si0+  Si113  1  0.56957424  0.17868673  0.31798229  1
  Si0+  Si114  1  0.17735997  0.42677303  0.68171435  1
  Si0+  Si115  1  0.07044279  0.17830069  0.98722331  1
  Si0+  Si116  1  0.67689315  0.92596406  0.01472199  1
  Si0+  Si117  1  0.32225652  0.57242991  0.01958688  1
  Si0+  Si118  1  0.82152427  0.57362885  0.01450692  1
  Si0+  Si119  1  0.57394298  0.67758993  0.31791810  1
  O2-  O120  1  0.25510788  0.00262719  0.05966166  1
  O2-  O121  1  0.24631133  0.00193416  0.39846091  1
  O2-  O122  1  0.24862233  0.01089558  0.72931418  1
  O2-  O123  1  0.25337931  0.50257893  0.06129320  1
  O2-  O124  1  0.25698399  0.50248254  0.39331504  1
  O2-  O125  1  0.24617464  0.49530211  0.72662279  1
  O2-  O126  1  0.74101933  -0.00158387  0.05935129  1
  O2-  O127  1  0.75433853  0.00470959  0.39492951  1
  O2-  O128  1  0.75057918  0.00283489  0.72768602  1
  O2-  O129  1  0.75168369  0.50637452  0.05920642  1
  O2-  O130  1  0.74600608  0.49372058  0.39295644  1
  O2-  O131  1  0.75987395  0.50021834  0.72916299  1
  O2-  O132  1  0.00043729  0.25036142  0.26323627  1
  O2-  O133  1  0.00725252  0.25675803  0.60420684  1
  O2-  O134  1  0.00221704  0.25178502  0.94460756  1
  O2-  O135  1  0.00192242  0.75377670  0.27426224  1
  O2-  O136  1  0.00067911  0.75002374  0.60033724  1
  O2-  O137  1  0.00306854  0.75277025  0.94539137  1
  O2-  O138  1  0.50101059  0.25235034  0.27544927  1
  O2-  O139  1  0.49807788  0.24785214  0.59999110  1
  O2-  O140  1  0.49836885  0.25632019  0.94175599  1
  O2-  O141  1  0.50433030  0.74545789  0.27385731  1
  O2-  O142  1  0.50489218  0.75321146  0.60966679  1
  O2-  O143  1  0.49617354  0.75367701  0.93680904  1
  O2-  O144  1  0.06998347  0.17845175  0.09173944  1
  O2-  O145  1  0.07057186  0.18024197  0.42808415  1
  O2-  O146  1  0.06782892  0.17704069  0.76771048  1
  O2-  O147  1  0.06773875  0.67601737  0.09182095  1
  O2-  O148  1  0.07191866  0.68029214  0.42155251  1
  O2-  O149  1  0.07373446  0.68261611  0.76612709  1
  O2-  O150  1  0.57025241  0.18073758  0.10063360  1
  O2-  O151  1  0.56866021  0.17785318  0.42258079  1
  O2-  O152  1  0.57144003  0.17943698  0.76433473  1
  O2-  O153  1  0.57090900  0.68250205  0.09871371  1
  O2-  O154  1  0.57319490  0.67661129  0.42347828  1
  O2-  O155  1  0.56882458  0.67771567  0.75712048  1
  O2-  O156  1  0.18042561  0.43159074  0.23438532  1
  O2-  O157  1  0.17908144  0.42913271  0.57639474  1
  O2-  O158  1  0.17732111  0.43055830  0.89891877  1
  O2-  O159  1  0.18134554  0.92644495  0.23571036  1
  O2-  O160  1  0.18311761  0.92966763  0.56713751  1
  O2-  O161  1  0.17619000  0.93010834  0.90121293  1
  O2-  O162  1  0.67408250  0.42781325  0.24429343  1
  O2-  O163  1  0.68117188  0.43383730  0.56590819  1
  O2-  O164  1  0.68077083  0.42762529  0.90089077  1
  O2-  O165  1  0.68212872  0.93229514  0.23068391  1
  O2-  O166  1  0.67582399  0.92708857  0.56935667  1
  O2-  O167  1  0.68126581  0.92412625  0.90942730  1
  O2-  O168  1  0.42472682  0.31957696  0.09059187  1
  O2-  O169  1  0.43189516  0.32818295  0.42143641  1
  O2-  O170  1  0.43276286  0.32368291  0.76583702  1
  O2-  O171  1  0.42612625  0.82077611  0.08597794  1
  O2-  O172  1  0.43020089  0.81903324  0.43317574  1
  O2-  O173  1  0.42979163  0.81638124  0.75889455  1
  O2-  O174  1  0.93149089  0.32418165  0.09094415  1
  O2-  O175  1  0.93049932  0.32190125  0.42753151  1
  O2-  O176  1  0.92734289  0.31777880  0.76731170  1
  O2-  O177  1  0.92873326  0.82093453  0.09214345  1
  O2-  O178  1  0.92235936  0.81668022  0.42161931  1
  O2-  O179  1  0.92977468  0.82119517  0.76524248  1
  O2-  O180  1  0.32477897  0.06765897  0.23490413  1
  O2-  O181  1  0.32722799  0.06963319  0.58106255  1
  O2-  O182  1  0.32193575  0.07134373  0.90946972  1
  O2-  O183  1  0.32309151  0.56929528  0.24157702  1
  O2-  O184  1  0.32092284  0.57162494  0.56684455  1
  O2-  O185  1  0.32150435  0.57358731  0.91398763  1
  O2-  O186  1  0.81943085  0.07320819  0.24575073  1
  O2-  O187  1  0.81731103  0.06839060  0.57547549  1
  O2-  O188  1  0.82273723  0.06943183  0.90116141  1
  O2-  O189  1  0.81630117  0.57239213  0.23401710  1
  O2-  O190  1  0.82072235  0.57526236  0.58031789  1
  O2-  O191  1  0.82355349  0.57357364  0.90952083  1
  O2-  O192  1  0.04256274  0.07852258  0.26311043  1
  O2-  O193  1  0.03851520  0.08314749  0.59694518  1
  O2-  O194  1  0.03761773  0.08665764  0.94194449  1
  O2-  O195  1  0.03763674  0.58948406  0.26980279  1
  O2-  O196  1  0.04944733  0.58207674  0.59801343  1
  O2-  O197  1  0.04008897  0.58829763  0.93658062  1
  O2-  O198  1  0.53935680  0.08850746  0.26870559  1
  O2-  O199  1  0.54096481  0.07680211  0.60098015  1
  O2-  O200  1  0.54440837  0.08283454  0.93215928  1
  O2-  O201  1  0.54925271  0.58403100  0.26987515  1
  O2-  O202  1  0.53938909  0.58864508  0.60344377  1
  O2-  O203  1  0.53926589  0.58216934  0.93224701  1
  O2-  O204  1  0.17271074  0.20589343  0.26474501  1
  O2-  O205  1  0.17367677  0.19628133  0.60277559  1
  O2-  O206  1  0.16358801  0.20160769  0.94040433  1
  O2-  O207  1  0.16264945  0.70361348  0.26685912  1
  O2-  O208  1  0.17303356  0.71061015  0.60007478  1
  O2-  O209  1  0.16486620  0.70169401  0.94231491  1
  O2-  O210  1  0.66228734  0.20442725  0.27072783  1
  O2-  O211  1  0.66761166  0.20428518  0.59548021  1
  O2-  O212  1  0.67003205  0.21105521  0.93511750  1
  O2-  O213  1  0.66695516  0.70552471  0.27177435  1
  O2-  O214  1  0.66492964  0.70103943  0.60719101  1
  O2-  O215  1  0.66710675  0.70863130  0.92883041  1
  O2-  O216  1  0.08286100  0.46280873  0.06746022  1
  O2-  O217  1  0.08461416  0.46273191  0.40113491  1
  O2-  O218  1  0.08324618  0.45299333  0.72707012  1
  O2-  O219  1  0.08377440  0.95981305  0.07094632  1
  O2-  O220  1  0.07588660  0.94961327  0.39829351  1
  O2-  O221  1  0.07985625  0.95985871  0.73128616  1
  O2-  O222  1  0.58131567  0.45848074  0.06795706  1
  O2-  O223  1  0.58238267  0.45336541  0.39560328  1
  O2-  O224  1  0.58790776  0.46362262  0.73466570  1
  O2-  O225  1  0.58000841  0.94677251  0.05565466  1
  O2-  O226  1  0.58476310  0.96167781  0.39794675  1
  O2-  O227  1  0.58001538  0.95461664  0.73869181  1
  O2-  O228  1  0.20838159  0.33218129  0.06678757  1
  O2-  O229  1  0.20978728  0.33340102  0.40084637  1
  O2-  O230  1  0.20249579  0.33248522  0.72719388  1
  O2-  O231  1  0.20709442  0.83171446  0.06770742  1
  O2-  O232  1  0.20884587  0.82760348  0.39909007  1
  O2-  O233  1  0.21429063  0.83792354  0.73579261  1
  O2-  O234  1  0.71091046  0.33536138  0.07114340  1
  O2-  O235  1  0.69986103  0.33172917  0.39445184  1
  O2-  O236  1  0.71145380  0.33080080  0.73062480  1
  O2-  O237  1  0.70688833  0.83371484  0.06145922  1
  O2-  O238  1  0.70940854  0.83467683  0.39884329  1
  O2-  O239  1  0.70864186  0.83036041  0.73629947  1
  O2-  O240  1  0.45594813  0.41415669  0.26583046  1
  O2-  O241  1  0.46341254  0.42031926  0.59809428  1
  O2-  O242  1  0.44708795  0.41806242  0.94274001  1
  O2-  O243  1  0.46266602  0.91579973  0.26355520  1
  O2-  O244  1  0.45380724  0.91262910  0.60807015  1
  O2-  O245  1  0.44714029  0.91503155  0.93331988  1
  O2-  O246  1  0.95730898  0.42298716  0.26390849  1
  O2-  O247  1  0.94775428  0.42334150  0.60286305  1
  O2-  O248  1  0.95588961  0.41420110  0.93804248  1
  O2-  O249  1  0.94817167  0.91381250  0.27071666  1
  O2-  O250  1  0.95156525  0.91870045  0.59651970  1
  O2-  O251  1  0.95891193  0.91516828  0.94101628  1
  O2-  O252  1  0.33765844  0.29394579  0.27012030  1
  O2-  O253  1  0.33125207  0.30033560  0.59887608  1
  O2-  O254  1  0.33385819  0.29380067  0.93624051  1
  O2-  O255  1  0.33454969  0.78856946  0.26178460  1
  O2-  O256  1  0.34023529  0.78683107  0.60633561  1
  O2-  O257  1  0.33211875  0.79171710  0.93529059  1
  O2-  O258  1  0.82889514  0.29553592  0.26258487  1
  O2-  O259  1  0.83364246  0.28953396  0.59559882  1
  O2-  O260  1  0.83831672  0.29116045  0.94154459  1
  O2-  O261  1  0.83662536  0.78582625  0.26808811  1
  O2-  O262  1  0.82906432  0.78932889  0.59894953  1
  O2-  O263  1  0.83964902  0.79578190  0.93732380  1
  O2-  O264  1  0.41754437  0.04487664  0.06013582  1
  O2-  O265  1  0.41822560  0.03796720  0.40318236  1
  O2-  O266  1  0.41336417  0.04201322  0.73561363  1
  O2-  O267  1  0.41574966  0.54908453  0.06635901  1
  O2-  O268  1  0.41875797  0.54851973  0.39196748  1
  O2-  O269  1  0.41624685  0.53927438  0.73668390  1
  O2-  O270  1  0.91186856  0.03655187  0.07381198  1
  O2-  O271  1  0.91624563  0.04963762  0.39520446  1
  O2-  O272  1  0.91248650  0.04366054  0.72780958  1
  O2-  O273  1  0.91411150  0.54699279  0.06271185  1
  O2-  O274  1  0.91568624  0.54245816  0.40322349  1
  O2-  O275  1  0.92131365  0.55316480  0.72896916  1
  O2-  O276  1  0.29947349  0.16501729  0.06145314  1
  O2-  O277  1  0.30018589  0.17044649  0.40142042  1
  O2-  O278  1  0.30469808  0.17092587  0.72930629  1
  O2-  O279  1  0.29593089  0.66552317  0.06645601  1
  O2-  O280  1  0.29664557  0.66483229  0.39170510  1
  O2-  O281  1  0.29018180  0.66496530  0.73941037  1
  O2-  O282  1  0.79012315  0.16589609  0.07211809  1
  O2-  O283  1  0.79557709  0.16850987  0.39560166  1
  O2-  O284  1  0.79428505  0.16411270  0.72693929  1
  O2-  O285  1  0.79581424  0.66792561  0.06032629  1
  O2-  O286  1  0.78771797  0.66404545  0.40581118  1
  O2-  O287  1  0.79583163  0.66444180  0.73376517  1
