# generated using pymatgen
data_Ca2Al2SiO7
_symmetry_space_group_name_H-M   'P 1'
_cell_length_a   15.45719351
_cell_length_b   15.45701245
_cell_length_c   15.28333109
_cell_angle_alpha   90.00044999
_cell_angle_beta   89.99685114
_cell_angle_gamma   90.00748384
_symmetry_Int_Tables_number   1
_chemical_formula_structural   Ca2Al2SiO7
_chemical_formula_sum   'Ca48 Al48 Si24 O168'
_cell_volume   3651.52449125
_cell_formula_units_Z   24
loop_
 _symmetry_equiv_pos_site_id
 _symmetry_equiv_pos_as_xyz
  1  'x, y, z'
loop_
 _atom_type_symbol
 _atom_type_oxidation_number
  Ca2+  2.0
  Al0+  0.0
  Si0+  0.0
  O2-  -2.0
loop_
 _atom_site_type_symbol
 _atom_site_label
 _atom_site_symmetry_multiplicity
 _atom_site_fract_x
 _atom_site_fract_y
 _atom_site_fract_z
 _atom_site_occupancy
  Ca2+  Ca0  1  0.16818874  0.08200345  0.15997730  1
  Ca2+  Ca1  1  0.17201242  0.07361840  0.51155460  1
  Ca2+  Ca2  1  0.17401556  0.07216823  0.84109120  1
  Ca2+  Ca3  1  0.16994723  0.57592428  0.17074783  1
  Ca2+  Ca4  1  0.15701060  0.58032799  0.50047254  1
  Ca2+  Ca5  1  0.17154732  0.57930634  0.84209292  1
  Ca2+  Ca6  1  0.67095795  0.08448508  0.16573785  1
  Ca2+  Ca7  1  0.67502060  0.08235507  0.50848196  1
  Ca2+  Ca8  1  0.67927213  0.08399565  0.83716592  1
  Ca2+  Ca9  1  0.67124956  0.58644932  0.16769200  1
  Ca2+  Ca10  1  0.67013087  0.58263561  0.50224765  1
  Ca2+  Ca11  1  0.66677000  0.57721499  0.84313048  1
  Ca2+  Ca12  1  0.08210323  0.33554502  0.16005407  1
  Ca2+  Ca13  1  0.07625045  0.33323648  0.48934804  1
  Ca2+  Ca14  1  0.09117187  0.32487433  0.83433468  1
  Ca2+  Ca15  1  0.08596007  0.82819388  0.16173469  1
  Ca2+  Ca16  1  0.08354974  0.82415634  0.50294274  1
  Ca2+  Ca17  1  0.08473391  0.83054975  0.82447959  1
  Ca2+  Ca18  1  0.57709414  0.33590516  0.15600273  1
  Ca2+  Ca19  1  0.57961476  0.33789043  0.50343344  1
  Ca2+  Ca20  1  0.57402058  0.34260039  0.83042078  1
  Ca2+  Ca21  1  0.57860546  0.82082427  0.15685881  1
  Ca2+  Ca22  1  0.57680682  0.83187682  0.49464089  1
  Ca2+  Ca23  1  0.57184150  0.83066246  0.83223953  1
  Ca2+  Ca24  1  0.32470606  0.41553537  0.16266289  1
  Ca2+  Ca25  1  0.32833687  0.41736087  0.50436809  1
  Ca2+  Ca26  1  0.33411972  0.42127470  0.84473415  1
  Ca2+  Ca27  1  0.33321942  0.91540059  0.16244894  1
  Ca2+  Ca28  1  0.32928953  0.92075286  0.51351598  1
  Ca2+  Ca29  1  0.32743316  0.91613588  0.84077034  1
  Ca2+  Ca30  1  0.83268742  0.42745714  0.16928701  1
  Ca2+  Ca31  1  0.83070999  0.42143293  0.50309035  1
  Ca2+  Ca32  1  0.81968973  0.42314135  0.84171688  1
  Ca2+  Ca33  1  0.83612610  0.92344077  0.16524271  1
  Ca2+  Ca34  1  0.83531806  0.92064640  0.50899735  1
  Ca2+  Ca35  1  0.84219017  0.92444359  0.83661705  1
  Ca2+  Ca36  1  0.41464257  0.17197584  0.15526664  1
  Ca2+  Ca37  1  0.41161118  0.17101044  0.50266366  1
  Ca2+  Ca38  1  0.40479966  0.17665129  0.83054527  1
  Ca2+  Ca39  1  0.42642014  0.66454677  0.15460807  1
  Ca2+  Ca40  1  0.42234859  0.67355318  0.49693870  1
  Ca2+  Ca41  1  0.41400665  0.67353358  0.83391755  1
  Ca2+  Ca42  1  0.92157026  0.17479341  0.15666253  1
  Ca2+  Ca43  1  0.91471916  0.17288198  0.49602756  1
  Ca2+  Ca44  1  0.92182207  0.15875561  0.83140885  1
  Ca2+  Ca45  1  0.91891941  0.65871866  0.16397164  1
  Ca2+  Ca46  1  0.92598509  0.66507045  0.49517051  1
  Ca2+  Ca47  1  0.92264647  0.67037103  0.82663840  1
  Al0+  Al48  1  0.00124344  0.00091851  0.00592189  1
  Al0+  Al49  1  0.00174194  0.00036009  0.33535907  1
  Al0+  Al50  1  0.00157331  -0.00133917  0.66760896  1
  Al0+  Al51  1  -0.00255123  0.49880621  0.00265931  1
  Al0+  Al52  1  -0.00136115  0.50010252  0.33320706  1
  Al0+  Al53  1  -0.00113649  0.49821694  0.66534686  1
  Al0+  Al54  1  0.50100879  0.00008474  -0.00056795  1
  Al0+  Al55  1  0.50029024  0.00179911  0.33406136  1
  Al0+  Al56  1  0.50203068  0.00313648  0.66595804  1
  Al0+  Al57  1  0.50047483  0.49919517  -0.00034652  1
  Al0+  Al58  1  0.49914202  0.50026683  0.33035117  1
  Al0+  Al59  1  0.49839238  0.49871452  0.66308565  1
  Al0+  Al60  1  0.24860457  0.24764254  -0.00109687  1
  Al0+  Al61  1  0.24969801  0.24951820  0.33836302  1
  Al0+  Al62  1  0.24940389  0.24994170  0.66213002  1
  Al0+  Al63  1  0.24993302  0.74915867  0.00527637  1
  Al0+  Al64  1  0.24934991  0.75098566  0.33053656  1
  Al0+  Al65  1  0.25095179  0.74738424  0.65944546  1
  Al0+  Al66  1  0.75004844  0.25111641  0.00739379  1
  Al0+  Al67  1  0.74923242  0.25127286  0.32933021  1
  Al0+  Al68  1  0.74905543  0.25038284  0.67458953  1
  Al0+  Al69  1  0.75102794  0.75055488  -0.00227463  1
  Al0+  Al70  1  0.74951317  0.75160670  0.33488378  1
  Al0+  Al71  1  0.75063632  0.75082359  0.66383652  1
  Al0+  Al72  1  0.17836055  0.42725488  0.01271109  1
  Al0+  Al73  1  0.43036914  0.82256205  0.65298124  1
  Al0+  Al74  1  0.81956637  0.57159747  0.34932844  1
  Al0+  Al75  1  0.07121389  0.67591445  0.65209558  1
  Al0+  Al76  1  0.42994087  0.31818390  0.98714217  1
  Al0+  Al77  1  0.18192694  0.92607807  0.68090424  1
  Al0+  Al78  1  0.06949213  0.67996920  0.31686591  1
  Al0+  Al79  1  0.82126376  0.06958631  0.67946304  1
  Al0+  Al80  1  0.82185385  0.07064670  0.01550418  1
  Al0+  Al81  1  0.67860720  0.43173599  0.67964779  1
  Al0+  Al82  1  0.92848898  0.32052192  0.31893725  1
  Al0+  Al83  1  0.32275518  0.07287187  0.68218267  1
  Al0+  Al84  1  0.06892186  0.17934601  0.98533327  1
  Al0+  Al85  1  0.57106188  0.68004910  0.31975557  1
  Al0+  Al86  1  0.92880363  0.82261276  0.65200004  1
  Al0+  Al87  1  0.32245464  0.07054750  0.01474619  1
  Al0+  Al88  1  0.18011716  0.43010584  0.34830258  1
  Al0+  Al89  1  0.32097234  0.57166095  0.01428114  1
  Al0+  Al90  1  0.42804387  0.32096922  0.65113461  1
  Al0+  Al91  1  0.67740001  0.43002207  0.01665406  1
  Al0+  Al92  1  0.17868317  0.92725989  0.01685985  1
  Al0+  Al93  1  0.57273898  0.67816500  0.98300802  1
  Al0+  Al94  1  0.82070382  0.57371274  0.01406069  1
  Al0+  Al95  1  0.42737484  0.82140094  0.98513760  1
  Si0+  Si96  1  0.32204427  0.07052941  0.35009124  1
  Si0+  Si97  1  0.92787988  0.82462835  0.31583429  1
  Si0+  Si98  1  0.57069587  0.17844393  0.31853546  1
  Si0+  Si99  1  0.07274374  0.17723883  0.31725316  1
  Si0+  Si100  1  0.32055283  0.56875313  0.67870218  1
  Si0+  Si101  1  0.92660324  0.32291654  0.98113256  1
  Si0+  Si102  1  0.82300741  0.57289119  0.68241287  1
  Si0+  Si103  1  0.07028879  0.67706670  0.98709248  1
  Si0+  Si104  1  0.42855313  0.82429618  0.31629757  1
  Si0+  Si105  1  0.57529025  0.17687278  0.98278543  1
  Si0+  Si106  1  0.67901057  0.93105423  0.34813384  1
  Si0+  Si107  1  0.17627956  0.42842782  0.68000054  1
  Si0+  Si108  1  0.92686151  0.31907707  0.65346203  1
  Si0+  Si109  1  0.42769071  0.31942703  0.31835537  1
  Si0+  Si110  1  0.67573028  0.42683907  0.35115474  1
  Si0+  Si111  1  0.57170794  0.67718789  0.64957068  1
  Si0+  Si112  1  0.17892243  0.92764589  0.35092001  1
  Si0+  Si113  1  0.07040652  0.17929290  0.65065468  1
  Si0+  Si114  1  0.32316505  0.57279253  0.35113938  1
  Si0+  Si115  1  0.67809342  0.92824358  0.01632140  1
  Si0+  Si116  1  0.93074894  0.82201399  0.98688089  1
  Si0+  Si117  1  0.57529545  0.18012082  0.65041845  1
  Si0+  Si118  1  0.67689478  0.92587147  0.68302600  1
  Si0+  Si119  1  0.82088303  0.07227752  0.34795662  1
  O2-  O120  1  0.25372886  -0.00332544  0.06693327  1
  O2-  O121  1  0.25185954  -0.00184484  0.39126639  1
  O2-  O122  1  0.25633513  -0.00450740  0.73053626  1
  O2-  O123  1  0.24768515  0.50079382  0.06419473  1
  O2-  O124  1  0.25328407  0.50578368  0.39698322  1
  O2-  O125  1  0.24717934  0.49965342  0.72021426  1
  O2-  O126  1  0.74514196  -0.00187277  0.06251004  1
  O2-  O127  1  0.75158704  0.00045848  0.39116119  1
  O2-  O128  1  0.74995025  -0.00889619  0.72548604  1
  O2-  O129  1  0.74832956  0.50308223  0.06566602  1
  O2-  O130  1  0.74364920  0.49661862  0.39493037  1
  O2-  O131  1  0.75003324  0.50920328  0.72595068  1
  O2-  O132  1  0.00401904  0.24579414  0.27360254  1
  O2-  O133  1  -0.00107692  0.25007937  0.60870631  1
  O2-  O134  1  -0.00536617  0.25385950  0.93617439  1
  O2-  O135  1  -0.00513817  0.75532688  0.27042067  1
  O2-  O136  1  -0.00243715  0.74736610  0.60244132  1
  O2-  O137  1  0.00020519  0.74924269  0.94555714  1
  O2-  O138  1  0.50058789  0.25003862  0.27709885  1
  O2-  O139  1  0.50269742  0.24494038  0.60535203  1
  O2-  O140  1  0.50514125  0.24393473  0.93919583  1
  O2-  O141  1  0.49369344  0.75216639  0.27355997  1
  O2-  O142  1  0.50811195  0.75098153  0.60517925  1
  O2-  O143  1  0.49861183  0.74883953  0.93466688  1
  O2-  O144  1  0.06662700  0.17998952  0.09881446  1
  O2-  O145  1  0.07075672  0.17652910  0.42341247  1
  O2-  O146  1  0.07089508  0.18012879  0.75535909  1
  O2-  O147  1  0.06862727  0.67721559  0.09227523  1
  O2-  O148  1  0.06855143  0.68164636  0.42983277  1
  O2-  O149  1  0.07032877  0.67287076  0.76579755  1
  O2-  O150  1  0.57460770  0.17787921  0.08929740  1
  O2-  O151  1  0.57170442  0.17604986  0.42354046  1
  O2-  O152  1  0.58113386  0.18237303  0.75500571  1
  O2-  O153  1  0.57352774  0.68144650  0.09695173  1
  O2-  O154  1  0.56951929  0.68337521  0.43336796  1
  O2-  O155  1  0.56957351  0.67545790  0.75444689  1
  O2-  O156  1  0.18321082  0.42756112  0.23601377  1
  O2-  O157  1  0.17563880  0.42816992  0.57457758  1
  O2-  O158  1  0.17987058  0.42919254  0.89844485  1
  O2-  O159  1  0.17701032  0.92823993  0.24636599  1
  O2-  O160  1  0.18195503  0.92935058  0.56637274  1
  O2-  O161  1  0.17604570  0.92705386  0.90369062  1
  O2-  O162  1  0.67492936  0.42452044  0.24641325  1
  O2-  O163  1  0.68115463  0.43172820  0.56591253  1
  O2-  O164  1  0.67906535  0.43012513  0.90272543  1
  O2-  O165  1  0.67767059  0.93425404  0.24346181  1
  O2-  O166  1  0.67604779  0.92879699  0.57667024  1
  O2-  O167  1  0.67983459  0.92888643  0.91086744  1
  O2-  O168  1  0.43001137  0.31559232  0.10099603  1
  O2-  O169  1  0.42775656  0.31801483  0.42371422  1
  O2-  O170  1  0.42701444  0.32306094  0.76339385  1
  O2-  O171  1  0.43181817  0.82116389  0.09917829  1
  O2-  O172  1  0.43140290  0.82690781  0.42230451  1
  O2-  O173  1  0.42924576  0.81977373  0.76518098  1
  O2-  O174  1  0.92816335  0.32163431  0.08698863  1
  O2-  O175  1  0.92750553  0.31652502  0.43309798  1
  O2-  O176  1  0.92815321  0.31922168  0.75796759  1
  O2-  O177  1  0.93109131  0.82299482  0.09226205  1
  O2-  O178  1  0.92956689  0.82769414  0.42111852  1
  O2-  O179  1  0.93069546  0.82224736  0.76577888  1
  O2-  O180  1  0.32406733  0.07202915  0.24562847  1
  O2-  O181  1  0.31794178  0.07259183  0.56733726  1
  O2-  O182  1  0.31884971  0.07192770  0.90189102  1
  O2-  O183  1  0.32401069  0.57036019  0.24617971  1
  O2-  O184  1  0.32284562  0.56647859  0.57326108  1
  O2-  O185  1  0.31788103  0.57194395  0.89990183  1
  O2-  O186  1  0.81976257  0.07128156  0.24326159  1
  O2-  O187  1  0.81829253  0.07197202  0.56547187  1
  O2-  O188  1  0.82254429  0.06747821  0.90244201  1
  O2-  O189  1  0.81806983  0.57091761  0.23692795  1
  O2-  O190  1  0.82413863  0.56966286  0.57658293  1
  O2-  O191  1  0.82242114  0.57233958  0.90019630  1
  O2-  O192  1  0.04730259  0.08336056  0.27189891  1
  O2-  O193  1  0.04248188  0.08775978  0.60284292  1
  O2-  O194  1  0.03541760  0.08248045  0.93311810  1
  O2-  O195  1  0.03842330  0.58324085  0.26491877  1
  O2-  O196  1  0.04031560  0.57762737  0.59733527  1
  O2-  O197  1  0.04170768  0.58568569  0.93902790  1
  O2-  O198  1  0.54238179  0.08716576  0.26982287  1
  O2-  O199  1  0.55487588  0.08563273  0.60294000  1
  O2-  O200  1  0.55508172  0.08195067  0.93824186  1
  O2-  O201  1  0.54339938  0.58208818  0.26695332  1
  O2-  O202  1  0.54002107  0.58662255  0.60032796  1
  O2-  O203  1  0.54491204  0.57954827  0.93186577  1
  O2-  O204  1  0.16737931  0.20272879  0.27399877  1
  O2-  O205  1  0.16041207  0.20809311  0.59993456  1
  O2-  O206  1  0.16444739  0.20965775  0.92982260  1
  O2-  O207  1  0.16734472  0.70989457  0.26440984  1
  O2-  O208  1  0.16827522  0.70268950  0.59507108  1
  O2-  O209  1  0.16273779  0.70373464  0.94145891  1
  O2-  O210  1  0.66244654  0.20403393  0.26995755  1
  O2-  O211  1  0.66683245  0.21145979  0.60110105  1
  O2-  O212  1  0.66976587  0.20351251  0.93906411  1
  O2-  O213  1  0.66683434  0.71443158  0.26678731  1
  O2-  O214  1  0.66747869  0.69743001  0.60513812  1
  O2-  O215  1  0.67072263  0.70889893  0.92950817  1
  O2-  O216  1  0.07930489  0.45291394  0.06471225  1
  O2-  O217  1  0.08273313  0.45972361  0.40144447  1
  O2-  O218  1  0.08432200  0.45346990  0.72813607  1
  O2-  O219  1  0.08335037  0.96076287  0.07340119  1
  O2-  O220  1  0.08754513  0.95762374  0.39909081  1
  O2-  O221  1  0.08398228  0.95652261  0.73210548  1
  O2-  O222  1  0.57926529  0.45608775  0.06984229  1
  O2-  O223  1  0.58125044  0.45238270  0.39657467  1
  O2-  O224  1  0.58025943  0.46001971  0.73069605  1
  O2-  O225  1  0.58526454  0.95270285  0.06426546  1
  O2-  O226  1  0.58800876  0.96161964  0.39729173  1
  O2-  O227  1  0.58575776  0.95617476  0.73031483  1
  O2-  O228  1  0.20808430  0.33018687  0.06651052  1
  O2-  O229  1  0.21065717  0.33312622  0.40417198  1
  O2-  O230  1  0.20465136  0.33601450  0.72446985  1
  O2-  O231  1  0.20499754  0.82961461  0.07199440  1
  O2-  O232  1  0.20580488  0.83528099  0.39762087  1
  O2-  O233  1  0.20705219  0.82524986  0.72936152  1
  O2-  O234  1  0.70462327  0.33191836  0.07108177  1
  O2-  O235  1  0.70296111  0.33266655  0.39676154  1
  O2-  O236  1  0.71056429  0.33716881  0.73536574  1
  O2-  O237  1  0.70729127  0.83613343  0.06301893  1
  O2-  O238  1  0.70479993  0.83998689  0.39734251  1
  O2-  O239  1  0.69715827  0.83051734  0.72712123  1
  O2-  O240  1  0.45252150  0.41202365  0.27229480  1
  O2-  O241  1  0.46089179  0.41576089  0.59334761  1
  O2-  O242  1  0.45970105  0.41478765  0.93307438  1
  O2-  O243  1  0.45814132  0.91726618  0.27079029  1
  O2-  O244  1  0.45941603  0.92070801  0.59884653  1
  O2-  O245  1  0.45693018  0.92005977  0.93288948  1
  O2-  O246  1  0.95936157  0.41635310  0.26578556  1
  O2-  O247  1  0.95352124  0.41080464  0.60476975  1
  O2-  O248  1  0.95109754  0.41670759  0.93498579  1
  O2-  O249  1  0.95564469  0.91859900  0.26997145  1
  O2-  O250  1  0.95914854  0.92022748  0.59676398  1
  O2-  O251  1  0.96083716  0.91329317  0.94046455  1
  O2-  O252  1  0.33641577  0.28783095  0.27262312  1
  O2-  O253  1  0.33215775  0.28950460  0.59396656  1
  O2-  O254  1  0.33359562  0.28756915  0.93295597  1
  O2-  O255  1  0.33319113  0.80376875  0.27324101  1
  O2-  O256  1  0.33673826  0.78837553  0.59473367  1
  O2-  O257  1  0.32786267  0.79235100  0.93460757  1
  O2-  O258  1  0.83237280  0.28956091  0.26397507  1
  O2-  O259  1  0.83583907  0.28861063  0.60578722  1
  O2-  O260  1  0.83185695  0.29597950  0.93866413  1
  O2-  O261  1  0.83263617  0.80279683  0.27229725  1
  O2-  O262  1  0.82801916  0.80091106  0.59896963  1
  O2-  O263  1  0.83872235  0.79840362  0.93834297  1
  O2-  O264  1  0.42300576  0.04746579  0.06723293  1
  O2-  O265  1  0.41469316  0.04436075  0.39796197  1
  O2-  O266  1  0.42584294  0.05726763  0.72836171  1
  O2-  O267  1  0.41840424  0.54130789  0.06643332  1
  O2-  O268  1  0.41626139  0.54456625  0.39800505  1
  O2-  O269  1  0.41080305  0.53857850  0.72662848  1
  O2-  O270  1  0.91519631  0.03688793  0.07302207  1
  O2-  O271  1  0.91393018  0.04684055  0.39482548  1
  O2-  O272  1  0.91822732  0.04101901  0.73278275  1
  O2-  O273  1  0.91722784  0.54189719  0.06900586  1
  O2-  O274  1  0.91515595  0.53786707  0.40326626  1
  O2-  O275  1  0.91468742  0.54195568  0.72932439  1
  O2-  O276  1  0.28807842  0.16630891  0.06969390  1
  O2-  O277  1  0.29324402  0.16142269  0.39922454  1
  O2-  O278  1  0.28749832  0.17054560  0.73165449  1
  O2-  O279  1  0.29497530  0.66834569  0.07065433  1
  O2-  O280  1  0.29962607  0.66868243  0.39421830  1
  O2-  O281  1  0.29449797  0.66111116  0.72421131  1
  O2-  O282  1  0.79277952  0.16666442  0.07096796  1
  O2-  O283  1  0.79020485  0.16377531  0.39481188  1
  O2-  O284  1  0.78869703  0.16378221  0.73610052  1
  O2-  O285  1  0.79641798  0.67332481  0.06682287  1
  O2-  O286  1  0.79027604  0.66956530  0.40281311  1
  O2-  O287  1  0.80365075  0.66921681  0.72473609  1
