# generated using pymatgen
data_Ca2Al2SiO7
_symmetry_space_group_name_H-M   'P 1'
_cell_length_a   15.45766017
_cell_length_b   15.45718364
_cell_length_c   15.28305580
_cell_angle_alpha   89.99370431
_cell_angle_beta   89.99648060
_cell_angle_gamma   89.99672741
_symmetry_Int_Tables_number   1
_chemical_formula_structural   Ca2Al2SiO7
_chemical_formula_sum   'Ca48 Al48 Si24 O168'
_cell_volume   3651.60939967
_cell_formula_units_Z   24
loop_
 _symmetry_equiv_pos_site_id
 _symmetry_equiv_pos_as_xyz
  1  'x, y, z'
loop_
 _atom_type_symbol
 _atom_type_oxidation_number
  Ca2+  2.0
  Al0+  0.0
  Si0+  0.0
  O2-  -2.0
loop_
 _atom_site_type_symbol
 _atom_site_label
 _atom_site_symmetry_multiplicity
 _atom_site_fract_x
 _atom_site_fract_y
 _atom_site_fract_z
 _atom_site_occupancy
  Ca2+  Ca0  1  0.17035117  0.08837078  0.16991804  1
  Ca2+  Ca1  1  0.17564976  0.08322752  0.51021116  1
  Ca2+  Ca2  1  0.16388492  0.08745114  0.83070771  1
  Ca2+  Ca3  1  0.17528888  0.57847914  0.17575969  1
  Ca2+  Ca4  1  0.17713129  0.58738575  0.50934833  1
  Ca2+  Ca5  1  0.17311506  0.58889891  0.83264345  1
  Ca2+  Ca6  1  0.67868036  0.08247267  0.17122939  1
  Ca2+  Ca7  1  0.67401243  0.07969498  0.51079299  1
  Ca2+  Ca8  1  0.66559696  0.07190481  0.83806536  1
  Ca2+  Ca9  1  0.66253577  0.57864638  0.17266365  1
  Ca2+  Ca10  1  0.65865407  0.57395244  0.50598728  1
  Ca2+  Ca11  1  0.66043545  0.58135709  0.83229563  1
  Ca2+  Ca12  1  0.07010395  0.32696055  0.15789240  1
  Ca2+  Ca13  1  0.07796053  0.32818050  0.49770752  1
  Ca2+  Ca14  1  0.07686701  0.32214212  0.82933988  1
  Ca2+  Ca15  1  0.07703062  0.83639236  0.16777604  1
  Ca2+  Ca16  1  0.07756902  0.83718199  0.50204133  1
  Ca2+  Ca17  1  0.07644070  0.83371744  0.81908418  1
  Ca2+  Ca18  1  0.57859209  0.33430291  0.16305256  1
  Ca2+  Ca19  1  0.58365087  0.33368008  0.50263055  1
  Ca2+  Ca20  1  0.57526957  0.32869333  0.82316368  1
  Ca2+  Ca21  1  0.58957308  0.82152044  0.16201877  1
  Ca2+  Ca22  1  0.59045417  0.82143553  0.49787350  1
  Ca2+  Ca23  1  0.59236365  0.82627804  0.82612272  1
  Ca2+  Ca24  1  0.33396391  0.41878596  0.17205102  1
  Ca2+  Ca25  1  0.33906685  0.42739169  0.50775725  1
  Ca2+  Ca26  1  0.34070061  0.41675579  0.83154281  1
  Ca2+  Ca27  1  0.32985030  0.92505622  0.17524907  1
  Ca2+  Ca28  1  0.32908398  0.92796000  0.51065501  1
  Ca2+  Ca29  1  0.32829503  0.92182852  0.83054679  1
  Ca2+  Ca30  1  0.82869403  0.41138300  0.17616465  1
  Ca2+  Ca31  1  0.82191936  0.41196125  0.50307688  1
  Ca2+  Ca32  1  0.82773344  0.41336603  0.83632648  1
  Ca2+  Ca33  1  0.83294177  0.92683173  0.16957511  1
  Ca2+  Ca34  1  0.83377700  0.91569653  0.50467258  1
  Ca2+  Ca35  1  0.82514427  0.91840200  0.83681077  1
  Ca2+  Ca36  1  0.41633584  0.17175353  0.16011013  1
  Ca2+  Ca37  1  0.41900101  0.16379342  0.50097962  1
  Ca2+  Ca38  1  0.41887335  0.17661592  0.82130997  1
  Ca2+  Ca39  1  0.42719356  0.66151419  0.16484762  1
  Ca2+  Ca40  1  0.42351847  0.66003545  0.49744013  1
  Ca2+  Ca41  1  0.42708478  0.66697309  0.82513086  1
  Ca2+  Ca42  1  0.91280750  0.17252645  0.16087221  1
  Ca2+  Ca43  1  0.92191816  0.16519819  0.49397235  1
  Ca2+  Ca44  1  0.92341673  0.16090530  0.83206262  1
  Ca2+  Ca45  1  0.91224195  0.67528334  0.16478602  1
  Ca2+  Ca46  1  0.91830759  0.68003120  0.49906381  1
  Ca2+  Ca47  1  0.92353660  0.67531738  0.82052383  1
  Al0+  Al48  1  0.00010967  -0.00039936  0.00163099  1
  Al0+  Al49  1  0.00039472  -0.00076363  0.33107631  1
  Al0+  Al50  1  0.00039342  0.00192790  0.66120665  1
  Al0+  Al51  1  0.00041172  0.49986940  -0.00207714  1
  Al0+  Al52  1  -0.00075689  0.49985847  0.33017837  1
  Al0+  Al53  1  0.00103883  0.50140861  0.66241067  1
  Al0+  Al54  1  0.49737960  -0.00356516  0.00648151  1
  Al0+  Al55  1  0.50056689  -0.00151664  0.33524077  1
  Al0+  Al56  1  0.50115763  0.00076525  0.67233441  1
  Al0+  Al57  1  0.50079140  0.50148431  -0.00641128  1
  Al0+  Al58  1  0.50009890  0.49858675  0.33545620  1
  Al0+  Al59  1  0.49991586  0.49985377  0.66897912  1
  Al0+  Al60  1  0.24807624  0.25201406  -0.00604627  1
  Al0+  Al61  1  0.25036901  0.25035379  0.33721710  1
  Al0+  Al62  1  0.24899267  0.25414640  0.66138150  1
  Al0+  Al63  1  0.25230811  0.75079892  0.00428967  1
  Al0+  Al64  1  0.25098711  0.75032407  0.33583713  1
  Al0+  Al65  1  0.25094568  0.75087715  0.67278497  1
  Al0+  Al66  1  0.74781948  0.25014985  0.00029621  1
  Al0+  Al67  1  0.74952426  0.24829599  0.33840733  1
  Al0+  Al68  1  0.74825347  0.25075591  0.67061172  1
  Al0+  Al69  1  0.75028421  0.74769594  -0.00043832  1
  Al0+  Al70  1  0.75149368  0.74872730  0.32282002  1
  Al0+  Al71  1  0.75089654  0.74931106  0.66183358  1
  Al0+  Al72  1  0.82044694  0.07055343  0.01505470  1
  Al0+  Al73  1  0.06954576  0.17807564  0.98480609  1
  Al0+  Al74  1  0.07459460  0.67844734  0.65194553  1
  Al0+  Al75  1  0.92886442  0.82199193  0.65201311  1
  Al0+  Al76  1  0.56842868  0.67793637  0.31883131  1
  Al0+  Al77  1  0.93036098  0.82122011  0.31584035  1
  Al0+  Al78  1  0.68035909  0.92732017  0.67802566  1
  Al0+  Al79  1  0.67989996  0.42959720  0.68303765  1
  Al0+  Al80  1  0.92493965  0.32278892  0.98413481  1
  Al0+  Al81  1  0.56970256  0.68041289  0.65206686  1
  Al0+  Al82  1  0.67732204  0.92512934  0.01726514  1
  Al0+  Al83  1  0.42979685  0.32117284  0.64871918  1
  Al0+  Al84  1  0.06933447  0.18069079  0.65050179  1
  Al0+  Al85  1  0.57191446  0.17654962  0.65227877  1
  Al0+  Al86  1  0.68011905  0.42980675  0.34661652  1
  Al0+  Al87  1  0.32133443  0.07474404  0.68360515  1
  Al0+  Al88  1  0.42988022  0.32017489  0.98722111  1
  Al0+  Al89  1  0.17814526  0.93154237  0.68174122  1
  Al0+  Al90  1  0.32010324  0.56938868  0.34646968  1
  Al0+  Al91  1  0.32240675  0.07221770  0.34687031  1
  Al0+  Al92  1  0.57044063  0.68160679  0.98421811  1
  Al0+  Al93  1  0.82068131  0.06976589  0.34853942  1
  Al0+  Al94  1  0.92741644  0.31968405  0.32126488  1
  Al0+  Al95  1  0.32066068  0.57073142  0.68294869  1
  Si0+  Si96  1  0.17825761  0.42907724  0.01490986  1
  Si0+  Si97  1  0.57075198  0.17461226  0.98635532  1
  Si0+  Si98  1  0.07477576  0.67807076  0.31562887  1
  Si0+  Si99  1  0.67841137  0.43091367  0.01450992  1
  Si0+  Si100  1  0.82365511  0.57414958  0.34912498  1
  Si0+  Si101  1  0.32168292  0.57018409  0.01595931  1
  Si0+  Si102  1  0.67965244  0.92540273  0.34927218  1
  Si0+  Si103  1  0.07317069  0.17937213  0.31651791  1
  Si0+  Si104  1  0.42703700  0.82340268  0.31695940  1
  Si0+  Si105  1  0.93146981  0.81909988  0.98533475  1
  Si0+  Si106  1  0.82259104  0.07300865  0.68283812  1
  Si0+  Si107  1  0.17893079  0.92750231  0.01673641  1
  Si0+  Si108  1  0.42985410  0.31945976  0.31888507  1
  Si0+  Si109  1  0.42760657  0.82347061  0.65156542  1
  Si0+  Si110  1  0.17557261  0.42823440  0.34980426  1
  Si0+  Si111  1  0.07416715  0.67869415  0.98739236  1
  Si0+  Si112  1  0.57111465  0.17624076  0.31854866  1
  Si0+  Si113  1  0.17833926  0.92828927  0.34986091  1
  Si0+  Si114  1  0.42490161  0.82322848  0.98316795  1
  Si0+  Si115  1  0.82367162  0.56989607  0.01463742  1
  Si0+  Si116  1  0.82275595  0.57172623  0.68181333  1
  Si0+  Si117  1  0.31874000  0.07324480  0.01424786  1
  Si0+  Si118  1  0.17493461  0.42895493  0.68466089  1
  Si0+  Si119  1  0.92594815  0.32372411  0.64979022  1
  O2-  O120  1  0.24895115  0.00074614  0.05737931  1
  O2-  O121  1  0.24800200  -0.00320508  0.39163060  1
  O2-  O122  1  0.24805269  0.00421315  0.73447503  1
  O2-  O123  1  0.24980329  0.49984190  0.05822220  1
  O2-  O124  1  0.24191110  0.49900308  0.39352826  1
  O2-  O125  1  0.24339327  0.49809424  0.72941606  1
  O2-  O126  1  0.74636448  0.00059968  0.06639327  1
  O2-  O127  1  0.74693408  -0.00578938  0.39455177  1
  O2-  O128  1  0.75238005  0.00476348  0.72504664  1
  O2-  O129  1  0.75467286  0.49643311  0.05684107  1
  O2-  O130  1  0.75608072  0.50426780  0.39239876  1
  O2-  O131  1  0.75705555  0.50210199  0.72936702  1
  O2-  O132  1  0.00307640  0.24666181  0.27277890  1
  O2-  O133  1  -0.00696085  0.25416543  0.60486417  1
  O2-  O134  1  -0.00597181  0.24740226  0.93587514  1
  O2-  O135  1  0.00487794  0.74474778  0.26960858  1
  O2-  O136  1  0.00324852  0.75115956  0.60306868  1
  O2-  O137  1  0.00382431  0.74919160  0.94415822  1
  O2-  O138  1  0.49735870  0.24525660  0.27601317  1
  O2-  O139  1  0.49904490  0.24622491  0.59923542  1
  O2-  O140  1  0.50101710  0.24190851  0.94243585  1
  O2-  O141  1  0.49491621  0.75415214  0.27172995  1
  O2-  O142  1  0.49651740  0.75630255  0.60521497  1
  O2-  O143  1  0.49859288  0.75988198  0.93971834  1
  O2-  O144  1  0.07355601  0.18173813  0.09866314  1
  O2-  O145  1  0.07380792  0.18080445  0.42176256  1
  O2-  O146  1  0.06679801  0.18079665  0.76355463  1
  O2-  O147  1  0.07422520  0.67944305  0.09267279  1
  O2-  O148  1  0.07631593  0.67931111  0.42040741  1
  O2-  O149  1  0.07110744  0.67917467  0.76658231  1
  O2-  O150  1  0.56959118  0.17761044  0.09276810  1
  O2-  O151  1  0.57130587  0.17546034  0.42295585  1
  O2-  O152  1  0.57173598  0.17818493  0.76636324  1
  O2-  O153  1  0.56698986  0.67728537  0.09763245  1
  O2-  O154  1  0.56742305  0.67775422  0.43138467  1
  O2-  O155  1  0.56943022  0.68177260  0.76531753  1
  O2-  O156  1  0.17790658  0.42792339  0.24346971  1
  O2-  O157  1  0.17385866  0.43023025  0.57891081  1
  O2-  O158  1  0.17716289  0.43096716  0.91047104  1
  O2-  O159  1  0.17964777  0.92831624  0.24330813  1
  O2-  O160  1  0.18010166  0.93280318  0.56799109  1
  O2-  O161  1  0.17909652  0.92285346  0.91261892  1
  O2-  O162  1  0.67831452  0.43080428  0.23264141  1
  O2-  O163  1  0.68078249  0.43087700  0.56979414  1
  O2-  O164  1  0.67700669  0.43370058  0.90990744  1
  O2-  O165  1  0.68030879  0.92736265  0.24356321  1
  O2-  O166  1  0.68338281  0.92596169  0.56478389  1
  O2-  O167  1  0.68120664  0.92424343  0.90381490  1
  O2-  O168  1  0.43063429  0.32042346  0.10143017  1
  O2-  O169  1  0.43067372  0.32134121  0.42300735  1
  O2-  O170  1  0.43287634  0.32112289  0.76273926  1
  O2-  O171  1  0.41906578  0.82010860  0.08878795  1
  O2-  O172  1  0.42673821  0.82442268  0.42195918  1
  O2-  O173  1  0.42800083  0.82073150  0.75752423  1
  O2-  O174  1  0.92782810  0.32441368  0.09808064  1
  O2-  O175  1  0.92918211  0.31780398  0.43400056  1
  O2-  O176  1  0.92802748  0.32437670  0.75539655  1
  O2-  O177  1  0.93322491  0.81771804  0.09068302  1
  O2-  O178  1  0.93059306  0.82043721  0.42811383  1
  O2-  O179  1  0.92853676  0.81946294  0.76637216  1
  O2-  O180  1  0.31978331  0.07312689  0.23265144  1
  O2-  O181  1  0.32013275  0.07100957  0.56977596  1
  O2-  O182  1  0.31899244  0.07291175  0.91007978  1
  O2-  O183  1  0.32017304  0.56505752  0.23238120  1
  O2-  O184  1  0.32106281  0.56875445  0.56965209  1
  O2-  O185  1  0.32039993  0.57164170  0.91148838  1
  O2-  O186  1  0.81897999  0.07094247  0.23542553  1
  O2-  O187  1  0.82224459  0.07302569  0.57696327  1
  O2-  O188  1  0.82210890  0.06638556  0.90175621  1
  O2-  O189  1  0.82274255  0.57332367  0.24280954  1
  O2-  O190  1  0.82150477  0.57107906  0.57631218  1
  O2-  O191  1  0.82489045  0.57187457  0.90992695  1
  O2-  O192  1  0.05090123  0.08466996  0.27165330  1
  O2-  O193  1  0.04069185  0.08519175  0.59421760  1
  O2-  O194  1  0.04487152  0.07778467  0.93367970  1
  O2-  O195  1  0.05160258  0.58338790  0.26965425  1
  O2-  O196  1  0.04769111  0.58053713  0.59724739  1
  O2-  O197  1  0.04818269  0.58703938  0.93988774  1
  O2-  O198  1  0.54563612  0.08386994  0.27017667  1
  O2-  O199  1  0.54660751  0.07686290  0.60026194  1
  O2-  O200  1  0.54666009  0.07899165  0.94443243  1
  O2-  O201  1  0.53411266  0.58178569  0.26425844  1
  O2-  O202  1  0.53586090  0.58444836  0.60034965  1
  O2-  O203  1  0.53570418  0.58724417  0.92904827  1
  O2-  O204  1  0.16671653  0.20763670  0.27021318  1
  O2-  O205  1  0.16459332  0.21342752  0.59578079  1
  O2-  O206  1  0.16551189  0.21065096  0.92989952  1
  O2-  O207  1  0.16802181  0.70562286  0.26777139  1
  O2-  O208  1  0.17379620  0.70678768  0.60165043  1
  O2-  O209  1  0.16704351  0.70616237  0.94223820  1
  O2-  O210  1  0.66137162  0.20869443  0.27104508  1
  O2-  O211  1  0.67047847  0.20752594  0.60046172  1
  O2-  O212  1  0.66368566  0.20003330  0.94060983  1
  O2-  O213  1  0.66516126  0.70543559  0.26263265  1
  O2-  O214  1  0.66634542  0.70795902  0.59743681  1
  O2-  O215  1  0.66918658  0.70692391  0.93170915  1
  O2-  O216  1  0.08694381  0.45815582  0.06407132  1
  O2-  O217  1  0.08085370  0.45088102  0.39439435  1
  O2-  O218  1  0.08098057  0.45393475  0.73105171  1
  O2-  O219  1  0.08753815  0.95462015  0.06542139  1
  O2-  O220  1  0.08483593  0.95377396  0.39425166  1
  O2-  O221  1  0.07861585  0.95982822  0.73295995  1
  O2-  O222  1  0.58792235  0.46483899  0.06214597  1
  O2-  O223  1  0.58474162  0.46170714  0.40106139  1
  O2-  O224  1  0.58506137  0.46392774  0.73734420  1
  O2-  O225  1  0.57591651  0.94543334  0.06935275  1
  O2-  O226  1  0.58465817  0.94719832  0.39326661  1
  O2-  O227  1  0.58410577  0.95361321  0.73501868  1
  O2-  O228  1  0.20715213  0.33761817  0.06289928  1
  O2-  O229  1  0.20268358  0.33567498  0.39622774  1
  O2-  O230  1  0.20237764  0.33607200  0.73031506  1
  O2-  O231  1  0.20877172  0.83714885  0.06788179  1
  O2-  O232  1  0.20178531  0.83433073  0.39519837  1
  O2-  O233  1  0.20633124  0.83385015  0.73687600  1
  O2-  O234  1  0.69852800  0.33689192  0.06141078  1
  O2-  O235  1  0.70969458  0.33395900  0.40177557  1
  O2-  O236  1  0.70802895  0.33288941  0.73887622  1
  O2-  O237  1  0.71080052  0.82729496  0.06952709  1
  O2-  O238  1  0.70784035  0.83070460  0.39113565  1
  O2-  O239  1  0.71456483  0.83140545  0.73240435  1
  O2-  O240  1  0.46134375  0.40940638  0.26946136  1
  O2-  O241  1  0.46402311  0.41833254  0.59743399  1
  O2-  O242  1  0.46274757  0.41501630  0.93245632  1
  O2-  O243  1  0.45281251  0.91677511  0.26874463  1
  O2-  O244  1  0.45126713  0.91798500  0.60786444  1
  O2-  O245  1  0.44360785  0.91949428  0.94027770  1
  O2-  O246  1  0.95409398  0.41791182  0.26643814  1
  O2-  O247  1  0.95170216  0.41674565  0.60273567  1
  O2-  O248  1  0.95696594  0.42053487  0.93129861  1
  O2-  O249  1  0.96435146  0.91669723  0.26009347  1
  O2-  O250  1  0.95587229  0.91936209  0.59751745  1
  O2-  O251  1  0.95864469  0.91092678  0.93954794  1
  O2-  O252  1  0.33606772  0.29482507  0.27223051  1
  O2-  O253  1  0.32967413  0.30119990  0.59674940  1
  O2-  O254  1  0.33280535  0.29470319  0.93300771  1
  O2-  O255  1  0.33266661  0.79889961  0.27040701  1
  O2-  O256  1  0.33403483  0.79759232  0.60671115  1
  O2-  O257  1  0.33324595  0.79221446  0.93557216  1
  O2-  O258  1  0.83070602  0.28716227  0.26755149  1
  O2-  O259  1  0.83127880  0.29926394  0.60682587  1
  O2-  O260  1  0.82440994  0.29960462  0.93389214  1
  O2-  O261  1  0.83579489  0.78965486  0.25768194  1
  O2-  O262  1  0.83406405  0.78851796  0.59542273  1
  O2-  O263  1  0.84025042  0.78887933  0.93940677  1
  O2-  O264  1  0.41013347  0.04713531  0.06437285  1
  O2-  O265  1  0.41930951  0.04202539  0.40016210  1
  O2-  O266  1  0.41902042  0.04589902  0.73757446  1
  O2-  O267  1  0.41341981  0.53908868  0.06189653  1
  O2-  O268  1  0.41434741  0.53433771  0.40061252  1
  O2-  O269  1  0.41535510  0.53630708  0.73816505  1
  O2-  O270  1  0.91877043  0.04027977  0.06910084  1
  O2-  O271  1  0.91920740  0.04019631  0.39866855  1
  O2-  O272  1  0.91564965  0.04505463  0.72754125  1
  O2-  O273  1  0.91667238  0.54681107  0.06324573  1
  O2-  O274  1  0.91875025  0.55187224  0.39319469  1
  O2-  O275  1  0.91811375  0.54948338  0.72686806  1
  O2-  O276  1  0.28897110  0.16520065  0.06157834  1
  O2-  O277  1  0.29281850  0.16851618  0.40134296  1
  O2-  O278  1  0.29233633  0.17514903  0.73153805  1
  O2-  O279  1  0.29499290  0.66199915  0.06506554  1
  O2-  O280  1  0.29505147  0.66797719  0.39876859  1
  O2-  O281  1  0.29251237  0.66692474  0.73939006  1
  O2-  O282  1  0.79241343  0.17054752  0.06757672  1
  O2-  O283  1  0.78917764  0.16447985  0.40426258  1
  O2-  O284  1  0.79988610  0.16664593  0.72960352  1
  O2-  O285  1  0.79263709  0.66016024  0.06370535  1
  O2-  O286  1  0.79666252  0.66825923  0.39223362  1
  O2-  O287  1  0.79482886  0.66435532  0.72851941  1
