# generated using pymatgen
data_Ca2Al2SiO7
_symmetry_space_group_name_H-M   'P 1'
_cell_length_a   15.45637870
_cell_length_b   15.45647735
_cell_length_c   15.28356973
_cell_angle_alpha   90.00361977
_cell_angle_beta   90.00905800
_cell_angle_gamma   89.99363548
_symmetry_Int_Tables_number   1
_chemical_formula_structural   Ca2Al2SiO7
_chemical_formula_sum   'Ca48 Al48 Si24 O168'
_cell_volume   3651.26257512
_cell_formula_units_Z   24
loop_
 _symmetry_equiv_pos_site_id
 _symmetry_equiv_pos_as_xyz
  1  'x, y, z'
loop_
 _atom_type_symbol
 _atom_type_oxidation_number
  Ca2+  2.0
  Al0+  0.0
  Si0+  0.0
  O2-  -2.0
loop_
 _atom_site_type_symbol
 _atom_site_label
 _atom_site_symmetry_multiplicity
 _atom_site_fract_x
 _atom_site_fract_y
 _atom_site_fract_z
 _atom_site_occupancy
  Ca2+  Ca0  1  0.16720922  0.08548076  0.17416151  1
  Ca2+  Ca1  1  0.17208926  0.08076470  0.51115628  1
  Ca2+  Ca2  1  0.17309860  0.07832184  0.83157612  1
  Ca2+  Ca3  1  0.17059718  0.57895795  0.16742263  1
  Ca2+  Ca4  1  0.16876477  0.58365039  0.51085246  1
  Ca2+  Ca5  1  0.17292085  0.57897841  0.83553275  1
  Ca2+  Ca6  1  0.65668856  0.07671749  0.17130495  1
  Ca2+  Ca7  1  0.65824526  0.07973577  0.50262223  1
  Ca2+  Ca8  1  0.66034917  0.08027339  0.83732616  1
  Ca2+  Ca9  1  0.66825601  0.57141816  0.16898156  1
  Ca2+  Ca10  1  0.66410261  0.57733764  0.50353871  1
  Ca2+  Ca11  1  0.67207029  0.58135809  0.84252863  1
  Ca2+  Ca12  1  0.08829977  0.32916004  0.16271403  1
  Ca2+  Ca13  1  0.07909564  0.33544589  0.49763716  1
  Ca2+  Ca14  1  0.07899345  0.34515026  0.82760602  1
  Ca2+  Ca15  1  0.07606422  0.82667917  0.16606308  1
  Ca2+  Ca16  1  0.08218277  0.82708408  0.49542082  1
  Ca2+  Ca17  1  0.07744002  0.82584067  0.81886637  1
  Ca2+  Ca18  1  0.57918804  0.33296620  0.15906785  1
  Ca2+  Ca19  1  0.57725837  0.32232094  0.48961169  1
  Ca2+  Ca20  1  0.58306771  0.32744994  0.82907410  1
  Ca2+  Ca21  1  0.58745263  0.83703730  0.16231129  1
  Ca2+  Ca22  1  0.58001824  0.82871898  0.50060690  1
  Ca2+  Ca23  1  0.57970252  0.82602091  0.82370803  1
  Ca2+  Ca24  1  0.33876541  0.41628535  0.16673142  1
  Ca2+  Ca25  1  0.32716560  0.41977328  0.50913002  1
  Ca2+  Ca26  1  0.32709181  0.42569526  0.84006394  1
  Ca2+  Ca27  1  0.33268448  0.92182759  0.17175420  1
  Ca2+  Ca28  1  0.32850570  0.92311257  0.51429158  1
  Ca2+  Ca29  1  0.33579100  0.91770680  0.82806623  1
  Ca2+  Ca30  1  0.82170416  0.41813167  0.16832203  1
  Ca2+  Ca31  1  0.82751602  0.41026342  0.50434811  1
  Ca2+  Ca32  1  0.82976034  0.42282982  0.84123732  1
  Ca2+  Ca33  1  0.82154674  0.91533763  0.17445798  1
  Ca2+  Ca34  1  0.83431400  0.91166708  0.50083095  1
  Ca2+  Ca35  1  0.82782188  0.91584118  0.83835337  1
  Ca2+  Ca36  1  0.42679424  0.18102420  0.16169670  1
  Ca2+  Ca37  1  0.42124064  0.16886423  0.49492375  1
  Ca2+  Ca38  1  0.42593273  0.16949322  0.82998615  1
  Ca2+  Ca39  1  0.41648770  0.66734368  0.16123115  1
  Ca2+  Ca40  1  0.41414876  0.66835884  0.50389818  1
  Ca2+  Ca41  1  0.41921956  0.66499251  0.82444396  1
  Ca2+  Ca42  1  0.92349787  0.16396152  0.16741149  1
  Ca2+  Ca43  1  0.92486134  0.17103668  0.49855437  1
  Ca2+  Ca44  1  0.91735967  0.17694082  0.82628517  1
  Ca2+  Ca45  1  0.91521606  0.66507018  0.16665001  1
  Ca2+  Ca46  1  0.93032579  0.67586927  0.49679557  1
  Ca2+  Ca47  1  0.91959419  0.66883680  0.82266075  1
  Al0+  Al48  1  -0.00038696  -0.00089993  -0.00136783  1
  Al0+  Al49  1  -0.00170014  -0.00132474  0.32540816  1
  Al0+  Al50  1  -0.00233321  0.00242934  0.66946140  1
  Al0+  Al51  1  0.00269603  0.50048045  0.00884650  1
  Al0+  Al52  1  0.00066272  0.50086632  0.32905808  1
  Al0+  Al53  1  -0.00348649  0.50095566  0.65968944  1
  Al0+  Al54  1  0.49859334  0.00039744  0.00062019  1
  Al0+  Al55  1  0.49944460  0.00005031  0.33571001  1
  Al0+  Al56  1  0.50051230  -0.00116543  0.66433179  1
  Al0+  Al57  1  0.49912113  0.50140509  0.00208320  1
  Al0+  Al58  1  0.49963739  0.50187639  0.33602869  1
  Al0+  Al59  1  0.50004264  0.49729998  0.66667876  1
  Al0+  Al60  1  0.25162749  0.24846638  -0.00192469  1
  Al0+  Al61  1  0.25078633  0.25179456  0.32722774  1
  Al0+  Al62  1  0.25028092  0.24925738  0.67817492  1
  Al0+  Al63  1  0.24821387  0.75016021  0.00337495  1
  Al0+  Al64  1  0.24940819  0.74997224  0.32843327  1
  Al0+  Al65  1  0.25072609  0.75034173  0.66761731  1
  Al0+  Al66  1  0.75346753  0.24782966  0.00046329  1
  Al0+  Al67  1  0.75132141  0.24726359  0.33430018  1
  Al0+  Al68  1  0.75002987  0.24761143  0.65862072  1
  Al0+  Al69  1  0.75035284  0.75217545  0.00768292  1
  Al0+  Al70  1  0.74929130  0.75009958  0.33592094  1
  Al0+  Al71  1  0.74941224  0.74870108  0.65835685  1
  Al0+  Al72  1  0.67814014  0.92944909  0.35113640  1
  Al0+  Al73  1  0.32285259  0.57108443  0.68088334  1
  Al0+  Al74  1  0.17632700  0.92867658  0.68053453  1
  Al0+  Al75  1  0.42924813  0.32396340  0.98095837  1
  Al0+  Al76  1  0.42998516  0.32362703  0.31897171  1
  Al0+  Al77  1  0.57165687  0.17732069  0.31762571  1
  Al0+  Al78  1  0.67901369  0.42795422  0.34887858  1
  Al0+  Al79  1  0.57282379  0.17863419  0.98417403  1
  Al0+  Al80  1  0.32436690  0.07147433  0.68339483  1
  Al0+  Al81  1  0.07321575  0.67781555  0.31438210  1
  Al0+  Al82  1  0.07146219  0.67937725  0.65374957  1
  Al0+  Al83  1  0.32109738  0.57272992  0.01675085  1
  Al0+  Al84  1  0.42923214  0.82004360  0.65242664  1
  Al0+  Al85  1  0.18033494  0.42720811  0.01745813  1
  Al0+  Al86  1  0.17557401  0.42969324  0.67995716  1
  Al0+  Al87  1  0.92757611  0.82456411  0.65256416  1
  Al0+  Al88  1  0.07072558  0.18049719  0.32190612  1
  Al0+  Al89  1  0.56999859  0.17922783  0.65129996  1
  Al0+  Al90  1  0.82233025  0.57285517  0.01485695  1
  Al0+  Al91  1  0.67932028  0.42685680  0.01250150  1
  Al0+  Al92  1  0.92927476  0.32196571  0.65412954  1
  Al0+  Al93  1  0.57187722  0.67485412  0.65204543  1
  Al0+  Al94  1  0.67899945  0.93210359  0.01162365  1
  Al0+  Al95  1  0.92774225  0.81985227  0.31521868  1
  Si0+  Si96  1  0.57030784  0.67964671  0.31737069  1
  Si0+  Si97  1  0.42607492  0.32096489  0.65162670  1
  Si0+  Si98  1  0.57157218  0.68147536  0.98859994  1
  Si0+  Si99  1  0.17872208  0.92939740  0.34564669  1
  Si0+  Si100  1  0.17946632  0.42846243  0.34793592  1
  Si0+  Si101  1  0.82530131  0.07189315  0.01724745  1
  Si0+  Si102  1  0.07316139  0.17909832  0.65438855  1
  Si0+  Si103  1  0.07228213  0.17628526  0.98286800  1
  Si0+  Si104  1  0.82516122  0.07067502  0.35196472  1
  Si0+  Si105  1  0.82278435  0.57078023  0.35311610  1
  Si0+  Si106  1  0.82035194  0.07287782  0.68153206  1
  Si0+  Si107  1  0.32016646  0.57338867  0.34966444  1
  Si0+  Si108  1  0.67997531  0.42557542  0.67964299  1
  Si0+  Si109  1  0.42673254  0.82158552  0.98634302  1
  Si0+  Si110  1  0.92817733  0.81997302  0.98456416  1
  Si0+  Si111  1  0.42913051  0.82099452  0.31812016  1
  Si0+  Si112  1  0.17687754  0.92953641  0.01669055  1
  Si0+  Si113  1  0.07061378  0.67925753  0.98430486  1
  Si0+  Si114  1  0.81777476  0.57060727  0.67807377  1
  Si0+  Si115  1  0.92718719  0.32273004  0.31474432  1
  Si0+  Si116  1  0.93229336  0.32118975  0.98711159  1
  Si0+  Si117  1  0.31858580  0.07149829  0.34675446  1
  Si0+  Si118  1  0.68082241  0.92802316  0.68032378  1
  Si0+  Si119  1  0.32040128  0.06912594  0.01716177  1
  O2-  O120  1  0.24694992  0.00060198  0.06048045  1
  O2-  O121  1  0.24647598  0.00204073  0.38917330  1
  O2-  O122  1  0.25075012  -0.00137218  0.73132013  1
  O2-  O123  1  0.25425302  0.49676642  0.06849511  1
  O2-  O124  1  0.24837207  0.50180145  0.38962143  1
  O2-  O125  1  0.24883465  0.50044926  0.72971689  1
  O2-  O126  1  0.75156738  0.00800649  0.05987883  1
  O2-  O127  1  0.75287215  0.00537636  0.39623678  1
  O2-  O128  1  0.75240456  -0.00163795  0.72293250  1
  O2-  O129  1  0.75019178  0.50006281  0.06324673  1
  O2-  O130  1  0.75662182  0.49944436  0.39754114  1
  O2-  O131  1  0.74666793  0.50056021  0.72204180  1
  O2-  O132  1  -0.00263109  0.25471384  0.27148563  1
  O2-  O133  1  0.00958662  0.25200659  0.60955589  1
  O2-  O134  1  0.00414020  0.25115859  0.94315915  1
  O2-  O135  1  -0.00236397  0.74631475  0.26416555  1
  O2-  O136  1  0.00552713  0.75801156  0.60472568  1
  O2-  O137  1  -0.00259846  0.74806001  0.94195207  1
  O2-  O138  1  0.50653121  0.25589538  0.26913836  1
  O2-  O139  1  0.49324341  0.25180314  0.60578187  1
  O2-  O140  1  0.50509173  0.25412877  0.93315998  1
  O2-  O141  1  0.50097492  0.75206760  0.27417225  1
  O2-  O142  1  0.49789669  0.74509880  0.60183032  1
  O2-  O143  1  0.49784718  0.74971920  0.94636441  1
  O2-  O144  1  0.07006491  0.17327566  0.08825402  1
  O2-  O145  1  0.07143786  0.18174636  0.43485781  1
  O2-  O146  1  0.06782766  0.17651710  0.76007621  1
  O2-  O147  1  0.07167581  0.68299125  0.08921772  1
  O2-  O148  1  0.07677397  0.68075862  0.42749860  1
  O2-  O149  1  0.06555271  0.67726546  0.76784409  1
  O2-  O150  1  0.56859102  0.17583829  0.09725225  1
  O2-  O151  1  0.56531061  0.17614895  0.43124945  1
  O2-  O152  1  0.57353176  0.18091583  0.76420804  1
  O2-  O153  1  0.57159647  0.68445333  0.09399454  1
  O2-  O154  1  0.56802138  0.67901263  0.42215871  1
  O2-  O155  1  0.57708614  0.67843048  0.76617659  1
  O2-  O156  1  0.18144681  0.42710304  0.24319094  1
  O2-  O157  1  0.17674306  0.42879584  0.56566874  1
  O2-  O158  1  0.17522267  0.43287406  0.90449419  1
  O2-  O159  1  0.18250618  0.93062839  0.23994397  1
  O2-  O160  1  0.17589851  0.93337039  0.56628389  1
  O2-  O161  1  0.17534201  0.93007818  0.91218652  1
  O2-  O162  1  0.67932985  0.43119007  0.23586602  1
  O2-  O163  1  0.68238537  0.42521092  0.57452711  1
  O2-  O164  1  0.68322333  0.42843447  0.89837056  1
  O2-  O165  1  0.67725067  0.93080941  0.23764225  1
  O2-  O166  1  0.68076779  0.92940770  0.57544964  1
  O2-  O167  1  0.68161828  0.92897226  0.89837467  1
  O2-  O168  1  0.42974836  0.32054887  0.09467761  1
  O2-  O169  1  0.42580915  0.32046441  0.43266590  1
  O2-  O170  1  0.43024403  0.32152138  0.75678727  1
  O2-  O171  1  0.42692896  0.82277579  0.09205379  1
  O2-  O172  1  0.42681241  0.81993890  0.42248035  1
  O2-  O173  1  0.43477489  0.82171237  0.76646970  1
  O2-  O174  1  0.93265481  0.31783387  0.09211401  1
  O2-  O175  1  0.92894729  0.32242477  0.42045610  1
  O2-  O176  1  0.92621341  0.32103400  0.76761265  1
  O2-  O177  1  0.92997809  0.82159137  0.08918688  1
  O2-  O178  1  0.93246270  0.82075070  0.42839461  1
  O2-  O179  1  0.92393929  0.81990057  0.76694159  1
  O2-  O180  1  0.31738487  0.06834322  0.24127759  1
  O2-  O181  1  0.32148800  0.07213681  0.56903208  1
  O2-  O182  1  0.32075308  0.06598461  0.91251251  1
  O2-  O183  1  0.32042346  0.57551686  0.24470772  1
  O2-  O184  1  0.32240829  0.56773844  0.56664929  1
  O2-  O185  1  0.31770918  0.57757037  0.90398695  1
  O2-  O186  1  0.82815917  0.06818538  0.24620729  1
  O2-  O187  1  0.82107179  0.07555311  0.57687714  1
  O2-  O188  1  0.83046433  0.06942865  0.91163217  1
  O2-  O189  1  0.81982533  0.56965903  0.24733655  1
  O2-  O190  1  0.81705108  0.56876877  0.57325610  1
  O2-  O191  1  0.82152653  0.57367737  0.90054097  1
  O2-  O192  1  0.04054441  0.08514788  0.26396021  1
  O2-  O193  1  0.04181842  0.08837562  0.60598048  1
  O2-  O194  1  0.04027810  0.08576076  0.93480135  1
  O2-  O195  1  0.04725812  0.57842563  0.26201333  1
  O2-  O196  1  0.03620667  0.58557791  0.59595019  1
  O2-  O197  1  0.04495112  0.58539900  0.94114404  1
  O2-  O198  1  0.53602318  0.08037310  0.26552338  1
  O2-  O199  1  0.54111621  0.08210344  0.59876178  1
  O2-  O200  1  0.53780585  0.08086713  0.93166749  1
  O2-  O201  1  0.54003412  0.58901539  0.26952442  1
  O2-  O202  1  0.54603683  0.57569811  0.59896671  1
  O2-  O203  1  0.54827236  0.58892776  0.94147739  1
  O2-  O204  1  0.16556788  0.21048566  0.26366793  1
  O2-  O205  1  0.16946264  0.19805070  0.61226158  1
  O2-  O206  1  0.16567438  0.19811284  0.93744973  1
  O2-  O207  1  0.16950680  0.71155707  0.25902568  1
  O2-  O208  1  0.17129649  0.70165172  0.60243449  1
  O2-  O209  1  0.16162327  0.71106572  0.93783731  1
  O2-  O210  1  0.67467205  0.19452309  0.27074428  1
  O2-  O211  1  0.66494898  0.20999565  0.59459678  1
  O2-  O212  1  0.67541381  0.19856376  0.93483364  1
  O2-  O213  1  0.66276018  0.70588032  0.27153407  1
  O2-  O214  1  0.66684206  0.70621289  0.59420601  1
  O2-  O215  1  0.66309829  0.71245861  0.94194607  1
  O2-  O216  1  0.08379797  0.45650507  0.07408397  1
  O2-  O217  1  0.08509461  0.45277049  0.39216197  1
  O2-  O218  1  0.07560538  0.45956206  0.72989362  1
  O2-  O219  1  0.08492984  0.95805650  0.06422578  1
  O2-  O220  1  0.08491379  0.95422083  0.38861719  1
  O2-  O221  1  0.07877090  0.95946259  0.73603401  1
  O2-  O222  1  0.58185629  0.45648712  0.06550251  1
  O2-  O223  1  0.58325248  0.46256669  0.40294939  1
  O2-  O224  1  0.58671433  0.44772760  0.72565299  1
  O2-  O225  1  0.58131233  0.95902904  0.06666867  1
  O2-  O226  1  0.58055541  0.95956149  0.40449797  1
  O2-  O227  1  0.58962671  0.95652432  0.72780591  1
  O2-  O228  1  0.20453085  0.32545910  0.06649819  1
  O2-  O229  1  0.20864343  0.33669669  0.39497460  1
  O2-  O230  1  0.19808496  0.33108109  0.73516687  1
  O2-  O231  1  0.20527516  0.83862362  0.06522793  1
  O2-  O232  1  0.20957327  0.83796535  0.39147949  1
  O2-  O233  1  0.20271410  0.83039746  0.73408653  1
  O2-  O234  1  0.71057084  0.32918213  0.06600858  1
  O2-  O235  1  0.70826250  0.32946871  0.40087147  1
  O2-  O236  1  0.71333342  0.33502941  0.72586546  1
  O2-  O237  1  0.71110920  0.83818078  0.07011478  1
  O2-  O238  1  0.70781135  0.83181511  0.40368552  1
  O2-  O239  1  0.70829584  0.83507176  0.72601436  1
  O2-  O240  1  0.45503596  0.42387753  0.26812313  1
  O2-  O241  1  0.45162613  0.41366021  0.60432066  1
  O2-  O242  1  0.45310549  0.42514286  0.93165951  1
  O2-  O243  1  0.45585650  0.91326269  0.27083549  1
  O2-  O244  1  0.46092817  0.91630018  0.59716010  1
  O2-  O245  1  0.45534489  0.91251122  0.93888894  1
  O2-  O246  1  0.95089676  0.41644001  0.26906079  1
  O2-  O247  1  0.95369262  0.41702559  0.59495424  1
  O2-  O248  1  0.95967902  0.41443987  0.94189526  1
  O2-  O249  1  0.95684388  0.91677288  0.25927469  1
  O2-  O250  1  0.94819963  0.92609952  0.60317717  1
  O2-  O251  1  0.95693410  0.91197094  0.93728830  1
  O2-  O252  1  0.33414091  0.29133069  0.26295943  1
  O2-  O253  1  0.33057782  0.29597924  0.60931726  1
  O2-  O254  1  0.33094256  0.29105548  0.93015681  1
  O2-  O255  1  0.33845956  0.79312192  0.26772913  1
  O2-  O256  1  0.32959848  0.79796056  0.59956571  1
  O2-  O257  1  0.33379234  0.79555383  0.94064324  1
  O2-  O258  1  0.83461905  0.29449195  0.26866459  1
  O2-  O259  1  0.83747877  0.28377327  0.59576332  1
  O2-  O260  1  0.84138761  0.29306313  0.93793793  1
  O2-  O261  1  0.82760571  0.79164388  0.26511283  1
  O2-  O262  1  0.83288975  0.79134401  0.59626174  1
  O2-  O263  1  0.83487195  0.79397882  0.93931030  1
  O2-  O264  1  0.40987209  0.03729270  0.06646144  1
  O2-  O265  1  0.40894714  0.04146416  0.39469708  1
  O2-  O266  1  0.42162700  0.03815251  0.73660787  1
  O2-  O267  1  0.42121356  0.55051438  0.06910761  1
  O2-  O268  1  0.41213655  0.54780406  0.39714486  1
  O2-  O269  1  0.42160053  0.54190565  0.73453514  1
  O2-  O270  1  0.91686279  0.04057200  0.06566145  1
  O2-  O271  1  0.91800551  0.04039399  0.39807543  1
  O2-  O272  1  0.91182865  0.05041184  0.73237810  1
  O2-  O273  1  0.91904450  0.54460055  0.07022836  1
  O2-  O274  1  0.91888733  0.54780136  0.39538166  1
  O2-  O275  1  0.90901704  0.54210839  0.72570038  1
  O2-  O276  1  0.29349546  0.16124457  0.06367545  1
  O2-  O277  1  0.29087451  0.16400849  0.39232111  1
  O2-  O278  1  0.29651407  0.16733898  0.74134793  1
  O2-  O279  1  0.28885844  0.67043149  0.07185307  1
  O2-  O280  1  0.29104240  0.66588332  0.39551927  1
  O2-  O281  1  0.30014718  0.67098295  0.73244990  1
  O2-  O282  1  0.80712774  0.16667737  0.06289882  1
  O2-  O283  1  0.80614310  0.16625167  0.39642578  1
  O2-  O284  1  0.78791615  0.16315776  0.73011608  1
  O2-  O285  1  0.79287201  0.66943332  0.07080095  1
  O2-  O286  1  0.79423231  0.66367217  0.39802986  1
  O2-  O287  1  0.79086749  0.66300749  0.72546897  1
