# generated using pymatgen
data_Ca2Al2SiO7
_symmetry_space_group_name_H-M   'P 1'
_cell_length_a   15.45923692
_cell_length_b   15.46008120
_cell_length_c   15.28528861
_cell_angle_alpha   89.99052106
_cell_angle_beta   89.99445051
_cell_angle_gamma   89.99184412
_symmetry_Int_Tables_number   1
_chemical_formula_structural   Ca2Al2SiO7
_chemical_formula_sum   'Ca48 Al48 Si24 O168'
_cell_volume   3653.20004752
_cell_formula_units_Z   24
loop_
 _symmetry_equiv_pos_site_id
 _symmetry_equiv_pos_as_xyz
  1  'x, y, z'
loop_
 _atom_type_symbol
 _atom_type_oxidation_number
  Ca2+  2.0
  Al0+  0.0
  Si0+  0.0
  O2-  -2.0
loop_
 _atom_site_type_symbol
 _atom_site_label
 _atom_site_symmetry_multiplicity
 _atom_site_fract_x
 _atom_site_fract_y
 _atom_site_fract_z
 _atom_site_occupancy
  Ca2+  Ca0  1  0.16175289  0.07123638  0.16985992  1
  Ca2+  Ca1  1  0.17026715  0.06757535  0.50785806  1
  Ca2+  Ca2  1  0.16671173  0.07344153  0.84027870  1
  Ca2+  Ca3  1  0.16861970  0.59519044  0.16846802  1
  Ca2+  Ca4  1  0.16350334  0.58294256  0.50090673  1
  Ca2+  Ca5  1  0.17275990  0.58317913  0.84414592  1
  Ca2+  Ca6  1  0.67692412  0.08623511  0.17372021  1
  Ca2+  Ca7  1  0.67214483  0.08273537  0.50589470  1
  Ca2+  Ca8  1  0.67122846  0.08448618  0.83396190  1
  Ca2+  Ca9  1  0.66788899  0.58452824  0.17389996  1
  Ca2+  Ca10  1  0.68054894  0.59381257  0.50162528  1
  Ca2+  Ca11  1  0.67034709  0.58381437  0.83838486  1
  Ca2+  Ca12  1  0.07031886  0.32515474  0.15981761  1
  Ca2+  Ca13  1  0.07632878  0.32711255  0.49271779  1
  Ca2+  Ca14  1  0.07949991  0.32572967  0.83444721  1
  Ca2+  Ca15  1  0.08363865  0.83100908  0.16543228  1
  Ca2+  Ca16  1  0.08006605  0.83242221  0.49100266  1
  Ca2+  Ca17  1  0.08977107  0.83309778  0.83511881  1
  Ca2+  Ca18  1  0.58758255  0.32705849  0.16688517  1
  Ca2+  Ca19  1  0.58139843  0.32084603  0.49978435  1
  Ca2+  Ca20  1  0.57595387  0.32609608  0.82437286  1
  Ca2+  Ca21  1  0.57411869  0.82397142  0.16156486  1
  Ca2+  Ca22  1  0.57935378  0.83604425  0.49077841  1
  Ca2+  Ca23  1  0.58287763  0.83346412  0.83114467  1
  Ca2+  Ca24  1  0.33184687  0.42532068  0.16863071  1
  Ca2+  Ca25  1  0.33541491  0.41768677  0.50479747  1
  Ca2+  Ca26  1  0.33727757  0.42135631  0.84067950  1
  Ca2+  Ca27  1  0.32476612  0.90356827  0.16870729  1
  Ca2+  Ca28  1  0.32414502  0.91404148  0.50421165  1
  Ca2+  Ca29  1  0.32625988  0.91779140  0.83768675  1
  Ca2+  Ca30  1  0.83897852  0.41949088  0.17388944  1
  Ca2+  Ca31  1  0.83757236  0.42835313  0.49949145  1
  Ca2+  Ca32  1  0.83482154  0.41939013  0.83625661  1
  Ca2+  Ca33  1  0.84037875  0.92856316  0.17366102  1
  Ca2+  Ca34  1  0.83084940  0.92590788  0.50631484  1
  Ca2+  Ca35  1  0.82637301  0.92739722  0.83519154  1
  Ca2+  Ca36  1  0.42532095  0.16279760  0.16518725  1
  Ca2+  Ca37  1  0.42715727  0.15661345  0.50079394  1
  Ca2+  Ca38  1  0.41870474  0.16927426  0.81847549  1
  Ca2+  Ca39  1  0.42103033  0.67520546  0.15935704  1
  Ca2+  Ca40  1  0.42733758  0.67620905  0.48827639  1
  Ca2+  Ca41  1  0.41666748  0.67102654  0.83694098  1
  Ca2+  Ca42  1  0.91318027  0.17290462  0.15845853  1
  Ca2+  Ca43  1  0.90815358  0.17011918  0.49233077  1
  Ca2+  Ca44  1  0.91508950  0.16224920  0.83529643  1
  Ca2+  Ca45  1  0.92460276  0.67093280  0.16610144  1
  Ca2+  Ca46  1  0.91768431  0.67438093  0.48743317  1
  Ca2+  Ca47  1  0.92308850  0.66468125  0.82853705  1
  Al0+  Al48  1  -0.00012823  0.00050466  0.00432692  1
  Al0+  Al49  1  0.00196876  0.00050952  0.34113755  1
  Al0+  Al50  1  -0.00064516  -0.00182013  0.67405919  1
  Al0+  Al51  1  -0.00040973  0.49913166  -0.00762101  1
  Al0+  Al52  1  0.00050253  0.49872952  0.33067234  1
  Al0+  Al53  1  0.00194448  0.49918478  0.67035494  1
  Al0+  Al54  1  0.49965349  -0.00140244  -0.00365603  1
  Al0+  Al55  1  0.49970816  0.00146670  0.32201227  1
  Al0+  Al56  1  0.49899585  -0.00167422  0.66864140  1
  Al0+  Al57  1  0.50109531  0.50016018  0.00267071  1
  Al0+  Al58  1  0.50016491  0.49729435  0.33373603  1
  Al0+  Al59  1  0.50138876  0.50056564  0.66138578  1
  Al0+  Al60  1  0.24865031  0.24965683  -0.00068028  1
  Al0+  Al61  1  0.25090144  0.25089390  0.33438985  1
  Al0+  Al62  1  0.24721134  0.25137494  0.66402066  1
  Al0+  Al63  1  0.25080198  0.74975978  -0.00069237  1
  Al0+  Al64  1  0.25082337  0.74916057  0.33502480  1
  Al0+  Al65  1  0.25081334  0.74675992  0.66860635  1
  Al0+  Al66  1  0.74866545  0.25221823  -0.00153365  1
  Al0+  Al67  1  0.74847656  0.25208598  0.33073238  1
  Al0+  Al68  1  0.74952541  0.25311993  0.66601243  1
  Al0+  Al69  1  0.74978776  0.74988409  -0.00232293  1
  Al0+  Al70  1  0.75088171  0.75180751  0.32808279  1
  Al0+  Al71  1  0.75340824  0.75093921  0.67596590  1
  Al0+  Al72  1  0.57373420  0.67756269  0.31993515  1
  Al0+  Al73  1  0.31959770  0.07113620  0.67979447  1
  Al0+  Al74  1  0.31999615  0.56883556  0.01474276  1
  Al0+  Al75  1  0.07032913  0.67850320  0.32006584  1
  Al0+  Al76  1  0.92976159  0.31920237  0.32147620  1
  Al0+  Al77  1  0.82074776  0.57154508  0.34389918  1
  Al0+  Al78  1  0.57071133  0.17706687  0.65174422  1
  Al0+  Al79  1  0.17901641  0.92574740  0.68399739  1
  Al0+  Al80  1  0.92870756  0.82533057  0.31994754  1
  Al0+  Al81  1  0.92669883  0.32054884  0.98189878  1
  Al0+  Al82  1  0.42888058  0.82052988  0.98108645  1
  Al0+  Al83  1  0.67750360  0.92822751  0.68047289  1
  Al0+  Al84  1  0.42854724  0.82135855  0.31841115  1
  Al0+  Al85  1  0.42601260  0.32293604  0.65115397  1
  Al0+  Al86  1  0.18127164  0.92820701  0.34823989  1
  Al0+  Al87  1  0.82260194  0.57081326  0.68118029  1
  Al0+  Al88  1  0.81694450  0.07027987  0.01519461  1
  Al0+  Al89  1  0.07062631  0.17675857  0.98503460  1
  Al0+  Al90  1  0.56999361  0.18042011  0.31834910  1
  Al0+  Al91  1  0.82034908  0.07238363  0.34659923  1
  Al0+  Al92  1  0.18112274  0.93009223  0.01610976  1
  Al0+  Al93  1  0.57212551  0.67708754  0.98279065  1
  Al0+  Al94  1  0.06952936  0.68109675  0.98540699  1
  Al0+  Al95  1  0.82021241  0.07501313  0.68213453  1
  Si0+  Si96  1  0.57422911  0.67984388  0.65207023  1
  Si0+  Si97  1  0.82333750  0.57150024  0.01519995  1
  Si0+  Si98  1  0.92969090  0.82018211  0.65358306  1
  Si0+  Si99  1  0.42899607  0.32052295  0.98810676  1
  Si0+  Si100  1  0.42832317  0.81844923  0.65144474  1
  Si0+  Si101  1  0.32367182  0.07449425  0.34864753  1
  Si0+  Si102  1  0.32257254  0.56838661  0.68043031  1
  Si0+  Si103  1  0.67966721  0.43079087  0.01541070  1
  Si0+  Si104  1  0.07170250  0.67785419  0.65199287  1
  Si0+  Si105  1  0.32177676  0.56987622  0.34983883  1
  Si0+  Si106  1  0.32418687  0.07483477  0.01701088  1
  Si0+  Si107  1  0.93012216  0.32237269  0.65010515  1
  Si0+  Si108  1  0.67788550  0.43070145  0.68294151  1
  Si0+  Si109  1  0.67678730  0.92974729  0.34536076  1
  Si0+  Si110  1  0.57032410  0.17976802  0.98480909  1
  Si0+  Si111  1  0.06930368  0.17673874  0.65120327  1
  Si0+  Si112  1  0.17804570  0.42882628  0.68235300  1
  Si0+  Si113  1  0.67636591  0.42766449  0.35220289  1
  Si0+  Si114  1  0.07414356  0.17763793  0.31958758  1
  Si0+  Si115  1  0.17936393  0.42802244  0.34849980  1
  Si0+  Si116  1  0.17616691  0.42652874  0.01777160  1
  Si0+  Si117  1  0.42547672  0.32298987  0.31447801  1
  Si0+  Si118  1  0.67580243  0.92631690  0.01907832  1
  Si0+  Si119  1  0.92705934  0.82392033  0.98184225  1
  O2-  O120  1  0.25596384  0.00620364  0.06155944  1
  O2-  O121  1  0.25626207  0.00441825  0.39224172  1
  O2-  O122  1  0.24869199  0.00052405  0.73293289  1
  O2-  O123  1  0.24309062  0.49646821  0.06278234  1
  O2-  O124  1  0.25060347  0.49865032  0.39203377  1
  O2-  O125  1  0.25490014  0.49425237  0.72283541  1
  O2-  O126  1  0.74440908  -0.00546095  0.06375183  1
  O2-  O127  1  0.74731640  -0.00462886  0.39167422  1
  O2-  O128  1  0.74482396  0.00525931  0.73001631  1
  O2-  O129  1  0.75057326  0.50211871  0.05686996  1
  O2-  O130  1  0.74187402  0.50139827  0.39322938  1
  O2-  O131  1  0.74648444  0.49827628  0.72894175  1
  O2-  O132  1  0.00097119  0.24130318  0.27547304  1
  O2-  O133  1  -0.00483331  0.24527360  0.60866862  1
  O2-  O134  1  -0.00183686  0.24758274  0.93277617  1
  O2-  O135  1  -0.00032452  0.75176113  0.27054700  1
  O2-  O136  1  0.00215684  0.75012006  0.61103719  1
  O2-  O137  1  -0.00621845  0.75327284  0.93639730  1
  O2-  O138  1  0.49365764  0.25397011  0.27093400  1
  O2-  O139  1  0.49448937  0.24658206  0.60286014  1
  O2-  O140  1  0.49244651  0.24402582  0.94440791  1
  O2-  O141  1  0.50058225  0.74809055  0.27052527  1
  O2-  O142  1  0.50447841  0.75210163  0.60980865  1
  O2-  O143  1  0.50375606  0.75114895  0.93082500  1
  O2-  O144  1  0.07024079  0.17911456  0.09886024  1
  O2-  O145  1  0.07620262  0.18176022  0.42552507  1
  O2-  O146  1  0.07076280  0.17980933  0.75595080  1
  O2-  O147  1  0.06786708  0.68123779  0.09801072  1
  O2-  O148  1  0.06913750  0.67751043  0.43443926  1
  O2-  O149  1  0.07196901  0.67608256  0.75700216  1
  O2-  O150  1  0.57206881  0.18344619  0.08996854  1
  O2-  O151  1  0.56979155  0.18007909  0.43103924  1
  O2-  O152  1  0.57032527  0.18229209  0.76577802  1
  O2-  O153  1  0.57020548  0.67529542  0.09598715  1
  O2-  O154  1  0.57237478  0.68000462  0.43444484  1
  O2-  O155  1  0.57123428  0.67708685  0.75680487  1
  O2-  O156  1  0.18139511  0.42554683  0.24390667  1
  O2-  O157  1  0.17321280  0.43250296  0.57715116  1
  O2-  O158  1  0.17957901  0.42655901  0.91173982  1
  O2-  O159  1  0.18125852  0.92836741  0.23537986  1
  O2-  O160  1  0.18012890  0.92363755  0.57029800  1
  O2-  O161  1  0.18329397  0.93051535  0.90313653  1
  O2-  O162  1  0.67663108  0.42595727  0.24627543  1
  O2-  O163  1  0.67874939  0.43146009  0.57769967  1
  O2-  O164  1  0.67807477  0.43072956  0.91023322  1
  O2-  O165  1  0.67645233  0.93332785  0.23999802  1
  O2-  O166  1  0.68077531  0.92445380  0.56663102  1
  O2-  O167  1  0.67653602  0.92863837  0.91337438  1
  O2-  O168  1  0.43166696  0.32135253  0.09319086  1
  O2-  O169  1  0.42447800  0.32488223  0.41958220  1
  O2-  O170  1  0.42969998  0.32622445  0.76532179  1
  O2-  O171  1  0.42904392  0.81724928  0.09440708  1
  O2-  O172  1  0.42948715  0.82011753  0.43298468  1
  O2-  O173  1  0.42492228  0.81416598  0.75595051  1
  O2-  O174  1  0.92701475  0.32061201  0.09553622  1
  O2-  O175  1  0.93277593  0.32096843  0.43517595  1
  O2-  O176  1  0.93341419  0.32616983  0.75470000  1
  O2-  O177  1  0.92761856  0.82292310  0.08735598  1
  O2-  O178  1  0.92902608  0.82396968  0.43434005  1
  O2-  O179  1  0.92930347  0.81761841  0.75859637  1
  O2-  O180  1  0.32088714  0.07911048  0.24325516  1
  O2-  O181  1  0.31811910  0.06718373  0.56593664  1
  O2-  O182  1  0.32372553  0.07722452  0.91160594  1
  O2-  O183  1  0.32205211  0.56814869  0.24496625  1
  O2-  O184  1  0.32027609  0.56974198  0.57523465  1
  O2-  O185  1  0.32005783  0.56487358  0.90094395  1
  O2-  O186  1  0.81903849  0.07409004  0.23347937  1
  O2-  O187  1  0.82079440  0.07327924  0.56834609  1
  O2-  O188  1  0.81337897  0.07075349  0.90226284  1
  O2-  O189  1  0.82254246  0.56698564  0.23101156  1
  O2-  O190  1  0.82370239  0.57111187  0.56801012  1
  O2-  O191  1  0.82284060  0.56907265  0.90977561  1
  O2-  O192  1  0.05294306  0.08241329  0.27762631  1
  O2-  O193  1  0.04467383  0.08265394  0.60693356  1
  O2-  O194  1  0.04174058  0.07865073  0.93248680  1
  O2-  O195  1  0.04389051  0.58058578  0.26603428  1
  O2-  O196  1  0.04341132  0.58540381  0.60571091  1
  O2-  O197  1  0.04213532  0.58382088  0.92986970  1
  O2-  O198  1  0.54123996  0.08653568  0.25848834  1
  O2-  O199  1  0.54460343  0.07732141  0.59952013  1
  O2-  O200  1  0.55051698  0.08561669  0.93979399  1
  O2-  O201  1  0.54709096  0.57683285  0.27095901  1
  O2-  O202  1  0.54614386  0.58915482  0.60285530  1
  O2-  O203  1  0.54063786  0.57842730  0.93080076  1
  O2-  O204  1  0.16583614  0.20774481  0.27215389  1
  O2-  O205  1  0.15889345  0.20825851  0.60154047  1
  O2-  O206  1  0.16922050  0.20714112  0.93155535  1
  O2-  O207  1  0.16974408  0.70505070  0.27003457  1
  O2-  O208  1  0.16477202  0.70251847  0.60504453  1
  O2-  O209  1  0.16615997  0.71071428  0.93135552  1
  O2-  O210  1  0.66377144  0.21676076  0.26242823  1
  O2-  O211  1  0.66806001  0.21151837  0.59889776  1
  O2-  O212  1  0.65799310  0.21595587  0.93581907  1
  O2-  O213  1  0.67079916  0.70326461  0.26448027  1
  O2-  O214  1  0.66828948  0.70692855  0.60923710  1
  O2-  O215  1  0.67225406  0.70213627  0.93088417  1
  O2-  O216  1  0.08091837  0.45150441  0.05971569  1
  O2-  O217  1  0.08863005  0.45713172  0.39737018  1
  O2-  O218  1  0.09031624  0.46202167  0.73412044  1
  O2-  O219  1  0.08414553  0.95979701  0.06997566  1
  O2-  O220  1  0.08641689  0.95935082  0.40619694  1
  O2-  O221  1  0.08064982  0.95184054  0.73693867  1
  O2-  O222  1  0.58879909  0.45706289  0.06566129  1
  O2-  O223  1  0.58081638  0.44627711  0.39773146  1
  O2-  O224  1  0.58409756  0.45748770  0.72904619  1
  O2-  O225  1  0.58109740  0.95172582  0.06271205  1
  O2-  O226  1  0.58285838  0.95827847  0.39016411  1
  O2-  O227  1  0.57797172  0.94984146  0.73363556  1
  O2-  O228  1  0.20314438  0.33363061  0.06481433  1
  O2-  O229  1  0.20708259  0.33688539  0.39884502  1
  O2-  O230  1  0.19901039  0.33529325  0.72859268  1
  O2-  O231  1  0.21311750  0.83320881  0.06817340  1
  O2-  O232  1  0.21251441  0.83177282  0.40379922  1
  O2-  O233  1  0.21015699  0.82704898  0.73538562  1
  O2-  O234  1  0.70799798  0.33953502  0.06374484  1
  O2-  O235  1  0.70818026  0.33689993  0.39970320  1
  O2-  O236  1  0.70319083  0.33770309  0.73020750  1
  O2-  O237  1  0.70018870  0.83110499  0.06219147  1
  O2-  O238  1  0.69770477  0.83451110  0.38975030  1
  O2-  O239  1  0.71116009  0.83384783  0.73923026  1
  O2-  O240  1  0.45233337  0.41594335  0.26770427  1
  O2-  O241  1  0.45894944  0.41966300  0.59544224  1
  O2-  O242  1  0.46296042  0.40972729  0.93979908  1
  O2-  O243  1  0.45206546  0.91877723  0.26250685  1
  O2-  O244  1  0.45072564  0.91173901  0.60565136  1
  O2-  O245  1  0.45368991  0.92073223  0.92910953  1
  O2-  O246  1  0.96500701  0.41271446  0.26537071  1
  O2-  O247  1  0.96601010  0.41223601  0.60262897  1
  O2-  O248  1  0.95683929  0.41750941  0.92690526  1
  O2-  O249  1  0.96053879  0.92349118  0.26863976  1
  O2-  O250  1  0.95587100  0.91313320  0.60757544  1
  O2-  O251  1  0.95542826  0.91660037  0.93677174  1
  O2-  O252  1  0.33139924  0.29910850  0.26819628  1
  O2-  O253  1  0.32471634  0.30310814  0.59978243  1
  O2-  O254  1  0.33461487  0.30178851  0.94198199  1
  O2-  O255  1  0.33191409  0.78767089  0.26673475  1
  O2-  O256  1  0.33859648  0.78375344  0.60290788  1
  O2-  O257  1  0.33269130  0.78614338  0.92799456  1
  O2-  O258  1  0.83254009  0.29437425  0.26718979  1
  O2-  O259  1  0.83589988  0.30242850  0.60465274  1
  O2-  O260  1  0.82770689  0.29379026  0.92897634  1
  O2-  O261  1  0.83109743  0.80063084  0.26495878  1
  O2-  O262  1  0.83822732  0.79024585  0.60674170  1
  O2-  O263  1  0.83267968  0.80036135  0.93652487  1
  O2-  O264  1  0.41911035  0.04947665  0.06115058  1
  O2-  O265  1  0.41893928  0.04853102  0.39058524  1
  O2-  O266  1  0.41821670  0.04556429  0.73265463  1
  O2-  O267  1  0.41529464  0.53440330  0.06944653  1
  O2-  O268  1  0.41329164  0.54057943  0.39811754  1
  O2-  O269  1  0.41579405  0.54361952  0.72651420  1
  O2-  O270  1  0.91465925  0.04254013  0.06791242  1
  O2-  O271  1  0.91753788  0.04682247  0.40205185  1
  O2-  O272  1  0.91661707  0.04265265  0.73638247  1
  O2-  O273  1  0.91511650  0.54094298  0.06043230  1
  O2-  O274  1  0.91615193  0.53586611  0.39896988  1
  O2-  O275  1  0.91809698  0.53655677  0.73577739  1
  O2-  O276  1  0.30055689  0.16930658  0.06337302  1
  O2-  O277  1  0.29943127  0.16817980  0.39630743  1
  O2-  O278  1  0.29395567  0.17236193  0.72914335  1
  O2-  O279  1  0.28904446  0.66502887  0.06762466  1
  O2-  O280  1  0.29418113  0.66042362  0.39926823  1
  O2-  O281  1  0.29119173  0.65771915  0.72991544  1
  O2-  O282  1  0.78370511  0.16817579  0.06619677  1
  O2-  O283  1  0.78612509  0.16896281  0.39898445  1
  O2-  O284  1  0.79583882  0.17528964  0.73335266  1
  O2-  O285  1  0.79852356  0.66503179  0.06000219  1
  O2-  O286  1  0.79318055  0.67000209  0.39780129  1
  O2-  O287  1  0.79498175  0.66575438  0.73859967  1
