# generated using pymatgen
data_Ca2Al2SiO7
_symmetry_space_group_name_H-M   'P 1'
_cell_length_a   15.46218168
_cell_length_b   15.46386323
_cell_length_c   15.28764420
_cell_angle_alpha   90.00563500
_cell_angle_beta   90.00613157
_cell_angle_gamma   90.01614633
_symmetry_Int_Tables_number   1
_chemical_formula_structural   Ca2Al2SiO7
_chemical_formula_sum   'Ca48 Al48 Si24 O168'
_cell_volume   3655.35294130
_cell_formula_units_Z   24
loop_
 _symmetry_equiv_pos_site_id
 _symmetry_equiv_pos_as_xyz
  1  'x, y, z'
loop_
 _atom_type_symbol
 _atom_type_oxidation_number
  Ca2+  2.0
  Al0+  0.0
  Si0+  0.0
  O2-  -2.0
loop_
 _atom_site_type_symbol
 _atom_site_label
 _atom_site_symmetry_multiplicity
 _atom_site_fract_x
 _atom_site_fract_y
 _atom_site_fract_z
 _atom_site_occupancy
  Ca2+  Ca0  1  0.16592905  0.06964881  0.17079333  1
  Ca2+  Ca1  1  0.16459988  0.07182356  0.50323549  1
  Ca2+  Ca2  1  0.15665183  0.07160473  0.83442522  1
  Ca2+  Ca3  1  0.17522441  0.57764105  0.17122015  1
  Ca2+  Ca4  1  0.16975079  0.58409466  0.50131238  1
  Ca2+  Ca5  1  0.17014342  0.58530852  0.84517744  1
  Ca2+  Ca6  1  0.67721152  0.08051472  0.17000841  1
  Ca2+  Ca7  1  0.67307714  0.07682108  0.50477807  1
  Ca2+  Ca8  1  0.67281994  0.06868672  0.84307534  1
  Ca2+  Ca9  1  0.66544397  0.58364707  0.17655017  1
  Ca2+  Ca10  1  0.67673001  0.59242961  0.49645010  1
  Ca2+  Ca11  1  0.67567711  0.59014474  0.83633056  1
  Ca2+  Ca12  1  0.08735507  0.33685680  0.16226089  1
  Ca2+  Ca13  1  0.08835294  0.32569124  0.49484719  1
  Ca2+  Ca14  1  0.08578921  0.32746434  0.82832638  1
  Ca2+  Ca15  1  0.08193309  0.83152789  0.16334924  1
  Ca2+  Ca16  1  0.07484025  0.83486067  0.49568857  1
  Ca2+  Ca17  1  0.08274139  0.82642801  0.82531786  1
  Ca2+  Ca18  1  0.57120937  0.34353801  0.16418209  1
  Ca2+  Ca19  1  0.58050213  0.33455004  0.48855046  1
  Ca2+  Ca20  1  0.57519875  0.33384409  0.83321018  1
  Ca2+  Ca21  1  0.58173418  0.82135387  0.16168704  1
  Ca2+  Ca22  1  0.57714456  0.83142987  0.48933147  1
  Ca2+  Ca23  1  0.58994067  0.83227392  0.83146292  1
  Ca2+  Ca24  1  0.33100015  0.42353588  0.17289383  1
  Ca2+  Ca25  1  0.33490696  0.42148744  0.49473964  1
  Ca2+  Ca26  1  0.32540091  0.42278759  0.84537692  1
  Ca2+  Ca27  1  0.32153698  0.90543837  0.17153388  1
  Ca2+  Ca28  1  0.31947222  0.90317389  0.50065060  1
  Ca2+  Ca29  1  0.31901236  0.91479431  0.83889452  1
  Ca2+  Ca30  1  0.82500899  0.42702460  0.17887420  1
  Ca2+  Ca31  1  0.83030963  0.43143432  0.49925467  1
  Ca2+  Ca32  1  0.83777471  0.42568612  0.83480912  1
  Ca2+  Ca33  1  0.83357166  0.92336221  0.17094524  1
  Ca2+  Ca34  1  0.83325713  0.91292043  0.50323964  1
  Ca2+  Ca35  1  0.82721373  0.91389822  0.83708712  1
  Ca2+  Ca36  1  0.41183876  0.18108901  0.16303104  1
  Ca2+  Ca37  1  0.41877854  0.17340524  0.49074242  1
  Ca2+  Ca38  1  0.41020034  0.17468701  0.83171388  1
  Ca2+  Ca39  1  0.42387554  0.65863517  0.16493656  1
  Ca2+  Ca40  1  0.42301080  0.67063019  0.48707386  1
  Ca2+  Ca41  1  0.42146405  0.66331713  0.83639818  1
  Ca2+  Ca42  1  0.91210196  0.16523167  0.16368378  1
  Ca2+  Ca43  1  0.92261177  0.16083369  0.49476105  1
  Ca2+  Ca44  1  0.91926718  0.16582859  0.82991074  1
  Ca2+  Ca45  1  0.92085359  0.67023440  0.16326378  1
  Ca2+  Ca46  1  0.91437259  0.67550312  0.49631959  1
  Ca2+  Ca47  1  0.93023536  0.66975628  0.82338415  1
  Al0+  Al48  1  -0.00089579  0.00117869  0.00649094  1
  Al0+  Al49  1  0.00071733  -0.00073864  0.33572243  1
  Al0+  Al50  1  0.00038267  0.00108881  0.66338678  1
  Al0+  Al51  1  0.00010288  0.49999669  -0.00109781  1
  Al0+  Al52  1  -0.00012051  0.49770688  0.34111177  1
  Al0+  Al53  1  0.00061123  0.49861700  0.66651354  1
  Al0+  Al54  1  0.49994474  0.00010690  0.00410279  1
  Al0+  Al55  1  0.49933552  0.00128143  0.32600591  1
  Al0+  Al56  1  0.49986988  0.00210133  0.67079292  1
  Al0+  Al57  1  0.50045161  0.50080880  -0.01003295  1
  Al0+  Al58  1  0.49866717  0.49846641  0.33405199  1
  Al0+  Al59  1  0.49914506  0.50036792  0.66664001  1
  Al0+  Al60  1  0.24773245  0.24894649  -0.00401932  1
  Al0+  Al61  1  0.25036967  0.24729025  0.33159877  1
  Al0+  Al62  1  0.25008236  0.25153143  0.66088601  1
  Al0+  Al63  1  0.25190085  0.74870473  0.00436287  1
  Al0+  Al64  1  0.24803777  0.74803681  0.33924236  1
  Al0+  Al65  1  0.25179350  0.74877541  0.66936677  1
  Al0+  Al66  1  0.74967344  0.25081531  -0.00015867  1
  Al0+  Al67  1  0.75285511  0.24928493  0.34178839  1
  Al0+  Al68  1  0.74753152  0.25137559  0.66709751  1
  Al0+  Al69  1  0.74967484  0.75120473  -0.00039660  1
  Al0+  Al70  1  0.75076964  0.75263146  0.32721384  1
  Al0+  Al71  1  0.75151703  0.74869394  0.67192255  1
  Al0+  Al72  1  0.07501721  0.67696978  0.65070923  1
  Al0+  Al73  1  0.17912699  0.92952896  0.68073396  1
  Al0+  Al74  1  0.82120144  0.56969156  0.68213574  1
  Al0+  Al75  1  0.18025874  0.92824591  0.34789370  1
  Al0+  Al76  1  0.43007703  0.31887738  0.31911879  1
  Al0+  Al77  1  0.82165087  0.57539953  0.34688348  1
  Al0+  Al78  1  0.32065510  0.57000462  0.35002634  1
  Al0+  Al79  1  0.57178052  0.68005236  0.98320104  1
  Al0+  Al80  1  0.17984235  0.92861420  0.01364854  1
  Al0+  Al81  1  0.82119037  0.06995907  0.34960485  1
  Al0+  Al82  1  0.17867811  0.42561865  0.35017616  1
  Al0+  Al83  1  0.32336314  0.56965523  0.01506699  1
  Al0+  Al84  1  0.92895049  0.81953445  0.65253666  1
  Al0+  Al85  1  0.67819153  0.92959523  0.67916091  1
  Al0+  Al86  1  0.42833198  0.31963558  0.98406285  1
  Al0+  Al87  1  0.56986179  0.68049629  0.31929020  1
  Al0+  Al88  1  0.07134288  0.67940913  0.98893292  1
  Al0+  Al89  1  0.93049632  0.82172390  0.31763091  1
  Al0+  Al90  1  0.06951173  0.18055201  0.65179128  1
  Al0+  Al91  1  0.67777357  0.42962754  0.34677041  1
  Al0+  Al92  1  0.42477448  0.82254966  0.31836486  1
  Al0+  Al93  1  0.67728590  0.92597764  0.01864235  1
  Al0+  Al94  1  0.17712026  0.42750232  0.01315683  1
  Al0+  Al95  1  0.82015626  0.07182522  0.01459884  1
  Si0+  Si96  1  0.67573151  0.42761162  0.68544219  1
  Si0+  Si97  1  0.92933590  0.32075780  0.31911433  1
  Si0+  Si98  1  0.67993147  0.43039027  0.01163252  1
  Si0+  Si99  1  0.07090380  0.67465192  0.31752875  1
  Si0+  Si100  1  0.57635263  0.17782462  0.31615756  1
  Si0+  Si101  1  0.57040322  0.17844453  0.65217498  1
  Si0+  Si102  1  0.32210139  0.57041581  0.68362543  1
  Si0+  Si103  1  0.93004220  0.82361517  0.98391881  1
  Si0+  Si104  1  0.82177922  0.07385473  0.68284120  1
  Si0+  Si105  1  0.18075157  0.42745686  0.68127663  1
  Si0+  Si106  1  0.57332113  0.17791085  0.98276707  1
  Si0+  Si107  1  0.32200669  0.07339210  0.01581289  1
  Si0+  Si108  1  0.42999404  0.32126736  0.64946039  1
  Si0+  Si109  1  0.07010687  0.17890589  0.31607217  1
  Si0+  Si110  1  0.43014104  0.82281051  0.65465169  1
  Si0+  Si111  1  0.82212318  0.57094643  0.01372891  1
  Si0+  Si112  1  0.67684863  0.92950524  0.34835968  1
  Si0+  Si113  1  0.32125536  0.07465564  0.68246348  1
  Si0+  Si114  1  0.57090988  0.67975647  0.65257767  1
  Si0+  Si115  1  0.92699888  0.32189633  0.98569146  1
  Si0+  Si116  1  0.32278970  0.07197093  0.34819827  1
  Si0+  Si117  1  0.92487955  0.32285099  0.64821754  1
  Si0+  Si118  1  0.06900205  0.17807783  0.98571199  1
  Si0+  Si119  1  0.42770983  0.82393918  0.98229987  1
  O2-  O120  1  0.25790598  0.00071146  0.05962013  1
  O2-  O121  1  0.26150036  -0.00257588  0.39316896  1
  O2-  O122  1  0.25315486  0.00584969  0.72710092  1
  O2-  O123  1  0.25012710  0.49776622  0.06273105  1
  O2-  O124  1  0.24741180  0.49965220  0.40153886  1
  O2-  O125  1  0.24634891  0.50310268  0.72390917  1
  O2-  O126  1  0.74929110  -0.00043938  0.06533108  1
  O2-  O127  1  0.74461332  -0.00263551  0.39543917  1
  O2-  O128  1  0.75439493  0.00363167  0.72573080  1
  O2-  O129  1  0.74868073  0.50232563  0.05493787  1
  O2-  O130  1  0.74685705  0.50479297  0.39576803  1
  O2-  O131  1  0.74676126  0.49376164  0.72964595  1
  O2-  O132  1  0.00132450  0.25217551  0.27410258  1
  O2-  O133  1  -0.00760813  0.25274288  0.60433588  1
  O2-  O134  1  -0.00107100  0.25095646  0.94443135  1
  O2-  O135  1  0.00252386  0.74349342  0.27271571  1
  O2-  O136  1  0.00228621  0.74888100  0.60188568  1
  O2-  O137  1  -0.00108221  0.75532361  0.93995348  1
  O2-  O138  1  0.50769727  0.24674815  0.27222069  1
  O2-  O139  1  0.50205620  0.25100637  0.60829038  1
  O2-  O140  1  0.50101477  0.24238766  0.93667518  1
  O2-  O141  1  0.49688299  0.75098667  0.26813623  1
  O2-  O142  1  0.50258176  0.75357874  0.61208853  1
  O2-  O143  1  0.49931664  0.75820595  0.93701752  1
  O2-  O144  1  0.06927245  0.17756688  0.09055448  1
  O2-  O145  1  0.06935817  0.17910610  0.42136648  1
  O2-  O146  1  0.06921296  0.18226565  0.76540825  1
  O2-  O147  1  0.06734951  0.67737957  0.10167340  1
  O2-  O148  1  0.07019925  0.67626377  0.42312597  1
  O2-  O149  1  0.07536869  0.67869908  0.76488765  1
  O2-  O150  1  0.57562183  0.18251367  0.08779739  1
  O2-  O151  1  0.57372922  0.17710528  0.42243083  1
  O2-  O152  1  0.56882616  0.17946356  0.75712858  1
  O2-  O153  1  0.57202868  0.67615048  0.09540481  1
  O2-  O154  1  0.57069819  0.68415091  0.43370275  1
  O2-  O155  1  0.56906884  0.67830300  0.75779609  1
  O2-  O156  1  0.17959571  0.42514839  0.23682829  1
  O2-  O157  1  0.18542654  0.42359530  0.57682102  1
  O2-  O158  1  0.17782929  0.42696448  0.89883498  1
  O2-  O159  1  0.17840333  0.93187259  0.23475327  1
  O2-  O160  1  0.18122868  0.93045650  0.56803022  1
  O2-  O161  1  0.17822215  0.93144386  0.90020271  1
  O2-  O162  1  0.68033733  0.42878962  0.23251413  1
  O2-  O163  1  0.67345924  0.42689590  0.58060613  1
  O2-  O164  1  0.68298782  0.42926662  0.90615631  1
  O2-  O165  1  0.67852916  0.93159305  0.24324045  1
  O2-  O166  1  0.67398034  0.93262501  0.56640642  1
  O2-  O167  1  0.68061364  0.92737573  0.90431519  1
  O2-  O168  1  0.42970902  0.31962347  0.09661133  1
  O2-  O169  1  0.43089386  0.31524294  0.43281914  1
  O2-  O170  1  0.42923539  0.32033847  0.75466837  1
  O2-  O171  1  0.42716000  0.82229687  0.08724663  1
  O2-  O172  1  0.42870897  0.82213048  0.43308404  1
  O2-  O173  1  0.42930101  0.82200620  0.75971179  1
  O2-  O174  1  0.92450646  0.32272825  0.09044899  1
  O2-  O175  1  0.92949734  0.31807056  0.42410097  1
  O2-  O176  1  0.92569658  0.32223791  0.75449482  1
  O2-  O177  1  0.93153648  0.82318750  0.08948181  1
  O2-  O178  1  0.93093088  0.82280411  0.43068685  1
  O2-  O179  1  0.92938978  0.81840504  0.76649110  1
  O2-  O180  1  0.31707141  0.07734515  0.24292983  1
  O2-  O181  1  0.32270890  0.07611924  0.57725063  1
  O2-  O182  1  0.31946074  0.07472358  0.90979126  1
  O2-  O183  1  0.32155943  0.56740047  0.23682631  1
  O2-  O184  1  0.32695762  0.56832823  0.57920007  1
  O2-  O185  1  0.32203039  0.56792839  0.90042461  1
  O2-  O186  1  0.82032244  0.07122607  0.23680194  1
  O2-  O187  1  0.81886101  0.07566304  0.57747213  1
  O2-  O188  1  0.82008109  0.07319410  0.90073835  1
  O2-  O189  1  0.82310350  0.57092187  0.23283680  1
  O2-  O190  1  0.81734580  0.57102010  0.56970537  1
  O2-  O191  1  0.82284071  0.56776676  0.90835308  1
  O2-  O192  1  0.03853954  0.08846310  0.26912395  1
  O2-  O193  1  0.04135489  0.08436636  0.59626363  1
  O2-  O194  1  0.03735020  0.08748344  0.93729792  1
  O2-  O195  1  0.04563854  0.57980729  0.27381330  1
  O2-  O196  1  0.04937358  0.57638252  0.60162133  1
  O2-  O197  1  0.03908838  0.58329559  0.93273387  1
  O2-  O198  1  0.55224716  0.08526084  0.26791129  1
  O2-  O199  1  0.54096494  0.08764986  0.60354550  1
  O2-  O200  1  0.55116058  0.08204540  0.93938429  1
  O2-  O201  1  0.54273412  0.58073882  0.26885979  1
  O2-  O202  1  0.54016688  0.58839518  0.60598163  1
  O2-  O203  1  0.54046649  0.58563544  0.92406300  1
  O2-  O204  1  0.16238801  0.20378149  0.26878726  1
  O2-  O205  1  0.16536819  0.21334694  0.59669770  1
  O2-  O206  1  0.15994633  0.20286502  0.93492600  1
  O2-  O207  1  0.16482501  0.70112846  0.27379048  1
  O2-  O208  1  0.17489451  0.70415014  0.60030130  1
  O2-  O209  1  0.16969492  0.70755641  0.93658829  1
  O2-  O210  1  0.67114330  0.20377749  0.27364668  1
  O2-  O211  1  0.66317383  0.20379888  0.60499405  1
  O2-  O212  1  0.66470020  0.20868678  0.93361540  1
  O2-  O213  1  0.66750669  0.70794464  0.26450457  1
  O2-  O214  1  0.66394710  0.70478757  0.60818151  1
  O2-  O215  1  0.66950184  0.71041313  0.92909028  1
  O2-  O216  1  0.07832751  0.45459123  0.06569276  1
  O2-  O217  1  0.07953788  0.44800809  0.40410164  1
  O2-  O218  1  0.08567719  0.44586059  0.72569741  1
  O2-  O219  1  0.08558885  0.96315148  0.06880232  1
  O2-  O220  1  0.08725448  0.96717223  0.40257518  1
  O2-  O221  1  0.08241031  0.96236326  0.73354497  1
  O2-  O222  1  0.58696030  0.45777528  0.05487574  1
  O2-  O223  1  0.57906749  0.45227558  0.40017449  1
  O2-  O224  1  0.58259116  0.45624482  0.73196768  1
  O2-  O225  1  0.57775574  0.95220644  0.06938409  1
  O2-  O226  1  0.58177923  0.95487906  0.39249641  1
  O2-  O227  1  0.58298255  0.96240960  0.73630332  1
  O2-  O228  1  0.20205159  0.32696345  0.06257634  1
  O2-  O229  1  0.21058398  0.32691595  0.40149574  1
  O2-  O230  1  0.21411734  0.33730067  0.72973694  1
  O2-  O231  1  0.20912530  0.83276498  0.06845802  1
  O2-  O232  1  0.20467194  0.83160355  0.40421492  1
  O2-  O233  1  0.21327036  0.83372108  0.73499367  1
  O2-  O234  1  0.70706864  0.33928479  0.05938900  1
  O2-  O235  1  0.70931573  0.33342874  0.40294894  1
  O2-  O236  1  0.69788722  0.33255238  0.73146141  1
  O2-  O237  1  0.70684984  0.82780790  0.07021010  1
  O2-  O238  1  0.70313482  0.83605499  0.39313899  1
  O2-  O239  1  0.70813156  0.83358927  0.73437080  1
  O2-  O240  1  0.45896537  0.41523812  0.26508004  1
  O2-  O241  1  0.45845099  0.41342511  0.60340148  1
  O2-  O242  1  0.46263221  0.41298748  0.92567483  1
  O2-  O243  1  0.44725819  0.92252277  0.26526207  1
  O2-  O244  1  0.45470106  0.91607219  0.60863956  1
  O2-  O245  1  0.44812996  0.92014864  0.93795106  1
  O2-  O246  1  0.95443615  0.41365502  0.27240126  1
  O2-  O247  1  0.95186188  0.41561779  0.60264871  1
  O2-  O248  1  0.95556832  0.41234020  0.93546932  1
  O2-  O249  1  0.96581783  0.91747394  0.26427570  1
  O2-  O250  1  0.95350311  0.91942225  0.60113364  1
  O2-  O251  1  0.95475312  0.91832383  0.93964874  1
  O2-  O252  1  0.33471342  0.28396740  0.26486619  1
  O2-  O253  1  0.33950602  0.29269957  0.60091757  1
  O2-  O254  1  0.33169290  0.28790012  0.92844710  1
  O2-  O255  1  0.32485872  0.79399920  0.26963873  1
  O2-  O256  1  0.33976003  0.79150382  0.60718766  1
  O2-  O257  1  0.33520804  0.79427401  0.93542908  1
  O2-  O258  1  0.83761226  0.29068611  0.27233958  1
  O2-  O259  1  0.82949529  0.30017599  0.60448431  1
  O2-  O260  1  0.83635898  0.29381079  0.93497304  1
  O2-  O261  1  0.83379869  0.79577510  0.26210135  1
  O2-  O262  1  0.83005097  0.78895860  0.60059539  1
  O2-  O263  1  0.83590627  0.79806541  0.93939834  1
  O2-  O264  1  0.41766826  0.05697883  0.06028950  1
  O2-  O265  1  0.42026447  0.05594324  0.39013994  1
  O2-  O266  1  0.41452589  0.05120923  0.73047259  1
  O2-  O267  1  0.42260348  0.53772386  0.06308619  1
  O2-  O268  1  0.41758543  0.53833953  0.40432938  1
  O2-  O269  1  0.41248282  0.53773131  0.73219502  1
  O2-  O270  1  0.91772345  0.04608114  0.06990097  1
  O2-  O271  1  0.91702098  0.03771631  0.40306862  1
  O2-  O272  1  0.91657697  0.05114971  0.72667393  1
  O2-  O273  1  0.91174703  0.53971787  0.06183993  1
  O2-  O274  1  0.91667943  0.54248369  0.40304415  1
  O2-  O275  1  0.91820445  0.53708219  0.73615627  1
  O2-  O276  1  0.29030286  0.16487723  0.06208855  1
  O2-  O277  1  0.29068828  0.16169059  0.39847361  1
  O2-  O278  1  0.29388888  0.16866602  0.72779558  1
  O2-  O279  1  0.29906558  0.66803455  0.06761054  1
  O2-  O280  1  0.29417336  0.66777372  0.40519973  1
  O2-  O281  1  0.29914443  0.66292143  0.73167880  1
  O2-  O282  1  0.79109289  0.17105860  0.06720092  1
  O2-  O283  1  0.79426921  0.16588259  0.40670712  1
  O2-  O284  1  0.79520993  0.16781833  0.72893087  1
  O2-  O285  1  0.79774696  0.66406023  0.05805538  1
  O2-  O286  1  0.79225685  0.67405892  0.39891378  1
  O2-  O287  1  0.78921040  0.66403009  0.73936743  1
