# generated using pymatgen
data_Ca2Al2SiO7
_symmetry_space_group_name_H-M   'P 1'
_cell_length_a   15.45141219
_cell_length_b   15.45119706
_cell_length_c   15.27882236
_cell_angle_alpha   89.99137542
_cell_angle_beta   89.99691641
_cell_angle_gamma   89.98854914
_symmetry_Int_Tables_number   1
_chemical_formula_structural   Ca2Al2SiO7
_chemical_formula_sum   'Ca48 Al48 Si24 O168'
_cell_volume   3647.70893661
_cell_formula_units_Z   24
loop_
 _symmetry_equiv_pos_site_id
 _symmetry_equiv_pos_as_xyz
  1  'x, y, z'
loop_
 _atom_type_symbol
 _atom_type_oxidation_number
  Ca2+  2.0
  Al0+  0.0
  Si0+  0.0
  O2-  -2.0
loop_
 _atom_site_type_symbol
 _atom_site_label
 _atom_site_symmetry_multiplicity
 _atom_site_fract_x
 _atom_site_fract_y
 _atom_site_fract_z
 _atom_site_occupancy
  Ca2+  Ca0  1  0.17161711  0.08913503  0.16770680  1
  Ca2+  Ca1  1  0.16839845  0.08492096  0.50768224  1
  Ca2+  Ca2  1  0.17288915  0.08997404  0.83754731  1
  Ca2+  Ca3  1  0.16985072  0.57746912  0.17564132  1
  Ca2+  Ca4  1  0.17581456  0.59326632  0.50409657  1
  Ca2+  Ca5  1  0.16895540  0.57824654  0.83760213  1
  Ca2+  Ca6  1  0.67176284  0.08734168  0.17285552  1
  Ca2+  Ca7  1  0.67150909  0.07510152  0.51060468  1
  Ca2+  Ca8  1  0.67757700  0.07738586  0.83623393  1
  Ca2+  Ca9  1  0.66724575  0.58008861  0.17336228  1
  Ca2+  Ca10  1  0.65609440  0.58096937  0.50328105  1
  Ca2+  Ca11  1  0.67187456  0.58797739  0.83557525  1
  Ca2+  Ca12  1  0.09070307  0.32466354  0.16035789  1
  Ca2+  Ca13  1  0.08334841  0.32144175  0.49857076  1
  Ca2+  Ca14  1  0.08978595  0.32427396  0.83185077  1
  Ca2+  Ca15  1  0.08138659  0.82638006  0.16934238  1
  Ca2+  Ca16  1  0.07442243  0.82814078  0.49624577  1
  Ca2+  Ca17  1  0.07572526  0.82674831  0.82325839  1
  Ca2+  Ca18  1  0.58047159  0.33223525  0.16572018  1
  Ca2+  Ca19  1  0.57970425  0.32901104  0.49400615  1
  Ca2+  Ca20  1  0.56910134  0.33411823  0.82803791  1
  Ca2+  Ca21  1  0.57105977  0.82991203  0.16525798  1
  Ca2+  Ca22  1  0.58197812  0.82392157  0.49439783  1
  Ca2+  Ca23  1  0.58209868  0.83093680  0.82829931  1
  Ca2+  Ca24  1  0.33117089  0.41878828  0.16897428  1
  Ca2+  Ca25  1  0.33799677  0.42947539  0.50588087  1
  Ca2+  Ca26  1  0.33238186  0.41860974  0.83683719  1
  Ca2+  Ca27  1  0.33795086  0.91672300  0.16947756  1
  Ca2+  Ca28  1  0.33443381  0.92154125  0.50599553  1
  Ca2+  Ca29  1  0.33611809  0.92899285  0.83948608  1
  Ca2+  Ca30  1  0.82810396  0.42330644  0.17217306  1
  Ca2+  Ca31  1  0.82505981  0.41543190  0.50029503  1
  Ca2+  Ca32  1  0.83198627  0.42497206  0.84134024  1
  Ca2+  Ca33  1  0.83698070  0.92120629  0.16970942  1
  Ca2+  Ca34  1  0.83118863  0.91471156  0.50904174  1
  Ca2+  Ca35  1  0.83316408  0.92079727  0.83226597  1
  Ca2+  Ca36  1  0.42323279  0.16942680  0.15782826  1
  Ca2+  Ca37  1  0.41870094  0.17116011  0.49733903  1
  Ca2+  Ca38  1  0.40366304  0.17711343  0.82968865  1
  Ca2+  Ca39  1  0.41402980  0.67348856  0.16745243  1
  Ca2+  Ca40  1  0.42178707  0.66706132  0.49239512  1
  Ca2+  Ca41  1  0.41987937  0.67181197  0.82496425  1
  Ca2+  Ca42  1  0.92807692  0.16466054  0.16052305  1
  Ca2+  Ca43  1  0.92728856  0.15732046  0.49777455  1
  Ca2+  Ca44  1  0.92514868  0.15678277  0.82980667  1
  Ca2+  Ca45  1  0.91458868  0.66898837  0.16453107  1
  Ca2+  Ca46  1  0.92557955  0.67744890  0.49482579  1
  Ca2+  Ca47  1  0.92090279  0.66910556  0.82282101  1
  Al0+  Al48  1  0.00047593  -0.00210710  0.00029569  1
  Al0+  Al49  1  0.00232706  0.00025796  0.32542863  1
  Al0+  Al50  1  0.00034231  -0.00067601  0.66271653  1
  Al0+  Al51  1  -0.00005403  0.49872836  0.00976397  1
  Al0+  Al52  1  -0.00071626  0.49859711  0.33447583  1
  Al0+  Al53  1  0.00037957  0.49722884  0.66119759  1
  Al0+  Al54  1  0.50094355  -0.00073467  -0.00038552  1
  Al0+  Al55  1  0.50198410  0.00174627  0.32736661  1
  Al0+  Al56  1  0.50050512  0.00166325  0.67760391  1
  Al0+  Al57  1  0.50045649  0.50009108  -0.00373939  1
  Al0+  Al58  1  0.49957215  0.49954082  0.33669201  1
  Al0+  Al59  1  0.49752032  0.50005831  0.66555335  1
  Al0+  Al60  1  0.25116204  0.24976807  0.00174658  1
  Al0+  Al61  1  0.24995977  0.25083389  0.33159268  1
  Al0+  Al62  1  0.24914175  0.25193873  0.65924541  1
  Al0+  Al63  1  0.25031112  0.75119184  -0.00586251  1
  Al0+  Al64  1  0.24792375  0.75187537  0.33103468  1
  Al0+  Al65  1  0.25130167  0.75066056  0.67021569  1
  Al0+  Al66  1  0.75119705  0.24968969  0.00363350  1
  Al0+  Al67  1  0.75089638  0.25092697  0.33530906  1
  Al0+  Al68  1  0.74959227  0.25024793  0.67343081  1
  Al0+  Al69  1  0.75002994  0.75040741  0.00524328  1
  Al0+  Al70  1  0.74975260  0.75125306  0.32560405  1
  Al0+  Al71  1  0.74790886  0.74880053  0.66318489  1
  Al0+  Al72  1  0.82068839  0.57153327  0.01345460  1
  Al0+  Al73  1  0.57231344  0.17965024  0.32170917  1
  Al0+  Al74  1  0.42808220  0.82254315  0.32050063  1
  Al0+  Al75  1  0.92845302  0.82105545  0.31574052  1
  Al0+  Al76  1  0.82341630  0.07131552  0.68109955  1
  Al0+  Al77  1  0.06964675  0.17958165  0.98541724  1
  Al0+  Al78  1  0.31788011  0.57129537  0.34621613  1
  Al0+  Al79  1  0.67865337  0.92575245  0.68165947  1
  Al0+  Al80  1  0.07384446  0.67578408  0.65289214  1
  Al0+  Al81  1  0.06892778  0.18034708  0.65388960  1
  Al0+  Al82  1  0.32110111  0.57196307  0.68165484  1
  Al0+  Al83  1  0.18133098  0.42949313  0.01355765  1
  Al0+  Al84  1  0.42812232  0.82147972  0.98313764  1
  Al0+  Al85  1  0.07129368  0.67731185  0.31739832  1
  Al0+  Al86  1  0.67972990  0.42979786  0.34806959  1
  Al0+  Al87  1  0.32004188  0.07020339  0.01504437  1
  Al0+  Al88  1  0.07145919  0.18065176  0.31759536  1
  Al0+  Al89  1  0.56894527  0.68010052  0.65387895  1
  Al0+  Al90  1  0.42888720  0.32008811  0.65097027  1
  Al0+  Al91  1  0.82223768  0.07003512  0.01608792  1
  Al0+  Al92  1  0.57002583  0.67601763  0.31698759  1
  Al0+  Al93  1  0.31942828  0.07273074  0.67899051  1
  Al0+  Al94  1  0.92860769  0.82010391  0.65281744  1
  Al0+  Al95  1  0.43071959  0.31976163  0.98669615  1
  Si0+  Si96  1  0.92711069  0.32310450  0.98491003  1
  Si0+  Si97  1  0.57237654  0.67913329  0.98318290  1
  Si0+  Si98  1  0.92842542  0.81927712  0.98409951  1
  Si0+  Si99  1  0.67835729  0.92828538  0.02062203  1
  Si0+  Si100  1  0.92680129  0.32150232  0.31624378  1
  Si0+  Si101  1  0.32293544  0.57384154  0.01567503  1
  Si0+  Si102  1  0.17784810  0.92571967  0.01736500  1
  Si0+  Si103  1  0.32276977  0.07203429  0.34737425  1
  Si0+  Si104  1  0.17730834  0.42828968  0.68175157  1
  Si0+  Si105  1  0.57545899  0.17721396  0.98178714  1
  Si0+  Si106  1  0.67615581  0.42839487  0.01585896  1
  Si0+  Si107  1  0.42893565  0.32165388  0.31667178  1
  Si0+  Si108  1  0.82112199  0.56877747  0.67794263  1
  Si0+  Si109  1  0.06996198  0.67620066  0.98580515  1
  Si0+  Si110  1  0.92375103  0.32344517  0.65026038  1
  Si0+  Si111  1  0.82188867  0.57448658  0.35239953  1
  Si0+  Si112  1  0.17792438  0.92809796  0.68289459  1
  Si0+  Si113  1  0.67714249  0.42854063  0.68296103  1
  Si0+  Si114  1  0.17888751  0.93132070  0.34822260  1
  Si0+  Si115  1  0.82268592  0.06972772  0.34766650  1
  Si0+  Si116  1  0.42858559  0.82574540  0.65248542  1
  Si0+  Si117  1  0.57366876  0.17821147  0.65312920  1
  Si0+  Si118  1  0.67846724  0.92983127  0.34680579  1
  Si0+  Si119  1  0.17667342  0.42550382  0.35259734  1
  O2-  O120  1  0.24747263  -0.00646101  0.06231039  1
  O2-  O121  1  0.25161392  0.00141233  0.38990892  1
  O2-  O122  1  0.24645686  -0.00312438  0.72714806  1
  O2-  O123  1  0.25419098  0.50595987  0.06048587  1
  O2-  O124  1  0.24165788  0.49815815  0.39520678  1
  O2-  O125  1  0.24223601  0.50041640  0.72639428  1
  O2-  O126  1  0.74515609  -0.00090579  0.06499862  1
  O2-  O127  1  0.75199928  -0.00159219  0.38957946  1
  O2-  O128  1  0.75136512  -0.00146280  0.73026310  1
  O2-  O129  1  0.74554317  0.49670498  0.05913827  1
  O2-  O130  1  0.75108765  0.50756283  0.39668058  1
  O2-  O131  1  0.75079893  0.49805043  0.72317092  1
  O2-  O132  1  -0.00108461  0.25728823  0.27121488  1
  O2-  O133  1  -0.01085708  0.25052636  0.60796082  1
  O2-  O134  1  -0.00715364  0.25281030  0.93905182  1
  O2-  O135  1  -0.00436228  0.74432550  0.26548742  1
  O2-  O136  1  0.00215739  0.74877597  0.60459963  1
  O2-  O137  1  -0.00153578  0.74663450  0.94295311  1
  O2-  O138  1  0.49667728  0.25208670  0.27296384  1
  O2-  O139  1  0.50417507  0.24465177  0.60673395  1
  O2-  O140  1  0.50547222  0.24508191  0.93844727  1
  O2-  O141  1  0.49721487  0.74807160  0.26908065  1
  O2-  O142  1  0.49541706  0.75618712  0.60767835  1
  O2-  O143  1  0.50219288  0.74536361  0.93813799  1
  O2-  O144  1  0.06968016  0.18178029  0.09852556  1
  O2-  O145  1  0.07067311  0.17924490  0.43077304  1
  O2-  O146  1  0.07065461  0.18288839  0.76687759  1
  O2-  O147  1  0.07014797  0.67771878  0.09062108  1
  O2-  O148  1  0.07194117  0.68241464  0.43063886  1
  O2-  O149  1  0.06925320  0.67422601  0.76738991  1
  O2-  O150  1  0.57548637  0.17962252  0.08785173  1
  O2-  O151  1  0.57065526  0.17843508  0.43491602  1
  O2-  O152  1  0.57577818  0.18243300  0.75851742  1
  O2-  O153  1  0.57205809  0.67880052  0.08846787  1
  O2-  O154  1  0.56856960  0.67798866  0.43064988  1
  O2-  O155  1  0.56983995  0.67950959  0.76731280  1
  O2-  O156  1  0.18011148  0.42306401  0.24680400  1
  O2-  O157  1  0.17847067  0.42628913  0.57636291  1
  O2-  O158  1  0.18092486  0.43119063  0.90026563  1
  O2-  O159  1  0.17809448  0.93219038  0.24304865  1
  O2-  O160  1  0.17890086  0.92908344  0.57694167  1
  O2-  O161  1  0.17689272  0.92537662  0.91181842  1
  O2-  O162  1  0.68252317  0.42929969  0.23476210  1
  O2-  O163  1  0.67753895  0.42710498  0.57791698  1
  O2-  O164  1  0.67627282  0.42948424  0.90997389  1
  O2-  O165  1  0.67772365  0.93344361  0.24176892  1
  O2-  O166  1  0.67772127  0.92724563  0.56747142  1
  O2-  O167  1  0.68091726  0.92611231  0.91512448  1
  O2-  O168  1  0.43332947  0.31975364  0.09992694  1
  O2-  O169  1  0.42927111  0.31993819  0.42234722  1
  O2-  O170  1  0.42878233  0.32012027  0.76432150  1
  O2-  O171  1  0.42867964  0.81961113  0.09614922  1
  O2-  O172  1  0.43074088  0.82597095  0.43409350  1
  O2-  O173  1  0.43013252  0.82374000  0.75819885  1
  O2-  O174  1  0.92743491  0.32255877  0.09042767  1
  O2-  O175  1  0.92510027  0.31848282  0.42200017  1
  O2-  O176  1  0.92436086  0.32979027  0.75555118  1
  O2-  O177  1  0.92925520  0.81905835  0.08899875  1
  O2-  O178  1  0.93015995  0.82310286  0.42901464  1
  O2-  O179  1  0.92971846  0.81721019  0.76721444  1
  O2-  O180  1  0.32180657  0.07256493  0.24230457  1
  O2-  O181  1  0.31943890  0.07112333  0.56520226  1
  O2-  O182  1  0.31574688  0.07195159  0.90192979  1
  O2-  O183  1  0.31707875  0.56809191  0.23264567  1
  O2-  O184  1  0.32278092  0.57070256  0.56854355  1
  O2-  O185  1  0.32201151  0.57284099  0.91001047  1
  O2-  O186  1  0.82140339  0.06961412  0.24235748  1
  O2-  O187  1  0.82147854  0.07156737  0.56695890  1
  O2-  O188  1  0.82288387  0.06628388  0.90334831  1
  O2-  O189  1  0.82180687  0.57075997  0.24653080  1
  O2-  O190  1  0.82028252  0.56666645  0.57327645  1
  O2-  O191  1  0.82053779  0.57123603  0.89950853  1
  O2-  O192  1  0.04025381  0.08595908  0.26154204  1
  O2-  O193  1  0.04280487  0.08334413  0.59816238  1
  O2-  O194  1  0.04092921  0.08103353  0.93394035  1
  O2-  O195  1  0.04849205  0.57546864  0.26861459  1
  O2-  O196  1  0.04680782  0.57787703  0.59860170  1
  O2-  O197  1  0.04130032  0.58352833  0.94102360  1
  O2-  O198  1  0.54344170  0.08542615  0.26288145  1
  O2-  O199  1  0.54891827  0.08292097  0.61063315  1
  O2-  O200  1  0.55257097  0.08237160  0.93858624  1
  O2-  O201  1  0.54198136  0.57715528  0.26510312  1
  O2-  O202  1  0.53683869  0.58410067  0.60027474  1
  O2-  O203  1  0.55113165  0.58446468  0.93708633  1
  O2-  O204  1  0.16882127  0.21074553  0.26409512  1
  O2-  O205  1  0.16204902  0.21498362  0.59544191  1
  O2-  O206  1  0.16574073  0.21401227  0.93341083  1
  O2-  O207  1  0.16666457  0.71101065  0.26202082  1
  O2-  O208  1  0.17274454  0.70624867  0.60262433  1
  O2-  O209  1  0.16144612  0.70353721  0.93747079  1
  O2-  O210  1  0.66847191  0.21197663  0.26737242  1
  O2-  O211  1  0.66713756  0.20509202  0.60680188  1
  O2-  O212  1  0.66957454  0.20359312  0.93683164  1
  O2-  O213  1  0.66808659  0.70364272  0.26389154  1
  O2-  O214  1  0.66520765  0.70637620  0.59761476  1
  O2-  O215  1  0.66624618  0.70805172  0.93828996  1
  O2-  O216  1  0.08522835  0.45625543  0.07088344  1
  O2-  O217  1  0.08025785  0.44405918  0.39595075  1
  O2-  O218  1  0.08166976  0.44874539  0.72731875  1
  O2-  O219  1  0.08468131  0.95118870  0.06405516  1
  O2-  O220  1  0.08772951  0.96287779  0.39529835  1
  O2-  O221  1  0.08408360  0.95327119  0.72821228  1
  O2-  O222  1  0.58320125  0.45535539  0.06290320  1
  O2-  O223  1  0.58251231  0.45626718  0.40295008  1
  O2-  O224  1  0.58682166  0.46003686  0.73045816  1
  O2-  O225  1  0.58396405  0.95262395  0.06514697  1
  O2-  O226  1  0.58760640  0.96045030  0.39462122  1
  O2-  O227  1  0.58268577  0.95503005  0.73956065  1
  O2-  O228  1  0.21556919  0.33514323  0.06942912  1
  O2-  O229  1  0.20638239  0.33278433  0.39938809  1
  O2-  O230  1  0.20859774  0.33645564  0.72799905  1
  O2-  O231  1  0.20428077  0.83155651  0.06284004  1
  O2-  O232  1  0.20444511  0.83955236  0.39624072  1
  O2-  O233  1  0.20144552  0.83493380  0.73116090  1
  O2-  O234  1  0.70077626  0.33475343  0.06234640  1
  O2-  O235  1  0.71415607  0.33430863  0.40436453  1
  O2-  O236  1  0.70227075  0.33759016  0.73340430  1
  O2-  O237  1  0.70607186  0.83579969  0.06781377  1
  O2-  O238  1  0.70404845  0.83599885  0.39133294  1
  O2-  O239  1  0.70752516  0.82725949  0.73546808  1
  O2-  O240  1  0.45618009  0.41421946  0.27084821  1
  O2-  O241  1  0.46256660  0.41545314  0.59740983  1
  O2-  O242  1  0.46008664  0.41679972  0.93107989  1
  O2-  O243  1  0.45994820  0.91863093  0.26389874  1
  O2-  O244  1  0.45369641  0.92068666  0.60913818  1
  O2-  O245  1  0.46032804  0.91851744  0.93070196  1
  O2-  O246  1  0.94710234  0.41717738  0.27254444  1
  O2-  O247  1  0.95250142  0.41345415  0.59822176  1
  O2-  O248  1  0.95465086  0.41722977  0.94031387  1
  O2-  O249  1  0.96316185  0.91658757  0.26040882  1
  O2-  O250  1  0.95609092  0.91764659  0.59828879  1
  O2-  O251  1  0.95820469  0.91008228  0.93657442  1
  O2-  O252  1  0.33517589  0.29684871  0.27098265  1
  O2-  O253  1  0.33429421  0.29016195  0.59378369  1
  O2-  O254  1  0.33479857  0.28749425  0.93287724  1
  O2-  O255  1  0.32946068  0.79771246  0.26672472  1
  O2-  O256  1  0.33354775  0.80292986  0.60884690  1
  O2-  O257  1  0.33117193  0.79397184  0.92761380  1
  O2-  O258  1  0.83506652  0.29293715  0.26842838  1
  O2-  O259  1  0.82835640  0.30071881  0.60619845  1
  O2-  O260  1  0.83175271  0.30182195  0.93982414  1
  O2-  O261  1  0.82968054  0.79842176  0.26084072  1
  O2-  O262  1  0.83148077  0.79045721  0.59918077  1
  O2-  O263  1  0.83538340  0.79218675  0.93905861  1
  O2-  O264  1  0.41921299  0.04257814  0.06612723  1
  O2-  O265  1  0.41533917  0.04450768  0.39342018  1
  O2-  O266  1  0.41542893  0.04766150  0.73694796  1
  O2-  O267  1  0.41729579  0.54760648  0.05986667  1
  O2-  O268  1  0.41379059  0.53877090  0.40075586  1
  O2-  O269  1  0.41577485  0.53601562  0.73694468  1
  O2-  O270  1  0.91817308  0.03569425  0.06992683  1
  O2-  O271  1  0.91572014  0.04091573  0.39198695  1
  O2-  O272  1  0.92184596  0.04123867  0.73342059  1
  O2-  O273  1  0.91481203  0.54072521  0.07205689  1
  O2-  O274  1  0.91517124  0.54616791  0.39839338  1
  O2-  O275  1  0.91336248  0.54073998  0.72555317  1
  O2-  O276  1  0.28801403  0.16533381  0.07067749  1
  O2-  O277  1  0.29454399  0.16439900  0.39405016  1
  O2-  O278  1  0.28423699  0.16953864  0.73023790  1
  O2-  O279  1  0.29673105  0.66826697  0.05933085  1
  O2-  O280  1  0.28901006  0.66950044  0.39891144  1
  O2-  O281  1  0.29534754  0.66962199  0.73676206  1
  O2-  O282  1  0.79571885  0.16868866  0.06932218  1
  O2-  O283  1  0.79618708  0.16178210  0.39441882  1
  O2-  O284  1  0.79687853  0.16986270  0.73639014  1
  O2-  O285  1  0.79022493  0.66697936  0.06991966  1
  O2-  O286  1  0.79883733  0.67051507  0.39361771  1
  O2-  O287  1  0.79225783  0.65980450  0.72596640  1
