# generated using pymatgen
data_Ca2Al2SiO7
_symmetry_space_group_name_H-M   'P 1'
_cell_length_a   15.46625491
_cell_length_b   15.46828030
_cell_length_c   15.28901924
_cell_angle_alpha   90.02243862
_cell_angle_beta   89.99833392
_cell_angle_gamma   90.03816178
_symmetry_Int_Tables_number   1
_chemical_formula_structural   Ca2Al2SiO7
_chemical_formula_sum   'Ca48 Al48 Si24 O168'
_cell_volume   3657.68831044
_cell_formula_units_Z   24
loop_
 _symmetry_equiv_pos_site_id
 _symmetry_equiv_pos_as_xyz
  1  'x, y, z'
loop_
 _atom_type_symbol
 _atom_type_oxidation_number
  Ca2+  2.0
  Al0+  0.0
  Si0+  0.0
  O2-  -2.0
loop_
 _atom_site_type_symbol
 _atom_site_label
 _atom_site_symmetry_multiplicity
 _atom_site_fract_x
 _atom_site_fract_y
 _atom_site_fract_z
 _atom_site_occupancy
  Ca2+  Ca0  1  0.17949459  0.07845804  0.16944379  1
  Ca2+  Ca1  1  0.18009914  0.07366283  0.50298112  1
  Ca2+  Ca2  1  0.17674113  0.07609485  0.83765013  1
  Ca2+  Ca3  1  0.16804677  0.57207651  0.16434373  1
  Ca2+  Ca4  1  0.16115401  0.57284435  0.50161267  1
  Ca2+  Ca5  1  0.17261190  0.57512100  0.84049794  1
  Ca2+  Ca6  1  0.67817767  0.09656324  0.16668518  1
  Ca2+  Ca7  1  0.67214797  0.07823514  0.50649253  1
  Ca2+  Ca8  1  0.66593446  0.08408434  0.83681759  1
  Ca2+  Ca9  1  0.65560419  0.57118785  0.16564088  1
  Ca2+  Ca10  1  0.66245837  0.57063866  0.50413084  1
  Ca2+  Ca11  1  0.66237353  0.57204251  0.84146390  1
  Ca2+  Ca12  1  0.07708909  0.33781335  0.15702622  1
  Ca2+  Ca13  1  0.08729719  0.33368914  0.49438914  1
  Ca2+  Ca14  1  0.07926865  0.34101061  0.82948528  1
  Ca2+  Ca15  1  0.08145412  0.84670733  0.16463138  1
  Ca2+  Ca16  1  0.07738719  0.84520878  0.49404037  1
  Ca2+  Ca17  1  0.08132141  0.84090519  0.82683124  1
  Ca2+  Ca18  1  0.57808641  0.33094548  0.15312414  1
  Ca2+  Ca19  1  0.58741335  0.32917102  0.49925922  1
  Ca2+  Ca20  1  0.58163341  0.32439728  0.83261915  1
  Ca2+  Ca21  1  0.57393481  0.82759376  0.16069746  1
  Ca2+  Ca22  1  0.57888368  0.83645870  0.49430327  1
  Ca2+  Ca23  1  0.58838214  0.82678827  0.82755994  1
  Ca2+  Ca24  1  0.32975001  0.41619530  0.16671813  1
  Ca2+  Ca25  1  0.32200686  0.41641007  0.50395526  1
  Ca2+  Ca26  1  0.32440550  0.41630302  0.84408300  1
  Ca2+  Ca27  1  0.32995073  0.92570483  0.17471929  1
  Ca2+  Ca28  1  0.33304139  0.92375517  0.50642331  1
  Ca2+  Ca29  1  0.32667527  0.92746153  0.84107004  1
  Ca2+  Ca30  1  0.82022769  0.40958733  0.16792980  1
  Ca2+  Ca31  1  0.82155142  0.41798498  0.50388810  1
  Ca2+  Ca32  1  0.82227060  0.40993742  0.83974898  1
  Ca2+  Ca33  1  0.83412807  0.92907497  0.17171048  1
  Ca2+  Ca34  1  0.83576620  0.91895515  0.50432236  1
  Ca2+  Ca35  1  0.82993921  0.92032604  0.83659792  1
  Ca2+  Ca36  1  0.41816639  0.17066860  0.15650289  1
  Ca2+  Ca37  1  0.42142338  0.15756615  0.49809458  1
  Ca2+  Ca38  1  0.42108293  0.16378511  0.83057262  1
  Ca2+  Ca39  1  0.41485600  0.66983906  0.15964506  1
  Ca2+  Ca40  1  0.41709974  0.67598907  0.49315411  1
  Ca2+  Ca41  1  0.41846775  0.66160642  0.83691638  1
  Ca2+  Ca42  1  0.91650465  0.16784515  0.15748662  1
  Ca2+  Ca43  1  0.92012799  0.16462451  0.49377530  1
  Ca2+  Ca44  1  0.91496719  0.16924366  0.83662899  1
  Ca2+  Ca45  1  0.91888848  0.67330712  0.16360341  1
  Ca2+  Ca46  1  0.91787556  0.68121569  0.49493442  1
  Ca2+  Ca47  1  0.92009620  0.67443533  0.82514466  1
  Al0+  Al48  1  -0.00309751  0.00202550  0.00411365  1
  Al0+  Al49  1  0.00114309  0.00298061  0.33449627  1
  Al0+  Al50  1  0.00101238  0.00353540  0.66481107  1
  Al0+  Al51  1  -0.00252650  0.50317021  -0.00323399  1
  Al0+  Al52  1  -0.00245860  0.50122906  0.33633666  1
  Al0+  Al53  1  -0.00132928  0.50208774  0.66663546  1
  Al0+  Al54  1  0.49972784  -0.00195656  -0.00053630  1
  Al0+  Al55  1  0.50391598  -0.00038342  0.32840427  1
  Al0+  Al56  1  0.50416053  -0.00001506  0.66997622  1
  Al0+  Al57  1  0.49822404  0.50048497  -0.00105056  1
  Al0+  Al58  1  0.49875173  0.49728249  0.33976295  1
  Al0+  Al59  1  0.49976667  0.49837010  0.66814614  1
  Al0+  Al60  1  0.24692821  0.24714645  0.00278749  1
  Al0+  Al61  1  0.25152819  0.24859173  0.34060744  1
  Al0+  Al62  1  0.24958724  0.25143077  0.67273205  1
  Al0+  Al63  1  0.24693806  0.74800895  0.00564839  1
  Al0+  Al64  1  0.24860160  0.74798721  0.33036296  1
  Al0+  Al65  1  0.24973819  0.74806871  0.66726135  1
  Al0+  Al66  1  0.75063234  0.25025927  -0.00106414  1
  Al0+  Al67  1  0.75130981  0.25018457  0.34306490  1
  Al0+  Al68  1  0.74935326  0.25071306  0.66496845  1
  Al0+  Al69  1  0.74947614  0.75022957  -0.00354318  1
  Al0+  Al70  1  0.75179048  0.74829913  0.32582852  1
  Al0+  Al71  1  0.75178131  0.74996566  0.66258427  1
  Al0+  Al72  1  0.93088011  0.82269189  0.65276381  1
  Al0+  Al73  1  0.32396833  0.07049802  0.68273018  1
  Al0+  Al74  1  0.17795316  0.43045883  0.68061238  1
  Al0+  Al75  1  0.42920155  0.82119346  0.31998301  1
  Al0+  Al76  1  0.32417462  0.07103839  0.01626021  1
  Al0+  Al77  1  0.92997201  0.32253666  0.98681822  1
  Al0+  Al78  1  0.67825047  0.42994011  0.34795021  1
  Al0+  Al79  1  0.17797907  0.42957422  0.34626182  1
  Al0+  Al80  1  0.32583601  0.07003120  0.34901619  1
  Al0+  Al81  1  0.57147628  0.17775769  0.98562026  1
  Al0+  Al82  1  0.68152492  0.92780586  0.67849344  1
  Al0+  Al83  1  0.17788280  0.92925270  0.01502406  1
  Al0+  Al84  1  0.81653069  0.06992089  0.01206706  1
  Al0+  Al85  1  0.57070794  0.17901889  0.65059032  1
  Al0+  Al86  1  0.42548916  0.32055763  0.98577695  1
  Al0+  Al87  1  0.57004636  0.68011600  0.98585986  1
  Al0+  Al88  1  0.67906514  0.42840459  0.68346462  1
  Al0+  Al89  1  0.17530558  0.42758833  0.01372576  1
  Al0+  Al90  1  0.17814780  0.92830132  0.68056049  1
  Al0+  Al91  1  0.18017419  0.92777413  0.34820129  1
  Al0+  Al92  1  0.93096600  0.82320629  0.31669778  1
  Al0+  Al93  1  0.68052599  0.43035609  0.01227851  1
  Al0+  Al94  1  0.82093493  0.07037985  0.34771079  1
  Al0+  Al95  1  0.32107595  0.56947427  0.01572817  1
  Si0+  Si96  1  0.06963152  0.17668231  0.98312318  1
  Si0+  Si97  1  0.82311416  0.07301948  0.68333701  1
  Si0+  Si98  1  0.07258730  0.67767650  0.64855836  1
  Si0+  Si99  1  0.07237797  0.18147832  0.65042642  1
  Si0+  Si100  1  0.92994982  0.82285786  0.98438235  1
  Si0+  Si101  1  0.82221343  0.57373345  0.35061635  1
  Si0+  Si102  1  0.82021302  0.57201379  0.68278720  1
  Si0+  Si103  1  0.92876280  0.32123431  0.32008787  1
  Si0+  Si104  1  0.07026342  0.67907650  0.98350677  1
  Si0+  Si105  1  0.07077115  0.67486499  0.31428505  1
  Si0+  Si106  1  0.67756417  0.92390205  0.01689191  1
  Si0+  Si107  1  0.57187474  0.67686608  0.65059852  1
  Si0+  Si108  1  0.57384845  0.18067135  0.31951594  1
  Si0+  Si109  1  0.57086507  0.67431193  0.31775979  1
  Si0+  Si110  1  0.82146238  0.57573219  0.01624483  1
  Si0+  Si111  1  0.92928028  0.32256505  0.64956705  1
  Si0+  Si112  1  0.42508181  0.82053582  0.98259014  1
  Si0+  Si113  1  0.42861925  0.31978576  0.32068556  1
  Si0+  Si114  1  0.32296006  0.57260897  0.68265252  1
  Si0+  Si115  1  0.43048742  0.81980426  0.65421549  1
  Si0+  Si116  1  0.32226659  0.57147331  0.35116999  1
  Si0+  Si117  1  0.42676222  0.32227611  0.64855039  1
  Si0+  Si118  1  0.68045983  0.92514821  0.34658731  1
  Si0+  Si119  1  0.07232802  0.18167872  0.31872172  1
  O2-  O120  1  0.25422455  -0.00377215  0.06466483  1
  O2-  O121  1  0.25839184  -0.00707827  0.39770247  1
  O2-  O122  1  0.25217418  -0.00282321  0.73054113  1
  O2-  O123  1  0.25218593  0.49365779  0.06447926  1
  O2-  O124  1  0.25097652  0.50516297  0.39467563  1
  O2-  O125  1  0.25431873  0.50343274  0.72513008  1
  O2-  O126  1  0.73958952  -0.00144603  0.06056090  1
  O2-  O127  1  0.75059209  -0.00881478  0.39252643  1
  O2-  O128  1  0.75587712  0.00237345  0.72562775  1
  O2-  O129  1  0.75393639  0.50604437  0.06043660  1
  O2-  O130  1  0.75042233  0.50776522  0.39398375  1
  O2-  O131  1  0.75305609  0.50389885  0.72913481  1
  O2-  O132  1  0.00246972  0.25439231  0.27682040  1
  O2-  O133  1  0.00160159  0.25331987  0.60697682  1
  O2-  O134  1  0.00811360  0.25223606  0.93845264  1
  O2-  O135  1  0.00798776  0.74977827  0.27047750  1
  O2-  O136  1  0.00929610  0.75171371  0.60507736  1
  O2-  O137  1  0.00205610  0.75337084  0.94195343  1
  O2-  O138  1  0.49978654  0.24888201  0.27883610  1
  O2-  O139  1  0.49412959  0.25234764  0.60325268  1
  O2-  O140  1  0.49541434  0.24600356  0.93592794  1
  O2-  O141  1  0.50345814  0.74443620  0.27458723  1
  O2-  O142  1  0.50101016  0.74840183  0.60967855  1
  O2-  O143  1  0.49686716  0.75536238  0.93700019  1
  O2-  O144  1  0.06497080  0.17471619  0.08886546  1
  O2-  O145  1  0.07057099  0.18368296  0.42425976  1
  O2-  O146  1  0.07023168  0.18077299  0.75524863  1
  O2-  O147  1  0.06665147  0.67481940  0.08828897  1
  O2-  O148  1  0.06620059  0.66984342  0.41979591  1
  O2-  O149  1  0.06923298  0.67439077  0.75392840  1
  O2-  O150  1  0.57489901  0.18386964  0.09975782  1
  O2-  O151  1  0.57468048  0.18139130  0.42472414  1
  O2-  O152  1  0.57293247  0.18064970  0.76292037  1
  O2-  O153  1  0.57064753  0.68191162  0.09915569  1
  O2-  O154  1  0.56962415  0.67397468  0.42385513  1
  O2-  O155  1  0.57260042  0.67643237  0.75537384  1
  O2-  O156  1  0.17668913  0.43000545  0.23401377  1
  O2-  O157  1  0.17794363  0.43216942  0.56697935  1
  O2-  O158  1  0.17353501  0.43434859  0.90032575  1
  O2-  O159  1  0.17988862  0.93426364  0.23518271  1
  O2-  O160  1  0.17974167  0.93024899  0.56729343  1
  O2-  O161  1  0.17720522  0.93129712  0.90125110  1
  O2-  O162  1  0.67831184  0.42900724  0.23511722  1
  O2-  O163  1  0.68077401  0.43045897  0.56985484  1
  O2-  O164  1  0.68292396  0.43051548  0.89942150  1
  O2-  O165  1  0.68092120  0.92561861  0.24125686  1
  O2-  O166  1  0.68180851  0.92818598  0.56503834  1
  O2-  O167  1  0.68326153  0.91947345  0.91128506  1
  O2-  O168  1  0.42926251  0.32158129  0.10034616  1
  O2-  O169  1  0.42900620  0.32152503  0.42580798  1
  O2-  O170  1  0.42771608  0.32434397  0.75350591  1
  O2-  O171  1  0.42700684  0.81810911  0.08835123  1
  O2-  O172  1  0.43288084  0.82023651  0.43391925  1
  O2-  O173  1  0.43137130  0.81712650  0.75889838  1
  O2-  O174  1  0.92827133  0.32064662  0.10044045  1
  O2-  O175  1  0.92873585  0.31972926  0.42557406  1
  O2-  O176  1  0.92906210  0.32248170  0.75449214  1
  O2-  O177  1  0.92983527  0.82207529  0.08943703  1
  O2-  O178  1  0.93037199  0.82132164  0.42997402  1
  O2-  O179  1  0.92972202  0.81967962  0.76607920  1
  O2-  O180  1  0.32405743  0.07356808  0.23615570  1
  O2-  O181  1  0.32403868  0.06779262  0.56897751  1
  O2-  O182  1  0.32271895  0.06946857  0.90275804  1
  O2-  O183  1  0.32603354  0.56833288  0.24628183  1
  O2-  O184  1  0.32357960  0.57362502  0.57683484  1
  O2-  O185  1  0.31749725  0.57132657  0.90187320  1
  O2-  O186  1  0.81868036  0.07439537  0.23483678  1
  O2-  O187  1  0.82300754  0.07286005  0.57744528  1
  O2-  O188  1  0.81955877  0.06667519  0.89906208  1
  O2-  O189  1  0.82544962  0.57256474  0.24535484  1
  O2-  O190  1  0.81896661  0.57059801  0.57699549  1
  O2-  O191  1  0.82044888  0.57776691  0.91064729  1
  O2-  O192  1  0.04155872  0.09175443  0.27073381  1
  O2-  O193  1  0.04279457  0.09121015  0.60059684  1
  O2-  O194  1  0.03319362  0.08716836  0.93469914  1
  O2-  O195  1  0.03630670  0.58414408  0.26623687  1
  O2-  O196  1  0.03950560  0.58664057  0.59958010  1
  O2-  O197  1  0.03863638  0.59049008  0.93159041  1
  O2-  O198  1  0.55384689  0.08764369  0.27174495  1
  O2-  O199  1  0.54374364  0.08026936  0.59736129  1
  O2-  O200  1  0.55048159  0.07594390  0.93517623  1
  O2-  O201  1  0.54155740  0.58072531  0.27323641  1
  O2-  O202  1  0.54214785  0.58535600  0.60264489  1
  O2-  O203  1  0.53832884  0.58463553  0.93047548  1
  O2-  O204  1  0.16538890  0.20818264  0.27367756  1
  O2-  O205  1  0.16422288  0.21031646  0.60340879  1
  O2-  O206  1  0.16538650  0.19329579  0.93953434  1
  O2-  O207  1  0.16710350  0.69065637  0.27105975  1
  O2-  O208  1  0.16865491  0.69490468  0.60382158  1
  O2-  O209  1  0.16328439  0.70325413  0.93705588  1
  O2-  O210  1  0.66529907  0.21415327  0.27457621  1
  O2-  O211  1  0.66733560  0.21232291  0.59593321  1
  O2-  O212  1  0.66831869  0.21003974  0.93163095  1
  O2-  O213  1  0.66555349  0.69459035  0.27197174  1
  O2-  O214  1  0.66326320  0.70371980  0.60190446  1
  O2-  O215  1  0.66704957  0.70973015  0.93007256  1
  O2-  O216  1  0.07814684  0.46372858  0.06578427  1
  O2-  O217  1  0.08083770  0.45966270  0.40086941  1
  O2-  O218  1  0.08064178  0.46215556  0.73222566  1
  O2-  O219  1  0.08073562  0.96251367  0.06737548  1
  O2-  O220  1  0.08432337  0.96452966  0.40086804  1
  O2-  O221  1  0.08022580  0.96065631  0.73235277  1
  O2-  O222  1  0.58417391  0.46176075  0.06522587  1
  O2-  O223  1  0.58242784  0.45852681  0.40541834  1
  O2-  O224  1  0.58174695  0.45874758  0.73448022  1
  O2-  O225  1  0.58100914  0.94113317  0.05843693  1
  O2-  O226  1  0.58813577  0.95373572  0.39308289  1
  O2-  O227  1  0.58663295  0.95603627  0.73531249  1
  O2-  O228  1  0.19309847  0.32656627  0.06375189  1
  O2-  O229  1  0.21044180  0.33487352  0.40278067  1
  O2-  O230  1  0.20399974  0.33409530  0.73520977  1
  O2-  O231  1  0.19682152  0.82851883  0.06599353  1
  O2-  O232  1  0.19595571  0.82413177  0.39494905  1
  O2-  O233  1  0.20008303  0.82678135  0.72984492  1
  O2-  O234  1  0.71424658  0.33549686  0.06683728  1
  O2-  O235  1  0.71433856  0.33712557  0.40563066  1
  O2-  O236  1  0.71334042  0.33241911  0.73487848  1
  O2-  O237  1  0.70935294  0.83325399  0.06524472  1
  O2-  O238  1  0.70172987  0.82934165  0.39038248  1
  O2-  O239  1  0.71201206  0.83059260  0.73164162  1
  O2-  O240  1  0.45660411  0.41233495  0.27464060  1
  O2-  O241  1  0.45455757  0.41579796  0.60148554  1
  O2-  O242  1  0.45459625  0.41860927  0.93303784  1
  O2-  O243  1  0.46326229  0.91561191  0.26299388  1
  O2-  O244  1  0.46102745  0.91057775  0.60691047  1
  O2-  O245  1  0.44750212  0.91507373  0.93798498  1
  O2-  O246  1  0.95168844  0.41487578  0.27452192  1
  O2-  O247  1  0.95483708  0.41559710  0.60258083  1
  O2-  O248  1  0.95423587  0.42054152  0.93145034  1
  O2-  O249  1  0.96063256  0.92128987  0.26458862  1
  O2-  O250  1  0.95739793  0.92115319  0.59949832  1
  O2-  O251  1  0.95659759  0.91500528  0.93737200  1
  O2-  O252  1  0.33640080  0.29225660  0.27431514  1
  O2-  O253  1  0.33126859  0.29886562  0.60451601  1
  O2-  O254  1  0.32437653  0.29656235  0.93591558  1
  O2-  O255  1  0.33211152  0.79179473  0.26640455  1
  O2-  O256  1  0.33851883  0.79180847  0.60587445  1
  O2-  O257  1  0.33179264  0.79081566  0.93830822  1
  O2-  O258  1  0.83704241  0.28932900  0.27490886  1
  O2-  O259  1  0.83820637  0.29291431  0.60161410  1
  O2-  O260  1  0.83643657  0.28579723  0.93079144  1
  O2-  O261  1  0.83478227  0.79131397  0.26131749  1
  O2-  O262  1  0.83595053  0.78802905  0.59604816  1
  O2-  O263  1  0.83870467  0.79355229  0.93662258  1
  O2-  O264  1  0.42397692  0.04546029  0.06824132  1
  O2-  O265  1  0.42670742  0.04371145  0.39825535  1
  O2-  O266  1  0.42204721  0.04224794  0.73461236  1
  O2-  O267  1  0.42003418  0.54589114  0.06881868  1
  O2-  O268  1  0.41353814  0.54351250  0.40139805  1
  O2-  O269  1  0.41648659  0.54763105  0.72845475  1
  O2-  O270  1  0.91079349  0.03738023  0.06898905  1
  O2-  O271  1  0.91797859  0.04325201  0.40175902  1
  O2-  O272  1  0.91699534  0.04989225  0.72870531  1
  O2-  O273  1  0.91510154  0.55143551  0.06150884  1
  O2-  O274  1  0.91283110  0.54491631  0.40075509  1
  O2-  O275  1  0.91429787  0.54829911  0.72823756  1
  O2-  O276  1  0.29293597  0.16805093  0.06998129  1
  O2-  O277  1  0.29351522  0.16595732  0.40504446  1
  O2-  O278  1  0.29436951  0.16869482  0.73372751  1
  O2-  O279  1  0.28866114  0.66547873  0.07101936  1
  O2-  O280  1  0.29870610  0.66595182  0.39591580  1
  O2-  O281  1  0.29777912  0.66522927  0.73031117  1
  O2-  O282  1  0.78921518  0.16676381  0.06741281  1
  O2-  O283  1  0.78892236  0.16418149  0.40635862  1
  O2-  O284  1  0.79536750  0.16619196  0.72789615  1
  O2-  O285  1  0.79528849  0.66874089  0.06336406  1
  O2-  O286  1  0.79841065  0.66863659  0.39522991  1
  O2-  O287  1  0.79559250  0.66583878  0.72774309  1
