# generated using pymatgen
data_Ca2Al2SiO7
_symmetry_space_group_name_H-M   'P 1'
_cell_length_a   15.46900617
_cell_length_b   15.47051830
_cell_length_c   15.29188072
_cell_angle_alpha   89.99461088
_cell_angle_beta   90.02230353
_cell_angle_gamma   90.02271923
_symmetry_Int_Tables_number   1
_chemical_formula_structural   Ca2Al2SiO7
_chemical_formula_sum   'Ca48 Al48 Si24 O168'
_cell_volume   3659.55357364
_cell_formula_units_Z   24
loop_
 _symmetry_equiv_pos_site_id
 _symmetry_equiv_pos_as_xyz
  1  'x, y, z'
loop_
 _atom_type_symbol
 _atom_type_oxidation_number
  Ca2+  2.0
  Al0+  0.0
  Si0+  0.0
  O2-  -2.0
loop_
 _atom_site_type_symbol
 _atom_site_label
 _atom_site_symmetry_multiplicity
 _atom_site_fract_x
 _atom_site_fract_y
 _atom_site_fract_z
 _atom_site_occupancy
  Ca2+  Ca0  1  0.15501045  0.08152435  0.16936577  1
  Ca2+  Ca1  1  0.17034248  0.08138508  0.50924270  1
  Ca2+  Ca2  1  0.16418228  0.07532206  0.83964134  1
  Ca2+  Ca3  1  0.17199508  0.57181056  0.17207137  1
  Ca2+  Ca4  1  0.16643712  0.57554214  0.49936701  1
  Ca2+  Ca5  1  0.17150013  0.56746277  0.84079578  1
  Ca2+  Ca6  1  0.67230436  0.09277824  0.16762904  1
  Ca2+  Ca7  1  0.66980768  0.09255855  0.50687469  1
  Ca2+  Ca8  1  0.67428867  0.09119781  0.84118060  1
  Ca2+  Ca9  1  0.66946986  0.57106139  0.17182691  1
  Ca2+  Ca10  1  0.66085616  0.57758184  0.49729863  1
  Ca2+  Ca11  1  0.67571470  0.57307672  0.84593834  1
  Ca2+  Ca12  1  0.08550074  0.32700112  0.15735552  1
  Ca2+  Ca13  1  0.07942807  0.33613233  0.49442546  1
  Ca2+  Ca14  1  0.07441993  0.33860841  0.83019623  1
  Ca2+  Ca15  1  0.08873157  0.82533499  0.16109523  1
  Ca2+  Ca16  1  0.08681688  0.82898242  0.49315886  1
  Ca2+  Ca17  1  0.09013030  0.83430419  0.83136166  1
  Ca2+  Ca18  1  0.58986699  0.32919947  0.16074595  1
  Ca2+  Ca19  1  0.57747157  0.32535013  0.49642616  1
  Ca2+  Ca20  1  0.57982172  0.32687806  0.82839076  1
  Ca2+  Ca21  1  0.58578626  0.82676805  0.16075401  1
  Ca2+  Ca22  1  0.57985196  0.82573228  0.49117908  1
  Ca2+  Ca23  1  0.58848023  0.83235973  0.83318329  1
  Ca2+  Ca24  1  0.32442539  0.42180136  0.17205940  1
  Ca2+  Ca25  1  0.32203738  0.41330561  0.50347142  1
  Ca2+  Ca26  1  0.32570314  0.41293112  0.83752127  1
  Ca2+  Ca27  1  0.32960767  0.91986497  0.16479728  1
  Ca2+  Ca28  1  0.32711637  0.92530680  0.50883833  1
  Ca2+  Ca29  1  0.32611667  0.92483927  0.83473448  1
  Ca2+  Ca30  1  0.82465117  0.40746838  0.16341937  1
  Ca2+  Ca31  1  0.82711989  0.40989920  0.50253376  1
  Ca2+  Ca32  1  0.83220217  0.41424333  0.84365376  1
  Ca2+  Ca33  1  0.82886222  0.92300463  0.16259414  1
  Ca2+  Ca34  1  0.83098339  0.92719826  0.50765177  1
  Ca2+  Ca35  1  0.82828954  0.93318241  0.84135882  1
  Ca2+  Ca36  1  0.42961330  0.16895582  0.16097864  1
  Ca2+  Ca37  1  0.42062527  0.16823891  0.49904113  1
  Ca2+  Ca38  1  0.42819307  0.16704707  0.82499098  1
  Ca2+  Ca39  1  0.41543795  0.65857578  0.16365009  1
  Ca2+  Ca40  1  0.41720733  0.66782192  0.49027897  1
  Ca2+  Ca41  1  0.41270414  0.66532215  0.83279441  1
  Ca2+  Ca42  1  0.92598730  0.17269410  0.15685149  1
  Ca2+  Ca43  1  0.92164883  0.17017058  0.49949126  1
  Ca2+  Ca44  1  0.91379677  0.17528150  0.83290371  1
  Ca2+  Ca45  1  0.92086411  0.66258360  0.16119777  1
  Ca2+  Ca46  1  0.92519873  0.67242213  0.49220150  1
  Ca2+  Ca47  1  0.91511703  0.66631611  0.83089852  1
  Al0+  Al48  1  -0.00086318  -0.00279313  0.00530795  1
  Al0+  Al49  1  -0.00311231  0.00185985  0.33221445  1
  Al0+  Al50  1  -0.00390043  -0.00055799  0.67446302  1
  Al0+  Al51  1  0.00281043  0.50023216  0.00218232  1
  Al0+  Al52  1  -0.00257704  0.50291911  0.33157940  1
  Al0+  Al53  1  -0.00017986  0.50135914  0.66378537  1
  Al0+  Al54  1  0.49900567  -0.00371424  -0.00191008  1
  Al0+  Al55  1  0.49992891  -0.00010300  0.32939293  1
  Al0+  Al56  1  0.50017071  -0.00458324  0.66501924  1
  Al0+  Al57  1  0.50195721  0.50025306  0.00374335  1
  Al0+  Al58  1  0.50011280  0.50095859  0.33741628  1
  Al0+  Al59  1  0.50014758  0.49885350  0.66262251  1
  Al0+  Al60  1  0.25303492  0.24671809  -0.00071406  1
  Al0+  Al61  1  0.24991555  0.24882787  0.33308622  1
  Al0+  Al62  1  0.25089468  0.24942902  0.67233722  1
  Al0+  Al63  1  0.25154492  0.75210820  0.00426523  1
  Al0+  Al64  1  0.24825162  0.75170863  0.33164639  1
  Al0+  Al65  1  0.25099164  0.74870081  0.66752180  1
  Al0+  Al66  1  0.75292217  0.24954279  0.00077045  1
  Al0+  Al67  1  0.75068468  0.25060101  0.33647252  1
  Al0+  Al68  1  0.75116912  0.25139065  0.66337887  1
  Al0+  Al69  1  0.75146762  0.75084177  0.00449640  1
  Al0+  Al70  1  0.74738886  0.75194586  0.33055769  1
  Al0+  Al71  1  0.75203056  0.74988360  0.66294681  1
  Al0+  Al72  1  0.56931861  0.67825099  0.31769745  1
  Al0+  Al73  1  0.31965827  0.57255091  0.34953387  1
  Al0+  Al74  1  0.17947796  0.93142914  0.01580894  1
  Al0+  Al75  1  0.57062352  0.17782124  0.65212598  1
  Al0+  Al76  1  0.07020112  0.68046304  0.31774868  1
  Al0+  Al77  1  0.42602070  0.32216722  0.65086715  1
  Al0+  Al78  1  0.81776342  0.07297300  0.68078051  1
  Al0+  Al79  1  0.18004014  0.42482672  0.01461666  1
  Al0+  Al80  1  0.68041830  0.42830673  0.35013909  1
  Al0+  Al81  1  0.17710902  0.42716422  0.34889475  1
  Al0+  Al82  1  0.17818224  0.92836014  0.68051300  1
  Al0+  Al83  1  0.17712079  0.42901344  0.68008035  1
  Al0+  Al84  1  0.93058011  0.32281896  0.65135146  1
  Al0+  Al85  1  0.57087969  0.17858888  0.98701391  1
  Al0+  Al86  1  0.68054664  0.42801159  0.01343653  1
  Al0+  Al87  1  0.07126707  0.18006387  0.32253433  1
  Al0+  Al88  1  0.93302544  0.32130634  0.98559245  1
  Al0+  Al89  1  0.57106492  0.18017979  0.31890390  1
  Al0+  Al90  1  0.32109815  0.57113970  0.01346007  1
  Al0+  Al91  1  0.32372766  0.07165436  0.68177989  1
  Al0+  Al92  1  0.67669195  0.92903827  0.01508111  1
  Al0+  Al93  1  0.82000372  0.07197014  0.01742304  1
  Al0+  Al94  1  0.07377147  0.17511273  0.98358094  1
  Al0+  Al95  1  0.82373675  0.57238765  0.01430174  1
  Si0+  Si96  1  0.07292937  0.68086336  0.98386832  1
  Si0+  Si97  1  0.32426475  0.07096767  0.01762521  1
  Si0+  Si98  1  0.42950892  0.32395257  0.98453556  1
  Si0+  Si99  1  0.92682216  0.82378641  0.31543614  1
  Si0+  Si100  1  0.07130607  0.68053597  0.65227012  1
  Si0+  Si101  1  0.67873274  0.92446189  0.68065060  1
  Si0+  Si102  1  0.57237884  0.67880565  0.98460111  1
  Si0+  Si103  1  0.92785341  0.81930403  0.98337048  1
  Si0+  Si104  1  0.32353913  0.57099828  0.68200515  1
  Si0+  Si105  1  0.82056328  0.57263088  0.67876739  1
  Si0+  Si106  1  0.81947269  0.07031647  0.35072764  1
  Si0+  Si107  1  0.32321454  0.07003236  0.34726713  1
  Si0+  Si108  1  0.42803458  0.81801671  0.65079711  1
  Si0+  Si109  1  0.67933231  0.43080122  0.68056483  1
  Si0+  Si110  1  0.57309773  0.67901309  0.65215523  1
  Si0+  Si111  1  0.42742797  0.32178598  0.31662030  1
  Si0+  Si112  1  0.67733298  0.92919158  0.34917532  1
  Si0+  Si113  1  0.42796347  0.81937144  0.98218392  1
  Si0+  Si114  1  0.82017505  0.57622563  0.35193755  1
  Si0+  Si115  1  0.92795913  0.32296774  0.31752895  1
  Si0+  Si116  1  0.17718468  0.93169410  0.34732785  1
  Si0+  Si117  1  0.07030446  0.17559784  0.65350857  1
  Si0+  Si118  1  0.42741568  0.82244727  0.31474517  1
  Si0+  Si119  1  0.92850430  0.82173119  0.65200308  1
  O2-  O120  1  0.24825776  0.01093699  0.06349689  1
  O2-  O121  1  0.24793397  0.00249926  0.38915129  1
  O2-  O122  1  0.24641211  0.00382561  0.73027473  1
  O2-  O123  1  0.25252876  0.49689949  0.06328558  1
  O2-  O124  1  0.24895942  0.49962817  0.39985739  1
  O2-  O125  1  0.25742289  0.49965079  0.72447716  1
  O2-  O126  1  0.74300212  0.00450902  0.06737113  1
  O2-  O127  1  0.74591015  0.00136315  0.39290207  1
  O2-  O128  1  0.73871748  0.00047367  0.72374697  1
  O2-  O129  1  0.75300300  0.49967952  0.06390871  1
  O2-  O130  1  0.75444565  0.50501199  0.39690369  1
  O2-  O131  1  0.75056080  0.50195897  0.72154147  1
  O2-  O132  1  0.00353864  0.26089994  0.27635095  1
  O2-  O133  1  0.00749419  0.24878974  0.60695650  1
  O2-  O134  1  0.00559375  0.25061278  0.93348119  1
  O2-  O135  1  -0.00588489  0.75417907  0.27109945  1
  O2-  O136  1  0.00397267  0.75568546  0.60988850  1
  O2-  O137  1  -0.00108957  0.74839839  0.94004102  1
  O2-  O138  1  0.49878822  0.25627203  0.27167638  1
  O2-  O139  1  0.49577044  0.24685592  0.60184231  1
  O2-  O140  1  0.49704439  0.25384892  0.94049655  1
  O2-  O141  1  0.49210369  0.75011812  0.27062072  1
  O2-  O142  1  0.50039074  0.74809139  0.60945626  1
  O2-  O143  1  0.50035557  0.74841204  0.94085414  1
  O2-  O144  1  0.06913547  0.17644520  0.09759348  1
  O2-  O145  1  0.06793645  0.17391325  0.43576747  1
  O2-  O146  1  0.06515993  0.17292623  0.75832773  1
  O2-  O147  1  0.07260824  0.68421727  0.08877864  1
  O2-  O148  1  0.06930023  0.68456930  0.43177117  1
  O2-  O149  1  0.06945612  0.68020682  0.75722591  1
  O2-  O150  1  0.56863074  0.18006207  0.10041710  1
  O2-  O151  1  0.56899342  0.17841637  0.43177999  1
  O2-  O152  1  0.57216981  0.18083735  0.76553562  1
  O2-  O153  1  0.57181590  0.68043380  0.08926217  1
  O2-  O154  1  0.57059850  0.68401532  0.43171660  1
  O2-  O155  1  0.57585563  0.68044233  0.75713458  1
  O2-  O156  1  0.18000587  0.42626697  0.23599041  1
  O2-  O157  1  0.17385491  0.43409652  0.56724732  1
  O2-  O158  1  0.17914792  0.42945764  0.90069185  1
  O2-  O159  1  0.17729411  0.93179871  0.24258450  1
  O2-  O160  1  0.18003042  0.92634548  0.56621323  1
  O2-  O161  1  0.18363995  0.92732488  0.90295535  1
  O2-  O162  1  0.68341119  0.42671957  0.23763942  1
  O2-  O163  1  0.67963268  0.43290172  0.57537058  1
  O2-  O164  1  0.67900992  0.43142157  0.89924545  1
  O2-  O165  1  0.67839372  0.92793212  0.24478510  1
  O2-  O166  1  0.68332002  0.91829767  0.57497358  1
  O2-  O167  1  0.68117598  0.92581753  0.90116014  1
  O2-  O168  1  0.43042231  0.32381902  0.09021760  1
  O2-  O169  1  0.42630344  0.31762613  0.42214706  1
  O2-  O170  1  0.43252815  0.32758618  0.76418334  1
  O2-  O171  1  0.42638178  0.81967377  0.08705522  1
  O2-  O172  1  0.42986233  0.82411665  0.42081423  1
  O2-  O173  1  0.42636833  0.81612164  0.75559362  1
  O2-  O174  1  0.93176192  0.31954647  0.09925535  1
  O2-  O175  1  0.92622640  0.31929194  0.42364226  1
  O2-  O176  1  0.92861223  0.32615548  0.76347563  1
  O2-  O177  1  0.92821262  0.81857202  0.08849623  1
  O2-  O178  1  0.92895137  0.82469451  0.42180699  1
  O2-  O179  1  0.92313575  0.81723538  0.75633936  1
  O2-  O180  1  0.32665152  0.06660667  0.24257306  1
  O2-  O181  1  0.32286941  0.06632536  0.56729722  1
  O2-  O182  1  0.32759544  0.06492423  0.91254731  1
  O2-  O183  1  0.31767853  0.57138197  0.23646527  1
  O2-  O184  1  0.32209729  0.57571456  0.57691658  1
  O2-  O185  1  0.31874359  0.57246882  0.89923122  1
  O2-  O186  1  0.82015153  0.06907947  0.24632208  1
  O2-  O187  1  0.81978280  0.06875169  0.56696015  1
  O2-  O188  1  0.81910368  0.07063606  0.90373361  1
  O2-  O189  1  0.81838709  0.57931696  0.24706768  1
  O2-  O190  1  0.81883578  0.57640875  0.57393513  1
  O2-  O191  1  0.81940229  0.57477302  0.89970438  1
  O2-  O192  1  0.03429102  0.08545682  0.26750406  1
  O2-  O193  1  0.03912415  0.08291069  0.60662527  1
  O2-  O194  1  0.04296691  0.07493399  0.93538361  1
  O2-  O195  1  0.03999881  0.58398416  0.26379721  1
  O2-  O196  1  0.03810043  0.59237612  0.60175831  1
  O2-  O197  1  0.04843667  0.58818749  0.93717414  1
  O2-  O198  1  0.54047146  0.08323272  0.26541300  1
  O2-  O199  1  0.54835079  0.07579491  0.60184055  1
  O2-  O200  1  0.54054674  0.08066796  0.93473883  1
  O2-  O201  1  0.54354695  0.57973660  0.26610185  1
  O2-  O202  1  0.54693735  0.58744649  0.60410193  1
  O2-  O203  1  0.54619939  0.58674258  0.93651449  1
  O2-  O204  1  0.17008904  0.20083711  0.26851503  1
  O2-  O205  1  0.16733882  0.19404055  0.61260253  1
  O2-  O206  1  0.17645682  0.19351730  0.93547956  1
  O2-  O207  1  0.16526000  0.71485208  0.26345806  1
  O2-  O208  1  0.16392740  0.70582123  0.60489994  1
  O2-  O209  1  0.16322622  0.71477346  0.93717562  1
  O2-  O210  1  0.66931388  0.21043717  0.26872484  1
  O2-  O211  1  0.66720335  0.21124345  0.59827981  1
  O2-  O212  1  0.66820692  0.20843903  0.93548387  1
  O2-  O213  1  0.66485283  0.71296581  0.26434934  1
  O2-  O214  1  0.66348530  0.70892869  0.60220056  1
  O2-  O215  1  0.66388182  0.70961484  0.93743778  1
  O2-  O216  1  0.08329970  0.45579314  0.06759764  1
  O2-  O217  1  0.07694574  0.45751175  0.39838898  1
  O2-  O218  1  0.08264221  0.46812051  0.73364784  1
  O2-  O219  1  0.08166126  0.95253154  0.07099048  1
  O2-  O220  1  0.08452004  0.95785693  0.39433321  1
  O2-  O221  1  0.07846806  0.94973116  0.73323403  1
  O2-  O222  1  0.58371652  0.45716566  0.06810391  1
  O2-  O223  1  0.58400958  0.45939201  0.40407341  1
  O2-  O224  1  0.58759794  0.45935414  0.72715673  1
  O2-  O225  1  0.57519673  0.94642344  0.06493076  1
  O2-  O226  1  0.58398893  0.95408722  0.39530236  1
  O2-  O227  1  0.58172777  0.93792231  0.72243585  1
  O2-  O228  1  0.20691835  0.32547580  0.06577695  1
  O2-  O229  1  0.20582642  0.32794240  0.40167694  1
  O2-  O230  1  0.20102035  0.33135392  0.73362206  1
  O2-  O231  1  0.21697361  0.83758143  0.07103229  1
  O2-  O232  1  0.20537859  0.84015020  0.39458557  1
  O2-  O233  1  0.21054628  0.83042315  0.73302520  1
  O2-  O234  1  0.71024326  0.33134447  0.06768947  1
  O2-  O235  1  0.71390340  0.33303462  0.40623183  1
  O2-  O236  1  0.70821982  0.33945029  0.72612671  1
  O2-  O237  1  0.71107365  0.83339425  0.06998956  1
  O2-  O238  1  0.70667155  0.83800746  0.39791892  1
  O2-  O239  1  0.71236786  0.83381869  0.72888370  1
  O2-  O240  1  0.45055917  0.41715778  0.27492494  1
  O2-  O241  1  0.45738739  0.41956063  0.59540418  1
  O2-  O242  1  0.45635688  0.41728000  0.93794243  1
  O2-  O243  1  0.45727063  0.91362863  0.26658464  1
  O2-  O244  1  0.45441317  0.90887604  0.60075751  1
  O2-  O245  1  0.45535807  0.90980057  0.93209603  1
  O2-  O246  1  0.94172000  0.41983911  0.27537191  1
  O2-  O247  1  0.95866425  0.42006758  0.59569077  1
  O2-  O248  1  0.95829886  0.42169856  0.93284378  1
  O2-  O249  1  0.95327264  0.91660700  0.26943660  1
  O2-  O250  1  0.95186028  0.91505237  0.60558624  1
  O2-  O251  1  0.95687930  0.91089011  0.93723275  1
  O2-  O252  1  0.33559423  0.29262999  0.26922981  1
  O2-  O253  1  0.32580024  0.29605908  0.59959741  1
  O2-  O254  1  0.33588906  0.29915513  0.93853859  1
  O2-  O255  1  0.33213741  0.80205407  0.27058368  1
  O2-  O256  1  0.33715813  0.78912154  0.60101905  1
  O2-  O257  1  0.33728220  0.78901679  0.93345889  1
  O2-  O258  1  0.83747723  0.28830210  0.27161287  1
  O2-  O259  1  0.83530493  0.28965061  0.59605934  1
  O2-  O260  1  0.83431185  0.29175574  0.93288603  1
  O2-  O261  1  0.83248993  0.80017326  0.27115272  1
  O2-  O262  1  0.83990958  0.78934842  0.59928283  1
  O2-  O263  1  0.83645737  0.79111641  0.93475217  1
  O2-  O264  1  0.41343158  0.03470476  0.06621187  1
  O2-  O265  1  0.41296901  0.03693034  0.39629819  1
  O2-  O266  1  0.42016960  0.03463032  0.73446595  1
  O2-  O267  1  0.42104307  0.54828148  0.06478620  1
  O2-  O268  1  0.41985593  0.54993163  0.40108390  1
  O2-  O269  1  0.41907893  0.54956386  0.72646768  1
  O2-  O270  1  0.91514385  0.03565917  0.07159117  1
  O2-  O271  1  0.90976509  0.03809317  0.39959274  1
  O2-  O272  1  0.91066968  0.03758564  0.73752206  1
  O2-  O273  1  0.92322849  0.54947585  0.06544349  1
  O2-  O274  1  0.91528412  0.55420680  0.39642860  1
  O2-  O275  1  0.91293459  0.54752640  0.72512449  1
  O2-  O276  1  0.31026358  0.16722787  0.06106242  1
  O2-  O277  1  0.29827129  0.16209576  0.39432988  1
  O2-  O278  1  0.30571169  0.17149303  0.73395479  1
  O2-  O279  1  0.29241382  0.66867909  0.06685049  1
  O2-  O280  1  0.29036008  0.67272522  0.40076968  1
  O2-  O281  1  0.29563825  0.66349326  0.72939340  1
  O2-  O282  1  0.79526383  0.16993603  0.07130168  1
  O2-  O283  1  0.79338817  0.16192845  0.39876156  1
  O2-  O284  1  0.78945800  0.17037815  0.73346309  1
  O2-  O285  1  0.79554004  0.66968367  0.06825045  1
  O2-  O286  1  0.79177488  0.66966412  0.39872516  1
  O2-  O287  1  0.79231772  0.66425555  0.72719479  1
