# generated using pymatgen
data_Ca2Al2SiO7
_symmetry_space_group_name_H-M   'P 1'
_cell_length_a   15.45817480
_cell_length_b   15.45854708
_cell_length_c   15.28373634
_cell_angle_alpha   89.99150434
_cell_angle_beta   90.00178279
_cell_angle_gamma   89.98474924
_symmetry_Int_Tables_number   1
_chemical_formula_structural   Ca2Al2SiO7
_chemical_formula_sum   'Ca48 Al48 Si24 O168'
_cell_volume   3652.21556885
_cell_formula_units_Z   24
loop_
 _symmetry_equiv_pos_site_id
 _symmetry_equiv_pos_as_xyz
  1  'x, y, z'
loop_
 _atom_type_symbol
 _atom_type_oxidation_number
  Ca2+  2.0
  Al0+  0.0
  Si0+  0.0
  O2-  -2.0
loop_
 _atom_site_type_symbol
 _atom_site_label
 _atom_site_symmetry_multiplicity
 _atom_site_fract_x
 _atom_site_fract_y
 _atom_site_fract_z
 _atom_site_occupancy
  Ca2+  Ca0  1  0.16408321  0.08636173  0.17159285  1
  Ca2+  Ca1  1  0.17137311  0.08510938  0.50327205  1
  Ca2+  Ca2  1  0.17427961  0.08806447  0.83866061  1
  Ca2+  Ca3  1  0.17047044  0.58183184  0.17040130  1
  Ca2+  Ca4  1  0.16536624  0.58437078  0.50447855  1
  Ca2+  Ca5  1  0.17230286  0.57855690  0.84346211  1
  Ca2+  Ca6  1  0.66847742  0.07732656  0.17452923  1
  Ca2+  Ca7  1  0.65845992  0.07341090  0.49956672  1
  Ca2+  Ca8  1  0.66890502  0.07252852  0.84458228  1
  Ca2+  Ca9  1  0.67212035  0.58408877  0.17682525  1
  Ca2+  Ca10  1  0.67681827  0.59475408  0.50316684  1
  Ca2+  Ca11  1  0.66786820  0.58644805  0.83207530  1
  Ca2+  Ca12  1  0.07750941  0.32457744  0.16558464  1
  Ca2+  Ca13  1  0.07598564  0.32648732  0.48962570  1
  Ca2+  Ca14  1  0.08914451  0.33089540  0.83592987  1
  Ca2+  Ca15  1  0.07489042  0.82925993  0.16146387  1
  Ca2+  Ca16  1  0.08282808  0.81982693  0.49362599  1
  Ca2+  Ca17  1  0.07328776  0.82825422  0.83026059  1
  Ca2+  Ca18  1  0.58909344  0.31998467  0.16513207  1
  Ca2+  Ca19  1  0.57004959  0.32915754  0.49018426  1
  Ca2+  Ca20  1  0.57844874  0.32611403  0.82867802  1
  Ca2+  Ca21  1  0.57906383  0.83839844  0.16428557  1
  Ca2+  Ca22  1  0.58660801  0.83026429  0.49452324  1
  Ca2+  Ca23  1  0.58347486  0.83432563  0.83132197  1
  Ca2+  Ca24  1  0.32989288  0.41662739  0.16811796  1
  Ca2+  Ca25  1  0.33492532  0.41139829  0.50472226  1
  Ca2+  Ca26  1  0.33096652  0.42294204  0.84324288  1
  Ca2+  Ca27  1  0.33604797  0.91185177  0.17158875  1
  Ca2+  Ca28  1  0.33742545  0.92194760  0.50189514  1
  Ca2+  Ca29  1  0.33471889  0.92014042  0.83792456  1
  Ca2+  Ca30  1  0.83670072  0.42141731  0.17523308  1
  Ca2+  Ca31  1  0.83663334  0.42470723  0.49923380  1
  Ca2+  Ca32  1  0.83493807  0.42571990  0.83470071  1
  Ca2+  Ca33  1  0.82542567  0.92370844  0.17153285  1
  Ca2+  Ca34  1  0.82098566  0.92061790  0.50088433  1
  Ca2+  Ca35  1  0.82195810  0.91628646  0.84305174  1
  Ca2+  Ca36  1  0.43143053  0.16767215  0.16646257  1
  Ca2+  Ca37  1  0.41692469  0.17396526  0.49413020  1
  Ca2+  Ca38  1  0.42060781  0.16871153  0.82860197  1
  Ca2+  Ca39  1  0.42038934  0.67653119  0.16307452  1
  Ca2+  Ca40  1  0.43329660  0.67297605  0.49016144  1
  Ca2+  Ca41  1  0.41987376  0.67056071  0.83009919  1
  Ca2+  Ca42  1  0.92156847  0.15723639  0.16159977  1
  Ca2+  Ca43  1  0.91935828  0.17109006  0.48632074  1
  Ca2+  Ca44  1  0.92034811  0.16147171  0.83638243  1
  Ca2+  Ca45  1  0.91771268  0.66995066  0.16493658  1
  Ca2+  Ca46  1  0.92384452  0.65819356  0.49411893  1
  Ca2+  Ca47  1  0.91671731  0.67153469  0.82650134  1
  Al0+  Al48  1  0.00099172  -0.00097043  -0.00854012  1
  Al0+  Al49  1  0.00070821  -0.00219855  0.33728685  1
  Al0+  Al50  1  -0.00025206  -0.00106090  0.66523621  1
  Al0+  Al51  1  0.00144163  0.49739905  0.00394205  1
  Al0+  Al52  1  0.00220730  0.49756390  0.32927396  1
  Al0+  Al53  1  -0.00012140  0.49919087  0.66910358  1
  Al0+  Al54  1  0.49928509  -0.00071228  -0.00524984  1
  Al0+  Al55  1  0.49758097  0.00126966  0.33268109  1
  Al0+  Al56  1  0.49892240  0.00082614  0.67624006  1
  Al0+  Al57  1  0.50104277  0.50081534  0.00508398  1
  Al0+  Al58  1  0.49813835  0.50243150  0.32652656  1
  Al0+  Al59  1  0.50064558  0.50029403  0.65941940  1
  Al0+  Al60  1  0.24906501  0.25097177  0.00193367  1
  Al0+  Al61  1  0.24798764  0.25072341  0.32725235  1
  Al0+  Al62  1  0.24980619  0.24978098  0.66812501  1
  Al0+  Al63  1  0.25189050  0.75040530  -0.00108741  1
  Al0+  Al64  1  0.25001799  0.74822652  0.32877879  1
  Al0+  Al65  1  0.24850568  0.75050585  0.66419643  1
  Al0+  Al66  1  0.75269298  0.25056851  -0.00474808  1
  Al0+  Al67  1  0.74925303  0.25303366  0.33245699  1
  Al0+  Al68  1  0.75024595  0.24995454  0.66655037  1
  Al0+  Al69  1  0.74911763  0.75052345  0.00016347  1
  Al0+  Al70  1  0.75186554  0.75008831  0.33888013  1
  Al0+  Al71  1  0.75032204  0.75179226  0.67220027  1
  Al0+  Al72  1  0.82157855  0.56920815  0.34631030  1
  Al0+  Al73  1  0.67707003  0.92896348  0.01754504  1
  Al0+  Al74  1  0.31770892  0.07085102  0.68085200  1
  Al0+  Al75  1  0.57115878  0.68098761  0.65356617  1
  Al0+  Al76  1  0.32263801  0.57315770  0.01677374  1
  Al0+  Al77  1  0.82091897  0.56894672  0.68107369  1
  Al0+  Al78  1  0.82253900  0.07352444  0.34870391  1
  Al0+  Al79  1  0.06981376  0.67833079  0.65440047  1
  Al0+  Al80  1  0.43011736  0.82131840  0.32005126  1
  Al0+  Al81  1  0.17888745  0.42783688  0.01881048  1
  Al0+  Al82  1  0.42894629  0.32007738  0.65516015  1
  Al0+  Al83  1  0.92772245  0.32055276  0.31924349  1
  Al0+  Al84  1  0.42617226  0.32315830  0.31588802  1
  Al0+  Al85  1  0.42858797  0.82032969  0.98355008  1
  Al0+  Al86  1  0.68018839  0.93088102  0.68326219  1
  Al0+  Al87  1  0.06864632  0.17602531  0.31965581  1
  Al0+  Al88  1  0.57078457  0.17954336  0.32034773  1
  Al0+  Al89  1  0.82272433  0.07072598  0.01348558  1
  Al0+  Al90  1  0.07121098  0.17945734  0.98410126  1
  Al0+  Al91  1  0.92821525  0.81939828  0.98659439  1
  Al0+  Al92  1  0.07093833  0.67735123  0.31828928  1
  Al0+  Al93  1  0.57557741  0.68074792  0.31769293  1
  Al0+  Al94  1  0.67688278  0.93083789  0.34954013  1
  Al0+  Al95  1  0.57271004  0.17909592  0.98458582  1
  Si0+  Si96  1  0.17844199  0.92549873  0.34815271  1
  Si0+  Si97  1  0.82077210  0.57103468  0.01422886  1
  Si0+  Si98  1  0.07121641  0.67669056  0.98412751  1
  Si0+  Si99  1  0.17984549  0.42976951  0.68096066  1
  Si0+  Si100  1  0.92890694  0.82138346  0.31859863  1
  Si0+  Si101  1  0.42712149  0.82389803  0.65088603  1
  Si0+  Si102  1  0.17939230  0.92943624  0.01342924  1
  Si0+  Si103  1  0.67406335  0.42881335  0.34998528  1
  Si0+  Si104  1  0.18177646  0.42945341  0.35035731  1
  Si0+  Si105  1  0.92860679  0.32127093  0.65256729  1
  Si0+  Si106  1  0.92834534  0.32462203  0.97986951  1
  Si0+  Si107  1  0.17624007  0.92580869  0.68413493  1
  Si0+  Si108  1  0.31788493  0.07164620  0.34658014  1
  Si0+  Si109  1  0.57247172  0.67607096  0.98276244  1
  Si0+  Si110  1  0.67601431  0.42670381  0.68227754  1
  Si0+  Si111  1  0.42967510  0.32196452  0.98420905  1
  Si0+  Si112  1  0.67975237  0.42821353  0.01349010  1
  Si0+  Si113  1  0.32056179  0.07104749  0.01608670  1
  Si0+  Si114  1  0.92723032  0.82196357  0.64821791  1
  Si0+  Si115  1  0.57198047  0.17677153  0.65140227  1
  Si0+  Si116  1  0.32264531  0.57165031  0.67838614  1
  Si0+  Si117  1  0.32082499  0.57281512  0.35080010  1
  Si0+  Si118  1  0.07089353  0.17939256  0.65265299  1
  Si0+  Si119  1  0.82465147  0.07482925  0.68387350  1
  O2-  O120  1  0.25000373  -0.00052045  0.05813408  1
  O2-  O121  1  0.24779794  -0.00085508  0.38899632  1
  O2-  O122  1  0.24375840  -0.00455073  0.72858477  1
  O2-  O123  1  0.25001373  0.50163574  0.06713469  1
  O2-  O124  1  0.25367747  0.49848760  0.39496856  1
  O2-  O125  1  0.25088155  0.50158240  0.72178929  1
  O2-  O126  1  0.74781847  0.00340155  0.06493538  1
  O2-  O127  1  0.74740953  0.00521225  0.39968230  1
  O2-  O128  1  0.75475295  0.00744387  0.72719564  1
  O2-  O129  1  0.75018462  0.49979436  0.05560718  1
  O2-  O130  1  0.74302638  0.49806276  0.39389529  1
  O2-  O131  1  0.74472361  0.49534182  0.72776368  1
  O2-  O132  1  -0.00988748  0.24016894  0.26943506  1
  O2-  O133  1  -0.00529281  0.24487353  0.61163121  1
  O2-  O134  1  -0.00329117  0.25452016  0.93674063  1
  O2-  O135  1  -0.00389612  0.75166294  0.27317699  1
  O2-  O136  1  -0.00353336  0.75299819  0.60504424  1
  O2-  O137  1  0.00034254  0.74187597  0.93881105  1
  O2-  O138  1  0.50305856  0.25525326  0.26872384  1
  O2-  O139  1  0.50493646  0.24731829  0.60798541  1
  O2-  O140  1  0.49756634  0.25410752  0.93789899  1
  O2-  O141  1  0.50472918  0.75360076  0.26810078  1
  O2-  O142  1  0.49587900  0.75555024  0.60743698  1
  O2-  O143  1  0.50310948  0.74441862  0.93890859  1
  O2-  O144  1  0.07054965  0.17810747  0.09643738  1
  O2-  O145  1  0.07322084  0.18056653  0.43406523  1
  O2-  O146  1  0.07313610  0.18191431  0.75759678  1
  O2-  O147  1  0.06993652  0.67854030  0.08962364  1
  O2-  O148  1  0.07142227  0.67784509  0.43190907  1
  O2-  O149  1  0.06923068  0.67873363  0.76747711  1
  O2-  O150  1  0.57191817  0.18026496  0.09725662  1
  O2-  O151  1  0.56472454  0.17833710  0.43436938  1
  O2-  O152  1  0.57081193  0.17898715  0.75713269  1
  O2-  O153  1  0.57411288  0.67478992  0.08777966  1
  O2-  O154  1  0.57412402  0.68191779  0.43175306  1
  O2-  O155  1  0.56775100  0.67906957  0.76676753  1
  O2-  O156  1  0.18230541  0.43039765  0.24592494  1
  O2-  O157  1  0.17926388  0.42856153  0.57590060  1
  O2-  O158  1  0.18097605  0.42945564  0.90382497  1
  O2-  O159  1  0.17780858  0.92440063  0.24304676  1
  O2-  O160  1  0.17626231  0.92558590  0.57842614  1
  O2-  O161  1  0.18133595  0.93035550  0.90813499  1
  O2-  O162  1  0.67557021  0.42980866  0.24399269  1
  O2-  O163  1  0.67690953  0.42437110  0.57741111  1
  O2-  O164  1  0.67911506  0.42989754  0.90800422  1
  O2-  O165  1  0.67678206  0.93107143  0.23657908  1
  O2-  O166  1  0.67924612  0.93146259  0.57040030  1
  O2-  O167  1  0.67908975  0.92841851  0.90354376  1
  O2-  O168  1  0.43141041  0.32021918  0.08924650  1
  O2-  O169  1  0.42410210  0.31869707  0.43019706  1
  O2-  O170  1  0.42897987  0.31996295  0.76830878  1
  O2-  O171  1  0.42725178  0.82033906  0.09607139  1
  O2-  O172  1  0.42746460  0.81961877  0.43405305  1
  O2-  O173  1  0.42544819  0.82122222  0.75644763  1
  O2-  O174  1  0.92788767  0.32879910  0.08454379  1
  O2-  O175  1  0.93477208  0.32370651  0.43366204  1
  O2-  O176  1  0.93043581  0.32395275  0.75751814  1
  O2-  O177  1  0.93108862  0.81745339  0.09958622  1
  O2-  O178  1  0.93244514  0.82098953  0.42440394  1
  O2-  O179  1  0.92940707  0.82094986  0.75409279  1
  O2-  O180  1  0.31678746  0.07111987  0.24151321  1
  O2-  O181  1  0.31526251  0.07209442  0.56744463  1
  O2-  O182  1  0.31805868  0.07160724  0.91059975  1
  O2-  O183  1  0.31695157  0.57469630  0.24623016  1
  O2-  O184  1  0.32097867  0.57056952  0.57353059  1
  O2-  O185  1  0.32161971  0.57113857  0.90171724  1
  O2-  O186  1  0.82565191  0.06726863  0.23569929  1
  O2-  O187  1  0.82695478  0.07561393  0.57868795  1
  O2-  O188  1  0.82133045  0.06763575  0.89926236  1
  O2-  O189  1  0.82208692  0.56764950  0.23279431  1
  O2-  O190  1  0.82404409  0.56555501  0.56849150  1
  O2-  O191  1  0.82107393  0.56979583  0.90879795  1
  O2-  O192  1  0.04984747  0.07423649  0.27000263  1
  O2-  O193  1  0.05069386  0.08461405  0.60743279  1
  O2-  O194  1  0.04283579  0.08399079  0.92606271  1
  O2-  O195  1  0.04157331  0.58184311  0.26372255  1
  O2-  O196  1  0.03944903  0.58096742  0.60104843  1
  O2-  O197  1  0.04861478  0.58118485  0.94056193  1
  O2-  O198  1  0.53614318  0.08432684  0.26589642  1
  O2-  O199  1  0.54154350  0.08369918  0.60797239  1
  O2-  O200  1  0.53861145  0.08446769  0.92954071  1
  O2-  O201  1  0.54627521  0.58321511  0.26475456  1
  O2-  O202  1  0.54298071  0.58486876  0.59756769  1
  O2-  O203  1  0.54722734  0.58174695  0.93661985  1
  O2-  O204  1  0.16350915  0.21055307  0.26463925  1
  O2-  O205  1  0.16032920  0.21243306  0.60415212  1
  O2-  O206  1  0.16804671  0.21328914  0.93016989  1
  O2-  O207  1  0.16576894  0.70980811  0.26356881  1
  O2-  O208  1  0.16661397  0.70797634  0.59874739  1
  O2-  O209  1  0.16407782  0.70499659  0.93850012  1
  O2-  O210  1  0.66959490  0.20482194  0.26765261  1
  O2-  O211  1  0.66710045  0.19872640  0.60708506  1
  O2-  O212  1  0.66856636  0.21092153  0.92905720  1
  O2-  O213  1  0.67598548  0.70441825  0.26780371  1
  O2-  O214  1  0.66891605  0.71245683  0.60302340  1
  O2-  O215  1  0.66573755  0.70225265  0.93604972  1
  O2-  O216  1  0.07975236  0.45365618  0.07112415  1
  O2-  O217  1  0.09042750  0.45906736  0.39788676  1
  O2-  O218  1  0.08892484  0.45691865  0.73026985  1
  O2-  O219  1  0.08752013  0.95776744  0.05928137  1
  O2-  O220  1  0.08787285  0.95037784  0.39942675  1
  O2-  O221  1  0.08169050  0.95048658  0.72921125  1
  O2-  O222  1  0.58854182  0.45315929  0.06268619  1
  O2-  O223  1  0.57893473  0.45364912  0.39395952  1
  O2-  O224  1  0.58260319  0.45454444  0.72847495  1
  O2-  O225  1  0.57679776  0.95714253  0.06563314  1
  O2-  O226  1  0.57738026  0.95939043  0.40270608  1
  O2-  O227  1  0.58344494  0.95915868  0.73845340  1
  O2-  O228  1  0.20849428  0.32996544  0.07155007  1
  O2-  O229  1  0.20854712  0.33641372  0.39735933  1
  O2-  O230  1  0.20853573  0.33878873  0.72960703  1
  O2-  O231  1  0.20557254  0.83729018  0.06073361  1
  O2-  O232  1  0.20968241  0.83476662  0.39669025  1
  O2-  O233  1  0.20234973  0.83245459  0.73118047  1
  O2-  O234  1  0.70972701  0.33703748  0.06008424  1
  O2-  O235  1  0.69737759  0.33534173  0.39733261  1
  O2-  O236  1  0.70193392  0.33310091  0.72984897  1
  O2-  O237  1  0.70645320  0.82973126  0.06792683  1
  O2-  O238  1  0.70937590  0.83364871  0.40346320  1
  O2-  O239  1  0.71233848  0.83555933  0.73906375  1
  O2-  O240  1  0.44664868  0.42345115  0.26538740  1
  O2-  O241  1  0.45667921  0.41577827  0.59804077  1
  O2-  O242  1  0.45570442  0.41666530  0.93971439  1
  O2-  O243  1  0.45088039  0.92115789  0.26786010  1
  O2-  O244  1  0.45254722  0.91912570  0.60862317  1
  O2-  O245  1  0.45734299  0.91653435  0.92783440  1
  O2-  O246  1  0.96683603  0.41331256  0.26263331  1
  O2-  O247  1  0.96245554  0.41053428  0.60434063  1
  O2-  O248  1  0.95784405  0.41757782  0.93239979  1
  O2-  O249  1  0.95787749  0.91333201  0.27217039  1
  O2-  O250  1  0.95262317  0.91597362  0.60243258  1
  O2-  O251  1  0.96317116  0.91201100  0.92756743  1
  O2-  O252  1  0.33047529  0.29012135  0.26199436  1
  O2-  O253  1  0.33246152  0.28767338  0.60080136  1
  O2-  O254  1  0.33539470  0.29648508  0.93961550  1
  O2-  O255  1  0.33321329  0.78965652  0.26575801  1
  O2-  O256  1  0.33273280  0.80082145  0.60525604  1
  O2-  O257  1  0.33151213  0.79059242  0.92803893  1
  O2-  O258  1  0.82561628  0.30854518  0.27001282  1
  O2-  O259  1  0.83471869  0.29997251  0.60610691  1
  O2-  O260  1  0.83559070  0.30126283  0.93077580  1
  O2-  O261  1  0.83556792  0.79635352  0.27382883  1
  O2-  O262  1  0.83374939  0.79577645  0.60448424  1
  O2-  O263  1  0.83204997  0.78811203  0.93147902  1
  O2-  O264  1  0.41248885  0.04227111  0.06101009  1
  O2-  O265  1  0.40843505  0.04470283  0.39641846  1
  O2-  O266  1  0.41318624  0.04287243  0.73804833  1
  O2-  O267  1  0.42108355  0.54577771  0.06985186  1
  O2-  O268  1  0.41502483  0.54876814  0.39549887  1
  O2-  O269  1  0.41420754  0.54288353  0.72572400  1
  O2-  O270  1  0.92190427  0.03845310  0.06210721  1
  O2-  O271  1  0.92066035  0.04222587  0.40380996  1
  O2-  O272  1  0.91918403  0.04839207  0.72892163  1
  O2-  O273  1  0.91294338  0.54399299  0.06078237  1
  O2-  O274  1  0.91831913  0.53334562  0.39904515  1
  O2-  O275  1  0.91608071  0.53504845  0.73755912  1
  O2-  O276  1  0.29237762  0.16241892  0.06279374  1
  O2-  O277  1  0.28681715  0.16291039  0.39414567  1
  O2-  O278  1  0.28414112  0.16620442  0.73706330  1
  O2-  O279  1  0.29281550  0.67160528  0.06857725  1
  O2-  O280  1  0.28843779  0.66304605  0.39912012  1
  O2-  O281  1  0.29535676  0.66419666  0.72525882  1
  O2-  O282  1  0.80306428  0.17364943  0.06004405  1
  O2-  O283  1  0.80010524  0.17529386  0.39810273  1
  O2-  O284  1  0.80247029  0.16988481  0.72952744  1
  O2-  O285  1  0.79317028  0.66222299  0.06165513  1
  O2-  O286  1  0.79698342  0.66620832  0.40295046  1
  O2-  O287  1  0.79184848  0.66553043  0.73543024  1
