# generated using pymatgen
data_Ca2Al2SiO7
_symmetry_space_group_name_H-M   'P 1'
_cell_length_a   15.46727211
_cell_length_b   15.46456501
_cell_length_c   15.28909810
_cell_angle_alpha   90.00596204
_cell_angle_beta   90.00181141
_cell_angle_gamma   89.99579388
_symmetry_Int_Tables_number   1
_chemical_formula_structural   Ca2Al2SiO7
_chemical_formula_sum   'Ca48 Al48 Si24 O168'
_cell_volume   3657.07021127
_cell_formula_units_Z   24
loop_
 _symmetry_equiv_pos_site_id
 _symmetry_equiv_pos_as_xyz
  1  'x, y, z'
loop_
 _atom_type_symbol
 _atom_type_oxidation_number
  Ca2+  2.0
  Al0+  0.0
  Si0+  0.0
  O2-  -2.0
loop_
 _atom_site_type_symbol
 _atom_site_label
 _atom_site_symmetry_multiplicity
 _atom_site_fract_x
 _atom_site_fract_y
 _atom_site_fract_z
 _atom_site_occupancy
  Ca2+  Ca0  1  0.17370955  0.08163599  0.17579454  1
  Ca2+  Ca1  1  0.15920277  0.07335245  0.50322099  1
  Ca2+  Ca2  1  0.17403476  0.07957149  0.83767464  1
  Ca2+  Ca3  1  0.17564495  0.58266696  0.17473518  1
  Ca2+  Ca4  1  0.17483303  0.58837917  0.50433356  1
  Ca2+  Ca5  1  0.16582330  0.58413822  0.83340112  1
  Ca2+  Ca6  1  0.66679281  0.07381358  0.17682245  1
  Ca2+  Ca7  1  0.65849698  0.07718472  0.50059806  1
  Ca2+  Ca8  1  0.65613692  0.07248991  0.83350007  1
  Ca2+  Ca9  1  0.66817201  0.57899497  0.16956803  1
  Ca2+  Ca10  1  0.66931841  0.57064501  0.51077082  1
  Ca2+  Ca11  1  0.67242705  0.58383551  0.83559583  1
  Ca2+  Ca12  1  0.07184535  0.32837222  0.16385097  1
  Ca2+  Ca13  1  0.06848523  0.32644718  0.49213155  1
  Ca2+  Ca14  1  0.07109520  0.33445102  0.82650801  1
  Ca2+  Ca15  1  0.08301545  0.83680993  0.16813947  1
  Ca2+  Ca16  1  0.09043666  0.83157025  0.49609289  1
  Ca2+  Ca17  1  0.08176605  0.82742599  0.82346413  1
  Ca2+  Ca18  1  0.59123432  0.32761330  0.17011078  1
  Ca2+  Ca19  1  0.59178365  0.32600890  0.49585213  1
  Ca2+  Ca20  1  0.57933855  0.32587570  0.81877609  1
  Ca2+  Ca21  1  0.57614787  0.83622897  0.15847401  1
  Ca2+  Ca22  1  0.58568880  0.83004837  0.49461101  1
  Ca2+  Ca23  1  0.58816664  0.82684154  0.82930290  1
  Ca2+  Ca24  1  0.33477752  0.42741427  0.17568979  1
  Ca2+  Ca25  1  0.33689697  0.42072039  0.50450932  1
  Ca2+  Ca26  1  0.33426516  0.41425693  0.83587402  1
  Ca2+  Ca27  1  0.33426503  0.91599615  0.17228474  1
  Ca2+  Ca28  1  0.32603708  0.91315295  0.50122213  1
  Ca2+  Ca29  1  0.33187783  0.91872921  0.83822469  1
  Ca2+  Ca30  1  0.83363295  0.41784433  0.16999072  1
  Ca2+  Ca31  1  0.82638626  0.41323561  0.50558974  1
  Ca2+  Ca32  1  0.83478192  0.42335119  0.83329591  1
  Ca2+  Ca33  1  0.81846070  0.92035874  0.17522606  1
  Ca2+  Ca34  1  0.82407337  0.92621505  0.50338241  1
  Ca2+  Ca35  1  0.81876749  0.91404239  0.83582870  1
  Ca2+  Ca36  1  0.42292230  0.15960716  0.16472301  1
  Ca2+  Ca37  1  0.42797068  0.17136362  0.50011248  1
  Ca2+  Ca38  1  0.41897950  0.16976808  0.82631542  1
  Ca2+  Ca39  1  0.42208799  0.67746374  0.16322749  1
  Ca2+  Ca40  1  0.42319332  0.67046294  0.49423571  1
  Ca2+  Ca41  1  0.43263619  0.67157659  0.83055259  1
  Ca2+  Ca42  1  0.90986507  0.17441212  0.16909828  1
  Ca2+  Ca43  1  0.91299971  0.17405107  0.48884004  1
  Ca2+  Ca44  1  0.91107846  0.18017878  0.82819924  1
  Ca2+  Ca45  1  0.91608926  0.66554658  0.16010773  1
  Ca2+  Ca46  1  0.91981532  0.66317753  0.50285724  1
  Ca2+  Ca47  1  0.91740768  0.66162526  0.82482696  1
  Al0+  Al48  1  0.00029061  -0.00003088  -0.00168199  1
  Al0+  Al49  1  0.00046089  -0.00110943  0.33567504  1
  Al0+  Al50  1  -0.00097125  -0.00086331  0.67537771  1
  Al0+  Al51  1  -0.00089734  0.49863528  0.00052754  1
  Al0+  Al52  1  0.00212878  0.49997885  0.32871386  1
  Al0+  Al53  1  0.00258159  0.50039350  0.65941274  1
  Al0+  Al54  1  0.49654765  0.00022155  0.00330975  1
  Al0+  Al55  1  0.49721859  -0.00006799  0.33076026  1
  Al0+  Al56  1  0.49739544  0.00120386  0.66717641  1
  Al0+  Al57  1  0.49986152  0.50000004  -0.00151952  1
  Al0+  Al58  1  0.50149140  0.50138775  0.34089881  1
  Al0+  Al59  1  0.49930845  0.50244253  0.66559786  1
  Al0+  Al60  1  0.24900366  0.24789990  0.00546511  1
  Al0+  Al61  1  0.24989743  0.25133198  0.33123864  1
  Al0+  Al62  1  0.24953384  0.25049241  0.66244067  1
  Al0+  Al63  1  0.25032711  0.74941307  -0.00355225  1
  Al0+  Al64  1  0.25272785  0.74994860  0.33574507  1
  Al0+  Al65  1  0.24912574  0.74985493  0.66961462  1
  Al0+  Al66  1  0.74968678  0.25034875  -0.00690246  1
  Al0+  Al67  1  0.74964104  0.25101403  0.32902306  1
  Al0+  Al68  1  0.74888126  0.24969133  0.66314663  1
  Al0+  Al69  1  0.75130371  0.74841744  0.00596003  1
  Al0+  Al70  1  0.75196502  0.74825677  0.33613343  1
  Al0+  Al71  1  0.75159487  0.75075667  0.66753661  1
  Al0+  Al72  1  0.07137144  0.68091466  0.65208952  1
  Al0+  Al73  1  0.32016657  0.57050399  0.34777837  1
  Al0+  Al74  1  0.57391922  0.68104991  0.65184954  1
  Al0+  Al75  1  0.92980264  0.32036086  0.65181628  1
  Al0+  Al76  1  0.67970134  0.92982937  0.01361532  1
  Al0+  Al77  1  0.17815933  0.92802983  0.68248379  1
  Al0+  Al78  1  0.81961347  0.07041113  0.34622443  1
  Al0+  Al79  1  0.57333663  0.67848704  0.98577407  1
  Al0+  Al80  1  0.92981586  0.32032280  0.98292403  1
  Al0+  Al81  1  0.82252356  0.56866213  0.68010306  1
  Al0+  Al82  1  0.82117069  0.56889434  0.01403897  1
  Al0+  Al83  1  0.07182698  0.17551183  0.31792882  1
  Al0+  Al84  1  0.42658931  0.32318996  0.65207641  1
  Al0+  Al85  1  0.67785288  0.93016178  0.67999577  1
  Al0+  Al86  1  0.43018713  0.81909326  0.32084775  1
  Al0+  Al87  1  0.42845861  0.82254579  0.98326235  1
  Al0+  Al88  1  0.92819777  0.32142637  0.31574158  1
  Al0+  Al89  1  0.57033381  0.17812052  0.65123380  1
  Al0+  Al90  1  0.67725264  0.42739906  0.68289791  1
  Al0+  Al91  1  0.68169240  0.43089135  0.34574385  1
  Al0+  Al92  1  0.31879420  0.07041408  0.01492586  1
  Al0+  Al93  1  0.18065193  0.93095071  0.34597186  1
  Al0+  Al94  1  0.67522809  0.92766013  0.34852410  1
  Al0+  Al95  1  0.56867682  0.18019571  0.31794041  1
  Si0+  Si96  1  0.17699151  0.92556890  0.01697872  1
  Si0+  Si97  1  0.07420880  0.17762943  0.98197123  1
  Si0+  Si98  1  0.92891748  0.82157294  0.98628327  1
  Si0+  Si99  1  0.56919796  0.17956039  0.98570993  1
  Si0+  Si100  1  0.57436800  0.67700476  0.31783513  1
  Si0+  Si101  1  0.07140825  0.17626898  0.65213962  1
  Si0+  Si102  1  0.82683020  0.57282341  0.35051170  1
  Si0+  Si103  1  0.32152083  0.57264398  0.68473860  1
  Si0+  Si104  1  0.07238639  0.68073697  0.31770034  1
  Si0+  Si105  1  0.67612417  0.42616754  0.01553891  1
  Si0+  Si106  1  0.18104131  0.42939540  0.68028202  1
  Si0+  Si107  1  0.42863293  0.32541350  0.31636708  1
  Si0+  Si108  1  0.82255590  0.07313237  0.68468515  1
  Si0+  Si109  1  0.32141894  0.57077642  0.01437698  1
  Si0+  Si110  1  0.17871937  0.42938253  0.01469426  1
  Si0+  Si111  1  0.92804316  0.82405943  0.64973641  1
  Si0+  Si112  1  0.42668757  0.32144305  0.98836434  1
  Si0+  Si113  1  0.17746626  0.42779370  0.35065510  1
  Si0+  Si114  1  0.82248532  0.07401486  0.01495821  1
  Si0+  Si115  1  0.42792396  0.82139059  0.65071900  1
  Si0+  Si116  1  0.32262303  0.07547747  0.35253605  1
  Si0+  Si117  1  0.07040730  0.67877332  0.98632710  1
  Si0+  Si118  1  0.92834891  0.82036303  0.31861147  1
  Si0+  Si119  1  0.31920612  0.07274950  0.68259998  1
  O2-  O120  1  0.24466678  -0.00541224  0.06075457  1
  O2-  O121  1  0.25000609  0.00974086  0.39463247  1
  O2-  O122  1  0.25153212  0.00366119  0.72827905  1
  O2-  O123  1  0.25110756  0.49906619  0.05710495  1
  O2-  O124  1  0.24797518  0.49380043  0.39556603  1
  O2-  O125  1  0.25418501  0.49685041  0.72591553  1
  O2-  O126  1  0.75497466  0.00459258  0.05898984  1
  O2-  O127  1  0.74604868  0.00111001  0.39771924  1
  O2-  O128  1  0.75159313  0.00586342  0.72779285  1
  O2-  O129  1  0.74457594  0.49558047  0.05904417  1
  O2-  O130  1  0.75742868  0.50462923  0.39202862  1
  O2-  O131  1  0.74927861  0.49957166  0.73288855  1
  O2-  O132  1  0.00037939  0.24789017  0.26719189  1
  O2-  O133  1  -0.00065266  0.23995058  0.60731085  1
  O2-  O134  1  0.00285336  0.24291868  0.93716885  1
  O2-  O135  1  -0.00204746  0.74748641  0.27501345  1
  O2-  O136  1  -0.00122226  0.75724521  0.60522185  1
  O2-  O137  1  0.00137774  0.75148308  0.94446782  1
  O2-  O138  1  0.49314085  0.25440680  0.26976613  1
  O2-  O139  1  0.50370154  0.25661211  0.60308027  1
  O2-  O140  1  0.49959926  0.25322050  0.94569321  1
  O2-  O141  1  0.51092211  0.75060947  0.27394787  1
  O2-  O142  1  0.50011858  0.75721489  0.60600356  1
  O2-  O143  1  0.50435251  0.75372011  0.93522850  1
  O2-  O144  1  0.07696673  0.17946224  0.08694749  1
  O2-  O145  1  0.06992052  0.17692748  0.43180682  1
  O2-  O146  1  0.07365095  0.18027227  0.75805522  1
  O2-  O147  1  0.07164330  0.67859259  0.09164453  1
  O2-  O148  1  0.07365154  0.68141078  0.42241691  1
  O2-  O149  1  0.07133157  0.68052332  0.76584729  1
  O2-  O150  1  0.56978098  0.18040982  0.09075250  1
  O2-  O151  1  0.56702753  0.18053434  0.43030441  1
  O2-  O152  1  0.56484904  0.17564832  0.76567895  1
  O2-  O153  1  0.56909899  0.67545236  0.09939794  1
  O2-  O154  1  0.57185981  0.67657530  0.42331056  1
  O2-  O155  1  0.57267586  0.68164364  0.76511169  1
  O2-  O156  1  0.17784557  0.43175983  0.24442456  1
  O2-  O157  1  0.18261958  0.43157261  0.57564166  1
  O2-  O158  1  0.17953107  0.43060911  0.90928104  1
  O2-  O159  1  0.18320310  0.92832194  0.23272824  1
  O2-  O160  1  0.18028700  0.92762060  0.56957357  1
  O2-  O161  1  0.17663801  0.92539024  0.91148730  1
  O2-  O162  1  0.68063203  0.43329808  0.23191301  1
  O2-  O163  1  0.67981714  0.42811247  0.56938958  1
  O2-  O164  1  0.67474752  0.42480457  0.91057217  1
  O2-  O165  1  0.67724436  0.92794230  0.23457260  1
  O2-  O166  1  0.67898232  0.93054325  0.56744210  1
  O2-  O167  1  0.68107810  0.93067999  0.90026815  1
  O2-  O168  1  0.42566646  0.32326038  0.09318281  1
  O2-  O169  1  0.42972577  0.32592878  0.42141746  1
  O2-  O170  1  0.42264692  0.31786774  0.76660030  1
  O2-  O171  1  0.42600820  0.81876155  0.09686881  1
  O2-  O172  1  0.42643554  0.81514172  0.43376036  1
  O2-  O173  1  0.42711255  0.81911249  0.75639613  1
  O2-  O174  1  0.93158691  0.32111574  0.09542717  1
  O2-  O175  1  0.93039646  0.32256971  0.42908225  1
  O2-  O176  1  0.93405327  0.32143115  0.76542650  1
  O2-  O177  1  0.93093206  0.82136279  0.09154983  1
  O2-  O178  1  0.92880911  0.81955259  0.42333183  1
  O2-  O179  1  0.92933911  0.82269351  0.75591865  1
  O2-  O180  1  0.32254198  0.07364025  0.24661776  1
  O2-  O181  1  0.31802480  0.07298691  0.57744489  1
  O2-  O182  1  0.31584677  0.07388276  0.90182488  1
  O2-  O183  1  0.31725444  0.56992232  0.23381027  1
  O2-  O184  1  0.31829066  0.57563010  0.57983010  1
  O2-  O185  1  0.32025784  0.56926669  0.90937074  1
  O2-  O186  1  0.81788239  0.06676662  0.23199171  1
  O2-  O187  1  0.82789254  0.07031978  0.57969626  1
  O2-  O188  1  0.82187714  0.07376649  0.90936584  1
  O2-  O189  1  0.82754039  0.57373778  0.24460043  1
  O2-  O190  1  0.82337801  0.56669193  0.56668216  1
  O2-  O191  1  0.82625951  0.56762185  0.90169289  1
  O2-  O192  1  0.04600765  0.07619775  0.26524622  1
  O2-  O193  1  0.04949689  0.07968003  0.61147008  1
  O2-  O194  1  0.05283904  0.08189139  0.93755385  1
  O2-  O195  1  0.04938178  0.58802328  0.26908705  1
  O2-  O196  1  0.04296392  0.58580219  0.59485217  1
  O2-  O197  1  0.04207512  0.58732141  0.93894375  1
  O2-  O198  1  0.53666666  0.08403901  0.26325022  1
  O2-  O199  1  0.53465303  0.08206999  0.59736242  1
  O2-  O200  1  0.53707490  0.08906452  0.93924965  1
  O2-  O201  1  0.54205596  0.58525798  0.27189814  1
  O2-  O202  1  0.54018076  0.58530699  0.59901453  1
  O2-  O203  1  0.54051092  0.58091173  0.93203369  1
  O2-  O204  1  0.17118250  0.20490715  0.26533026  1
  O2-  O205  1  0.16294619  0.20403917  0.60407665  1
  O2-  O206  1  0.16668499  0.20759692  0.93519965  1
  O2-  O207  1  0.16244936  0.71256831  0.26920542  1
  O2-  O208  1  0.16828225  0.71224295  0.59880105  1
  O2-  O209  1  0.16227949  0.70365923  0.93734967  1
  O2-  O210  1  0.66393595  0.21185491  0.26200992  1
  O2-  O211  1  0.67005896  0.19936929  0.59926940  1
  O2-  O212  1  0.66072516  0.20372799  0.93635064  1
  O2-  O213  1  0.67087742  0.69518737  0.27436558  1
  O2-  O214  1  0.67072855  0.70991305  0.59816911  1
  O2-  O215  1  0.67369247  0.70445916  0.93591892  1
  O2-  O216  1  0.08903865  0.46049181  0.06340799  1
  O2-  O217  1  0.08484224  0.45714562  0.39583685  1
  O2-  O218  1  0.09108242  0.46218850  0.72817051  1
  O2-  O219  1  0.08192905  0.94965818  0.06146372  1
  O2-  O220  1  0.08311848  0.95464000  0.40117406  1
  O2-  O221  1  0.08167185  0.95513525  0.73945557  1
  O2-  O222  1  0.58213308  0.45081557  0.06230843  1
  O2-  O223  1  0.58631031  0.46003305  0.40219561  1
  O2-  O224  1  0.57708759  0.45492131  0.73355312  1
  O2-  O225  1  0.58280309  0.96078532  0.06568361  1
  O2-  O226  1  0.57614777  0.95552268  0.39931802  1
  O2-  O227  1  0.58033687  0.96016071  0.73382821  1
  O2-  O228  1  0.20434471  0.33769583  0.06258069  1
  O2-  O229  1  0.19921559  0.33294462  0.39499611  1
  O2-  O230  1  0.20530080  0.33644093  0.72823939  1
  O2-  O231  1  0.20200855  0.83092208  0.06179250  1
  O2-  O232  1  0.21548180  0.83579940  0.40034794  1
  O2-  O233  1  0.20980501  0.83197733  0.73758582  1
  O2-  O234  1  0.70439691  0.33231014  0.06033485  1
  O2-  O235  1  0.71135488  0.33384430  0.39759713  1
  O2-  O236  1  0.70395903  0.32733816  0.73360550  1
  O2-  O237  1  0.71079325  0.83417817  0.06875272  1
  O2-  O238  1  0.70585326  0.82875083  0.39902226  1
  O2-  O239  1  0.71277650  0.83517580  0.73494293  1
  O2-  O240  1  0.45802031  0.41874248  0.27067125  1
  O2-  O241  1  0.44540345  0.42482118  0.60374730  1
  O2-  O242  1  0.45011661  0.41380307  0.93986710  1
  O2-  O243  1  0.45289383  0.91713827  0.26643879  1
  O2-  O244  1  0.44637832  0.91707591  0.60735877  1
  O2-  O245  1  0.45169002  0.92317181  0.93300040  1
  O2-  O246  1  0.96009539  0.41972403  0.26209817  1
  O2-  O247  1  0.96760622  0.41299317  0.59627996  1
  O2-  O248  1  0.96652377  0.41581409  0.93009326  1
  O2-  O249  1  0.95894569  0.91020749  0.26972095  1
  O2-  O250  1  0.95295769  0.91907392  0.60700705  1
  O2-  O251  1  0.95392940  0.91366946  0.93726532  1
  O2-  O252  1  0.33264570  0.30599784  0.27203861  1
  O2-  O253  1  0.33006707  0.29182603  0.59583525  1
  O2-  O254  1  0.33484050  0.29186318  0.94142939  1
  O2-  O255  1  0.33602570  0.78151555  0.26491773  1
  O2-  O256  1  0.33557461  0.79006656  0.60585885  1
  O2-  O257  1  0.33053857  0.79094768  0.92998824  1
  O2-  O258  1  0.83127812  0.29311900  0.26016525  1
  O2-  O259  1  0.83228878  0.29358609  0.59968476  1
  O2-  O260  1  0.83285953  0.29163771  0.92809286  1
  O2-  O261  1  0.83669958  0.79274363  0.26957533  1
  O2-  O262  1  0.83628291  0.79704432  0.60227003  1
  O2-  O263  1  0.83805337  0.79158672  0.93958248  1
  O2-  O264  1  0.41437496  0.04103483  0.07095458  1
  O2-  O265  1  0.41378054  0.04452592  0.39875657  1
  O2-  O266  1  0.41185702  0.04714001  0.73039342  1
  O2-  O267  1  0.41246038  0.54250666  0.06283199  1
  O2-  O268  1  0.41599417  0.54260915  0.40335703  1
  O2-  O269  1  0.41366649  0.54870038  0.73246879  1
  O2-  O270  1  0.91781511  0.05058041  0.05873633  1
  O2-  O271  1  0.91694556  0.04048998  0.39982004  1
  O2-  O272  1  0.91440042  0.04754147  0.73567754  1
  O2-  O273  1  0.91770322  0.53718334  0.06947639  1
  O2-  O274  1  0.92185663  0.54833792  0.39401385  1
  O2-  O275  1  0.92263494  0.53884482  0.73076648  1
  O2-  O276  1  0.28889247  0.16626342  0.07231228  1
  O2-  O277  1  0.30224431  0.17155953  0.39541956  1
  O2-  O278  1  0.29164984  0.16629560  0.72926414  1
  O2-  O279  1  0.29040814  0.66201320  0.06121059  1
  O2-  O280  1  0.28448407  0.66391063  0.40349782  1
  O2-  O281  1  0.28687011  0.66092885  0.73450975  1
  O2-  O282  1  0.79517362  0.16797954  0.05921061  1
  O2-  O283  1  0.79468041  0.17040659  0.39508137  1
  O2-  O284  1  0.79723036  0.16711331  0.72913022  1
  O2-  O285  1  0.79493397  0.66528999  0.07092448  1
  O2-  O286  1  0.80445227  0.66672749  0.39675703  1
  O2-  O287  1  0.79869176  0.66919021  0.73122207  1
