# generated using pymatgen
data_Ca2Al2SiO7
_symmetry_space_group_name_H-M   'P 1'
_cell_length_a   15.45950872
_cell_length_b   15.46038916
_cell_length_c   15.28440266
_cell_angle_alpha   90.01654613
_cell_angle_beta   90.01469183
_cell_angle_gamma   90.01535741
_symmetry_Int_Tables_number   1
_chemical_formula_structural   Ca2Al2SiO7
_chemical_formula_sum   'Ca48 Al48 Si24 O168'
_cell_volume   3653.12499599
_cell_formula_units_Z   24
loop_
 _symmetry_equiv_pos_site_id
 _symmetry_equiv_pos_as_xyz
  1  'x, y, z'
loop_
 _atom_type_symbol
 _atom_type_oxidation_number
  Ca2+  2.0
  Al0+  0.0
  Si0+  0.0
  O2-  -2.0
loop_
 _atom_site_type_symbol
 _atom_site_label
 _atom_site_symmetry_multiplicity
 _atom_site_fract_x
 _atom_site_fract_y
 _atom_site_fract_z
 _atom_site_occupancy
  Ca2+  Ca0  1  0.17189936  0.07960676  0.17008940  1
  Ca2+  Ca1  1  0.15841842  0.07429214  0.50560778  1
  Ca2+  Ca2  1  0.16246271  0.07667193  0.83950711  1
  Ca2+  Ca3  1  0.17318098  0.57224627  0.16620826  1
  Ca2+  Ca4  1  0.16989784  0.57345996  0.50557163  1
  Ca2+  Ca5  1  0.17616527  0.57307974  0.83712387  1
  Ca2+  Ca6  1  0.66345753  0.08321909  0.17420895  1
  Ca2+  Ca7  1  0.66152592  0.07685922  0.50555851  1
  Ca2+  Ca8  1  0.65824306  0.08328748  0.83350637  1
  Ca2+  Ca9  1  0.67029672  0.57654970  0.17340524  1
  Ca2+  Ca10  1  0.66304577  0.56960674  0.50174951  1
  Ca2+  Ca11  1  0.67440006  0.57258934  0.83630832  1
  Ca2+  Ca12  1  0.07556622  0.34579978  0.16137476  1
  Ca2+  Ca13  1  0.07695295  0.33929828  0.49581399  1
  Ca2+  Ca14  1  0.07739470  0.33886998  0.82528205  1
  Ca2+  Ca15  1  0.08325601  0.83857044  0.16481974  1
  Ca2+  Ca16  1  0.08085857  0.83537950  0.49171088  1
  Ca2+  Ca17  1  0.08897969  0.83450428  0.82712081  1
  Ca2+  Ca18  1  0.58119688  0.32347936  0.15883693  1
  Ca2+  Ca19  1  0.59053722  0.32460981  0.49341344  1
  Ca2+  Ca20  1  0.57896032  0.32444347  0.82736422  1
  Ca2+  Ca21  1  0.58795885  0.82685005  0.16681671  1
  Ca2+  Ca22  1  0.58733868  0.82775134  0.49105649  1
  Ca2+  Ca23  1  0.58035842  0.83121217  0.82658927  1
  Ca2+  Ca24  1  0.32562546  0.40812747  0.16838093  1
  Ca2+  Ca25  1  0.32346241  0.42169874  0.50803295  1
  Ca2+  Ca26  1  0.32583923  0.41830380  0.84242309  1
  Ca2+  Ca27  1  0.32521714  0.92256247  0.16729626  1
  Ca2+  Ca28  1  0.32295826  0.91741977  0.50451644  1
  Ca2+  Ca29  1  0.32253476  0.92593690  0.83994201  1
  Ca2+  Ca30  1  0.83421373  0.41848111  0.17160578  1
  Ca2+  Ca31  1  0.82563139  0.40446576  0.50133694  1
  Ca2+  Ca32  1  0.83220998  0.41040725  0.83671806  1
  Ca2+  Ca33  1  0.82987803  0.92165297  0.17673003  1
  Ca2+  Ca34  1  0.82433656  0.91524684  0.50208609  1
  Ca2+  Ca35  1  0.82576304  0.92075608  0.83507215  1
  Ca2+  Ca36  1  0.42614168  0.16721830  0.15788931  1
  Ca2+  Ca37  1  0.42867557  0.16473729  0.49711046  1
  Ca2+  Ca38  1  0.42022489  0.16656672  0.83414908  1
  Ca2+  Ca39  1  0.42056304  0.66273351  0.16323033  1
  Ca2+  Ca40  1  0.42008826  0.66544652  0.49536145  1
  Ca2+  Ca41  1  0.40615135  0.66564810  0.82965284  1
  Ca2+  Ca42  1  0.91736947  0.18119816  0.16287194  1
  Ca2+  Ca43  1  0.92252460  0.17688219  0.50061839  1
  Ca2+  Ca44  1  0.92481003  0.17871879  0.82629070  1
  Ca2+  Ca45  1  0.91420610  0.67217660  0.16250190  1
  Ca2+  Ca46  1  0.91711571  0.67513602  0.49271365  1
  Ca2+  Ca47  1  0.91670146  0.66543347  0.83265925  1
  Al0+  Al48  1  -0.00583219  0.00013646  0.00322893  1
  Al0+  Al49  1  -0.00017995  0.00183695  0.33270925  1
  Al0+  Al50  1  -0.00356585  0.00135512  0.66744590  1
  Al0+  Al51  1  -0.00112486  0.50482786  0.00195613  1
  Al0+  Al52  1  0.00163952  0.50339948  0.33341113  1
  Al0+  Al53  1  -0.00035669  0.50405616  0.66285029  1
  Al0+  Al54  1  0.49811978  -0.00464284  -0.00030343  1
  Al0+  Al55  1  0.49988522  -0.00136930  0.33283772  1
  Al0+  Al56  1  0.49804619  -0.00256330  0.66581247  1
  Al0+  Al57  1  0.50214656  0.49865222  -0.00213314  1
  Al0+  Al58  1  0.50144847  0.49998292  0.33220193  1
  Al0+  Al59  1  0.50290198  0.50113448  0.67444661  1
  Al0+  Al60  1  0.25004941  0.24704520  0.00519448  1
  Al0+  Al61  1  0.25089567  0.24930439  0.34096238  1
  Al0+  Al62  1  0.25112209  0.24811421  0.66453616  1
  Al0+  Al63  1  0.24926218  0.74778791  0.00747292  1
  Al0+  Al64  1  0.25056660  0.75143350  0.33517131  1
  Al0+  Al65  1  0.24924926  0.75199316  0.67073647  1
  Al0+  Al66  1  0.75142062  0.24713755  -0.00878715  1
  Al0+  Al67  1  0.75289489  0.25003235  0.32803454  1
  Al0+  Al68  1  0.75054666  0.24832318  0.66391679  1
  Al0+  Al69  1  0.75021156  0.74910116  0.00078392  1
  Al0+  Al70  1  0.75077033  0.75125664  0.32790651  1
  Al0+  Al71  1  0.74828261  0.75049900  0.67088036  1
  Al0+  Al72  1  0.32454604  0.56990569  0.01697495  1
  Al0+  Al73  1  0.56847962  0.17882800  0.65126119  1
  Al0+  Al74  1  0.17555161  0.92904262  0.01585833  1
  Al0+  Al75  1  0.57066446  0.17583465  0.98324739  1
  Al0+  Al76  1  0.68166486  0.42590676  0.68072843  1
  Al0+  Al77  1  0.93208321  0.32207747  0.31813802  1
  Al0+  Al78  1  0.07355692  0.17757295  0.65262969  1
  Al0+  Al79  1  0.93102622  0.32420501  0.65014572  1
  Al0+  Al80  1  0.81979655  0.57116953  0.01431742  1
  Al0+  Al81  1  0.17839102  0.42947251  0.34880919  1
  Al0+  Al82  1  0.17895571  0.93102950  0.34822176  1
  Al0+  Al83  1  0.57093925  0.17865814  0.32002640  1
  Al0+  Al84  1  0.93238170  0.32387110  0.98573147  1
  Al0+  Al85  1  0.42685557  0.32123966  0.98517914  1
  Al0+  Al86  1  0.57041866  0.67802555  0.31971279  1
  Al0+  Al87  1  0.32225982  0.07075919  0.01577461  1
  Al0+  Al88  1  0.32159008  0.57078212  0.68042437  1
  Al0+  Al89  1  0.67975714  0.92962572  0.34586551  1
  Al0+  Al90  1  0.17880566  0.42764126  0.01398644  1
  Al0+  Al91  1  0.17672016  0.93228714  0.67958747  1
  Al0+  Al92  1  0.17757724  0.42723114  0.68069947  1
  Al0+  Al93  1  0.68065239  0.42835941  0.34409633  1
  Al0+  Al94  1  0.93008860  0.82215190  0.31942093  1
  Al0+  Al95  1  0.67751675  0.92829811  0.68071878  1
  Si0+  Si96  1  0.32384660  0.07103221  0.68207927  1
  Si0+  Si97  1  0.32342964  0.07168825  0.35283259  1
  Si0+  Si98  1  0.57255238  0.67922311  0.65253330  1
  Si0+  Si99  1  0.67848540  0.92802997  0.01511677  1
  Si0+  Si100  1  0.07388015  0.67998898  0.31485699  1
  Si0+  Si101  1  0.42736095  0.32183877  0.31939575  1
  Si0+  Si102  1  0.92652332  0.82108944  0.65311836  1
  Si0+  Si103  1  0.82217258  0.07357914  0.35092939  1
  Si0+  Si104  1  0.07065712  0.68253192  0.98450182  1
  Si0+  Si105  1  0.32332641  0.57200244  0.34946585  1
  Si0+  Si106  1  0.42665501  0.82139174  0.31529799  1
  Si0+  Si107  1  0.82190452  0.57334333  0.34949997  1
  Si0+  Si108  1  0.57365599  0.67870457  0.98291105  1
  Si0+  Si109  1  0.68078075  0.42495236  0.01542042  1
  Si0+  Si110  1  0.42899876  0.32570766  0.64972652  1
  Si0+  Si111  1  0.07041284  0.17580196  0.98683926  1
  Si0+  Si112  1  0.42811283  0.81665066  0.98464435  1
  Si0+  Si113  1  0.42814003  0.81890756  0.65157249  1
  Si0+  Si114  1  0.92683843  0.82247856  0.98313392  1
  Si0+  Si115  1  0.81980386  0.07099777  0.68465916  1
  Si0+  Si116  1  0.82113663  0.57455529  0.68134657  1
  Si0+  Si117  1  0.07399786  0.17853724  0.31637709  1
  Si0+  Si118  1  0.81843878  0.07120605  0.01548793  1
  Si0+  Si119  1  0.07206450  0.68271315  0.65138283  1
  O2-  O120  1  0.24574621  0.00270420  0.06512661  1
  O2-  O121  1  0.25189330  0.00571770  0.39702144  1
  O2-  O122  1  0.24635693  0.01140600  0.72533424  1
  O2-  O123  1  0.25773875  0.49240099  0.06516673  1
  O2-  O124  1  0.25499539  0.50340596  0.39349976  1
  O2-  O125  1  0.25443594  0.49441401  0.73008192  1
  O2-  O126  1  0.74429433  0.00319668  0.05704986  1
  O2-  O127  1  0.75198422  0.00546951  0.39453437  1
  O2-  O128  1  0.74836068  0.00480325  0.72946028  1
  O2-  O129  1  0.74865613  0.49374881  0.06089566  1
  O2-  O130  1  0.75547951  0.50267729  0.39334292  1
  O2-  O131  1  0.75998607  0.49881037  0.72477973  1
  O2-  O132  1  0.01081303  0.25159405  0.27106113  1
  O2-  O133  1  0.00879939  0.25648793  0.60221083  1
  O2-  O134  1  0.01149550  0.25244084  0.94158444  1
  O2-  O135  1  0.00597747  0.74983618  0.27076785  1
  O2-  O136  1  -0.00028094  0.75315503  0.61003149  1
  O2-  O137  1  0.00236239  0.75670195  0.94082343  1
  O2-  O138  1  0.49649655  0.25373558  0.27485126  1
  O2-  O139  1  0.49694795  0.25647675  0.60405630  1
  O2-  O140  1  0.49899815  0.24903451  0.93477959  1
  O2-  O141  1  0.49541566  0.75215466  0.27174408  1
  O2-  O142  1  0.49839693  0.74683744  0.61010802  1
  O2-  O143  1  0.49701468  0.74385994  0.94064181  1
  O2-  O144  1  0.06335542  0.17113437  0.09214564  1
  O2-  O145  1  0.07034297  0.17630028  0.42178573  1
  O2-  O146  1  0.06758575  0.17233225  0.76611463  1
  O2-  O147  1  0.06838557  0.68328952  0.08945740  1
  O2-  O148  1  0.07273988  0.68120139  0.42093302  1
  O2-  O149  1  0.07192031  0.68372935  0.75664299  1
  O2-  O150  1  0.57197758  0.17631672  0.09706246  1
  O2-  O151  1  0.56989081  0.17756131  0.43328888  1
  O2-  O152  1  0.56480857  0.17717331  0.76389387  1
  O2-  O153  1  0.57670092  0.68310368  0.08794696  1
  O2-  O154  1  0.56891081  0.67867650  0.43329789  1
  O2-  O155  1  0.57563380  0.68289201  0.75762907  1
  O2-  O156  1  0.17836006  0.43106172  0.23602542  1
  O2-  O157  1  0.17760629  0.43327580  0.56688739  1
  O2-  O158  1  0.17605487  0.43208151  0.90068481  1
  O2-  O159  1  0.18010835  0.93262250  0.23557780  1
  O2-  O160  1  0.17874968  0.92882812  0.56657267  1
  O2-  O161  1  0.17661397  0.92960325  0.90190754  1
  O2-  O162  1  0.68159344  0.42952118  0.23112550  1
  O2-  O163  1  0.68047766  0.42778288  0.56732838  1
  O2-  O164  1  0.68307442  0.42706331  0.90960746  1
  O2-  O165  1  0.68196785  0.92996907  0.23239782  1
  O2-  O166  1  0.68053167  0.92533301  0.56789312  1
  O2-  O167  1  0.68071934  0.92563236  0.90980174  1
  O2-  O168  1  0.43134598  0.32071373  0.09922699  1
  O2-  O169  1  0.42858826  0.32153139  0.42510201  1
  O2-  O170  1  0.43068193  0.32508383  0.75506397  1
  O2-  O171  1  0.43105465  0.81756992  0.08962844  1
  O2-  O172  1  0.42535921  0.82014355  0.42123295  1
  O2-  O173  1  0.42840392  0.81889104  0.75686503  1
  O2-  O174  1  0.93041760  0.32218501  0.09890471  1
  O2-  O175  1  0.93092984  0.31956687  0.43077069  1
  O2-  O176  1  0.93084834  0.32240627  0.76394397  1
  O2-  O177  1  0.92412658  0.82138706  0.08794818  1
  O2-  O178  1  0.92952110  0.81931713  0.43312379  1
  O2-  O179  1  0.92530738  0.81884257  0.75847847  1
  O2-  O180  1  0.32367334  0.07026931  0.24749069  1
  O2-  O181  1  0.32927200  0.06370469  0.57675111  1
  O2-  O182  1  0.32405655  0.06579673  0.90210511  1
  O2-  O183  1  0.32290916  0.57201434  0.24427543  1
  O2-  O184  1  0.31966911  0.57295211  0.56646318  1
  O2-  O185  1  0.31779373  0.57427493  0.90390370  1
  O2-  O186  1  0.82151675  0.07208686  0.24484112  1
  O2-  O187  1  0.82082860  0.06782552  0.57913496  1
  O2-  O188  1  0.82161030  0.06758256  0.91060879  1
  O2-  O189  1  0.82034506  0.57336650  0.24377048  1
  O2-  O190  1  0.81628791  0.58326209  0.57640055  1
  O2-  O191  1  0.81715932  0.57522793  0.90120417  1
  O2-  O192  1  0.04390260  0.08700781  0.26863493  1
  O2-  O193  1  0.03470662  0.08171099  0.59762679  1
  O2-  O194  1  0.03432419  0.08558346  0.93833754  1
  O2-  O195  1  0.04643899  0.58769799  0.26799562  1
  O2-  O196  1  0.04481126  0.59236160  0.60107948  1
  O2-  O197  1  0.03794554  0.59343771  0.93513774  1
  O2-  O198  1  0.54026702  0.08137157  0.26672694  1
  O2-  O199  1  0.53575667  0.08111313  0.59859088  1
  O2-  O200  1  0.54170208  0.07556563  0.93292964  1
  O2-  O201  1  0.54123433  0.58198341  0.26326660  1
  O2-  O202  1  0.54821268  0.58575213  0.60690824  1
  O2-  O203  1  0.55465523  0.58433869  0.93753728  1
  O2-  O204  1  0.17111943  0.19809120  0.27560017  1
  O2-  O205  1  0.17576018  0.19132163  0.60143108  1
  O2-  O206  1  0.16828436  0.18810564  0.94688163  1
  O2-  O207  1  0.16787914  0.70551657  0.26989165  1
  O2-  O208  1  0.16262707  0.71336704  0.60327309  1
  O2-  O209  1  0.16353240  0.70852221  0.93811713  1
  O2-  O210  1  0.66770152  0.20729026  0.26571174  1
  O2-  O211  1  0.66694957  0.20490002  0.59921794  1
  O2-  O212  1  0.66907216  0.20177958  0.92882171  1
  O2-  O213  1  0.66541826  0.71097397  0.26380551  1
  O2-  O214  1  0.66236910  0.71204811  0.60412958  1
  O2-  O215  1  0.66243864  0.71448728  0.93382685  1
  O2-  O216  1  0.08397919  0.46778316  0.06724922  1
  O2-  O217  1  0.08313284  0.46544663  0.40265149  1
  O2-  O218  1  0.07977311  0.46271803  0.73088083  1
  O2-  O219  1  0.07492047  0.95407619  0.06608056  1
  O2-  O220  1  0.08107172  0.96029203  0.40087971  1
  O2-  O221  1  0.07785667  0.95595236  0.73253005  1
  O2-  O222  1  0.58699918  0.45061918  0.05977123  1
  O2-  O223  1  0.58427300  0.45952090  0.39908385  1
  O2-  O224  1  0.58809818  0.46055706  0.73774659  1
  O2-  O225  1  0.58499575  0.94852050  0.06106470  1
  O2-  O226  1  0.58141157  0.95487814  0.39902280  1
  O2-  O227  1  0.57969801  0.95561315  0.73367807  1
  O2-  O228  1  0.19672904  0.32689962  0.06647302  1
  O2-  O229  1  0.20556339  0.33214246  0.40318254  1
  O2-  O230  1  0.19836828  0.32521731  0.72874783  1
  O2-  O231  1  0.20634896  0.83204055  0.06922763  1
  O2-  O232  1  0.20936087  0.83352052  0.40156865  1
  O2-  O233  1  0.21213265  0.83794256  0.73482537  1
  O2-  O234  1  0.70699924  0.33026295  0.05806704  1
  O2-  O235  1  0.71346282  0.33193199  0.39745786  1
  O2-  O236  1  0.71051336  0.32903594  0.73441981  1
  O2-  O237  1  0.71226905  0.83838176  0.06268783  1
  O2-  O238  1  0.71326042  0.83290084  0.39857207  1
  O2-  O239  1  0.71148371  0.83405093  0.73801499  1
  O2-  O240  1  0.45051750  0.41568387  0.27344947  1
  O2-  O241  1  0.45585424  0.42030711  0.60599614  1
  O2-  O242  1  0.45473597  0.42033074  0.93176923  1
  O2-  O243  1  0.45370676  0.91408774  0.26897287  1
  O2-  O244  1  0.45693432  0.90893669  0.60208993  1
  O2-  O245  1  0.45819643  0.90660819  0.93493189  1
  O2-  O246  1  0.95909816  0.42153457  0.26724207  1
  O2-  O247  1  0.95058391  0.42547857  0.59783805  1
  O2-  O248  1  0.95694404  0.42312807  0.93396601  1
  O2-  O249  1  0.95834760  0.91965183  0.26549530  1
  O2-  O250  1  0.94998464  0.91361617  0.60641391  1
  O2-  O251  1  0.94829036  0.91621769  0.93653451  1
  O2-  O252  1  0.33313791  0.29492743  0.27495968  1
  O2-  O253  1  0.33460301  0.30203786  0.60412134  1
  O2-  O254  1  0.32684668  0.29317698  0.93430471  1
  O2-  O255  1  0.33332957  0.79578217  0.26838088  1
  O2-  O256  1  0.33623010  0.79112471  0.60362845  1
  O2-  O257  1  0.33488225  0.78986874  0.93909934  1
  O2-  O258  1  0.83767671  0.28810382  0.26164295  1
  O2-  O259  1  0.83455316  0.28745992  0.59780310  1
  O2-  O260  1  0.83821148  0.28732847  0.93038753  1
  O2-  O261  1  0.83547562  0.79033794  0.26217028  1
  O2-  O262  1  0.83557108  0.78930943  0.60558456  1
  O2-  O263  1  0.83696025  0.78879346  0.93437343  1
  O2-  O264  1  0.41825687  0.03373151  0.06988182  1
  O2-  O265  1  0.41537642  0.04065569  0.39922539  1
  O2-  O266  1  0.41172035  0.03403664  0.73218989  1
  O2-  O267  1  0.42732403  0.55083073  0.06471106  1
  O2-  O268  1  0.41717956  0.54760885  0.39554168  1
  O2-  O269  1  0.42210947  0.55292151  0.73294658  1
  O2-  O270  1  0.90686642  0.03997911  0.06730298  1
  O2-  O271  1  0.91482793  0.04596778  0.39709111  1
  O2-  O272  1  0.91051226  0.04055021  0.73388173  1
  O2-  O273  1  0.91688439  0.54726724  0.06934780  1
  O2-  O274  1  0.91694130  0.55304288  0.39432615  1
  O2-  O275  1  0.91771238  0.55755782  0.72401249  1
  O2-  O276  1  0.30020762  0.16882504  0.07147811  1
  O2-  O277  1  0.30300390  0.16560229  0.40016937  1
  O2-  O278  1  0.31019083  0.16820507  0.72352108  1
  O2-  O279  1  0.29100707  0.66557025  0.07282966  1
  O2-  O280  1  0.29827560  0.66616121  0.39513839  1
  O2-  O281  1  0.28760418  0.66759005  0.73424411  1
  O2-  O282  1  0.79292049  0.16395693  0.06182759  1
  O2-  O283  1  0.79732767  0.16702569  0.39601077  1
  O2-  O284  1  0.79587363  0.16451758  0.73018216  1
  O2-  O285  1  0.78595114  0.66705836  0.06920490  1
  O2-  O286  1  0.79414458  0.66668638  0.39448782  1
  O2-  O287  1  0.78866977  0.66367630  0.73353553  1
