# generated using pymatgen
data_Ca2Al2SiO7
_symmetry_space_group_name_H-M   'P 1'
_cell_length_a   15.47242487
_cell_length_b   15.47105395
_cell_length_c   15.29420560
_cell_angle_alpha   90.00743315
_cell_angle_beta   90.00267064
_cell_angle_gamma   89.97241388
_symmetry_Int_Tables_number   1
_chemical_formula_structural   Ca2Al2SiO7
_chemical_formula_sum   'Ca48 Al48 Si24 O168'
_cell_volume   3661.04572357
_cell_formula_units_Z   24
loop_
 _symmetry_equiv_pos_site_id
 _symmetry_equiv_pos_as_xyz
  1  'x, y, z'
loop_
 _atom_type_symbol
 _atom_type_oxidation_number
  Ca2+  2.0
  Al0+  0.0
  Si0+  0.0
  O2-  -2.0
loop_
 _atom_site_type_symbol
 _atom_site_label
 _atom_site_symmetry_multiplicity
 _atom_site_fract_x
 _atom_site_fract_y
 _atom_site_fract_z
 _atom_site_occupancy
  Ca2+  Ca0  1  0.15916749  0.07962263  0.16243225  1
  Ca2+  Ca1  1  0.16985951  0.07636438  0.50846889  1
  Ca2+  Ca2  1  0.16564099  0.07318269  0.84307055  1
  Ca2+  Ca3  1  0.16575120  0.57931541  0.16891229  1
  Ca2+  Ca4  1  0.16572579  0.57746452  0.50258590  1
  Ca2+  Ca5  1  0.17026462  0.58995978  0.84145663  1
  Ca2+  Ca6  1  0.67571133  0.08477943  0.16295066  1
  Ca2+  Ca7  1  0.67446598  0.08350689  0.50161883  1
  Ca2+  Ca8  1  0.67075363  0.07468017  0.84692302  1
  Ca2+  Ca9  1  0.66786134  0.58453928  0.16280397  1
  Ca2+  Ca10  1  0.66818723  0.57914797  0.51047629  1
  Ca2+  Ca11  1  0.67245121  0.58089836  0.84159280  1
  Ca2+  Ca12  1  0.07270096  0.32969175  0.15731689  1
  Ca2+  Ca13  1  0.06956818  0.33934661  0.49361764  1
  Ca2+  Ca14  1  0.06890748  0.32700967  0.83411092  1
  Ca2+  Ca15  1  0.07883199  0.82802628  0.15252331  1
  Ca2+  Ca16  1  0.07998607  0.83651334  0.50462071  1
  Ca2+  Ca17  1  0.07504412  0.83522119  0.83433003  1
  Ca2+  Ca18  1  0.57984829  0.32934328  0.15121384  1
  Ca2+  Ca19  1  0.58702260  0.33544691  0.49888736  1
  Ca2+  Ca20  1  0.59512476  0.33073608  0.83565872  1
  Ca2+  Ca21  1  0.58141930  0.82509869  0.15369171  1
  Ca2+  Ca22  1  0.58677391  0.81736073  0.49683899  1
  Ca2+  Ca23  1  0.58628189  0.82482804  0.82762949  1
  Ca2+  Ca24  1  0.32658621  0.41238191  0.16934168  1
  Ca2+  Ca25  1  0.32377505  0.41579446  0.50328377  1
  Ca2+  Ca26  1  0.33260612  0.41682724  0.84189547  1
  Ca2+  Ca27  1  0.32828664  0.90840389  0.16302823  1
  Ca2+  Ca28  1  0.32863626  0.91323786  0.51117906  1
  Ca2+  Ca29  1  0.32390610  0.89972257  0.83942516  1
  Ca2+  Ca30  1  0.83522950  0.41780473  0.16456483  1
  Ca2+  Ca31  1  0.83057499  0.42266244  0.51104901  1
  Ca2+  Ca32  1  0.82916242  0.42570367  0.83918345  1
  Ca2+  Ca33  1  0.83470992  0.92619254  0.16195306  1
  Ca2+  Ca34  1  0.83937999  0.92515694  0.50505371  1
  Ca2+  Ca35  1  0.83360056  0.91885371  0.84733332  1
  Ca2+  Ca36  1  0.42378748  0.17445365  0.15505175  1
  Ca2+  Ca37  1  0.41954339  0.16703235  0.49858762  1
  Ca2+  Ca38  1  0.42127608  0.17093278  0.83916717  1
  Ca2+  Ca39  1  0.42920771  0.66829644  0.15774696  1
  Ca2+  Ca40  1  0.42847224  0.66727503  0.50023834  1
  Ca2+  Ca41  1  0.43100696  0.67568600  0.83494017  1
  Ca2+  Ca42  1  0.91392986  0.17387155  0.15682134  1
  Ca2+  Ca43  1  0.91152002  0.18003841  0.49398857  1
  Ca2+  Ca44  1  0.90417469  0.17954377  0.83549581  1
  Ca2+  Ca45  1  0.92358087  0.67016098  0.15275162  1
  Ca2+  Ca46  1  0.90721510  0.67402697  0.50188451  1
  Ca2+  Ca47  1  0.90852191  0.67486194  0.83277680  1
  Al0+  Al48  1  0.00256995  -0.00144871  0.00414098  1
  Al0+  Al49  1  0.00012286  0.00180341  0.33991724  1
  Al0+  Al50  1  0.00331181  0.00034027  0.66660128  1
  Al0+  Al51  1  0.00197345  0.49861475  -0.00396186  1
  Al0+  Al52  1  -0.00140795  0.50111396  0.33456491  1
  Al0+  Al53  1  -0.00033609  0.49927375  0.66675419  1
  Al0+  Al54  1  0.49538744  0.00151133  -0.00221835  1
  Al0+  Al55  1  0.49932483  -0.00116465  0.33487505  1
  Al0+  Al56  1  0.49978451  0.00322086  0.66198302  1
  Al0+  Al57  1  0.49822123  0.50249641  -0.00254149  1
  Al0+  Al58  1  0.49931858  0.50086552  0.33047178  1
  Al0+  Al59  1  0.49739843  0.49686972  0.66556456  1
  Al0+  Al60  1  0.24958540  0.24896709  -0.00654562  1
  Al0+  Al61  1  0.24859611  0.24810885  0.34063557  1
  Al0+  Al62  1  0.25101641  0.24778702  0.66658177  1
  Al0+  Al63  1  0.25133613  0.74779567  0.00133264  1
  Al0+  Al64  1  0.25070045  0.74910803  0.33739281  1
  Al0+  Al65  1  0.24957188  0.74871278  0.66569446  1
  Al0+  Al66  1  0.74810583  0.25056345  -0.00062232  1
  Al0+  Al67  1  0.74976968  0.25042067  0.33349569  1
  Al0+  Al68  1  0.75024609  0.25059025  0.66345237  1
  Al0+  Al69  1  0.75160643  0.74911436  0.00302079  1
  Al0+  Al70  1  0.74974059  0.75035093  0.32764515  1
  Al0+  Al71  1  0.75151086  0.75129446  0.65824347  1
  Al0+  Al72  1  0.57374796  0.68061978  0.98493669  1
  Al0+  Al73  1  0.92637202  0.32112260  0.98420576  1
  Al0+  Al74  1  0.42875359  0.82194525  0.98778668  1
  Al0+  Al75  1  0.67724359  0.42788131  0.68139216  1
  Al0+  Al76  1  0.82098882  0.57356000  0.68099410  1
  Al0+  Al77  1  0.92964475  0.82019485  0.98795971  1
  Al0+  Al78  1  0.57176708  0.67764482  0.65125793  1
  Al0+  Al79  1  0.82392321  0.57087253  0.01624692  1
  Al0+  Al80  1  0.92963816  0.32014218  0.65089363  1
  Al0+  Al81  1  0.82171479  0.07126103  0.01322975  1
  Al0+  Al82  1  0.67508306  0.92704822  0.01266192  1
  Al0+  Al83  1  0.57129109  0.67818521  0.31669606  1
  Al0+  Al84  1  0.18144146  0.92808387  0.01501609  1
  Al0+  Al85  1  0.18132200  0.92910803  0.68293478  1
  Al0+  Al86  1  0.67792762  0.43116666  0.01578715  1
  Al0+  Al87  1  0.42880070  0.32292920  0.98595888  1
  Al0+  Al88  1  0.07080352  0.17746062  0.98597317  1
  Al0+  Al89  1  0.57155988  0.17846315  0.98520657  1
  Al0+  Al90  1  0.81974322  0.07130695  0.34847749  1
  Al0+  Al91  1  0.17808301  0.42924919  0.34663085  1
  Al0+  Al92  1  0.42867103  0.82141087  0.65116018  1
  Al0+  Al93  1  0.93000435  0.82260693  0.65226023  1
  Al0+  Al94  1  0.92873566  0.32187777  0.31865626  1
  Al0+  Al95  1  0.07257287  0.67740817  0.98653352  1
  Si0+  Si96  1  0.67787172  0.43000328  0.34680270  1
  Si0+  Si97  1  0.42569427  0.32019266  0.64876872  1
  Si0+  Si98  1  0.57036116  0.17899901  0.31948171  1
  Si0+  Si99  1  0.57141874  0.18033605  0.64904518  1
  Si0+  Si100  1  0.17993392  0.42600999  0.01338551  1
  Si0+  Si101  1  0.07280887  0.17748017  0.31864032  1
  Si0+  Si102  1  0.31952871  0.57019665  0.01612614  1
  Si0+  Si103  1  0.67938541  0.93106340  0.67682412  1
  Si0+  Si104  1  0.07345104  0.17895147  0.64823463  1
  Si0+  Si105  1  0.93126411  0.82381209  0.31862909  1
  Si0+  Si106  1  0.67751460  0.92745984  0.35076512  1
  Si0+  Si107  1  0.32279735  0.07031782  0.34992727  1
  Si0+  Si108  1  0.17827112  0.42702265  0.68294794  1
  Si0+  Si109  1  0.07142488  0.67997617  0.32073491  1
  Si0+  Si110  1  0.82140546  0.07079288  0.67996276  1
  Si0+  Si111  1  0.07288109  0.67733114  0.64869257  1
  Si0+  Si112  1  0.31931726  0.56885690  0.68229119  1
  Si0+  Si113  1  0.32464967  0.07302894  0.68612163  1
  Si0+  Si114  1  0.42697597  0.31940788  0.32118271  1
  Si0+  Si115  1  0.32275222  0.57111335  0.35190373  1
  Si0+  Si116  1  0.82069323  0.57247212  0.34804049  1
  Si0+  Si117  1  0.42682341  0.82212716  0.31709746  1
  Si0+  Si118  1  0.17986401  0.92789256  0.35020447  1
  Si0+  Si119  1  0.32000115  0.07557334  0.01836774  1
  O2-  O120  1  0.25460808  0.00393031  0.06334574  1
  O2-  O121  1  0.25280811  -0.00222044  0.39143559  1
  O2-  O122  1  0.25988420  0.00050746  0.72833449  1
  O2-  O123  1  0.24972593  0.49737360  0.05724113  1
  O2-  O124  1  0.25317700  0.50291738  0.39599831  1
  O2-  O125  1  0.24747039  0.49902332  0.72559166  1
  O2-  O126  1  0.74763554  -0.00019626  0.06220853  1
  O2-  O127  1  0.74685133  -0.00497599  0.39656283  1
  O2-  O128  1  0.75382614  -0.00324116  0.72054772  1
  O2-  O129  1  0.75170126  0.49971158  0.06838015  1
  O2-  O130  1  0.74830010  0.50169131  0.38888957  1
  O2-  O131  1  0.74584371  0.50384948  0.72872814  1
  O2-  O132  1  0.00461724  0.24653769  0.27556239  1
  O2-  O133  1  0.00575329  0.24735032  0.60222346  1
  O2-  O134  1  -0.00596849  0.24362849  0.93572288  1
  O2-  O135  1  0.00328803  0.75303027  0.27853630  1
  O2-  O136  1  0.00198621  0.74447028  0.60475710  1
  O2-  O137  1  -0.00244107  0.74524386  0.93660053  1
  O2-  O138  1  0.49883943  0.25018580  0.27906978  1
  O2-  O139  1  0.50015220  0.25217583  0.60733199  1
  O2-  O140  1  0.50401233  0.25511641  0.93498670  1
  O2-  O141  1  0.49679737  0.75513144  0.27419587  1
  O2-  O142  1  0.50175568  0.75172898  0.59969316  1
  O2-  O143  1  0.51022808  0.76168611  0.93783082  1
  O2-  O144  1  0.07249427  0.18264677  0.10033830  1
  O2-  O145  1  0.07334137  0.17696309  0.42437977  1
  O2-  O146  1  0.07535303  0.18027328  0.75288823  1
  O2-  O147  1  0.07431908  0.67951644  0.10127523  1
  O2-  O148  1  0.07195489  0.68005931  0.42583063  1
  O2-  O149  1  0.07721419  0.67846431  0.75323144  1
  O2-  O150  1  0.56855206  0.17980988  0.09975943  1
  O2-  O151  1  0.56930314  0.18002068  0.42515868  1
  O2-  O152  1  0.57213787  0.17812348  0.75310105  1
  O2-  O153  1  0.56800521  0.67818418  0.09878406  1
  O2-  O154  1  0.56997669  0.67630776  0.42990526  1
  O2-  O155  1  0.57172599  0.67872302  0.76368448  1
  O2-  O156  1  0.18107883  0.42995585  0.23397491  1
  O2-  O157  1  0.18072019  0.42825469  0.57717898  1
  O2-  O158  1  0.18288723  0.42615480  0.90825755  1
  O2-  O159  1  0.17954627  0.92640364  0.24576544  1
  O2-  O160  1  0.18203506  0.93250480  0.56849740  1
  O2-  O161  1  0.18327887  0.92696516  0.90239545  1
  O2-  O162  1  0.67582889  0.42848886  0.24266068  1
  O2-  O163  1  0.67947165  0.42703319  0.56632817  1
  O2-  O164  1  0.67811540  0.43345253  0.90256626  1
  O2-  O165  1  0.67567148  0.92944902  0.24605808  1
  O2-  O166  1  0.68019567  0.93505728  0.57123052  1
  O2-  O167  1  0.67723837  0.92875572  0.89826620  1
  O2-  O168  1  0.42609205  0.31925006  0.10058182  1
  O2-  O169  1  0.42722837  0.31799947  0.42658812  1
  O2-  O170  1  0.41885892  0.31877244  0.75261048  1
  O2-  O171  1  0.42605254  0.81493609  0.10187302  1
  O2-  O172  1  0.42555938  0.82183721  0.42260718  1
  O2-  O173  1  0.43018013  0.81905849  0.76368906  1
  O2-  O174  1  0.93063038  0.32185680  0.09818787  1
  O2-  O175  1  0.92909598  0.32198797  0.43215880  1
  O2-  O176  1  0.92893553  0.31787158  0.76282895  1
  O2-  O177  1  0.93415741  0.82089758  0.10234289  1
  O2-  O178  1  0.93245368  0.82363227  0.42411438  1
  O2-  O179  1  0.93011612  0.82677876  0.76394825  1
  O2-  O180  1  0.32487125  0.07365591  0.24589976  1
  O2-  O181  1  0.32237689  0.07556147  0.57953885  1
  O2-  O182  1  0.31687841  0.08096183  0.91334654  1
  O2-  O183  1  0.32223024  0.57164655  0.24677178  1
  O2-  O184  1  0.31792774  0.56602941  0.57659465  1
  O2-  O185  1  0.31749285  0.57066176  0.91093304  1
  O2-  O186  1  0.81965959  0.07141409  0.23651966  1
  O2-  O187  1  0.81838669  0.07174323  0.57416820  1
  O2-  O188  1  0.82015163  0.06967223  0.89915226  1
  O2-  O189  1  0.82370165  0.57242187  0.24382664  1
  O2-  O190  1  0.82031480  0.57131073  0.56597419  1
  O2-  O191  1  0.82383197  0.57040905  0.90308744  1
  O2-  O192  1  0.04722393  0.08301224  0.27458303  1
  O2-  O193  1  0.04820457  0.08537739  0.60192638  1
  O2-  O194  1  0.05175662  0.07618307  0.93787589  1
  O2-  O195  1  0.04231719  0.58911300  0.27326538  1
  O2-  O196  1  0.05004404  0.58251909  0.60331743  1
  O2-  O197  1  0.05421419  0.57748545  0.93438278  1
  O2-  O198  1  0.54214701  0.08660083  0.27468405  1
  O2-  O199  1  0.54231390  0.09067721  0.59704419  1
  O2-  O200  1  0.53870172  0.08261840  0.93014134  1
  O2-  O201  1  0.53776649  0.58217544  0.26317301  1
  O2-  O202  1  0.53800283  0.57933885  0.59886101  1
  O2-  O203  1  0.53459568  0.58688545  0.93138536  1
  O2-  O204  1  0.16782271  0.20123585  0.27495980  1
  O2-  O205  1  0.16798460  0.20349609  0.60157762  1
  O2-  O206  1  0.16556284  0.21045639  0.92953078  1
  O2-  O207  1  0.16552811  0.70404032  0.27567223  1
  O2-  O208  1  0.16463293  0.70538732  0.59887779  1
  O2-  O209  1  0.16911572  0.70966126  0.93379391  1
  O2-  O210  1  0.66125596  0.20743753  0.27278733  1
  O2-  O211  1  0.66172288  0.20923112  0.59856064  1
  O2-  O212  1  0.66958999  0.20306251  0.93112399  1
  O2-  O213  1  0.66813633  0.70744551  0.26335825  1
  O2-  O214  1  0.66851592  0.70671310  0.59402130  1
  O2-  O215  1  0.67419423  0.70030579  0.93548444  1
  O2-  O216  1  0.08856197  0.45259507  0.06123533  1
  O2-  O217  1  0.08311164  0.46420178  0.40246405  1
  O2-  O218  1  0.08582184  0.45147798  0.72839465  1
  O2-  O219  1  0.08642241  0.95765079  0.07307666  1
  O2-  O220  1  0.08950319  0.95780254  0.39966633  1
  O2-  O221  1  0.08516853  0.96261614  0.73508292  1
  O2-  O222  1  0.57792369  0.45990388  0.06720467  1
  O2-  O223  1  0.58493843  0.45651655  0.39443132  1
  O2-  O224  1  0.57440234  0.44510433  0.72849729  1
  O2-  O225  1  0.57528266  0.95474891  0.06437697  1
  O2-  O226  1  0.58386721  0.95364181  0.39795023  1
  O2-  O227  1  0.58830676  0.96261162  0.72252134  1
  O2-  O228  1  0.21069920  0.33559468  0.06181787  1
  O2-  O229  1  0.20854736  0.33341112  0.40393260  1
  O2-  O230  1  0.20941163  0.33525987  0.72730565  1
  O2-  O231  1  0.21589905  0.83250115  0.07089273  1
  O2-  O232  1  0.20611221  0.83580610  0.39900941  1
  O2-  O233  1  0.20870360  0.83017688  0.73276931  1
  O2-  O234  1  0.70188077  0.33063992  0.06654052  1
  O2-  O235  1  0.70485000  0.33815253  0.39512736  1
  O2-  O236  1  0.70960225  0.32962832  0.73158205  1
  O2-  O237  1  0.70419395  0.83042288  0.06804860  1
  O2-  O238  1  0.70467388  0.83296424  0.39485009  1
  O2-  O239  1  0.70241608  0.83686264  0.71903532  1
  O2-  O240  1  0.45059898  0.41223214  0.27519180  1
  O2-  O241  1  0.44923208  0.41205609  0.59947357  1
  O2-  O242  1  0.44892518  0.42250334  0.93415917  1
  O2-  O243  1  0.44881775  0.91738921  0.27305174  1
  O2-  O244  1  0.45167590  0.92265478  0.59965974  1
  O2-  O245  1  0.43578373  0.92497923  0.93997020  1
  O2-  O246  1  0.96044091  0.41900271  0.26705307  1
  O2-  O247  1  0.96112598  0.41726461  0.59704452  1
  O2-  O248  1  0.96179303  0.41583535  0.92997679  1
  O2-  O249  1  0.96015835  0.91627415  0.27431821  1
  O2-  O250  1  0.96615568  0.91792954  0.59600424  1
  O2-  O251  1  0.96137424  0.91730634  0.93617742  1
  O2-  O252  1  0.33493307  0.28941123  0.27589569  1
  O2-  O253  1  0.33612126  0.28720635  0.59784318  1
  O2-  O254  1  0.33350778  0.29005936  0.92989358  1
  O2-  O255  1  0.33237184  0.79515183  0.27302676  1
  O2-  O256  1  0.33091487  0.78902729  0.59744311  1
  O2-  O257  1  0.33644662  0.77898594  0.93369943  1
  O2-  O258  1  0.83167339  0.29059526  0.26712087  1
  O2-  O259  1  0.83395958  0.28663829  0.59518472  1
  O2-  O260  1  0.82803482  0.29532814  0.93161271  1
  O2-  O261  1  0.83907524  0.79758390  0.27314246  1
  O2-  O262  1  0.83467321  0.79592364  0.59229826  1
  O2-  O263  1  0.83065380  0.79647805  0.93604853  1
  O2-  O264  1  0.41452436  0.05437244  0.06394813  1
  O2-  O265  1  0.41453287  0.04402632  0.39993561  1
  O2-  O266  1  0.42096108  0.05410989  0.72796488  1
  O2-  O267  1  0.41050359  0.54320820  0.06489802  1
  O2-  O268  1  0.41531184  0.54221298  0.39875653  1
  O2-  O269  1  0.40996440  0.53892483  0.72907749  1
  O2-  O270  1  0.91890255  0.04219989  0.06865254  1
  O2-  O271  1  0.91653246  0.04221956  0.40506902  1
  O2-  O272  1  0.91519604  0.04810729  0.72314266  1
  O2-  O273  1  0.92403551  0.54136838  0.06760403  1
  O2-  O274  1  0.91179171  0.54535862  0.39736761  1
  O2-  O275  1  0.92014789  0.54497257  0.73115760  1
  O2-  O276  1  0.29000170  0.16768414  0.06656179  1
  O2-  O277  1  0.29397859  0.16041373  0.40172425  1
  O2-  O278  1  0.29553063  0.16572584  0.73156461  1
  O2-  O279  1  0.28840699  0.65857709  0.06786666  1
  O2-  O280  1  0.29659627  0.66427634  0.39963767  1
  O2-  O281  1  0.29096988  0.66040388  0.72823939  1
  O2-  O282  1  0.79233918  0.16923242  0.06657737  1
  O2-  O283  1  0.78469148  0.16700097  0.40376389  1
  O2-  O284  1  0.78858458  0.16115996  0.72537619  1
  O2-  O285  1  0.79820087  0.66928635  0.07076785  1
  O2-  O286  1  0.79290451  0.66559435  0.39393467  1
  O2-  O287  1  0.79639311  0.67512288  0.72829969  1
