# generated using pymatgen
data_Ca2Al2SiO7
_symmetry_space_group_name_H-M   'P 1'
_cell_length_a   15.45894805
_cell_length_b   15.45815729
_cell_length_c   15.28313831
_cell_angle_alpha   89.99237435
_cell_angle_beta   90.00904762
_cell_angle_gamma   89.99559605
_symmetry_Int_Tables_number   1
_chemical_formula_structural   Ca2Al2SiO7
_chemical_formula_sum   'Ca48 Al48 Si24 O168'
_cell_volume   3652.16333981
_cell_formula_units_Z   24
loop_
 _symmetry_equiv_pos_site_id
 _symmetry_equiv_pos_as_xyz
  1  'x, y, z'
loop_
 _atom_type_symbol
 _atom_type_oxidation_number
  Ca2+  2.0
  Al0+  0.0
  Si0+  0.0
  O2-  -2.0
loop_
 _atom_site_type_symbol
 _atom_site_label
 _atom_site_symmetry_multiplicity
 _atom_site_fract_x
 _atom_site_fract_y
 _atom_site_fract_z
 _atom_site_occupancy
  Ca2+  Ca0  1  0.17233566  0.08317860  0.17262476  1
  Ca2+  Ca1  1  0.18070739  0.08474562  0.50839901  1
  Ca2+  Ca2  1  0.16840840  0.08808001  0.83656537  1
  Ca2+  Ca3  1  0.17503040  0.58358114  0.17382898  1
  Ca2+  Ca4  1  0.17246144  0.58633823  0.50107191  1
  Ca2+  Ca5  1  0.17565222  0.59190821  0.83779829  1
  Ca2+  Ca6  1  0.65872522  0.07206951  0.17208029  1
  Ca2+  Ca7  1  0.65723382  0.07575633  0.50598556  1
  Ca2+  Ca8  1  0.65626675  0.07249028  0.83432333  1
  Ca2+  Ca9  1  0.67048833  0.58915666  0.16397449  1
  Ca2+  Ca10  1  0.66704211  0.57463809  0.50906186  1
  Ca2+  Ca11  1  0.66918458  0.58051856  0.84343053  1
  Ca2+  Ca12  1  0.08386871  0.33125003  0.15858344  1
  Ca2+  Ca13  1  0.08906269  0.33172121  0.49830459  1
  Ca2+  Ca14  1  0.07937128  0.32550317  0.83279027  1
  Ca2+  Ca15  1  0.08648057  0.81969558  0.16150346  1
  Ca2+  Ca16  1  0.08708091  0.82120337  0.49666462  1
  Ca2+  Ca17  1  0.08501423  0.82099900  0.82851564  1
  Ca2+  Ca18  1  0.57537600  0.32611686  0.16070139  1
  Ca2+  Ca19  1  0.58612488  0.32187887  0.49696492  1
  Ca2+  Ca20  1  0.57848719  0.33323179  0.82678940  1
  Ca2+  Ca21  1  0.57437196  0.83338923  0.16043782  1
  Ca2+  Ca22  1  0.57405576  0.84180920  0.49664451  1
  Ca2+  Ca23  1  0.57796514  0.83222984  0.83225442  1
  Ca2+  Ca24  1  0.33169589  0.42745096  0.17127546  1
  Ca2+  Ca25  1  0.33041005  0.43082464  0.50342643  1
  Ca2+  Ca26  1  0.33760528  0.43021445  0.84119692  1
  Ca2+  Ca27  1  0.33936485  0.91832133  0.17188513  1
  Ca2+  Ca28  1  0.34286554  0.92387967  0.50344407  1
  Ca2+  Ca29  1  0.34167618  0.92043643  0.83327359  1
  Ca2+  Ca30  1  0.83998556  0.42039077  0.16448909  1
  Ca2+  Ca31  1  0.82592060  0.41632971  0.50541411  1
  Ca2+  Ca32  1  0.82834768  0.41711169  0.83839994  1
  Ca2+  Ca33  1  0.81819170  0.91214228  0.17009888  1
  Ca2+  Ca34  1  0.81830979  0.91530458  0.50570093  1
  Ca2+  Ca35  1  0.81954873  0.91370811  0.84026601  1
  Ca2+  Ca36  1  0.41693188  0.17010165  0.16501276  1
  Ca2+  Ca37  1  0.42449910  0.15741177  0.49634533  1
  Ca2+  Ca38  1  0.41793527  0.17486372  0.82694457  1
  Ca2+  Ca39  1  0.41605046  0.67463655  0.15774315  1
  Ca2+  Ca40  1  0.40806299  0.67707353  0.49632885  1
  Ca2+  Ca41  1  0.41215608  0.67663909  0.82961852  1
  Ca2+  Ca42  1  0.92552417  0.17482646  0.15562245  1
  Ca2+  Ca43  1  0.92319562  0.16558965  0.49874933  1
  Ca2+  Ca44  1  0.92625736  0.16683243  0.83074447  1
  Ca2+  Ca45  1  0.92842921  0.65975399  0.15937773  1
  Ca2+  Ca46  1  0.92910121  0.66277289  0.49625118  1
  Ca2+  Ca47  1  0.92729279  0.65689694  0.83247010  1
  Al0+  Al48  1  0.00028962  -0.00142029  -0.00116828  1
  Al0+  Al49  1  -0.00202766  -0.00039317  0.33244410  1
  Al0+  Al50  1  -0.00046368  -0.00039177  0.66057801  1
  Al0+  Al51  1  -0.00056270  0.49740719  -0.00569874  1
  Al0+  Al52  1  0.00019207  0.49873277  0.33416348  1
  Al0+  Al53  1  0.00044886  0.49862886  0.66089390  1
  Al0+  Al54  1  0.49856843  -0.00016666  0.00223730  1
  Al0+  Al55  1  0.50031416  -0.00085438  0.33135514  1
  Al0+  Al56  1  0.49903301  0.00106717  0.66979711  1
  Al0+  Al57  1  0.50115998  0.49998697  0.00028314  1
  Al0+  Al58  1  0.50112563  0.50008028  0.33802806  1
  Al0+  Al59  1  0.49930479  0.50154304  0.67440486  1
  Al0+  Al60  1  0.25217154  0.25085395  -0.00703774  1
  Al0+  Al61  1  0.25115843  0.25088336  0.34109127  1
  Al0+  Al62  1  0.24957844  0.25237407  0.66660136  1
  Al0+  Al63  1  0.25025395  0.75286532  -0.00334221  1
  Al0+  Al64  1  0.24945923  0.75144769  0.32768525  1
  Al0+  Al65  1  0.24951127  0.75171157  0.66115757  1
  Al0+  Al66  1  0.75076318  0.24799844  -0.00262251  1
  Al0+  Al67  1  0.75136332  0.24818618  0.32718105  1
  Al0+  Al68  1  0.74996857  0.24982622  0.66780518  1
  Al0+  Al69  1  0.74940340  0.74879975  0.00729919  1
  Al0+  Al70  1  0.74968244  0.74971726  0.34074342  1
  Al0+  Al71  1  0.75040685  0.74934668  0.67109830  1
  Al0+  Al72  1  0.42903060  0.82209628  0.98312594  1
  Al0+  Al73  1  0.67928350  0.42803883  0.68044728  1
  Al0+  Al74  1  0.43021473  0.32199881  0.98739637  1
  Al0+  Al75  1  0.57034361  0.17916738  0.31876048  1
  Al0+  Al76  1  0.06868720  0.67963826  0.31762563  1
  Al0+  Al77  1  0.17760488  0.42936866  0.34812076  1
  Al0+  Al78  1  0.67850593  0.93052445  0.01600485  1
  Al0+  Al79  1  0.67870992  0.92952483  0.68253940  1
  Al0+  Al80  1  0.67991559  0.93042747  0.34869846  1
  Al0+  Al81  1  0.43198759  0.82015089  0.65167021  1
  Al0+  Al82  1  0.31965801  0.06944488  0.34600425  1
  Al0+  Al83  1  0.32218814  0.57418087  0.34798987  1
  Al0+  Al84  1  0.82167723  0.56810663  0.01375405  1
  Al0+  Al85  1  0.32003828  0.07154215  0.68216519  1
  Al0+  Al86  1  0.07247561  0.17828754  0.65015518  1
  Al0+  Al87  1  0.06978524  0.67947135  0.65092030  1
  Al0+  Al88  1  0.07056137  0.67902701  0.98621911  1
  Al0+  Al89  1  0.92759323  0.32091329  0.98339664  1
  Al0+  Al90  1  0.56870502  0.18163855  0.65438699  1
  Al0+  Al91  1  0.43140143  0.81900684  0.31944702  1
  Al0+  Al92  1  0.32134100  0.57361800  0.01397480  1
  Al0+  Al93  1  0.57300597  0.67940154  0.98641112  1
  Al0+  Al94  1  0.31813683  0.57327073  0.68197031  1
  Al0+  Al95  1  0.07262687  0.17667913  0.98618443  1
  Si0+  Si96  1  0.82325456  0.07404882  0.34999921  1
  Si0+  Si97  1  0.17643288  0.92902368  0.68211894  1
  Si0+  Si98  1  0.31913596  0.07234072  0.01482546  1
  Si0+  Si99  1  0.92495645  0.82214111  0.31667112  1
  Si0+  Si100  1  0.17704071  0.92920094  0.01459494  1
  Si0+  Si101  1  0.57410552  0.67668915  0.65106509  1
  Si0+  Si102  1  0.18018240  0.42787719  0.01356351  1
  Si0+  Si103  1  0.92677975  0.82112736  0.98515638  1
  Si0+  Si104  1  0.82415441  0.07175965  0.68353873  1
  Si0+  Si105  1  0.92909998  0.31969290  0.31811706  1
  Si0+  Si106  1  0.82120938  0.56920367  0.34896873  1
  Si0+  Si107  1  0.57514404  0.67412131  0.31912389  1
  Si0+  Si108  1  0.92853465  0.32029126  0.64744273  1
  Si0+  Si109  1  0.67742987  0.42472188  0.01872913  1
  Si0+  Si110  1  0.82329310  0.57046445  0.68247515  1
  Si0+  Si111  1  0.82455519  0.07188036  0.01733163  1
  Si0+  Si112  1  0.42765263  0.32412813  0.31873672  1
  Si0+  Si113  1  0.07311552  0.17890428  0.32001510  1
  Si0+  Si114  1  0.42739018  0.32638555  0.64871779  1
  Si0+  Si115  1  0.57097661  0.17735987  0.98396766  1
  Si0+  Si116  1  0.17458493  0.92816154  0.34892122  1
  Si0+  Si117  1  0.17632203  0.42859343  0.68578534  1
  Si0+  Si118  1  0.92477496  0.82249373  0.64940278  1
  Si0+  Si119  1  0.67976007  0.42578592  0.34635577  1
  O2-  O120  1  0.24664238  0.00228343  0.05600149  1
  O2-  O121  1  0.24214013  -0.00237655  0.39306843  1
  O2-  O122  1  0.24146736  0.00025272  0.72822857  1
  O2-  O123  1  0.24571349  0.49862688  0.05917265  1
  O2-  O124  1  0.24922844  0.50226889  0.39731602  1
  O2-  O125  1  0.24447806  0.49756169  0.72960929  1
  O2-  O126  1  0.75380218  0.00585998  0.06226699  1
  O2-  O127  1  0.75538424  0.00515703  0.39475130  1
  O2-  O128  1  0.75604036  0.00278141  0.72808577  1
  O2-  O129  1  0.74714790  0.49325612  0.06249856  1
  O2-  O130  1  0.74703833  0.50049570  0.38944472  1
  O2-  O131  1  0.75152609  0.50533527  0.72626319  1
  O2-  O132  1  0.00231220  0.24984381  0.27769302  1
  O2-  O133  1  -0.00221751  0.25269335  0.60218768  1
  O2-  O134  1  -0.00183662  0.24621482  0.93632974  1
  O2-  O135  1  -0.00528744  0.75559619  0.27115369  1
  O2-  O136  1  -0.00649819  0.75366900  0.60520702  1
  O2-  O137  1  -0.00566949  0.75244406  0.93931183  1
  O2-  O138  1  0.49624629  0.25521609  0.27396816  1
  O2-  O139  1  0.49496644  0.25619462  0.60469306  1
  O2-  O140  1  0.50776307  0.25057235  0.94008671  1
  O2-  O141  1  0.50331847  0.74001603  0.27615481  1
  O2-  O142  1  0.50704502  0.74546980  0.60482232  1
  O2-  O143  1  0.49914329  0.74775491  0.93428405  1
  O2-  O144  1  0.07347230  0.17847288  0.10058294  1
  O2-  O145  1  0.07080096  0.17898229  0.42489735  1
  O2-  O146  1  0.06955278  0.17898026  0.76287748  1
  O2-  O147  1  0.06996887  0.67973145  0.09937111  1
  O2-  O148  1  0.06638399  0.68033522  0.43084685  1
  O2-  O149  1  0.06835697  0.68048961  0.76402769  1
  O2-  O150  1  0.56798359  0.17707043  0.08995416  1
  O2-  O151  1  0.57098968  0.18061084  0.43192503  1
  O2-  O152  1  0.56655882  0.18277368  0.76745447  1
  O2-  O153  1  0.57287815  0.68218391  0.10054498  1
  O2-  O154  1  0.57873265  0.67296645  0.42469676  1
  O2-  O155  1  0.57522254  0.67751693  0.75626336  1
  O2-  O156  1  0.17644842  0.42832831  0.23428895  1
  O2-  O157  1  0.17665436  0.42955439  0.57999492  1
  O2-  O158  1  0.18227037  0.42691703  0.90813366  1
  O2-  O159  1  0.17260615  0.93058063  0.24301803  1
  O2-  O160  1  0.17737243  0.92949445  0.57631359  1
  O2-  O161  1  0.17473841  0.92851207  0.90974413  1
  O2-  O162  1  0.68142189  0.42407660  0.24168392  1
  O2-  O163  1  0.68255727  0.42796067  0.56631156  1
  O2-  O164  1  0.67842602  0.42451545  0.91321648  1
  O2-  O165  1  0.68107402  0.93097612  0.23574228  1
  O2-  O166  1  0.67939814  0.93191545  0.56923687  1
  O2-  O167  1  0.67878423  0.93268586  0.90284682  1
  O2-  O168  1  0.42888566  0.31864428  0.10099979  1
  O2-  O169  1  0.43036983  0.32586253  0.42410379  1
  O2-  O170  1  0.42942640  0.32559413  0.75451372  1
  O2-  O171  1  0.43005696  0.82400528  0.09689915  1
  O2-  O172  1  0.43341930  0.82121643  0.43262351  1
  O2-  O173  1  0.43222142  0.82030611  0.76426483  1
  O2-  O174  1  0.93093989  0.32046520  0.09779190  1
  O2-  O175  1  0.92525761  0.31819552  0.42310259  1
  O2-  O176  1  0.92904150  0.32071252  0.75249338  1
  O2-  O177  1  0.92982336  0.82110384  0.09094984  1
  O2-  O178  1  0.92464363  0.82024610  0.42226878  1
  O2-  O179  1  0.92458623  0.82323912  0.75488970  1
  O2-  O180  1  0.31698579  0.07081959  0.23241837  1
  O2-  O181  1  0.32142615  0.06810791  0.56886585  1
  O2-  O182  1  0.31961609  0.07227259  0.90985920  1
  O2-  O183  1  0.32158594  0.57238868  0.23430179  1
  O2-  O184  1  0.31681033  0.57308336  0.56886013  1
  O2-  O185  1  0.31825239  0.57381346  0.90084284  1
  O2-  O186  1  0.82488829  0.07468208  0.24466131  1
  O2-  O187  1  0.82430421  0.07129747  0.57759619  1
  O2-  O188  1  0.82680447  0.06944906  0.91189996  1
  O2-  O189  1  0.82330362  0.56806665  0.24408539  1
  O2-  O190  1  0.82287304  0.56832177  0.57619363  1
  O2-  O191  1  0.82119024  0.56659721  0.90072891  1
  O2-  O192  1  0.04576618  0.08641010  0.27278458  1
  O2-  O193  1  0.04258444  0.08171598  0.59471396  1
  O2-  O194  1  0.04587899  0.07769893  0.93303146  1
  O2-  O195  1  0.03507043  0.58266881  0.26612640  1
  O2-  O196  1  0.03905497  0.58299959  0.59592441  1
  O2-  O197  1  0.04113475  0.58298501  0.93166851  1
  O2-  O198  1  0.53616842  0.08474670  0.26385231  1
  O2-  O199  1  0.53590848  0.08548072  0.60102282  1
  O2-  O200  1  0.53877512  0.08633249  0.93789610  1
  O2-  O201  1  0.55481001  0.57886167  0.27371460  1
  O2-  O202  1  0.54795364  0.58219232  0.60676248  1
  O2-  O203  1  0.55224524  0.57829138  0.93713862  1
  O2-  O204  1  0.16551492  0.20671590  0.27417344  1
  O2-  O205  1  0.16904243  0.21090486  0.59679040  1
  O2-  O206  1  0.16863027  0.20735304  0.93088783  1
  O2-  O207  1  0.16441823  0.71091364  0.26292645  1
  O2-  O208  1  0.16387054  0.71418151  0.59504830  1
  O2-  O209  1  0.16445178  0.71511602  0.93147186  1
  O2-  O210  1  0.66715986  0.20793679  0.26348677  1
  O2-  O211  1  0.66687539  0.20980659  0.60096662  1
  O2-  O212  1  0.66712296  0.19432768  0.94069148  1
  O2-  O213  1  0.66887391  0.70275584  0.27430287  1
  O2-  O214  1  0.66965228  0.69887338  0.60636634  1
  O2-  O215  1  0.67195860  0.70854944  0.93478654  1
  O2-  O216  1  0.08456809  0.44943387  0.05675071  1
  O2-  O217  1  0.07878628  0.45586469  0.40258688  1
  O2-  O218  1  0.08104977  0.45318261  0.72853180  1
  O2-  O219  1  0.08505420  0.95390702  0.06430395  1
  O2-  O220  1  0.07989980  0.95040436  0.39511642  1
  O2-  O221  1  0.08054626  0.95001649  0.72577490  1
  O2-  O222  1  0.58477845  0.45071370  0.06624919  1
  O2-  O223  1  0.58792965  0.44867224  0.39577645  1
  O2-  O224  1  0.58313757  0.45583995  0.73572729  1
  O2-  O225  1  0.58240155  0.96407691  0.07027511  1
  O2-  O226  1  0.58449402  0.96497230  0.40133315  1
  O2-  O227  1  0.58441891  0.96453632  0.73701934  1
  O2-  O228  1  0.20868611  0.33458063  0.05991929  1
  O2-  O229  1  0.20574470  0.33227853  0.40422634  1
  O2-  O230  1  0.20048851  0.33455076  0.73081538  1
  O2-  O231  1  0.20799724  0.83923182  0.06375288  1
  O2-  O232  1  0.20157821  0.83465699  0.39303401  1
  O2-  O233  1  0.20556986  0.83651447  0.72774601  1
  O2-  O234  1  0.70264693  0.32981115  0.06353141  1
  O2-  O235  1  0.71347636  0.33542670  0.39396569  1
  O2-  O236  1  0.71226409  0.33286146  0.73573225  1
  O2-  O237  1  0.71007095  0.83507385  0.07170673  1
  O2-  O238  1  0.70943391  0.83396114  0.40487995  1
  O2-  O239  1  0.70831465  0.83200957  0.73590579  1
  O2-  O240  1  0.45495092  0.41730702  0.27208333  1
  O2-  O241  1  0.45523663  0.42008259  0.60422435  1
  O2-  O242  1  0.45952042  0.41805750  0.93274374  1
  O2-  O243  1  0.46537083  0.91384677  0.26406543  1
  O2-  O244  1  0.46439484  0.91719368  0.59954210  1
  O2-  O245  1  0.45983669  0.92078898  0.93199203  1
  O2-  O246  1  0.95620952  0.41175181  0.27135481  1
  O2-  O247  1  0.95306556  0.41347988  0.59914531  1
  O2-  O248  1  0.95677161  0.41660212  0.92682481  1
  O2-  O249  1  0.94644540  0.91743291  0.27140120  1
  O2-  O250  1  0.94828140  0.91557743  0.60105665  1
  O2-  O251  1  0.95120127  0.91450370  0.93845301  1
  O2-  O252  1  0.33376148  0.29665137  0.27429314  1
  O2-  O253  1  0.33263540  0.30346428  0.60499091  1
  O2-  O254  1  0.33692612  0.28970182  0.92891481  1
  O2-  O255  1  0.33312008  0.79572316  0.26495326  1
  O2-  O256  1  0.33496953  0.79164309  0.59722696  1
  O2-  O257  1  0.33008161  0.79776173  0.93014339  1
  O2-  O258  1  0.83959814  0.29136420  0.26655979  1
  O2-  O259  1  0.83524192  0.29311317  0.60108053  1
  O2-  O260  1  0.82851868  0.29429284  0.93062443  1
  O2-  O261  1  0.83143937  0.79350029  0.27209064  1
  O2-  O262  1  0.83137240  0.79514942  0.60276600  1
  O2-  O263  1  0.83289786  0.79554137  0.94141837  1
  O2-  O264  1  0.40993394  0.04336146  0.06359585  1
  O2-  O265  1  0.41525161  0.03511663  0.39899275  1
  O2-  O266  1  0.41438571  0.03838515  0.73789514  1
  O2-  O267  1  0.41835863  0.54213559  0.06676834  1
  O2-  O268  1  0.42099477  0.54693288  0.40210057  1
  O2-  O269  1  0.41515319  0.54511633  0.73624401  1
  O2-  O270  1  0.91792109  0.04550986  0.06477392  1
  O2-  O271  1  0.91724575  0.04905602  0.39697354  1
  O2-  O272  1  0.91854361  0.04614133  0.72816906  1
  O2-  O273  1  0.91842006  0.53436502  0.06774715  1
  O2-  O274  1  0.91044720  0.53667266  0.39848017  1
  O2-  O275  1  0.91608449  0.54000131  0.72716621  1
  O2-  O276  1  0.29183197  0.16471615  0.06170430  1
  O2-  O277  1  0.29356694  0.16574326  0.40250631  1
  O2-  O278  1  0.29218807  0.17050832  0.73319624  1
  O2-  O279  1  0.28951687  0.67108771  0.06574018  1
  O2-  O280  1  0.29033808  0.67279897  0.39864832  1
  O2-  O281  1  0.28406324  0.67023491  0.73327990  1
  O2-  O282  1  0.80153088  0.16706428  0.06196132  1
  O2-  O283  1  0.79783122  0.16798031  0.39561833  1
  O2-  O284  1  0.79932531  0.16542098  0.72882341  1
  O2-  O285  1  0.79317637  0.66384763  0.07134982  1
  O2-  O286  1  0.79755700  0.66102979  0.39825603  1
  O2-  O287  1  0.80434838  0.66538253  0.72772826  1
