# generated using pymatgen
data_Ca2Al2SiO7
_symmetry_space_group_name_H-M   'P 1'
_cell_length_a   15.45369750
_cell_length_b   15.45416774
_cell_length_c   15.28061086
_cell_angle_alpha   89.99351621
_cell_angle_beta   89.99992812
_cell_angle_gamma   89.99112111
_symmetry_Int_Tables_number   1
_chemical_formula_structural   Ca2Al2SiO7
_chemical_formula_sum   'Ca48 Al48 Si24 O168'
_cell_volume   3649.37704891
_cell_formula_units_Z   24
loop_
 _symmetry_equiv_pos_site_id
 _symmetry_equiv_pos_as_xyz
  1  'x, y, z'
loop_
 _atom_type_symbol
 _atom_type_oxidation_number
  Ca2+  2.0
  Al0+  0.0
  Si0+  0.0
  O2-  -2.0
loop_
 _atom_site_type_symbol
 _atom_site_label
 _atom_site_symmetry_multiplicity
 _atom_site_fract_x
 _atom_site_fract_y
 _atom_site_fract_z
 _atom_site_occupancy
  Ca2+  Ca0  1  0.16299663  0.08123528  0.16751680  1
  Ca2+  Ca1  1  0.16643984  0.08381164  0.50304332  1
  Ca2+  Ca2  1  0.17432384  0.07590294  0.84821309  1
  Ca2+  Ca3  1  0.16858211  0.58661745  0.17402640  1
  Ca2+  Ca4  1  0.17360711  0.59154805  0.50217506  1
  Ca2+  Ca5  1  0.17023060  0.59143820  0.83487665  1
  Ca2+  Ca6  1  0.66620475  0.08036900  0.16896434  1
  Ca2+  Ca7  1  0.67251909  0.08967064  0.50265974  1
  Ca2+  Ca8  1  0.65995810  0.07814639  0.84103182  1
  Ca2+  Ca9  1  0.67803525  0.58377576  0.17440457  1
  Ca2+  Ca10  1  0.66800409  0.56970119  0.50251618  1
  Ca2+  Ca11  1  0.66900989  0.58014385  0.84191546  1
  Ca2+  Ca12  1  0.07765177  0.32467132  0.16507433  1
  Ca2+  Ca13  1  0.07598647  0.32724987  0.48802849  1
  Ca2+  Ca14  1  0.08435017  0.32711708  0.83433445  1
  Ca2+  Ca15  1  0.08336263  0.82309457  0.16134627  1
  Ca2+  Ca16  1  0.07921211  0.82201281  0.49860563  1
  Ca2+  Ca17  1  0.08242989  0.82596420  0.82832365  1
  Ca2+  Ca18  1  0.58152834  0.33369626  0.16542133  1
  Ca2+  Ca19  1  0.57966836  0.34052922  0.49767594  1
  Ca2+  Ca20  1  0.58137973  0.32218281  0.82414758  1
  Ca2+  Ca21  1  0.58082357  0.83103384  0.16004622  1
  Ca2+  Ca22  1  0.56886197  0.83190321  0.49528037  1
  Ca2+  Ca23  1  0.58196000  0.82943393  0.83125954  1
  Ca2+  Ca24  1  0.33342674  0.42262095  0.17619403  1
  Ca2+  Ca25  1  0.34142839  0.42744465  0.50456023  1
  Ca2+  Ca26  1  0.33672404  0.42020956  0.83106742  1
  Ca2+  Ca27  1  0.33062674  0.92107789  0.16764000  1
  Ca2+  Ca28  1  0.33455310  0.91216701  0.50452459  1
  Ca2+  Ca29  1  0.33063434  0.92094285  0.84211191  1
  Ca2+  Ca30  1  0.82972939  0.42412864  0.17686909  1
  Ca2+  Ca31  1  0.82597980  0.41417235  0.50028263  1
  Ca2+  Ca32  1  0.82691059  0.42325835  0.83807214  1
  Ca2+  Ca33  1  0.82570482  0.92046811  0.17078509  1
  Ca2+  Ca34  1  0.83926818  0.92292021  0.50247622  1
  Ca2+  Ca35  1  0.82834954  0.91358989  0.83941928  1
  Ca2+  Ca36  1  0.41842286  0.17362682  0.15937212  1
  Ca2+  Ca37  1  0.42350104  0.18138725  0.49582932  1
  Ca2+  Ca38  1  0.42576153  0.16619769  0.82787755  1
  Ca2+  Ca39  1  0.42113497  0.66970719  0.16529527  1
  Ca2+  Ca40  1  0.40723718  0.67353718  0.49397019  1
  Ca2+  Ca41  1  0.42040638  0.67165247  0.82675094  1
  Ca2+  Ca42  1  0.92001500  0.16737438  0.16837908  1
  Ca2+  Ca43  1  0.92011125  0.17107135  0.48712733  1
  Ca2+  Ca44  1  0.92450648  0.16207849  0.83173640  1
  Ca2+  Ca45  1  0.92385115  0.65596833  0.16049195  1
  Ca2+  Ca46  1  0.92613308  0.66254398  0.49426611  1
  Ca2+  Ca47  1  0.92467103  0.66961455  0.82931296  1
  Al0+  Al48  1  -0.00031217  0.00009394  0.00057102  1
  Al0+  Al49  1  -0.00037767  -0.00350173  0.33454735  1
  Al0+  Al50  1  0.00064562  -0.00154881  0.66549029  1
  Al0+  Al51  1  0.00069409  0.50021665  -0.00304118  1
  Al0+  Al52  1  0.00076897  0.49789408  0.32969994  1
  Al0+  Al53  1  0.00176520  0.49784098  0.66457184  1
  Al0+  Al54  1  0.49910327  0.00207492  0.00588219  1
  Al0+  Al55  1  0.49696488  -0.00020592  0.33043636  1
  Al0+  Al56  1  0.50188501  0.00020329  0.65791495  1
  Al0+  Al57  1  0.49968114  0.50106685  -0.00395998  1
  Al0+  Al58  1  0.49975868  0.50203133  0.33609183  1
  Al0+  Al59  1  0.50070159  0.49932902  0.67568251  1
  Al0+  Al60  1  0.24838144  0.25237565  -0.00085466  1
  Al0+  Al61  1  0.25209902  0.24862563  0.32638510  1
  Al0+  Al62  1  0.25226091  0.25098050  0.66468169  1
  Al0+  Al63  1  0.24940867  0.75089159  0.00058505  1
  Al0+  Al64  1  0.24876506  0.75205721  0.32779571  1
  Al0+  Al65  1  0.24954949  0.74991802  0.66571597  1
  Al0+  Al66  1  0.74808322  0.25117930  -0.00448391  1
  Al0+  Al67  1  0.74980877  0.24825035  0.33638431  1
  Al0+  Al68  1  0.75256824  0.24869107  0.67138045  1
  Al0+  Al69  1  0.74959174  0.74977028  0.00509808  1
  Al0+  Al70  1  0.74961744  0.75044435  0.34165362  1
  Al0+  Al71  1  0.75070225  0.75217512  0.66204790  1
  Al0+  Al72  1  0.43107896  0.32397911  0.31888918  1
  Al0+  Al73  1  0.42993620  0.32229359  0.65158488  1
  Al0+  Al74  1  0.67874553  0.42897487  0.34761615  1
  Al0+  Al75  1  0.57243806  0.67962513  0.98793636  1
  Al0+  Al76  1  0.82517051  0.57165171  0.35048571  1
  Al0+  Al77  1  0.31817511  0.57166447  0.34507351  1
  Al0+  Al78  1  0.32087868  0.07327815  0.01560642  1
  Al0+  Al79  1  0.92711861  0.82243214  0.65114233  1
  Al0+  Al80  1  0.42803748  0.82157191  0.31649344  1
  Al0+  Al81  1  0.92655001  0.32014319  0.31812629  1
  Al0+  Al82  1  0.68046287  0.42884865  0.68438078  1
  Al0+  Al83  1  0.67894298  0.92933911  0.01291806  1
  Al0+  Al84  1  0.56970575  0.17967896  0.98738341  1
  Al0+  Al85  1  0.06985238  0.17839983  0.98556441  1
  Al0+  Al86  1  0.06849560  0.67981191  0.31845754  1
  Al0+  Al87  1  0.17761497  0.92778343  0.01608452  1
  Al0+  Al88  1  0.82058803  0.56965957  0.01204797  1
  Al0+  Al89  1  0.31891032  0.57195424  0.68191315  1
  Al0+  Al90  1  0.57346493  0.17818708  0.64999315  1
  Al0+  Al91  1  0.07169576  0.67878887  0.98512426  1
  Al0+  Al92  1  0.07029036  0.67802183  0.65082643  1
  Al0+  Al93  1  0.07206634  0.17542863  0.31830494  1
  Al0+  Al94  1  0.43038250  0.81915417  0.65512930  1
  Al0+  Al95  1  0.81977086  0.06758290  0.34637625  1
  Si0+  Si96  1  0.42907904  0.82166380  0.98449671  1
  Si0+  Si97  1  0.32177244  0.57116636  0.01482390  1
  Si0+  Si98  1  0.57260990  0.67947402  0.31871495  1
  Si0+  Si99  1  0.92705030  0.82203535  0.98605299  1
  Si0+  Si100  1  0.17972843  0.93075413  0.68119577  1
  Si0+  Si101  1  0.18027109  0.92966829  0.35027987  1
  Si0+  Si102  1  0.82224202  0.07441797  0.01554791  1
  Si0+  Si103  1  0.82280106  0.06956834  0.68344794  1
  Si0+  Si104  1  0.42630950  0.32411292  0.98205807  1
  Si0+  Si105  1  0.17952565  0.42498612  0.34804505  1
  Si0+  Si106  1  0.67669853  0.42739652  0.01623211  1
  Si0+  Si107  1  0.17631938  0.42517663  0.68385005  1
  Si0+  Si108  1  0.07192894  0.17847761  0.65359209  1
  Si0+  Si109  1  0.92551790  0.82140451  0.31593336  1
  Si0+  Si110  1  0.92998418  0.31931168  0.65338396  1
  Si0+  Si111  1  0.32195192  0.07196467  0.67905329  1
  Si0+  Si112  1  0.82388194  0.57297961  0.68315994  1
  Si0+  Si113  1  0.67748036  0.92971412  0.68026895  1
  Si0+  Si114  1  0.17861115  0.42982933  0.01535562  1
  Si0+  Si115  1  0.57159695  0.17808198  0.31602264  1
  Si0+  Si116  1  0.32166759  0.07244143  0.35046547  1
  Si0+  Si117  1  0.67408092  0.92773744  0.35279306  1
  Si0+  Si118  1  0.57352946  0.67621452  0.65078608  1
  Si0+  Si119  1  0.92781708  0.32217841  0.98147593  1
  O2-  O120  1  0.24737807  0.00242150  0.06583595  1
  O2-  O121  1  0.24901016  0.00305866  0.39352859  1
  O2-  O122  1  0.25081712  0.00187636  0.72284145  1
  O2-  O123  1  0.25045555  0.50048565  0.05680624  1
  O2-  O124  1  0.24618449  0.49488535  0.39339909  1
  O2-  O125  1  0.24362635  0.49617655  0.72742754  1
  O2-  O126  1  0.75257382  0.00597951  0.05831959  1
  O2-  O127  1  0.74436416  -0.00488557  0.39668834  1
  O2-  O128  1  0.75051166  -0.00114182  0.72357215  1
  O2-  O129  1  0.74501617  0.49631401  0.05955322  1
  O2-  O130  1  0.75288248  0.49891684  0.39872613  1
  O2-  O131  1  0.75273376  0.50757393  0.72913183  1
  O2-  O132  1  -0.00015444  0.24808692  0.26983239  1
  O2-  O133  1  0.00264299  0.25003358  0.61124216  1
  O2-  O134  1  -0.00665846  0.25017300  0.93659676  1
  O2-  O135  1  -0.01295459  0.74692394  0.27106921  1
  O2-  O136  1  -0.00605615  0.74576454  0.60154678  1
  O2-  O137  1  -0.00197172  0.75585123  0.94127759  1
  O2-  O138  1  0.50507238  0.24887455  0.27206627  1
  O2-  O139  1  0.50479933  0.25359682  0.60103060  1
  O2-  O140  1  0.49460657  0.25374069  0.94023160  1
  O2-  O141  1  0.50678209  0.75024221  0.27286643  1
  O2-  O142  1  0.50222168  0.74241899  0.60669891  1
  O2-  O143  1  0.49770913  0.75356413  0.93959873  1
  O2-  O144  1  0.06829521  0.18059515  0.09786702  1
  O2-  O145  1  0.07120592  0.17693494  0.43303081  1
  O2-  O146  1  0.07056268  0.17731159  0.75866684  1
  O2-  O147  1  0.07114846  0.67756030  0.09800719  1
  O2-  O148  1  0.07183513  0.68405996  0.43135190  1
  O2-  O149  1  0.07081842  0.68192781  0.76465727  1
  O2-  O150  1  0.57082115  0.18209998  0.10030711  1
  O2-  O151  1  0.56938574  0.17648058  0.42149567  1
  O2-  O152  1  0.56963235  0.17502152  0.76379327  1
  O2-  O153  1  0.57052052  0.67981243  0.10089679  1
  O2-  O154  1  0.57020613  0.68045647  0.42448484  1
  O2-  O155  1  0.57424697  0.68032480  0.75681472  1
  O2-  O156  1  0.18178812  0.42550070  0.24205792  1
  O2-  O157  1  0.17453111  0.42073099  0.57881680  1
  O2-  O158  1  0.17865738  0.42863906  0.91004327  1
  O2-  O159  1  0.18135144  0.92953013  0.24550065  1
  O2-  O160  1  0.17921711  0.93273821  0.57588981  1
  O2-  O161  1  0.18059810  0.92801081  0.90159517  1
  O2-  O162  1  0.67832750  0.43146576  0.23368334  1
  O2-  O163  1  0.68272685  0.42834258  0.57157980  1
  O2-  O164  1  0.67889609  0.42776458  0.91048103  1
  O2-  O165  1  0.67453369  0.92855506  0.24698717  1
  O2-  O166  1  0.67624024  0.93195847  0.57551873  1
  O2-  O167  1  0.67977202  0.92946426  0.89918957  1
  O2-  O168  1  0.42748662  0.32644557  0.08777082  1
  O2-  O169  1  0.43088732  0.32340117  0.43166484  1
  O2-  O170  1  0.42802424  0.31724732  0.76527854  1
  O2-  O171  1  0.42928090  0.81927689  0.09001036  1
  O2-  O172  1  0.42728138  0.82030371  0.43005752  1
  O2-  O173  1  0.43219542  0.82111756  0.76825764  1
  O2-  O174  1  0.92894370  0.32272299  0.08652416  1
  O2-  O175  1  0.92871792  0.31706194  0.43259884  1
  O2-  O176  1  0.93100168  0.31759142  0.75870232  1
  O2-  O177  1  0.92644909  0.82134226  0.09147920  1
  O2-  O178  1  0.93097397  0.82464103  0.42140727  1
  O2-  O179  1  0.92896879  0.82519757  0.76496716  1
  O2-  O180  1  0.32288221  0.07148513  0.24575525  1
  O2-  O181  1  0.31844148  0.07239477  0.57390411  1
  O2-  O182  1  0.32141854  0.06987196  0.90093857  1
  O2-  O183  1  0.31768017  0.57056791  0.23150145  1
  O2-  O184  1  0.31675297  0.57368537  0.56887635  1
  O2-  O185  1  0.32132379  0.57088134  0.90967730  1
  O2-  O186  1  0.81853384  0.06566163  0.23323300  1
  O2-  O187  1  0.82526126  0.06999212  0.57848955  1
  O2-  O188  1  0.82322683  0.07276774  0.90947220  1
  O2-  O189  1  0.82271623  0.57133574  0.23655931  1
  O2-  O190  1  0.82447034  0.56933778  0.57800841  1
  O2-  O191  1  0.82004301  0.56849209  0.89849295  1
  O2-  O192  1  0.04173835  0.07688619  0.26740864  1
  O2-  O193  1  0.04329067  0.08726002  0.60593118  1
  O2-  O194  1  0.04130216  0.08099751  0.93069407  1
  O2-  O195  1  0.04699865  0.58047328  0.26610790  1
  O2-  O196  1  0.04894264  0.57699198  0.60002115  1
  O2-  O197  1  0.04105758  0.58275345  0.92981470  1
  O2-  O198  1  0.54299130  0.08527984  0.26997008  1
  O2-  O199  1  0.54386742  0.08242668  0.59330333  1
  O2-  O200  1  0.53855217  0.08219186  0.93436427  1
  O2-  O201  1  0.54457510  0.58752983  0.27174353  1
  O2-  O202  1  0.54973016  0.58098473  0.60966474  1
  O2-  O203  1  0.54178825  0.58379119  0.93162841  1
  O2-  O204  1  0.17009135  0.20198872  0.26465123  1
  O2-  O205  1  0.16424226  0.20383585  0.60656097  1
  O2-  O206  1  0.16558743  0.21252095  0.93070123  1
  O2-  O207  1  0.16175453  0.71784227  0.26290334  1
  O2-  O208  1  0.16630843  0.71339424  0.59792138  1
  O2-  O209  1  0.16885861  0.70985313  0.93176080  1
  O2-  O210  1  0.66612685  0.20019671  0.27163162  1
  O2-  O211  1  0.67513887  0.20324103  0.60307926  1
  O2-  O212  1  0.66634418  0.20752919  0.93052970  1
  O2-  O213  1  0.66792710  0.70379431  0.27522198  1
  O2-  O214  1  0.66586705  0.70244823  0.60333664  1
  O2-  O215  1  0.66845509  0.71149984  0.93344446  1
  O2-  O216  1  0.08707620  0.45824873  0.06219415  1
  O2-  O217  1  0.08480444  0.44765619  0.39226159  1
  O2-  O218  1  0.08219603  0.44801279  0.73141905  1
  O2-  O219  1  0.07819229  0.95423029  0.06784018  1
  O2-  O220  1  0.08795240  0.95431116  0.39844924  1
  O2-  O221  1  0.08819575  0.95902447  0.72930791  1
  O2-  O222  1  0.58169397  0.45221548  0.05941260  1
  O2-  O223  1  0.58252553  0.46227765  0.40299926  1
  O2-  O224  1  0.58384417  0.45526813  0.74041567  1
  O2-  O225  1  0.58375232  0.95943233  0.06928400  1
  O2-  O226  1  0.57996334  0.95558039  0.39710506  1
  O2-  O227  1  0.58620183  0.95986331  0.72817326  1
  O2-  O228  1  0.20496139  0.33843331  0.06377785  1
  O2-  O229  1  0.20518161  0.33075969  0.39315207  1
  O2-  O230  1  0.20581628  0.33249236  0.73226842  1
  O2-  O231  1  0.20852142  0.83029520  0.06991056  1
  O2-  O232  1  0.21303920  0.83955434  0.39780598  1
  O2-  O233  1  0.20796643  0.83928775  0.72810316  1
  O2-  O234  1  0.70205341  0.33338913  0.06124689  1
  O2-  O235  1  0.70371945  0.32968340  0.40061898  1
  O2-  O236  1  0.71549777  0.33272378  0.73868534  1
  O2-  O237  1  0.71060790  0.83511069  0.07068067  1
  O2-  O238  1  0.69609334  0.83419355  0.40013288  1
  O2-  O239  1  0.70271014  0.83644091  0.72710696  1
  O2-  O240  1  0.46079169  0.42088097  0.26475957  1
  O2-  O241  1  0.45686532  0.42309275  0.60365935  1
  O2-  O242  1  0.45268803  0.41682960  0.93444511  1
  O2-  O243  1  0.45620300  0.91899814  0.26285037  1
  O2-  O244  1  0.46153845  0.91357462  0.59678681  1
  O2-  O245  1  0.45430751  0.91618865  0.94115883  1
  O2-  O246  1  0.95544250  0.41721246  0.26364299  1
  O2-  O247  1  0.95478721  0.41107728  0.60528353  1
  O2-  O248  1  0.95948259  0.41284136  0.93259988  1
  O2-  O249  1  0.95728197  0.91202146  0.26796426  1
  O2-  O250  1  0.96231610  0.91885295  0.59644552  1
  O2-  O251  1  0.94827726  0.91673957  0.93993530  1
  O2-  O252  1  0.33570970  0.29228513  0.26322819  1
  O2-  O253  1  0.33183914  0.29301540  0.59751260  1
  O2-  O254  1  0.33192847  0.30138665  0.93682606  1
  O2-  O255  1  0.33378235  0.78852092  0.26100476  1
  O2-  O256  1  0.33348301  0.79094924  0.60067435  1
  O2-  O257  1  0.33579866  0.79531635  0.93827741  1
  O2-  O258  1  0.82877071  0.28988344  0.26543812  1
  O2-  O259  1  0.83956217  0.28836186  0.60644400  1
  O2-  O260  1  0.83328899  0.30010139  0.93540298  1
  O2-  O261  1  0.82750678  0.80478607  0.27615170  1
  O2-  O262  1  0.82679383  0.80425139  0.59796400  1
  O2-  O263  1  0.83468530  0.79351370  0.93905478  1
  O2-  O264  1  0.41723659  0.04466910  0.07172724  1
  O2-  O265  1  0.41282124  0.04238206  0.39813337  1
  O2-  O266  1  0.41464119  0.04181870  0.72320646  1
  O2-  O267  1  0.41391269  0.54292074  0.06165959  1
  O2-  O268  1  0.41509417  0.54490093  0.39978639  1
  O2-  O269  1  0.41519262  0.54314226  0.73825681  1
  O2-  O270  1  0.91510574  0.04883928  0.06216459  1
  O2-  O271  1  0.91615838  0.03555917  0.40224546  1
  O2-  O272  1  0.91457840  0.03959596  0.73140892  1
  O2-  O273  1  0.91743043  0.53671224  0.06426231  1
  O2-  O274  1  0.92412366  0.54166442  0.40151448  1
  O2-  O275  1  0.91730885  0.54378645  0.72881177  1
  O2-  O276  1  0.29332939  0.17316058  0.06571416  1
  O2-  O277  1  0.29473549  0.16515421  0.39693922  1
  O2-  O278  1  0.29543865  0.16363741  0.72742221  1
  O2-  O279  1  0.29510199  0.66334522  0.06127236  1
  O2-  O280  1  0.28395184  0.66843372  0.39745887  1
  O2-  O281  1  0.28666372  0.66831954  0.73718029  1
  O2-  O282  1  0.79613211  0.16868825  0.05951892  1
  O2-  O283  1  0.79116370  0.16377288  0.40258828  1
  O2-  O284  1  0.79876674  0.16099394  0.73307613  1
  O2-  O285  1  0.79225400  0.66539227  0.06802918  1
  O2-  O286  1  0.79912396  0.67083615  0.40388190  1
  O2-  O287  1  0.80147092  0.66948377  0.72518320  1
