# generated using pymatgen
data_Ca2Al2SiO7
_symmetry_space_group_name_H-M   'P 1'
_cell_length_a   15.45850252
_cell_length_b   15.45891417
_cell_length_c   15.28346069
_cell_angle_alpha   89.99116715
_cell_angle_beta   90.01521120
_cell_angle_gamma   89.97862109
_symmetry_Int_Tables_number   1
_chemical_formula_structural   Ca2Al2SiO7
_chemical_formula_sum   'Ca48 Al48 Si24 O168'
_cell_volume   3652.31360213
_cell_formula_units_Z   24
loop_
 _symmetry_equiv_pos_site_id
 _symmetry_equiv_pos_as_xyz
  1  'x, y, z'
loop_
 _atom_type_symbol
 _atom_type_oxidation_number
  Ca2+  2.0
  Al0+  0.0
  Si0+  0.0
  O2-  -2.0
loop_
 _atom_site_type_symbol
 _atom_site_label
 _atom_site_symmetry_multiplicity
 _atom_site_fract_x
 _atom_site_fract_y
 _atom_site_fract_z
 _atom_site_occupancy
  Ca2+  Ca0  1  0.17290429  0.07817640  0.17554738  1
  Ca2+  Ca1  1  0.16432447  0.07976291  0.50149337  1
  Ca2+  Ca2  1  0.17381830  0.08490322  0.84157129  1
  Ca2+  Ca3  1  0.16368053  0.57960184  0.17619126  1
  Ca2+  Ca4  1  0.16321946  0.58112907  0.50168014  1
  Ca2+  Ca5  1  0.16382920  0.58655805  0.83745005  1
  Ca2+  Ca6  1  0.66799799  0.08365696  0.17095429  1
  Ca2+  Ca7  1  0.66441261  0.07874413  0.50890609  1
  Ca2+  Ca8  1  0.67022283  0.08241865  0.83706466  1
  Ca2+  Ca9  1  0.67051981  0.59477984  0.17044205  1
  Ca2+  Ca10  1  0.66090576  0.57673821  0.50488953  1
  Ca2+  Ca11  1  0.66572540  0.57789175  0.84239848  1
  Ca2+  Ca12  1  0.08819314  0.32937700  0.16905586  1
  Ca2+  Ca13  1  0.08493136  0.32188363  0.49362230  1
  Ca2+  Ca14  1  0.07755026  0.32549244  0.82747476  1
  Ca2+  Ca15  1  0.08258019  0.82564226  0.16111009  1
  Ca2+  Ca16  1  0.08483689  0.82372330  0.49185195  1
  Ca2+  Ca17  1  0.07594142  0.82586402  0.83019101  1
  Ca2+  Ca18  1  0.57259368  0.32406716  0.16059684  1
  Ca2+  Ca19  1  0.58541828  0.32372543  0.49404761  1
  Ca2+  Ca20  1  0.58504536  0.32378819  0.82977331  1
  Ca2+  Ca21  1  0.58603547  0.82934181  0.16785607  1
  Ca2+  Ca22  1  0.57601511  0.84025199  0.49264624  1
  Ca2+  Ca23  1  0.58102169  0.83328480  0.82891495  1
  Ca2+  Ca24  1  0.33350965  0.41366221  0.17401781  1
  Ca2+  Ca25  1  0.33211635  0.41323256  0.49769558  1
  Ca2+  Ca26  1  0.33073271  0.41387148  0.84015591  1
  Ca2+  Ca27  1  0.33265947  0.92053558  0.17355595  1
  Ca2+  Ca28  1  0.33135049  0.90793306  0.50149589  1
  Ca2+  Ca29  1  0.33469262  0.92148679  0.83710704  1
  Ca2+  Ca30  1  0.83386137  0.42636485  0.16812735  1
  Ca2+  Ca31  1  0.82604029  0.41882712  0.50632950  1
  Ca2+  Ca32  1  0.82535271  0.42080945  0.83726579  1
  Ca2+  Ca33  1  0.83014716  0.91772757  0.16976275  1
  Ca2+  Ca34  1  0.81769013  0.92172327  0.50629264  1
  Ca2+  Ca35  1  0.83315146  0.92552742  0.83841792  1
  Ca2+  Ca36  1  0.42307878  0.17108099  0.16101161  1
  Ca2+  Ca37  1  0.43146749  0.17006332  0.49189104  1
  Ca2+  Ca38  1  0.42680849  0.16433999  0.83385451  1
  Ca2+  Ca39  1  0.42746721  0.67148256  0.16603961  1
  Ca2+  Ca40  1  0.42425246  0.67903139  0.49294786  1
  Ca2+  Ca41  1  0.42197993  0.67347313  0.82981811  1
  Ca2+  Ca42  1  0.92249605  0.16053362  0.16353483  1
  Ca2+  Ca43  1  0.92407244  0.15856454  0.50001045  1
  Ca2+  Ca44  1  0.91788045  0.15865739  0.82637734  1
  Ca2+  Ca45  1  0.92412928  0.67319291  0.15620877  1
  Ca2+  Ca46  1  0.92645129  0.66510518  0.49513895  1
  Ca2+  Ca47  1  0.92154122  0.66657621  0.83542271  1
  Al0+  Al48  1  -0.00091100  -0.00212798  0.00060104  1
  Al0+  Al49  1  0.00167286  0.00018436  0.33425261  1
  Al0+  Al50  1  -0.00022172  -0.00286218  0.66517850  1
  Al0+  Al51  1  -0.00137285  0.49808156  0.00042668  1
  Al0+  Al52  1  0.00150204  0.49944287  0.33621341  1
  Al0+  Al53  1  0.00052908  0.49847652  0.66372161  1
  Al0+  Al54  1  0.49944306  0.00113108  0.00237120  1
  Al0+  Al55  1  0.50080593  0.00128364  0.32890587  1
  Al0+  Al56  1  0.49787601  0.00095347  0.66330491  1
  Al0+  Al57  1  0.49633841  0.49922111  -0.00572688  1
  Al0+  Al58  1  0.50124134  0.50103275  0.32838506  1
  Al0+  Al59  1  0.49718043  0.50102203  0.67276859  1
  Al0+  Al60  1  0.25013405  0.24948694  0.00151953  1
  Al0+  Al61  1  0.24879247  0.25049778  0.33248904  1
  Al0+  Al62  1  0.24854208  0.25027235  0.66422886  1
  Al0+  Al63  1  0.25040109  0.74754562  -0.00248204  1
  Al0+  Al64  1  0.25149209  0.74961994  0.32988077  1
  Al0+  Al65  1  0.25012544  0.74884387  0.66117545  1
  Al0+  Al66  1  0.74995655  0.24967404  0.00353027  1
  Al0+  Al67  1  0.75314310  0.25318906  0.33000744  1
  Al0+  Al68  1  0.75012657  0.25211837  0.67090480  1
  Al0+  Al69  1  0.75082378  0.74982498  -0.00526155  1
  Al0+  Al70  1  0.75202839  0.75307259  0.33890782  1
  Al0+  Al71  1  0.75064612  0.74911406  0.67068557  1
  Al0+  Al72  1  0.82190843  0.07165314  0.01576184  1
  Al0+  Al73  1  0.57398086  0.67982882  0.32094023  1
  Al0+  Al74  1  0.57107772  0.18182441  0.65365407  1
  Al0+  Al75  1  0.57511338  0.17830390  0.31757061  1
  Al0+  Al76  1  0.18015186  0.92770376  0.34704237  1
  Al0+  Al77  1  0.07163008  0.67644869  0.98494626  1
  Al0+  Al78  1  0.06919339  0.67929722  0.65091551  1
  Al0+  Al79  1  0.07137785  0.17722195  0.65399816  1
  Al0+  Al80  1  0.92869672  0.82240809  0.98391627  1
  Al0+  Al81  1  0.81925379  0.57054564  0.01363910  1
  Al0+  Al82  1  0.42944917  0.32069685  0.31968526  1
  Al0+  Al83  1  0.67731867  0.43062421  0.68093474  1
  Al0+  Al84  1  0.06920171  0.17817524  0.31889895  1
  Al0+  Al85  1  0.67951100  0.93153718  0.34671371  1
  Al0+  Al86  1  0.43118025  0.82094746  0.65383723  1
  Al0+  Al87  1  0.82092855  0.06957116  0.68119636  1
  Al0+  Al88  1  0.32068196  0.07063685  0.01439758  1
  Al0+  Al89  1  0.57259133  0.17823763  0.98327248  1
  Al0+  Al90  1  0.57121371  0.67983809  0.98561913  1
  Al0+  Al91  1  0.07045709  0.67831858  0.31954035  1
  Al0+  Al92  1  0.17983408  0.42910774  0.34893041  1
  Al0+  Al93  1  0.42651382  0.31974531  0.98279579  1
  Al0+  Al94  1  0.42857109  0.82260229  0.31657492  1
  Al0+  Al95  1  0.67444989  0.92869297  0.68317658  1
  Si0+  Si96  1  0.82171324  0.57205414  0.34900891  1
  Si0+  Si97  1  0.92841831  0.32160150  0.65040649  1
  Si0+  Si98  1  0.67770773  0.92793503  0.01674018  1
  Si0+  Si99  1  0.17965497  0.92625414  0.68109253  1
  Si0+  Si100  1  0.92863911  0.32127701  0.98591203  1
  Si0+  Si101  1  0.17862389  0.42920851  0.01467154  1
  Si0+  Si102  1  0.31789717  0.57194444  0.68254449  1
  Si0+  Si103  1  0.92869238  0.32396241  0.31558907  1
  Si0+  Si104  1  0.42755207  0.82232959  0.98358580  1
  Si0+  Si105  1  0.17854004  0.92655611  0.01500277  1
  Si0+  Si106  1  0.42654765  0.32440998  0.65017223  1
  Si0+  Si107  1  0.06952982  0.17898505  0.98691438  1
  Si0+  Si108  1  0.92624932  0.82233606  0.64740632  1
  Si0+  Si109  1  0.82479342  0.57107703  0.68361995  1
  Si0+  Si110  1  0.92891475  0.82162549  0.31842927  1
  Si0+  Si111  1  0.32437037  0.57180246  0.35049852  1
  Si0+  Si112  1  0.67543264  0.42892215  0.01876700  1
  Si0+  Si113  1  0.67918785  0.43008868  0.34629617  1
  Si0+  Si114  1  0.31846991  0.07228794  0.68017396  1
  Si0+  Si115  1  0.32116589  0.57175322  0.01550858  1
  Si0+  Si116  1  0.82309121  0.07500500  0.34986485  1
  Si0+  Si117  1  0.17892401  0.42786059  0.68264063  1
  Si0+  Si118  1  0.32134914  0.07225678  0.35125411  1
  Si0+  Si119  1  0.57289248  0.67631332  0.65270806  1
  O2-  O120  1  0.24768056  -0.00607613  0.05994369  1
  O2-  O121  1  0.25594049  0.00047689  0.39650078  1
  O2-  O122  1  0.24681082  0.00118605  0.72304879  1
  O2-  O123  1  0.24835376  0.50172160  0.05615942  1
  O2-  O124  1  0.25514585  0.50344684  0.39579717  1
  O2-  O125  1  0.24859678  0.49914909  0.72584829  1
  O2-  O126  1  0.74566202  -0.00197210  0.06062141  1
  O2-  O127  1  0.74964019  0.01134687  0.39304569  1
  O2-  O128  1  0.74829214  -0.00081106  0.73289735  1
  O2-  O129  1  0.74112395  0.50073296  0.06345757  1
  O2-  O130  1  0.74819781  0.50290593  0.39007718  1
  O2-  O131  1  0.74982111  0.50855548  0.72660083  1
  O2-  O132  1  -0.00604828  0.25189927  0.27153443  1
  O2-  O133  1  -0.00599057  0.24941686  0.60751730  1
  O2-  O134  1  -0.00509423  0.24556744  0.94376270  1
  O2-  O135  1  -0.00124578  0.75485923  0.27304643  1
  O2-  O136  1  -0.00703009  0.75143527  0.60334161  1
  O2-  O137  1  0.00086027  0.74928372  0.93503911  1
  O2-  O138  1  0.50042716  0.24854557  0.26950896  1
  O2-  O139  1  0.49811669  0.25884255  0.60713526  1
  O2-  O140  1  0.50096242  0.25088601  0.93282929  1
  O2-  O141  1  0.50311731  0.75184706  0.26944395  1
  O2-  O142  1  0.51153453  0.75106801  0.60865300  1
  O2-  O143  1  0.49747424  0.75535236  0.93888912  1
  O2-  O144  1  0.07013483  0.18110067  0.09185462  1
  O2-  O145  1  0.06755433  0.17852296  0.43218847  1
  O2-  O146  1  0.07411639  0.18106931  0.76759214  1
  O2-  O147  1  0.07092794  0.67609747  0.09836200  1
  O2-  O148  1  0.06734484  0.67745349  0.43293263  1
  O2-  O149  1  0.06927377  0.67966334  0.76377326  1
  O2-  O150  1  0.57192866  0.18023556  0.09646798  1
  O2-  O151  1  0.57586139  0.18109543  0.43173284  1
  O2-  O152  1  0.56943716  0.18141982  0.76634432  1
  O2-  O153  1  0.57051245  0.68183300  0.09846263  1
  O2-  O154  1  0.57214614  0.67720330  0.43468516  1
  O2-  O155  1  0.56780152  0.67360594  0.75817407  1
  O2-  O156  1  0.17855534  0.43123300  0.23553511  1
  O2-  O157  1  0.17974190  0.42701770  0.57790749  1
  O2-  O158  1  0.17851685  0.42789396  0.90906374  1
  O2-  O159  1  0.17908037  0.93016920  0.23390710  1
  O2-  O160  1  0.18141448  0.92519861  0.57607642  1
  O2-  O161  1  0.17921043  0.92853097  0.90881138  1
  O2-  O162  1  0.68186205  0.42979157  0.24162749  1
  O2-  O163  1  0.67881443  0.43166865  0.56710522  1
  O2-  O164  1  0.67897116  0.42942859  0.91283686  1
  O2-  O165  1  0.68522702  0.92715504  0.23384991  1
  O2-  O166  1  0.67469749  0.93136218  0.56942968  1
  O2-  O167  1  0.67681504  0.92919372  0.91118416  1
  O2-  O168  1  0.42527067  0.31884491  0.09598100  1
  O2-  O169  1  0.43248692  0.32034035  0.43388608  1
  O2-  O170  1  0.42361237  0.32250134  0.75540885  1
  O2-  O171  1  0.42523945  0.82022981  0.08864861  1
  O2-  O172  1  0.42877693  0.81951669  0.43046154  1
  O2-  O173  1  0.42761370  0.81784897  0.76711834  1
  O2-  O174  1  0.93246371  0.32466928  0.09081204  1
  O2-  O175  1  0.92783768  0.32579720  0.42117762  1
  O2-  O176  1  0.93230965  0.32546160  0.75618221  1
  O2-  O177  1  0.93108377  0.82181159  0.09788405  1
  O2-  O178  1  0.92894603  0.81809802  0.42408681  1
  O2-  O179  1  0.92964409  0.82377180  0.75273182  1
  O2-  O180  1  0.31730986  0.07222290  0.24554314  1
  O2-  O181  1  0.31692537  0.07379754  0.57540004  1
  O2-  O182  1  0.31787913  0.06987759  0.90035644  1
  O2-  O183  1  0.32398681  0.57059575  0.24477834  1
  O2-  O184  1  0.31800705  0.57150736  0.57776470  1
  O2-  O185  1  0.31983999  0.57286247  0.91002548  1
  O2-  O186  1  0.82468131  0.07256855  0.24422061  1
  O2-  O187  1  0.82164720  0.06809125  0.56753773  1
  O2-  O188  1  0.82453840  0.07074882  0.90303672  1
  O2-  O189  1  0.82285083  0.57124373  0.24398988  1
  O2-  O190  1  0.82735434  0.56763258  0.57764208  1
  O2-  O191  1  0.82070948  0.56484342  0.90058991  1
  O2-  O192  1  0.04001080  0.08170709  0.26391223  1
  O2-  O193  1  0.04415049  0.07952030  0.60054128  1
  O2-  O194  1  0.04667495  0.08582254  0.94061798  1
  O2-  O195  1  0.03796738  0.58163889  0.26755106  1
  O2-  O196  1  0.04071773  0.58101948  0.59821100  1
  O2-  O197  1  0.04097624  0.57801449  0.93236149  1
  O2-  O198  1  0.54872334  0.08061805  0.26438610  1
  O2-  O199  1  0.53650015  0.08700342  0.59919119  1
  O2-  O200  1  0.54154210  0.07957435  0.93216381  1
  O2-  O201  1  0.54719495  0.58254541  0.26530700  1
  O2-  O202  1  0.53935831  0.58489091  0.60595283  1
  O2-  O203  1  0.53796073  0.58407560  0.93152736  1
  O2-  O204  1  0.16459903  0.21153327  0.26524274  1
  O2-  O205  1  0.16552599  0.21232270  0.59783390  1
  O2-  O206  1  0.15936937  0.21145826  0.93880449  1
  O2-  O207  1  0.16814119  0.70418086  0.26721519  1
  O2-  O208  1  0.16492739  0.71088929  0.59669797  1
  O2-  O209  1  0.17068494  0.70290776  0.93167909  1
  O2-  O210  1  0.67334177  0.20851508  0.26562355  1
  O2-  O211  1  0.66853724  0.21259137  0.60161060  1
  O2-  O212  1  0.67224325  0.20762424  0.93290498  1
  O2-  O213  1  0.67337903  0.70928016  0.27052329  1
  O2-  O214  1  0.67068316  0.69041588  0.61175763  1
  O2-  O215  1  0.66754880  0.70595935  0.92994554  1
  O2-  O216  1  0.08666137  0.45480950  0.06244217  1
  O2-  O217  1  0.08359502  0.46016319  0.40466173  1
  O2-  O218  1  0.08622413  0.45497407  0.72917596  1
  O2-  O219  1  0.08567873  0.95252439  0.06135150  1
  O2-  O220  1  0.08373992  0.95943800  0.40220751  1
  O2-  O221  1  0.08641735  0.94988086  0.72695528  1
  O2-  O222  1  0.57920741  0.45157906  0.05959194  1
  O2-  O223  1  0.58722410  0.45647895  0.39416618  1
  O2-  O224  1  0.58030431  0.45837448  0.73645972  1
  O2-  O225  1  0.58379956  0.95141470  0.06302720  1
  O2-  O226  1  0.58047535  0.95799873  0.39816965  1
  O2-  O227  1  0.57549956  0.95792069  0.73473037  1
  O2-  O228  1  0.20746691  0.33814782  0.06289945  1
  O2-  O229  1  0.20959372  0.33211559  0.40358421  1
  O2-  O230  1  0.20708639  0.33630124  0.73141252  1
  O2-  O231  1  0.20315667  0.83165978  0.05915950  1
  O2-  O232  1  0.20985730  0.82999936  0.40065196  1
  O2-  O233  1  0.21184702  0.83590839  0.72894466  1
  O2-  O234  1  0.70534823  0.33707424  0.06528532  1
  O2-  O235  1  0.71054777  0.33950454  0.39538952  1
  O2-  O236  1  0.71218418  0.33705138  0.73793369  1
  O2-  O237  1  0.70580169  0.83425995  0.06083151  1
  O2-  O238  1  0.71362863  0.83712692  0.40502065  1
  O2-  O239  1  0.69923356  0.82744158  0.73299539  1
  O2-  O240  1  0.45640940  0.41890858  0.26590232  1
  O2-  O241  1  0.44821848  0.42033007  0.60727660  1
  O2-  O242  1  0.44906899  0.41950566  0.92997224  1
  O2-  O243  1  0.45376519  0.92108833  0.26419446  1
  O2-  O244  1  0.45396387  0.91828852  0.59828490  1
  O2-  O245  1  0.45161109  0.91656506  0.93879612  1
  O2-  O246  1  0.95965735  0.41559160  0.26881649  1
  O2-  O247  1  0.95784692  0.41259279  0.60086250  1
  O2-  O248  1  0.96154420  0.40939178  0.93450282  1
  O2-  O249  1  0.95234576  0.91593505  0.27393894  1
  O2-  O250  1  0.95412671  0.91409199  0.59965214  1
  O2-  O251  1  0.96026772  0.91954894  0.92902969  1
  O2-  O252  1  0.33017483  0.29489111  0.26823052  1
  O2-  O253  1  0.33361710  0.29677656  0.60368285  1
  O2-  O254  1  0.32790543  0.28922679  0.92970795  1
  O2-  O255  1  0.33181232  0.79220247  0.26232098  1
  O2-  O256  1  0.33724769  0.78397854  0.59834744  1
  O2-  O257  1  0.33493969  0.79471445  0.93574030  1
  O2-  O258  1  0.83508517  0.30406817  0.26754396  1
  O2-  O259  1  0.83374484  0.30053439  0.60557595  1
  O2-  O260  1  0.83504185  0.29891726  0.94063998  1
  O2-  O261  1  0.83665034  0.79367170  0.27206677  1
  O2-  O262  1  0.83096609  0.79801148  0.60369154  1
  O2-  O263  1  0.83184395  0.79453057  0.92903806  1
  O2-  O264  1  0.41710397  0.04217064  0.06935776  1
  O2-  O265  1  0.41717515  0.05044837  0.39370865  1
  O2-  O266  1  0.40925186  0.04281418  0.72791045  1
  O2-  O267  1  0.41239733  0.54239244  0.06299411  1
  O2-  O268  1  0.41800133  0.54528233  0.39705224  1
  O2-  O269  1  0.40932510  0.54693301  0.73250975  1
  O2-  O270  1  0.91887192  0.03927204  0.06975537  1
  O2-  O271  1  0.91525625  0.04500353  0.39657375  1
  O2-  O272  1  0.92058134  0.03968270  0.73353364  1
  O2-  O273  1  0.91466059  0.53448970  0.06841471  1
  O2-  O274  1  0.91122773  0.53902334  0.39824090  1
  O2-  O275  1  0.91596639  0.53762180  0.73075693  1
  O2-  O276  1  0.28590750  0.16574406  0.06877071  1
  O2-  O277  1  0.29187632  0.16441605  0.39766899  1
  O2-  O278  1  0.28954596  0.16379586  0.72860418  1
  O2-  O279  1  0.29559255  0.66400290  0.06331430  1
  O2-  O280  1  0.29787388  0.66518950  0.39600805  1
  O2-  O281  1  0.28630177  0.66239107  0.73081850  1
  O2-  O282  1  0.79615538  0.16975470  0.07020955  1
  O2-  O283  1  0.80514089  0.17194222  0.39273176  1
  O2-  O284  1  0.79858385  0.17021815  0.73223444  1
  O2-  O285  1  0.79305886  0.66921224  0.06560083  1
  O2-  O286  1  0.79805349  0.66355266  0.39860255  1
  O2-  O287  1  0.80799671  0.66701750  0.72737078  1
