# generated using pymatgen
data_Ca2Al2SiO7
_symmetry_space_group_name_H-M   'P 1'
_cell_length_a   15.45698335
_cell_length_b   15.45759638
_cell_length_c   15.28360988
_cell_angle_alpha   90.00201171
_cell_angle_beta   90.00099909
_cell_angle_gamma   90.00532962
_symmetry_Int_Tables_number   1
_chemical_formula_structural   Ca2Al2SiO7
_chemical_formula_sum   'Ca48 Al48 Si24 O168'
_cell_volume   3651.67941806
_cell_formula_units_Z   24
loop_
 _symmetry_equiv_pos_site_id
 _symmetry_equiv_pos_as_xyz
  1  'x, y, z'
loop_
 _atom_type_symbol
 _atom_type_oxidation_number
  Ca2+  2.0
  Al0+  0.0
  Si0+  0.0
  O2-  -2.0
loop_
 _atom_site_type_symbol
 _atom_site_label
 _atom_site_symmetry_multiplicity
 _atom_site_fract_x
 _atom_site_fract_y
 _atom_site_fract_z
 _atom_site_occupancy
  Ca2+  Ca0  1  0.17490981  0.07723781  0.16685042  1
  Ca2+  Ca1  1  0.17033848  0.07729534  0.51382742  1
  Ca2+  Ca2  1  0.17735730  0.07576657  0.83595948  1
  Ca2+  Ca3  1  0.16679812  0.58503792  0.17606059  1
  Ca2+  Ca4  1  0.16438196  0.57516467  0.49725933  1
  Ca2+  Ca5  1  0.16351450  0.57769828  0.83606357  1
  Ca2+  Ca6  1  0.67156355  0.08477310  0.17586684  1
  Ca2+  Ca7  1  0.67602836  0.08617001  0.49605643  1
  Ca2+  Ca8  1  0.67693179  0.09082836  0.83812982  1
  Ca2+  Ca9  1  0.66616413  0.57430440  0.17633301  1
  Ca2+  Ca10  1  0.66398540  0.57146006  0.50422440  1
  Ca2+  Ca11  1  0.66187413  0.57587000  0.83199805  1
  Ca2+  Ca12  1  0.07751284  0.33733618  0.16829862  1
  Ca2+  Ca13  1  0.08406232  0.32865713  0.49452655  1
  Ca2+  Ca14  1  0.08412093  0.32320725  0.82212973  1
  Ca2+  Ca15  1  0.08499768  0.82474867  0.16373566  1
  Ca2+  Ca16  1  0.08013925  0.83131132  0.49088064  1
  Ca2+  Ca17  1  0.09448454  0.83287237  0.83117682  1
  Ca2+  Ca18  1  0.58991493  0.32167194  0.16551871  1
  Ca2+  Ca19  1  0.58206025  0.33169325  0.49537104  1
  Ca2+  Ca20  1  0.57643191  0.32758667  0.82650990  1
  Ca2+  Ca21  1  0.57237636  0.84398797  0.16608325  1
  Ca2+  Ca22  1  0.57279940  0.84045781  0.49243232  1
  Ca2+  Ca23  1  0.57002783  0.83756965  0.82930017  1
  Ca2+  Ca24  1  0.32537737  0.42833097  0.17999023  1
  Ca2+  Ca25  1  0.32590883  0.41984907  0.50631790  1
  Ca2+  Ca26  1  0.32819717  0.40947002  0.83149839  1
  Ca2+  Ca27  1  0.33500892  0.91408848  0.16723985  1
  Ca2+  Ca28  1  0.33143032  0.91986301  0.50747652  1
  Ca2+  Ca29  1  0.33013478  0.92031964  0.83712535  1
  Ca2+  Ca30  1  0.83013268  0.41570860  0.17774440  1
  Ca2+  Ca31  1  0.82312331  0.40683135  0.49955123  1
  Ca2+  Ca32  1  0.82595904  0.41413396  0.83352357  1
  Ca2+  Ca33  1  0.82854785  0.92731515  0.17800301  1
  Ca2+  Ca34  1  0.83356507  0.92398470  0.50313645  1
  Ca2+  Ca35  1  0.83412387  0.93033016  0.83883523  1
  Ca2+  Ca36  1  0.43072404  0.16061230  0.16091697  1
  Ca2+  Ca37  1  0.41724904  0.17206761  0.49594864  1
  Ca2+  Ca38  1  0.41826373  0.16336336  0.82634761  1
  Ca2+  Ca39  1  0.40915092  0.67763504  0.16626995  1
  Ca2+  Ca40  1  0.41011132  0.67794067  0.49416787  1
  Ca2+  Ca41  1  0.41200215  0.68042971  0.82901529  1
  Ca2+  Ca42  1  0.90787305  0.17016359  0.16674581  1
  Ca2+  Ca43  1  0.92011981  0.16452356  0.49537401  1
  Ca2+  Ca44  1  0.92228978  0.15908772  0.82743189  1
  Ca2+  Ca45  1  0.92726258  0.67001824  0.16437907  1
  Ca2+  Ca46  1  0.92325407  0.67532523  0.48809036  1
  Ca2+  Ca47  1  0.92382366  0.67026951  0.83069555  1
  Al0+  Al48  1  -0.00004672  0.00108725  0.01036671  1
  Al0+  Al49  1  0.00166431  0.00110812  0.33109667  1
  Al0+  Al50  1  0.00036931  -0.00130883  0.67056738  1
  Al0+  Al51  1  -0.00230228  0.50104395  -0.00568383  1
  Al0+  Al52  1  0.00006833  0.49851897  0.33006671  1
  Al0+  Al53  1  -0.00103339  0.50009684  0.67021103  1
  Al0+  Al54  1  0.50165381  0.00111816  -0.00878800  1
  Al0+  Al55  1  0.50116262  0.00153607  0.32964045  1
  Al0+  Al56  1  0.50262194  0.00006809  0.66337376  1
  Al0+  Al57  1  0.49854163  0.49889019  0.00116131  1
  Al0+  Al58  1  0.49789606  0.50248792  0.34172368  1
  Al0+  Al59  1  0.49985626  0.49923290  0.66896339  1
  Al0+  Al60  1  0.24843776  0.24970189  0.00703438  1
  Al0+  Al61  1  0.25010608  0.25072878  0.33331003  1
  Al0+  Al62  1  0.25051057  0.24976263  0.66526351  1
  Al0+  Al63  1  0.24915536  0.74808241  -0.00641994  1
  Al0+  Al64  1  0.25055763  0.75080574  0.33004101  1
  Al0+  Al65  1  0.25013396  0.74803188  0.66361519  1
  Al0+  Al66  1  0.74882241  0.25111746  -0.00200254  1
  Al0+  Al67  1  0.75140310  0.24968294  0.33387919  1
  Al0+  Al68  1  0.74981356  0.25099872  0.67607339  1
  Al0+  Al69  1  0.75103744  0.74864714  -0.00163507  1
  Al0+  Al70  1  0.74751106  0.75121011  0.33264715  1
  Al0+  Al71  1  0.75041159  0.74879177  0.66767718  1
  Al0+  Al72  1  0.42912151  0.32026133  0.65250159  1
  Al0+  Al73  1  0.17948150  0.92659383  0.67992668  1
  Al0+  Al74  1  0.82008317  0.06939819  0.68117235  1
  Al0+  Al75  1  0.06981248  0.17794813  0.65519444  1
  Al0+  Al76  1  0.17814353  0.42910676  0.68096143  1
  Al0+  Al77  1  0.43059735  0.82103704  0.31929099  1
  Al0+  Al78  1  0.43092812  0.81934398  0.98432038  1
  Al0+  Al79  1  0.32355357  0.07163466  0.67906915  1
  Al0+  Al80  1  0.56909655  0.18327686  0.32128641  1
  Al0+  Al81  1  0.93078765  0.31753846  0.32164181  1
  Al0+  Al82  1  0.67839079  0.42949337  0.68268069  1
  Al0+  Al83  1  0.42983883  0.82089239  0.65088573  1
  Al0+  Al84  1  0.32404686  0.07150024  0.01611834  1
  Al0+  Al85  1  0.17690050  0.42780288  0.34851671  1
  Al0+  Al86  1  0.18125401  0.92649329  0.01728366  1
  Al0+  Al87  1  0.57076072  0.18065462  0.98407936  1
  Al0+  Al88  1  0.92562715  0.82479017  0.31790783  1
  Al0+  Al89  1  0.06943350  0.68049953  0.31891123  1
  Al0+  Al90  1  0.67670836  0.92858485  0.34785003  1
  Al0+  Al91  1  0.81993920  0.07191284  0.01622673  1
  Al0+  Al92  1  0.67950651  0.42893070  0.34627859  1
  Al0+  Al93  1  0.82256608  0.07074140  0.34935980  1
  Al0+  Al94  1  0.31955388  0.57404757  0.34974098  1
  Al0+  Al95  1  0.06954606  0.67990544  0.98293634  1
  Si0+  Si96  1  0.67908143  0.43112256  0.01555221  1
  Si0+  Si97  1  0.82221510  0.57069544  0.01498657  1
  Si0+  Si98  1  0.82203418  0.57411657  0.68487448  1
  Si0+  Si99  1  0.07165716  0.17886852  0.98658750  1
  Si0+  Si100  1  0.07634480  0.17631618  0.31442444  1
  Si0+  Si101  1  0.92864764  0.82044198  0.65329885  1
  Si0+  Si102  1  0.42599014  0.32314500  0.98573124  1
  Si0+  Si103  1  0.42602430  0.32521496  0.31710148  1
  Si0+  Si104  1  0.31959145  0.56951455  0.01308265  1
  Si0+  Si105  1  0.57206356  0.67507864  0.31808332  1
  Si0+  Si106  1  0.32111908  0.57113293  0.68536083  1
  Si0+  Si107  1  0.17583705  0.42883379  0.01465168  1
  Si0+  Si108  1  0.82243638  0.57286535  0.34814964  1
  Si0+  Si109  1  0.67846622  0.92633356  0.01413709  1
  Si0+  Si110  1  0.92777958  0.82399177  0.98316666  1
  Si0+  Si111  1  0.07026475  0.67671109  0.65026125  1
  Si0+  Si112  1  0.67847878  0.92518987  0.68401600  1
  Si0+  Si113  1  0.92741622  0.32239984  0.65180003  1
  Si0+  Si114  1  0.92911965  0.32092492  0.98313374  1
  Si0+  Si115  1  0.57291995  0.67773737  0.64989187  1
  Si0+  Si116  1  0.57400959  0.67350309  0.98348071  1
  Si0+  Si117  1  0.57551218  0.17903797  0.64877807  1
  Si0+  Si118  1  0.18080999  0.93027923  0.34687895  1
  Si0+  Si119  1  0.32278752  0.07110830  0.34704588  1
  O2-  O120  1  0.25519822  -0.00315694  0.06739945  1
  O2-  O121  1  0.24797140  0.00445848  0.38921295  1
  O2-  O122  1  0.25355620  -0.00275982  0.72854664  1
  O2-  O123  1  0.24903016  0.49799988  0.05514992  1
  O2-  O124  1  0.25087901  0.49794540  0.39800236  1
  O2-  O125  1  0.25295525  0.50227949  0.73074550  1
  O2-  O126  1  0.74715420  -0.00592357  0.05929674  1
  O2-  O127  1  0.75461726  -0.00590799  0.39809665  1
  O2-  O128  1  0.74487967  -0.00448785  0.72893995  1
  O2-  O129  1  0.74735850  0.50451873  0.05757949  1
  O2-  O130  1  0.75161650  0.50671887  0.39303240  1
  O2-  O131  1  0.75315663  0.50506927  0.72885440  1
  O2-  O132  1  0.00590097  0.24470398  0.27182629  1
  O2-  O133  1  -0.00390385  0.25408927  0.60845623  1
  O2-  O134  1  0.00021366  0.24952925  0.94281747  1
  O2-  O135  1  -0.00361621  0.75125704  0.26805389  1
  O2-  O136  1  0.00011775  0.74977037  0.61089413  1
  O2-  O137  1  -0.00181131  0.75816068  0.93618800  1
  O2-  O138  1  0.49542191  0.25840269  0.27178075  1
  O2-  O139  1  0.50291562  0.24437782  0.60604696  1
  O2-  O140  1  0.49071475  0.25148124  0.94048755  1
  O2-  O141  1  0.50628103  0.74616234  0.27329694  1
  O2-  O142  1  0.50666251  0.74752281  0.60485147  1
  O2-  O143  1  0.50830004  0.74494315  0.93972261  1
  O2-  O144  1  0.07260164  0.18276734  0.09150705  1
  O2-  O145  1  0.07796528  0.17552656  0.42003438  1
  O2-  O146  1  0.06795636  0.17874396  0.76895599  1
  O2-  O147  1  0.06689220  0.67573753  0.09533470  1
  O2-  O148  1  0.06821677  0.68208540  0.43292628  1
  O2-  O149  1  0.06852495  0.67525398  0.75564417  1
  O2-  O150  1  0.57407709  0.18420897  0.09714178  1
  O2-  O151  1  0.56770470  0.18452502  0.43425844  1
  O2-  O152  1  0.57686748  0.18213144  0.75468630  1
  O2-  O153  1  0.57385855  0.66793543  0.08847781  1
  O2-  O154  1  0.57128675  0.67300144  0.42348305  1
  O2-  O155  1  0.57227266  0.67866665  0.75592882  1
  O2-  O156  1  0.17789547  0.42970146  0.23403327  1
  O2-  O157  1  0.17608819  0.43201068  0.56871904  1
  O2-  O158  1  0.17577132  0.42805088  0.90941251  1
  O2-  O159  1  0.18303458  0.92964068  0.24188991  1
  O2-  O160  1  0.17815837  0.92727971  0.56589669  1
  O2-  O161  1  0.18264178  0.92842978  0.90376892  1
  O2-  O162  1  0.68242507  0.42965608  0.23247595  1
  O2-  O163  1  0.68081833  0.42936339  0.56981533  1
  O2-  O164  1  0.67962572  0.43226262  0.91046670  1
  O2-  O165  1  0.67381381  0.93398282  0.23401984  1
  O2-  O166  1  0.68126786  0.92212935  0.57893196  1
  O2-  O167  1  0.68161438  0.92564738  0.90831018  1
  O2-  O168  1  0.42964424  0.32831449  0.09091002  1
  O2-  O169  1  0.42525257  0.32234613  0.42260453  1
  O2-  O170  1  0.43114055  0.32049761  0.76620610  1
  O2-  O171  1  0.43136336  0.81704796  0.09743333  1
  O2-  O172  1  0.42933701  0.82132921  0.43219697  1
  O2-  O173  1  0.43007626  0.81825171  0.76417555  1
  O2-  O174  1  0.92870817  0.32370365  0.08814529  1
  O2-  O175  1  0.92971908  0.31569815  0.43458788  1
  O2-  O176  1  0.92867809  0.32253298  0.75804063  1
  O2-  O177  1  0.92539405  0.81899559  0.08802516  1
  O2-  O178  1  0.92998515  0.82348261  0.43240977  1
  O2-  O179  1  0.92672544  0.81820740  0.75849245  1
  O2-  O180  1  0.32305614  0.06951036  0.24193855  1
  O2-  O181  1  0.32115381  0.07078410  0.56491732  1
  O2-  O182  1  0.32102547  0.07376283  0.90293955  1
  O2-  O183  1  0.31829918  0.57353610  0.23512633  1
  O2-  O184  1  0.31977106  0.57160560  0.58022994  1
  O2-  O185  1  0.32009396  0.56777964  0.90799035  1
  O2-  O186  1  0.81709015  0.07352941  0.23579988  1
  O2-  O187  1  0.82071064  0.06928325  0.56869014  1
  O2-  O188  1  0.82011171  0.07208405  0.90275522  1
  O2-  O189  1  0.82152469  0.56954304  0.24199723  1
  O2-  O190  1  0.82234533  0.57711648  0.57981113  1
  O2-  O191  1  0.82345635  0.56794365  0.90986742  1
  O2-  O192  1  0.05265438  0.08300416  0.26772706  1
  O2-  O193  1  0.03812034  0.08141572  0.60122065  1
  O2-  O194  1  0.04293838  0.08605726  0.94230697  1
  O2-  O195  1  0.04245411  0.58182831  0.26541611  1
  O2-  O196  1  0.03885610  0.58561101  0.60360384  1
  O2-  O197  1  0.03315784  0.58487130  0.92692530  1
  O2-  O198  1  0.53740004  0.08824404  0.26497091  1
  O2-  O199  1  0.55709548  0.08334537  0.60506623  1
  O2-  O200  1  0.54753582  0.08391735  0.92739486  1
  O2-  O201  1  0.54388912  0.58202180  0.27079389  1
  O2-  O202  1  0.54669113  0.58375044  0.60579830  1
  O2-  O203  1  0.54421113  0.58118230  0.93533941  1
  O2-  O204  1  0.16889556  0.20419906  0.26628948  1
  O2-  O205  1  0.16559914  0.20817263  0.60045686  1
  O2-  O206  1  0.16359157  0.20804107  0.93958705  1
  O2-  O207  1  0.16635001  0.71150788  0.26463605  1
  O2-  O208  1  0.16247233  0.70135481  0.60363326  1
  O2-  O209  1  0.16631620  0.70516444  0.92704432  1
  O2-  O210  1  0.66518880  0.21499558  0.26673909  1
  O2-  O211  1  0.66800292  0.21161723  0.60476252  1
  O2-  O212  1  0.66497860  0.21886174  0.92874512  1
  O2-  O213  1  0.66690492  0.69478341  0.27168586  1
  O2-  O214  1  0.66852879  0.69880109  0.60554079  1
  O2-  O215  1  0.66933060  0.69463612  0.93751242  1
  O2-  O216  1  0.08365246  0.46020588  0.05914623  1
  O2-  O217  1  0.07858791  0.45681123  0.40083661  1
  O2-  O218  1  0.08155981  0.45977355  0.73671200  1
  O2-  O219  1  0.08342940  0.95522704  0.07095352  1
  O2-  O220  1  0.08775998  0.95460046  0.39316325  1
  O2-  O221  1  0.08208767  0.95404850  0.73498448  1
  O2-  O222  1  0.58627017  0.45582215  0.06263409  1
  O2-  O223  1  0.58288159  0.45655587  0.40126838  1
  O2-  O224  1  0.58299193  0.46211577  0.73882083  1
  O2-  O225  1  0.58430285  0.95304714  0.05664971  1
  O2-  O226  1  0.58095331  0.96481352  0.40203271  1
  O2-  O227  1  0.58423277  0.95024931  0.72826435  1
  O2-  O228  1  0.19893985  0.33734811  0.06413599  1
  O2-  O229  1  0.20368589  0.32816815  0.40003767  1
  O2-  O230  1  0.20994178  0.33302962  0.73510813  1
  O2-  O231  1  0.20860459  0.82565871  0.06608930  1
  O2-  O232  1  0.21059966  0.83955240  0.39394565  1
  O2-  O233  1  0.20683570  0.82697208  0.73131143  1
  O2-  O234  1  0.71154414  0.34078988  0.06176583  1
  O2-  O235  1  0.71491269  0.33519080  0.40138699  1
  O2-  O236  1  0.71091009  0.33604431  0.74155169  1
  O2-  O237  1  0.70028598  0.83077506  0.05906311  1
  O2-  O238  1  0.69447589  0.82654468  0.39817526  1
  O2-  O239  1  0.70390492  0.83164652  0.73140370  1
  O2-  O240  1  0.44973896  0.42095988  0.27486187  1
  O2-  O241  1  0.46093132  0.41770224  0.60051687  1
  O2-  O242  1  0.45480205  0.41520642  0.93669027  1
  O2-  O243  1  0.46198625  0.91661093  0.26358617  1
  O2-  O244  1  0.45972408  0.91797522  0.59710852  1
  O2-  O245  1  0.46079654  0.91496627  0.92820734  1
  O2-  O246  1  0.95871481  0.41406056  0.26441804  1
  O2-  O247  1  0.95011400  0.41745582  0.60765861  1
  O2-  O248  1  0.95606261  0.41209082  0.93370310  1
  O2-  O249  1  0.95546149  0.92244640  0.26470293  1
  O2-  O250  1  0.95618916  0.91178539  0.60641421  1
  O2-  O251  1  0.95151081  0.92005340  0.94166151  1
  O2-  O252  1  0.33255186  0.30015982  0.27006242  1
  O2-  O253  1  0.33268002  0.29236821  0.59736346  1
  O2-  O254  1  0.32947905  0.30133149  0.94342434  1
  O2-  O255  1  0.33557851  0.78834514  0.26346046  1
  O2-  O256  1  0.33363474  0.78720616  0.59734471  1
  O2-  O257  1  0.33624738  0.78435981  0.92947832  1
  O2-  O258  1  0.83536338  0.28712217  0.26419083  1
  O2-  O259  1  0.83258302  0.29608686  0.60945850  1
  O2-  O260  1  0.83718756  0.29371424  0.93574456  1
  O2-  O261  1  0.82555234  0.79961982  0.26647651  1
  O2-  O262  1  0.83690209  0.79184978  0.60555650  1
  O2-  O263  1  0.83504878  0.79546174  0.93484413  1
  O2-  O264  1  0.42525978  0.04448788  0.06384072  1
  O2-  O265  1  0.41266315  0.04066066  0.39470263  1
  O2-  O266  1  0.42407849  0.04641150  0.72946154  1
  O2-  O267  1  0.41167416  0.54326609  0.06169896  1
  O2-  O268  1  0.41798987  0.55094409  0.40452004  1
  O2-  O269  1  0.41511130  0.54742368  0.73137695  1
  O2-  O270  1  0.91652934  0.04672920  0.07191230  1
  O2-  O271  1  0.92399763  0.04775113  0.39888587  1
  O2-  O272  1  0.91499536  0.03578331  0.73710759  1
  O2-  O273  1  0.91204359  0.53756772  0.06292895  1
  O2-  O274  1  0.91492923  0.54509562  0.39402286  1
  O2-  O275  1  0.91438488  0.54692240  0.73314652  1
  O2-  O276  1  0.29366336  0.16914015  0.07154391  1
  O2-  O277  1  0.29928351  0.16510414  0.39179511  1
  O2-  O278  1  0.29421338  0.16906073  0.73263356  1
  O2-  O279  1  0.29039087  0.66069418  0.05938302  1
  O2-  O280  1  0.28688694  0.67114139  0.40265046  1
  O2-  O281  1  0.29228741  0.66385032  0.73135841  1
  O2-  O282  1  0.78659103  0.16971725  0.06664857  1
  O2-  O283  1  0.78898630  0.16704191  0.40288164  1
  O2-  O284  1  0.79157326  0.16564122  0.73763328  1
  O2-  O285  1  0.79998155  0.66453912  0.06075622  1
  O2-  O286  1  0.80066353  0.66764766  0.39312360  1
  O2-  O287  1  0.79580930  0.66652448  0.73451042  1
