# generated using pymatgen
data_Ca2Al2SiO7
_symmetry_space_group_name_H-M   'P 1'
_cell_length_a   15.45633237
_cell_length_b   15.45718129
_cell_length_c   15.28224324
_cell_angle_alpha   89.99217308
_cell_angle_beta   90.00094910
_cell_angle_gamma   90.00003442
_symmetry_Int_Tables_number   1
_chemical_formula_structural   Ca2Al2SiO7
_chemical_formula_sum   'Ca48 Al48 Si24 O168'
_cell_volume   3651.10104603
_cell_formula_units_Z   24
loop_
 _symmetry_equiv_pos_site_id
 _symmetry_equiv_pos_as_xyz
  1  'x, y, z'
loop_
 _atom_type_symbol
 _atom_type_oxidation_number
  Ca2+  2.0
  Al0+  0.0
  Si0+  0.0
  O2-  -2.0
loop_
 _atom_site_type_symbol
 _atom_site_label
 _atom_site_symmetry_multiplicity
 _atom_site_fract_x
 _atom_site_fract_y
 _atom_site_fract_z
 _atom_site_occupancy
  Ca2+  Ca0  1  0.16926083  0.08512655  0.17067581  1
  Ca2+  Ca1  1  0.16382372  0.07698723  0.50298362  1
  Ca2+  Ca2  1  0.16953577  0.08850909  0.83784341  1
  Ca2+  Ca3  1  0.17118172  0.57899485  0.17542046  1
  Ca2+  Ca4  1  0.16936523  0.57950431  0.50370109  1
  Ca2+  Ca5  1  0.16333122  0.58479225  0.83834153  1
  Ca2+  Ca6  1  0.68103687  0.07770350  0.17622006  1
  Ca2+  Ca7  1  0.67609215  0.07731351  0.50996347  1
  Ca2+  Ca8  1  0.67050005  0.08325446  0.83510601  1
  Ca2+  Ca9  1  0.67068394  0.57894762  0.17415160  1
  Ca2+  Ca10  1  0.66447858  0.58324027  0.50505564  1
  Ca2+  Ca11  1  0.67942773  0.59039793  0.83365804  1
  Ca2+  Ca12  1  0.07738093  0.33031322  0.15824457  1
  Ca2+  Ca13  1  0.08341446  0.32727768  0.49759116  1
  Ca2+  Ca14  1  0.07575944  0.32171994  0.83172825  1
  Ca2+  Ca15  1  0.08063490  0.83189645  0.16680028  1
  Ca2+  Ca16  1  0.07732175  0.83068412  0.49283844  1
  Ca2+  Ca17  1  0.08150760  0.82058617  0.82777632  1
  Ca2+  Ca18  1  0.57917672  0.33942526  0.16943377  1
  Ca2+  Ca19  1  0.57707420  0.33577233  0.49352183  1
  Ca2+  Ca20  1  0.57537524  0.32478220  0.82254779  1
  Ca2+  Ca21  1  0.59136301  0.82904832  0.17033795  1
  Ca2+  Ca22  1  0.59335928  0.82588335  0.49624512  1
  Ca2+  Ca23  1  0.57774919  0.83415798  0.82087691  1
  Ca2+  Ca24  1  0.32483917  0.42064992  0.18199895  1
  Ca2+  Ca25  1  0.33564084  0.41646749  0.49761272  1
  Ca2+  Ca26  1  0.33269157  0.41310468  0.83398906  1
  Ca2+  Ca27  1  0.32451745  0.92376431  0.17104836  1
  Ca2+  Ca28  1  0.32669333  0.90785171  0.50374553  1
  Ca2+  Ca29  1  0.33522455  0.92186711  0.83802332  1
  Ca2+  Ca30  1  0.83326395  0.42089169  0.17009342  1
  Ca2+  Ca31  1  0.82501431  0.42301405  0.50492221  1
  Ca2+  Ca32  1  0.83958124  0.42563608  0.83748800  1
  Ca2+  Ca33  1  0.83735608  0.92689306  0.17656906  1
  Ca2+  Ca34  1  0.82650172  0.92053590  0.50271499  1
  Ca2+  Ca35  1  0.82781889  0.92628069  0.83277379  1
  Ca2+  Ca36  1  0.41361240  0.17113777  0.16345407  1
  Ca2+  Ca37  1  0.42476588  0.17610525  0.49863247  1
  Ca2+  Ca38  1  0.42135975  0.16840618  0.82196954  1
  Ca2+  Ca39  1  0.42148349  0.66125367  0.16993575  1
  Ca2+  Ca40  1  0.42726595  0.66942904  0.49549135  1
  Ca2+  Ca41  1  0.42598558  0.67641263  0.82020258  1
  Ca2+  Ca42  1  0.91775890  0.16979080  0.15765192  1
  Ca2+  Ca43  1  0.91920658  0.15406866  0.49772336  1
  Ca2+  Ca44  1  0.92044594  0.16184702  0.83043933  1
  Ca2+  Ca45  1  0.91825408  0.67412412  0.15975478  1
  Ca2+  Ca46  1  0.91668250  0.67111393  0.49638954  1
  Ca2+  Ca47  1  0.92414400  0.65804060  0.82779834  1
  Al0+  Al48  1  -0.00032074  -0.00260014  -0.00172720  1
  Al0+  Al49  1  0.00327139  -0.00098063  0.33477666  1
  Al0+  Al50  1  0.00070228  -0.00172183  0.66914587  1
  Al0+  Al51  1  -0.00032135  0.49990228  -0.00146965  1
  Al0+  Al52  1  0.00206849  0.49796557  0.33723190  1
  Al0+  Al53  1  0.00144131  0.49703816  0.66554217  1
  Al0+  Al54  1  0.49796996  -0.00004226  0.00777865  1
  Al0+  Al55  1  0.50121887  -0.00055536  0.33377570  1
  Al0+  Al56  1  0.49683608  0.00186592  0.66049941  1
  Al0+  Al57  1  0.50030300  0.50109383  -0.00343776  1
  Al0+  Al58  1  0.50043009  0.50037402  0.33106011  1
  Al0+  Al59  1  0.49745882  0.50206432  0.66303671  1
  Al0+  Al60  1  0.24928796  0.25064376  0.00116831  1
  Al0+  Al61  1  0.25054863  0.25063442  0.33310381  1
  Al0+  Al62  1  0.24632895  0.24976948  0.65895682  1
  Al0+  Al63  1  0.25107300  0.75037824  -0.00279838  1
  Al0+  Al64  1  0.25234603  0.75029556  0.33959076  1
  Al0+  Al65  1  0.24905857  0.74711033  0.66147977  1
  Al0+  Al66  1  0.74673621  0.25108157  0.00022266  1
  Al0+  Al67  1  0.75163272  0.25154123  0.34092695  1
  Al0+  Al68  1  0.75057534  0.25152053  0.66893760  1
  Al0+  Al69  1  0.75016346  0.74905190  0.00346955  1
  Al0+  Al70  1  0.75246842  0.75204407  0.32419821  1
  Al0+  Al71  1  0.75107185  0.75085013  0.67399960  1
  Al0+  Al72  1  0.82230137  0.56968179  0.01534041  1
  Al0+  Al73  1  0.82247469  0.07171923  0.34857633  1
  Al0+  Al74  1  0.57404209  0.68217562  0.65278253  1
  Al0+  Al75  1  0.67606701  0.93007973  0.68202178  1
  Al0+  Al76  1  0.07006136  0.67579916  0.65110996  1
  Al0+  Al77  1  0.82102778  0.56950084  0.67920428  1
  Al0+  Al78  1  0.18140187  0.93061045  0.34677533  1
  Al0+  Al79  1  0.07109667  0.17734435  0.98596190  1
  Al0+  Al80  1  0.43092654  0.31890795  0.31717797  1
  Al0+  Al81  1  0.42776853  0.82328143  0.65124319  1
  Al0+  Al82  1  0.57066450  0.68043564  0.31749212  1
  Al0+  Al83  1  0.82233657  0.07246027  0.68426503  1
  Al0+  Al84  1  0.67943788  0.92722709  0.34768027  1
  Al0+  Al85  1  0.31988916  0.07209359  0.01272997  1
  Al0+  Al86  1  0.93166357  0.82037486  0.31955385  1
  Al0+  Al87  1  0.42767460  0.32165972  0.65069891  1
  Al0+  Al88  1  0.82105076  0.07115774  0.01380632  1
  Al0+  Al89  1  0.07070858  0.68040493  0.98848753  1
  Al0+  Al90  1  0.92547190  0.32095147  0.98549654  1
  Al0+  Al91  1  0.57400384  0.17891875  0.65107135  1
  Al0+  Al92  1  0.17708512  0.42709255  0.34999181  1
  Al0+  Al93  1  0.32182910  0.57074064  0.34982431  1
  Al0+  Al94  1  0.68017862  0.43123389  0.34631658  1
  Al0+  Al95  1  0.06758937  0.17758810  0.65159643  1
  Si0+  Si96  1  0.67637632  0.92833250  0.01840184  1
  Si0+  Si97  1  0.82328979  0.57347785  0.34761408  1
  Si0+  Si98  1  0.42511723  0.82368431  0.31383568  1
  Si0+  Si99  1  0.06991866  0.17939649  0.31827595  1
  Si0+  Si100  1  0.57142351  0.67845247  0.98425589  1
  Si0+  Si101  1  0.32335118  0.07368327  0.35134368  1
  Si0+  Si102  1  0.92552240  0.82209488  0.98103672  1
  Si0+  Si103  1  0.67411057  0.42914854  0.68411304  1
  Si0+  Si104  1  0.17922714  0.92589262  0.68315772  1
  Si0+  Si105  1  0.31990236  0.57101066  0.68392125  1
  Si0+  Si106  1  0.42856829  0.32170410  0.98621240  1
  Si0+  Si107  1  0.67479781  0.42903757  0.01591628  1
  Si0+  Si108  1  0.92979144  0.82074562  0.65186229  1
  Si0+  Si109  1  0.18075323  0.43028085  0.01330391  1
  Si0+  Si110  1  0.43033231  0.82119470  0.98709785  1
  Si0+  Si111  1  0.56840315  0.17737264  0.98801242  1
  Si0+  Si112  1  0.92772173  0.32229910  0.31983850  1
  Si0+  Si113  1  0.07374039  0.67632336  0.31816683  1
  Si0+  Si114  1  0.17894442  0.92514467  0.01464736  1
  Si0+  Si115  1  0.32242307  0.57234512  0.01266124  1
  Si0+  Si116  1  0.57474975  0.17747972  0.31549651  1
  Si0+  Si117  1  0.17986375  0.42744859  0.68444446  1
  Si0+  Si118  1  0.31671650  0.07191400  0.67848525  1
  Si0+  Si119  1  0.92806164  0.32238942  0.64894535  1
  O2-  O120  1  0.24085646  0.00090715  0.05772719  1
  O2-  O121  1  0.25928474  0.00086976  0.39549643  1
  O2-  O122  1  0.25092581  -0.00295520  0.72381384  1
  O2-  O123  1  0.25171655  0.50158322  0.05513233  1
  O2-  O124  1  0.24763882  0.50064529  0.39961892  1
  O2-  O125  1  0.25057001  0.49873895  0.72785944  1
  O2-  O126  1  0.74869177  -0.00575208  0.06051985  1
  O2-  O127  1  0.74668939  0.00323327  0.39701172  1
  O2-  O128  1  0.74489017  0.00501307  0.73304647  1
  O2-  O129  1  0.74666941  0.49489445  0.05968681  1
  O2-  O130  1  0.75392683  0.50658869  0.39273136  1
  O2-  O131  1  0.74416034  0.49686772  0.72786443  1
  O2-  O132  1  -0.00110852  0.25104552  0.27757003  1
  O2-  O133  1  -0.01221257  0.24610187  0.60424504  1
  O2-  O134  1  -0.00626039  0.24422376  0.93640389  1
  O2-  O135  1  0.00421608  0.74286898  0.27260104  1
  O2-  O136  1  -0.00476177  0.74978328  0.60599497  1
  O2-  O137  1  -0.00588040  0.75182512  0.93888199  1
  O2-  O138  1  0.50402064  0.24336731  0.26848197  1
  O2-  O139  1  0.50599800  0.25571727  0.60236727  1
  O2-  O140  1  0.49755282  0.24881118  0.94491689  1
  O2-  O141  1  0.49635018  0.75676568  0.26999080  1
  O2-  O142  1  0.50524507  0.75689384  0.60237849  1
  O2-  O143  1  0.50297707  0.75258151  0.94398801  1
  O2-  O144  1  0.07436531  0.18229068  0.09972714  1
  O2-  O145  1  0.06923853  0.17855505  0.42341523  1
  O2-  O146  1  0.07201089  0.18051944  0.76449762  1
  O2-  O147  1  0.07340645  0.68241495  0.10143467  1
  O2-  O148  1  0.07117359  0.67700622  0.42363393  1
  O2-  O149  1  0.07081253  0.67751409  0.76478796  1
  O2-  O150  1  0.56698751  0.17783377  0.09290811  1
  O2-  O151  1  0.57344500  0.17982324  0.42055798  1
  O2-  O152  1  0.56852683  0.17912379  0.76607197  1
  O2-  O153  1  0.56910978  0.67537498  0.08915617  1
  O2-  O154  1  0.57158434  0.68046515  0.42996902  1
  O2-  O155  1  0.57027022  0.68212077  0.76735760  1
  O2-  O156  1  0.17681304  0.42777545  0.23544674  1
  O2-  O157  1  0.17978888  0.42783746  0.57973451  1
  O2-  O158  1  0.18318431  0.42915088  0.90805363  1
  O2-  O159  1  0.18081558  0.93345053  0.23313657  1
  O2-  O160  1  0.17818147  0.92655054  0.57808146  1
  O2-  O161  1  0.18460777  0.91999546  0.90921497  1
  O2-  O162  1  0.68226574  0.43187834  0.23269396  1
  O2-  O163  1  0.67485450  0.43100258  0.57845061  1
  O2-  O164  1  0.66864900  0.43195603  0.91080548  1
  O2-  O165  1  0.68338899  0.92930054  0.23347248  1
  O2-  O166  1  0.68094257  0.92760742  0.56914078  1
  O2-  O167  1  0.67126332  0.92986431  0.91314110  1
  O2-  O168  1  0.42906942  0.32375583  0.09096089  1
  O2-  O169  1  0.43190536  0.31765427  0.42959089  1
  O2-  O170  1  0.42596969  0.31783760  0.76565796  1
  O2-  O171  1  0.42810280  0.81980760  0.09179476  1
  O2-  O172  1  0.42234904  0.82144013  0.41872828  1
  O2-  O173  1  0.42574949  0.82038579  0.76621005  1
  O2-  O174  1  0.92951189  0.32229483  0.09966339  1
  O2-  O175  1  0.92850184  0.32425805  0.42463739  1
  O2-  O176  1  0.93392845  0.32618462  0.75439108  1
  O2-  O177  1  0.92712778  0.82250329  0.08675843  1
  O2-  O178  1  0.93265193  0.81884781  0.43262113  1
  O2-  O179  1  0.93359277  0.82074235  0.75772695  1
  O2-  O180  1  0.31904297  0.07454515  0.24508309  1
  O2-  O181  1  0.31209073  0.07341148  0.57379893  1
  O2-  O182  1  0.32342806  0.07021906  0.89947293  1
  O2-  O183  1  0.31908971  0.56880564  0.23464466  1
  O2-  O184  1  0.31873461  0.57133609  0.57953260  1
  O2-  O185  1  0.32329811  0.57147265  0.90757955  1
  O2-  O186  1  0.82363788  0.07226100  0.23433816  1
  O2-  O187  1  0.82540466  0.06622807  0.57129982  1
  O2-  O188  1  0.81773020  0.06975615  0.90122187  1
  O2-  O189  1  0.82374607  0.57025375  0.24170949  1
  O2-  O190  1  0.82178298  0.56759836  0.56614226  1
  O2-  O191  1  0.82135531  0.56940680  0.90216917  1
  O2-  O192  1  0.04345594  0.08796770  0.27011858  1
  O2-  O193  1  0.04270099  0.07837226  0.59969824  1
  O2-  O194  1  0.05098691  0.07608156  0.93512884  1
  O2-  O195  1  0.05104221  0.58088669  0.27379699  1
  O2-  O196  1  0.04152644  0.57877627  0.59814108  1
  O2-  O197  1  0.04246364  0.58352878  0.93387829  1
  O2-  O198  1  0.55195044  0.08242649  0.27012366  1
  O2-  O199  1  0.54101138  0.08381358  0.59588360  1
  O2-  O200  1  0.53886423  0.08541491  0.94170633  1
  O2-  O201  1  0.53713910  0.58526279  0.26137093  1
  O2-  O202  1  0.54217469  0.58458762  0.60100795  1
  O2-  O203  1  0.54093139  0.58857564  0.93433472  1
  O2-  O204  1  0.16213160  0.20716775  0.27145040  1
  O2-  O205  1  0.16038536  0.21344859  0.59429499  1
  O2-  O206  1  0.16848009  0.21187240  0.93240304  1
  O2-  O207  1  0.16789026  0.70400137  0.27433965  1
  O2-  O208  1  0.16556548  0.70666819  0.59708559  1
  O2-  O209  1  0.16728767  0.71133424  0.93212460  1
  O2-  O210  1  0.66842852  0.20773704  0.27147662  1
  O2-  O211  1  0.67478256  0.20210766  0.60161466  1
  O2-  O212  1  0.65921741  0.20485956  0.93926557  1
  O2-  O213  1  0.66652757  0.71038644  0.25997670  1
  O2-  O214  1  0.67449974  0.70564866  0.60263451  1
  O2-  O215  1  0.66504626  0.70371008  0.93977713  1
  O2-  O216  1  0.08919177  0.45788347  0.06033675  1
  O2-  O217  1  0.07913453  0.45259444  0.40537322  1
  O2-  O218  1  0.08858110  0.45589344  0.73215470  1
  O2-  O219  1  0.08262131  0.94253087  0.05727100  1
  O2-  O220  1  0.08790562  0.96472656  0.40351781  1
  O2-  O221  1  0.08875481  0.95396205  0.73229538  1
  O2-  O222  1  0.58257400  0.46007821  0.06411299  1
  O2-  O223  1  0.58392604  0.46170249  0.39885638  1
  O2-  O224  1  0.57967943  0.45426923  0.72954585  1
  O2-  O225  1  0.58456245  0.95541543  0.06780910  1
  O2-  O226  1  0.57710616  0.94555496  0.39583856  1
  O2-  O227  1  0.57437618  0.95636787  0.73136001  1
  O2-  O228  1  0.20895299  0.33969016  0.06269344  1
  O2-  O229  1  0.20802664  0.32927422  0.40205096  1
  O2-  O230  1  0.20987187  0.33550662  0.73087389  1
  O2-  O231  1  0.21312905  0.83550362  0.06463478  1
  O2-  O232  1  0.20725056  0.83363059  0.40199599  1
  O2-  O233  1  0.20789706  0.83343011  0.72934339  1
  O2-  O234  1  0.69454580  0.33421343  0.06164551  1
  O2-  O235  1  0.71019290  0.33658387  0.40350060  1
  O2-  O236  1  0.69779456  0.33497324  0.72999679  1
  O2-  O237  1  0.69965118  0.83304132  0.06198900  1
  O2-  O238  1  0.71349132  0.82934824  0.39728690  1
  O2-  O239  1  0.70691848  0.83360810  0.73913695  1
  O2-  O240  1  0.46238257  0.41503200  0.26231804  1
  O2-  O241  1  0.44945566  0.42203229  0.60028386  1
  O2-  O242  1  0.45701252  0.41286643  0.93658140  1
  O2-  O243  1  0.44686028  0.91938490  0.26900634  1
  O2-  O244  1  0.44237993  0.92390890  0.59954169  1
  O2-  O245  1  0.45679608  0.91442926  0.94113840  1
  O2-  O246  1  0.95640684  0.41419602  0.27154586  1
  O2-  O247  1  0.96308125  0.41106150  0.59925510  1
  O2-  O248  1  0.96089100  0.41683069  0.93152045  1
  O2-  O249  1  0.96892024  0.91521951  0.26451820  1
  O2-  O250  1  0.95985012  0.91217614  0.60504279  1
  O2-  O251  1  0.95178388  0.91448898  0.93346552  1
  O2-  O252  1  0.33289616  0.28880611  0.26342193  1
  O2-  O253  1  0.33189666  0.28828655  0.59686503  1
  O2-  O254  1  0.33629755  0.29597635  0.93924688  1
  O2-  O255  1  0.33215826  0.79483590  0.26670119  1
  O2-  O256  1  0.33220635  0.78727449  0.59780563  1
  O2-  O257  1  0.34000294  0.79261928  0.93705442  1
  O2-  O258  1  0.83573994  0.29563457  0.27218612  1
  O2-  O259  1  0.83046715  0.30843038  0.60833798  1
  O2-  O260  1  0.82418119  0.30127439  0.93466527  1
  O2-  O261  1  0.83750079  0.79267985  0.25941098  1
  O2-  O262  1  0.83519875  0.79680769  0.60908686  1
  O2-  O263  1  0.83083517  0.79681396  0.93733158  1
  O2-  O264  1  0.41310452  0.03861532  0.07227976  1
  O2-  O265  1  0.41956753  0.05446105  0.39300320  1
  O2-  O266  1  0.41028560  0.04987819  0.72492128  1
  O2-  O267  1  0.41445400  0.54419275  0.05962482  1
  O2-  O268  1  0.41896917  0.53867550  0.40075979  1
  O2-  O269  1  0.41239119  0.54493847  0.73202319  1
  O2-  O270  1  0.91981848  0.04240887  0.06566459  1
  O2-  O271  1  0.91972114  0.03844413  0.39952107  1
  O2-  O272  1  0.91971048  0.03763728  0.73780821  1
  O2-  O273  1  0.91904009  0.53956617  0.06950523  1
  O2-  O274  1  0.91641697  0.54779390  0.39409696  1
  O2-  O275  1  0.91745562  0.53404741  0.73299687  1
  O2-  O276  1  0.29168935  0.16923134  0.06810118  1
  O2-  O277  1  0.29286430  0.16508594  0.39743548  1
  O2-  O278  1  0.28364888  0.16216868  0.72683039  1
  O2-  O279  1  0.29510579  0.66407653  0.06020092  1
  O2-  O280  1  0.29855671  0.66953021  0.40264295  1
  O2-  O281  1  0.28930605  0.66230402  0.73180259  1
  O2-  O282  1  0.78926117  0.16864457  0.06641454  1
  O2-  O283  1  0.79966311  0.17051750  0.40230248  1
  O2-  O284  1  0.80086318  0.17413024  0.73456674  1
  O2-  O285  1  0.79181539  0.66681854  0.06911961  1
  O2-  O286  1  0.79896185  0.66818070  0.38936861  1
  O2-  O287  1  0.79470781  0.66550724  0.73726767  1
