# generated using pymatgen
data_Ca2Al2SiO7
_symmetry_space_group_name_H-M   'P 1'
_cell_length_a   15.47162868
_cell_length_b   15.46668120
_cell_length_c   15.29045932
_cell_angle_alpha   90.01938574
_cell_angle_beta   89.98430862
_cell_angle_gamma   89.99332973
_symmetry_Int_Tables_number   1
_chemical_formula_structural   Ca2Al2SiO7
_chemical_formula_sum   'Ca48 Al48 Si24 O168'
_cell_volume   3658.92624329
_cell_formula_units_Z   24
loop_
 _symmetry_equiv_pos_site_id
 _symmetry_equiv_pos_as_xyz
  1  'x, y, z'
loop_
 _atom_type_symbol
 _atom_type_oxidation_number
  Ca2+  2.0
  Al0+  0.0
  Si0+  0.0
  O2-  -2.0
loop_
 _atom_site_type_symbol
 _atom_site_label
 _atom_site_symmetry_multiplicity
 _atom_site_fract_x
 _atom_site_fract_y
 _atom_site_fract_z
 _atom_site_occupancy
  Ca2+  Ca0  1  0.17659769  0.08214466  0.17349233  1
  Ca2+  Ca1  1  0.17302778  0.08064195  0.50598731  1
  Ca2+  Ca2  1  0.16449309  0.08269789  0.83123426  1
  Ca2+  Ca3  1  0.18051169  0.58082095  0.16946761  1
  Ca2+  Ca4  1  0.18145383  0.58338454  0.50566697  1
  Ca2+  Ca5  1  0.18206671  0.58427969  0.83800974  1
  Ca2+  Ca6  1  0.66512489  0.07963534  0.16696358  1
  Ca2+  Ca7  1  0.67105471  0.07906497  0.50423487  1
  Ca2+  Ca8  1  0.65652143  0.07264307  0.83931427  1
  Ca2+  Ca9  1  0.65176818  0.57405954  0.16780150  1
  Ca2+  Ca10  1  0.65605711  0.57387883  0.50003602  1
  Ca2+  Ca11  1  0.66112742  0.57215827  0.84010038  1
  Ca2+  Ca12  1  0.07469853  0.33185570  0.15839553  1
  Ca2+  Ca13  1  0.07843745  0.33092947  0.50082766  1
  Ca2+  Ca14  1  0.07078176  0.33161724  0.82411730  1
  Ca2+  Ca15  1  0.07568713  0.83352731  0.16085594  1
  Ca2+  Ca16  1  0.08667013  0.83711872  0.50029585  1
  Ca2+  Ca17  1  0.07904777  0.83686733  0.82919340  1
  Ca2+  Ca18  1  0.57927062  0.33074555  0.16023498  1
  Ca2+  Ca19  1  0.57707675  0.34108468  0.49654937  1
  Ca2+  Ca20  1  0.58038255  0.33609893  0.83183101  1
  Ca2+  Ca21  1  0.57666734  0.82280192  0.15607923  1
  Ca2+  Ca22  1  0.57490626  0.82764889  0.49352709  1
  Ca2+  Ca23  1  0.57592207  0.83264463  0.82878200  1
  Ca2+  Ca24  1  0.35047675  0.42761907  0.16924893  1
  Ca2+  Ca25  1  0.34698565  0.42806167  0.50417627  1
  Ca2+  Ca26  1  0.34607376  0.42629421  0.83739126  1
  Ca2+  Ca27  1  0.34226421  0.92097722  0.17167135  1
  Ca2+  Ca28  1  0.33619658  0.91951512  0.50722082  1
  Ca2+  Ca29  1  0.33088755  0.90925354  0.83729999  1
  Ca2+  Ca30  1  0.81928477  0.40963915  0.16882381  1
  Ca2+  Ca31  1  0.82007568  0.41483241  0.50703387  1
  Ca2+  Ca32  1  0.82544230  0.40865674  0.83863758  1
  Ca2+  Ca33  1  0.82590310  0.91791598  0.16913185  1
  Ca2+  Ca34  1  0.82532254  0.92246076  0.50663379  1
  Ca2+  Ca35  1  0.81948462  0.91471785  0.84145689  1
  Ca2+  Ca36  1  0.41913916  0.17649163  0.15985984  1
  Ca2+  Ca37  1  0.41240632  0.17935157  0.49378292  1
  Ca2+  Ca38  1  0.42288865  0.17871906  0.83072024  1
  Ca2+  Ca39  1  0.42223055  0.67064386  0.16355150  1
  Ca2+  Ca40  1  0.41473846  0.67505130  0.49260603  1
  Ca2+  Ca41  1  0.41798551  0.66989279  0.83255576  1
  Ca2+  Ca42  1  0.91393193  0.16831041  0.16168001  1
  Ca2+  Ca43  1  0.91868562  0.16527265  0.49999837  1
  Ca2+  Ca44  1  0.91988935  0.17698197  0.82719921  1
  Ca2+  Ca45  1  0.91929407  0.67165294  0.15837359  1
  Ca2+  Ca46  1  0.92063536  0.66693267  0.49666126  1
  Ca2+  Ca47  1  0.91442374  0.67233837  0.83343807  1
  Al0+  Al48  1  -0.00021313  -0.00099218  -0.00324258  1
  Al0+  Al49  1  -0.00019839  0.00098679  0.33639845  1
  Al0+  Al50  1  0.00127036  0.00058891  0.66668535  1
  Al0+  Al51  1  0.00141818  0.49985059  -0.00395404  1
  Al0+  Al52  1  -0.00131596  0.49922920  0.33190180  1
  Al0+  Al53  1  0.00059210  0.50183173  0.66183876  1
  Al0+  Al54  1  0.49825921  -0.00052086  -0.00080107  1
  Al0+  Al55  1  0.49986125  0.00211399  0.33777114  1
  Al0+  Al56  1  0.49955592  0.00149786  0.66653435  1
  Al0+  Al57  1  0.50104136  0.50153454  0.00226225  1
  Al0+  Al58  1  0.49900666  0.50063084  0.33539134  1
  Al0+  Al59  1  0.50283039  0.50089041  0.67230960  1
  Al0+  Al60  1  0.24917332  0.24947860  -0.00352510  1
  Al0+  Al61  1  0.24711158  0.24948551  0.33205825  1
  Al0+  Al62  1  0.24924600  0.25166473  0.65915155  1
  Al0+  Al63  1  0.24889370  0.74890032  0.00452964  1
  Al0+  Al64  1  0.24761906  0.74896119  0.33174856  1
  Al0+  Al65  1  0.25028164  0.75143500  0.67161936  1
  Al0+  Al66  1  0.75102807  0.24729477  -0.00345549  1
  Al0+  Al67  1  0.74969010  0.24930230  0.34291996  1
  Al0+  Al68  1  0.75053707  0.25019386  0.66665409  1
  Al0+  Al69  1  0.75051722  0.74865729  -0.00285309  1
  Al0+  Al70  1  0.75100859  0.74781132  0.33005775  1
  Al0+  Al71  1  0.75031706  0.74984376  0.66817252  1
  Al0+  Al72  1  0.07050460  0.17808629  0.64908878  1
  Al0+  Al73  1  0.42742131  0.82099180  0.98488680  1
  Al0+  Al74  1  0.32222329  0.07255296  0.34662644  1
  Al0+  Al75  1  0.32083506  0.56991010  0.01621436  1
  Al0+  Al76  1  0.42830678  0.82058746  0.65310586  1
  Al0+  Al77  1  0.32091148  0.57025125  0.68123288  1
  Al0+  Al78  1  0.92706373  0.32275832  0.64837903  1
  Al0+  Al79  1  0.67802570  0.92932244  0.68020747  1
  Al0+  Al80  1  0.82102342  0.06938172  0.34735680  1
  Al0+  Al81  1  0.57144262  0.67838334  0.98309301  1
  Al0+  Al82  1  0.68143479  0.42787894  0.01454313  1
  Al0+  Al83  1  0.92919932  0.82123306  0.98626883  1
  Al0+  Al84  1  0.31862720  0.56896855  0.34764983  1
  Al0+  Al85  1  0.43198758  0.32261550  0.65229749  1
  Al0+  Al86  1  0.42860999  0.31957019  0.32011910  1
  Al0+  Al87  1  0.42683588  0.82354723  0.31919333  1
  Al0+  Al88  1  0.42936900  0.32213523  0.98542747  1
  Al0+  Al89  1  0.68160206  0.42996244  0.68223947  1
  Al0+  Al90  1  0.67698442  0.92709335  0.01460090  1
  Al0+  Al91  1  0.57173208  0.17772976  0.98610802  1
  Al0+  Al92  1  0.18080120  0.93100260  0.68120513  1
  Al0+  Al93  1  0.92945419  0.32046207  0.98788266  1
  Al0+  Al94  1  0.67987572  0.43114901  0.34707403  1
  Al0+  Al95  1  0.57104002  0.67932887  0.31852108  1
  Si0+  Si96  1  0.57213252  0.17698404  0.64850337  1
  Si0+  Si97  1  0.92830324  0.82054610  0.65085432  1
  Si0+  Si98  1  0.06888460  0.17793633  0.31649080  1
  Si0+  Si99  1  0.82487980  0.57146305  0.01633706  1
  Si0+  Si100  1  0.32198323  0.07596176  0.68446006  1
  Si0+  Si101  1  0.57486481  0.17843948  0.31903595  1
  Si0+  Si102  1  0.31977679  0.07217534  0.01409202  1
  Si0+  Si103  1  0.82564706  0.57339936  0.34949706  1
  Si0+  Si104  1  0.17813492  0.92924244  0.34845735  1
  Si0+  Si105  1  0.82211105  0.07073656  0.68500675  1
  Si0+  Si106  1  0.92737354  0.31992766  0.31830648  1
  Si0+  Si107  1  0.93054807  0.82191464  0.31997004  1
  Si0+  Si108  1  0.17728877  0.92968128  0.01587037  1
  Si0+  Si109  1  0.07194808  0.67850236  0.98258547  1
  Si0+  Si110  1  0.57334394  0.67916929  0.65011908  1
  Si0+  Si111  1  0.17649046  0.42817282  0.68222647  1
  Si0+  Si112  1  0.07234518  0.68110160  0.65177142  1
  Si0+  Si113  1  0.67844698  0.92491173  0.34935753  1
  Si0+  Si114  1  0.82278509  0.06913126  0.01530880  1
  Si0+  Si115  1  0.82588847  0.57302871  0.68356125  1
  Si0+  Si116  1  0.17279879  0.42723040  0.34999298  1
  Si0+  Si117  1  0.07033508  0.67705267  0.31775750  1
  Si0+  Si118  1  0.17661053  0.42640746  0.01519646  1
  Si0+  Si119  1  0.07294964  0.17671086  0.98361235  1
  O2-  O120  1  0.24962995  -0.00069909  0.05677294  1
  O2-  O121  1  0.25249825  -0.00824304  0.39165113  1
  O2-  O122  1  0.25546089  0.00490998  0.72926797  1
  O2-  O123  1  0.24922723  0.48981909  0.06068782  1
  O2-  O124  1  0.24499535  0.49224551  0.39374971  1
  O2-  O125  1  0.24851327  0.49221574  0.72727550  1
  O2-  O126  1  0.75301653  0.00184825  0.06011834  1
  O2-  O127  1  0.74624809  -0.00519345  0.39357503  1
  O2-  O128  1  0.75115274  0.00497142  0.72889667  1
  O2-  O129  1  0.75678190  0.50302040  0.06126737  1
  O2-  O130  1  0.75422740  0.50772834  0.39256621  1
  O2-  O131  1  0.76009522  0.50207476  0.72710622  1
  O2-  O132  1  -0.00125452  0.24984258  0.27458105  1
  O2-  O133  1  -0.00133969  0.25013058  0.59821727  1
  O2-  O134  1  0.00655801  0.24817540  0.94170853  1
  O2-  O135  1  -0.00117522  0.74851748  0.27699158  1
  O2-  O136  1  -0.00049318  0.75004281  0.60790418  1
  O2-  O137  1  0.00269342  0.74618104  0.93802725  1
  O2-  O138  1  0.50190449  0.24257611  0.27519553  1
  O2-  O139  1  0.50456408  0.24644233  0.60406228  1
  O2-  O140  1  0.50312698  0.25233727  0.93528065  1
  O2-  O141  1  0.50213905  0.75505355  0.26974299  1
  O2-  O142  1  0.50483163  0.74822447  0.60649362  1
  O2-  O143  1  0.50102284  0.75198102  0.93348180  1
  O2-  O144  1  0.07272031  0.17515690  0.08961230  1
  O2-  O145  1  0.06767035  0.17611360  0.42092966  1
  O2-  O146  1  0.06782059  0.17864755  0.76300795  1
  O2-  O147  1  0.07052815  0.67998354  0.08863584  1
  O2-  O148  1  0.07009006  0.67730154  0.42298067  1
  O2-  O149  1  0.07114925  0.68240533  0.75659841  1
  O2-  O150  1  0.57019122  0.17748901  0.10025858  1
  O2-  O151  1  0.57682193  0.17997210  0.42459756  1
  O2-  O152  1  0.57039699  0.17583920  0.75386484  1
  O2-  O153  1  0.56886198  0.67858536  0.09666872  1
  O2-  O154  1  0.57042326  0.68055040  0.43249150  1
  O2-  O155  1  0.57466688  0.67995307  0.75529369  1
  O2-  O156  1  0.16504861  0.43052580  0.24468524  1
  O2-  O157  1  0.17355113  0.43253596  0.57658814  1
  O2-  O158  1  0.17260157  0.42944429  0.91001434  1
  O2-  O159  1  0.17163353  0.93284248  0.24288405  1
  O2-  O160  1  0.18111662  0.93043050  0.56791510  1
  O2-  O161  1  0.17504116  0.93061870  0.91099997  1
  O2-  O162  1  0.68275899  0.42812601  0.23420778  1
  O2-  O163  1  0.68023730  0.43374136  0.56887362  1
  O2-  O164  1  0.68380634  0.42881178  0.90169777  1
  O2-  O165  1  0.68122167  0.92448024  0.24390284  1
  O2-  O166  1  0.68258233  0.92902887  0.56671886  1
  O2-  O167  1  0.67885895  0.92915135  0.90152329  1
  O2-  O168  1  0.42946541  0.31875989  0.09920411  1
  O2-  O169  1  0.43092611  0.32053912  0.43336804  1
  O2-  O170  1  0.43326584  0.32212918  0.76500301  1
  O2-  O171  1  0.42752277  0.82146865  0.09843673  1
  O2-  O172  1  0.42627419  0.82106994  0.43311801  1
  O2-  O173  1  0.42711484  0.81807574  0.76570473  1
  O2-  O174  1  0.93046057  0.31753502  0.10171517  1
  O2-  O175  1  0.92976629  0.32038196  0.42281138  1
  O2-  O176  1  0.92949705  0.32155588  0.76207282  1
  O2-  O177  1  0.93300148  0.82159529  0.10008789  1
  O2-  O178  1  0.93221759  0.82140182  0.42524962  1
  O2-  O179  1  0.92892557  0.81932659  0.75567616  1
  O2-  O180  1  0.31695095  0.07489845  0.23322372  1
  O2-  O181  1  0.32001681  0.07472235  0.57865379  1
  O2-  O182  1  0.31659484  0.07437884  0.90935492  1
  O2-  O183  1  0.31635657  0.56831649  0.23483472  1
  O2-  O184  1  0.31868126  0.57106328  0.56790025  1
  O2-  O185  1  0.31737490  0.57149730  0.90311838  1
  O2-  O186  1  0.82332693  0.06754300  0.23432976  1
  O2-  O187  1  0.82215067  0.06713995  0.57888268  1
  O2-  O188  1  0.82668730  0.06662139  0.91021518  1
  O2-  O189  1  0.83386714  0.57230750  0.24469067  1
  O2-  O190  1  0.82691545  0.57549742  0.57781844  1
  O2-  O191  1  0.82734330  0.57044149  0.91083577  1
  O2-  O192  1  0.03950300  0.08639658  0.26864820  1
  O2-  O193  1  0.04098332  0.07940407  0.59576926  1
  O2-  O194  1  0.04464943  0.08472464  0.93626056  1
  O2-  O195  1  0.04186193  0.58602913  0.26911738  1
  O2-  O196  1  0.04695713  0.58993348  0.60173733  1
  O2-  O197  1  0.04854279  0.58531896  0.93534032  1
  O2-  O198  1  0.55435265  0.08258228  0.27592493  1
  O2-  O199  1  0.54714495  0.08389104  0.60093535  1
  O2-  O200  1  0.53815535  0.08174915  0.93216102  1
  O2-  O201  1  0.53728101  0.58250776  0.26666732  1
  O2-  O202  1  0.54551558  0.58572183  0.60610873  1
  O2-  O203  1  0.54033925  0.58104960  0.93093737  1
  O2-  O204  1  0.15979523  0.20534693  0.26736406  1
  O2-  O205  1  0.16827078  0.20546936  0.59433410  1
  O2-  O206  1  0.16611425  0.19863617  0.93609514  1
  O2-  O207  1  0.16008413  0.70577143  0.26769977  1
  O2-  O208  1  0.16201714  0.71318507  0.60333334  1
  O2-  O209  1  0.16415701  0.70753643  0.93723640  1
  O2-  O210  1  0.66753565  0.20798001  0.27295104  1
  O2-  O211  1  0.66720360  0.20029599  0.60490132  1
  O2-  O212  1  0.67122695  0.19893837  0.93306488  1
  O2-  O213  1  0.67257813  0.69928662  0.26666151  1
  O2-  O214  1  0.66759378  0.70354976  0.60363731  1
  O2-  O215  1  0.67177510  0.70052427  0.93232764  1
  O2-  O216  1  0.08469968  0.45705908  0.06388601  1
  O2-  O217  1  0.08100864  0.45669618  0.39882225  1
  O2-  O218  1  0.08375798  0.45825841  0.72848222  1
  O2-  O219  1  0.08605087  0.95975474  0.06433928  1
  O2-  O220  1  0.08750277  0.96037618  0.39804124  1
  O2-  O221  1  0.08316427  0.96093589  0.73501525  1
  O2-  O222  1  0.58510677  0.45915361  0.06826542  1
  O2-  O223  1  0.58453285  0.46354801  0.40229498  1
  O2-  O224  1  0.58754007  0.46358659  0.73840821  1
  O2-  O225  1  0.58078367  0.95929980  0.06855865  1
  O2-  O226  1  0.58518246  0.94985731  0.39582720  1
  O2-  O227  1  0.58106277  0.95955339  0.73366437  1
  O2-  O228  1  0.19483717  0.32986083  0.05886854  1
  O2-  O229  1  0.19345034  0.33159058  0.39259083  1
  O2-  O230  1  0.19635265  0.33188654  0.72395512  1
  O2-  O231  1  0.20029037  0.83711383  0.06387061  1
  O2-  O232  1  0.19515743  0.83276703  0.39149008  1
  O2-  O233  1  0.20818063  0.83487482  0.73745161  1
  O2-  O234  1  0.71383261  0.33026658  0.06672779  1
  O2-  O235  1  0.71170842  0.33657139  0.40411328  1
  O2-  O236  1  0.70912325  0.33136483  0.73396301  1
  O2-  O237  1  0.71180749  0.83096593  0.06720811  1
  O2-  O238  1  0.70724283  0.83195749  0.39536168  1
  O2-  O239  1  0.71145459  0.83316514  0.73337681  1
  O2-  O240  1  0.46313684  0.41522250  0.26828824  1
  O2-  O241  1  0.46695864  0.41933909  0.60041787  1
  O2-  O242  1  0.45766600  0.42058571  0.93533701  1
  O2-  O243  1  0.45081452  0.92543416  0.27129067  1
  O2-  O244  1  0.45573387  0.91948458  0.60167270  1
  O2-  O245  1  0.45050476  0.92060133  0.93334784  1
  O2-  O246  1  0.95378738  0.41225176  0.27092634  1
  O2-  O247  1  0.95559025  0.42193109  0.59595221  1
  O2-  O248  1  0.95823629  0.41707449  0.93308763  1
  O2-  O249  1  0.96246985  0.91221215  0.27212209  1
  O2-  O250  1  0.95736964  0.91193499  0.60393291  1
  O2-  O251  1  0.96208536  0.91593589  0.93037869  1
  O2-  O252  1  0.32975893  0.29299603  0.26799701  1
  O2-  O253  1  0.33389777  0.29687708  0.59866909  1
  O2-  O254  1  0.33013645  0.29438948  0.93323565  1
  O2-  O255  1  0.32744209  0.79528371  0.26751501  1
  O2-  O256  1  0.33106554  0.78892777  0.60061600  1
  O2-  O257  1  0.32725235  0.79135771  0.93589392  1
  O2-  O258  1  0.83574087  0.28854249  0.27345758  1
  O2-  O259  1  0.82886239  0.29284067  0.59626906  1
  O2-  O260  1  0.83609329  0.28655430  0.93153971  1
  O2-  O261  1  0.83865133  0.79717323  0.27195146  1
  O2-  O262  1  0.83744272  0.79172316  0.60195674  1
  O2-  O263  1  0.83435586  0.79038591  0.93062208  1
  O2-  O264  1  0.41063202  0.04496125  0.06272622  1
  O2-  O265  1  0.41990893  0.05071372  0.40287592  1
  O2-  O266  1  0.41668209  0.05353870  0.72812560  1
  O2-  O267  1  0.41737946  0.54131439  0.07036832  1
  O2-  O268  1  0.41437517  0.53928403  0.40265345  1
  O2-  O269  1  0.41717913  0.54126300  0.73540281  1
  O2-  O270  1  0.91626602  0.04209931  0.06284554  1
  O2-  O271  1  0.91654116  0.03695829  0.40336607  1
  O2-  O272  1  0.91509457  0.04303601  0.72991992  1
  O2-  O273  1  0.91982510  0.54747789  0.06195543  1
  O2-  O274  1  0.91774075  0.54520614  0.39872294  1
  O2-  O275  1  0.92123761  0.55203372  0.72834903  1
  O2-  O276  1  0.28946672  0.16320626  0.06318477  1
  O2-  O277  1  0.28382124  0.16678406  0.40126456  1
  O2-  O278  1  0.29224420  0.16912705  0.72919803  1
  O2-  O279  1  0.28365782  0.66428295  0.07174219  1
  O2-  O280  1  0.28353841  0.66562487  0.40038441  1
  O2-  O281  1  0.28437780  0.66416124  0.73604367  1
  O2-  O282  1  0.79825441  0.16272604  0.06157909  1
  O2-  O283  1  0.79199656  0.16421386  0.40513671  1
  O2-  O284  1  0.80058501  0.16613906  0.72779947  1
  O2-  O285  1  0.80163083  0.66598924  0.06145355  1
  O2-  O286  1  0.80437239  0.66869174  0.39486781  1
  O2-  O287  1  0.79903063  0.66627777  0.72986420  1
