# generated using pymatgen
data_Ca2Al2SiO7
_symmetry_space_group_name_H-M   'P 1'
_cell_length_a   15.46204047
_cell_length_b   15.46291729
_cell_length_c   15.28647622
_cell_angle_alpha   90.01857200
_cell_angle_beta   90.00547398
_cell_angle_gamma   90.01865965
_symmetry_Int_Tables_number   1
_chemical_formula_structural   Ca2Al2SiO7
_chemical_formula_sum   'Ca48 Al48 Si24 O168'
_cell_volume   3654.81649119
_cell_formula_units_Z   24
loop_
 _symmetry_equiv_pos_site_id
 _symmetry_equiv_pos_as_xyz
  1  'x, y, z'
loop_
 _atom_type_symbol
 _atom_type_oxidation_number
  Ca2+  2.0
  Al0+  0.0
  Si0+  0.0
  O2-  -2.0
loop_
 _atom_site_type_symbol
 _atom_site_label
 _atom_site_symmetry_multiplicity
 _atom_site_fract_x
 _atom_site_fract_y
 _atom_site_fract_z
 _atom_site_occupancy
  Ca2+  Ca0  1  0.17234336  0.07648019  0.16697991  1
  Ca2+  Ca1  1  0.16589216  0.07259871  0.50276587  1
  Ca2+  Ca2  1  0.17130161  0.07529073  0.83992782  1
  Ca2+  Ca3  1  0.16788671  0.57136665  0.17043646  1
  Ca2+  Ca4  1  0.16839100  0.57858896  0.49984590  1
  Ca2+  Ca5  1  0.16749133  0.57549446  0.83817052  1
  Ca2+  Ca6  1  0.67342825  0.08846398  0.16906752  1
  Ca2+  Ca7  1  0.66985174  0.08194980  0.50181304  1
  Ca2+  Ca8  1  0.67016409  0.07384872  0.84329909  1
  Ca2+  Ca9  1  0.67221632  0.57536480  0.17535918  1
  Ca2+  Ca10  1  0.67324158  0.57675284  0.50640509  1
  Ca2+  Ca11  1  0.66756832  0.58082282  0.82810061  1
  Ca2+  Ca12  1  0.08536884  0.33577315  0.16120396  1
  Ca2+  Ca13  1  0.07673100  0.33568679  0.49622944  1
  Ca2+  Ca14  1  0.07862401  0.33193286  0.82719505  1
  Ca2+  Ca15  1  0.07449977  0.84341172  0.16340832  1
  Ca2+  Ca16  1  0.07401133  0.83789078  0.49339552  1
  Ca2+  Ca17  1  0.07300489  0.84397160  0.82972578  1
  Ca2+  Ca18  1  0.58063617  0.32329194  0.16150658  1
  Ca2+  Ca19  1  0.57777593  0.33709017  0.49103949  1
  Ca2+  Ca20  1  0.57575140  0.32685543  0.82606628  1
  Ca2+  Ca21  1  0.58946206  0.83046946  0.15965562  1
  Ca2+  Ca22  1  0.59546808  0.82664734  0.50146113  1
  Ca2+  Ca23  1  0.59125878  0.83101100  0.82527134  1
  Ca2+  Ca24  1  0.32654929  0.40345291  0.16852295  1
  Ca2+  Ca25  1  0.33220773  0.40624049  0.50089221  1
  Ca2+  Ca26  1  0.33333386  0.41125442  0.83909166  1
  Ca2+  Ca27  1  0.32524347  0.92166131  0.17102854  1
  Ca2+  Ca28  1  0.31967574  0.91329911  0.50697541  1
  Ca2+  Ca29  1  0.32088033  0.92076404  0.84408235  1
  Ca2+  Ca30  1  0.82617596  0.42504300  0.18061966  1
  Ca2+  Ca31  1  0.82183686  0.42296207  0.50964843  1
  Ca2+  Ca32  1  0.83235723  0.41941749  0.83258809  1
  Ca2+  Ca33  1  0.83522139  0.92512972  0.16741464  1
  Ca2+  Ca34  1  0.83563630  0.92048921  0.50425079  1
  Ca2+  Ca35  1  0.82734050  0.91521187  0.83927138  1
  Ca2+  Ca36  1  0.42609277  0.17132155  0.15926107  1
  Ca2+  Ca37  1  0.42673716  0.17605049  0.49135356  1
  Ca2+  Ca38  1  0.41513741  0.17156889  0.83310531  1
  Ca2+  Ca39  1  0.41756615  0.66875869  0.16432290  1
  Ca2+  Ca40  1  0.42496253  0.66618396  0.49997951  1
  Ca2+  Ca41  1  0.42508563  0.66883038  0.82612332  1
  Ca2+  Ca42  1  0.91417558  0.16217126  0.16320324  1
  Ca2+  Ca43  1  0.91324155  0.17041091  0.49655946  1
  Ca2+  Ca44  1  0.91527452  0.16895318  0.83104837  1
  Ca2+  Ca45  1  0.91196189  0.67897532  0.16356414  1
  Ca2+  Ca46  1  0.90498505  0.67640042  0.49671059  1
  Ca2+  Ca47  1  0.91492852  0.67731242  0.82596779  1
  Al0+  Al48  1  -0.00166364  0.00126453  0.00038984  1
  Al0+  Al49  1  -0.00112624  0.00086633  0.33685693  1
  Al0+  Al50  1  0.00132804  0.00045373  0.66639172  1
  Al0+  Al51  1  0.00087213  0.50214114  0.00331571  1
  Al0+  Al52  1  0.00260137  0.50328747  0.34065319  1
  Al0+  Al53  1  0.00038693  0.50077291  0.66585466  1
  Al0+  Al54  1  0.49960202  -0.00201833  0.00276965  1
  Al0+  Al55  1  0.50032547  0.00046612  0.33058881  1
  Al0+  Al56  1  0.49861642  0.00116263  0.66904139  1
  Al0+  Al57  1  0.50003123  0.50088590  -0.00336943  1
  Al0+  Al58  1  0.49763812  0.50190116  0.32994968  1
  Al0+  Al59  1  0.49991082  0.50062866  0.66189952  1
  Al0+  Al60  1  0.24875085  0.24880065  0.00277477  1
  Al0+  Al61  1  0.24916541  0.24823839  0.33563868  1
  Al0+  Al62  1  0.25030889  0.24816312  0.66177433  1
  Al0+  Al63  1  0.24876432  0.74606055  0.00359450  1
  Al0+  Al64  1  0.24826650  0.74804648  0.33638974  1
  Al0+  Al65  1  0.24864827  0.74802142  0.67219269  1
  Al0+  Al66  1  0.74872452  0.25025144  -0.00183472  1
  Al0+  Al67  1  0.75018577  0.25001320  0.33761795  1
  Al0+  Al68  1  0.74959596  0.25073892  0.66687962  1
  Al0+  Al69  1  0.75153407  0.74974188  -0.00145789  1
  Al0+  Al70  1  0.75030612  0.75165314  0.32859043  1
  Al0+  Al71  1  0.75144277  0.74982307  0.66519141  1
  Al0+  Al72  1  0.68013268  0.93035871  0.67826468  1
  Al0+  Al73  1  0.67791763  0.42961790  0.34685764  1
  Al0+  Al74  1  0.42775385  0.32183904  0.31607856  1
  Al0+  Al75  1  0.42963578  0.31978862  0.65128934  1
  Al0+  Al76  1  0.42864955  0.31952250  0.98369140  1
  Al0+  Al77  1  0.92985407  0.82136284  0.31750612  1
  Al0+  Al78  1  0.17993902  0.92948815  0.34775700  1
  Al0+  Al79  1  0.57387845  0.17811248  0.31728468  1
  Al0+  Al80  1  0.32194268  0.07130271  0.01577464  1
  Al0+  Al81  1  0.18073535  0.42692853  0.34908109  1
  Al0+  Al82  1  0.67627944  0.42806414  0.68345090  1
  Al0+  Al83  1  0.82055440  0.07064049  0.34844397  1
  Al0+  Al84  1  0.17863207  0.92786811  0.68189666  1
  Al0+  Al85  1  0.57296043  0.17624405  0.98213070  1
  Al0+  Al86  1  0.57056360  0.68158883  0.65240487  1
  Al0+  Al87  1  0.92831254  0.32210838  0.65319340  1
  Al0+  Al88  1  0.67923854  0.92604422  0.01478262  1
  Al0+  Al89  1  0.93126576  0.82038018  0.65203603  1
  Al0+  Al90  1  0.17936341  0.42939649  0.01121560  1
  Al0+  Al91  1  0.93152291  0.82100327  0.98497901  1
  Al0+  Al92  1  0.17764152  0.92713490  0.01591518  1
  Al0+  Al93  1  0.81934360  0.07301796  0.01415220  1
  Al0+  Al94  1  0.82190359  0.57094679  0.68348941  1
  Al0+  Al95  1  0.82116905  0.57418228  0.34796516  1
  Si0+  Si96  1  0.32185415  0.57322867  0.35135512  1
  Si0+  Si97  1  0.93080468  0.32326304  0.32020095  1
  Si0+  Si98  1  0.32058464  0.07229553  0.68268216  1
  Si0+  Si99  1  0.07467343  0.67649481  0.64909544  1
  Si0+  Si100  1  0.32471532  0.57073670  0.01676366  1
  Si0+  Si101  1  0.32146024  0.57022640  0.68183135  1
  Si0+  Si102  1  0.42546025  0.82036790  0.31990556  1
  Si0+  Si103  1  0.57023227  0.68137241  0.31664223  1
  Si0+  Si104  1  0.42554134  0.82285968  0.65237031  1
  Si0+  Si105  1  0.57261645  0.17568538  0.64982322  1
  Si0+  Si106  1  0.82298850  0.07321513  0.68323769  1
  Si0+  Si107  1  0.92845518  0.32486537  0.98782811  1
  Si0+  Si108  1  0.06953768  0.18034251  0.98612666  1
  Si0+  Si109  1  0.57117741  0.68013917  0.98423068  1
  Si0+  Si110  1  0.07208611  0.67542998  0.98284625  1
  Si0+  Si111  1  0.07439975  0.67762860  0.31492930  1
  Si0+  Si112  1  0.18018645  0.42751429  0.68071696  1
  Si0+  Si113  1  0.07139782  0.17912269  0.64873389  1
  Si0+  Si114  1  0.67800819  0.43017363  0.01357640  1
  Si0+  Si115  1  0.32357318  0.07076033  0.35190689  1
  Si0+  Si116  1  0.42585524  0.81976107  0.98658359  1
  Si0+  Si117  1  0.67614020  0.92789344  0.34914449  1
  Si0+  Si118  1  0.06926322  0.17935509  0.31821800  1
  Si0+  Si119  1  0.82115929  0.57015303  0.01483258  1
  O2-  O120  1  0.25275121  -0.00413969  0.06539876  1
  O2-  O121  1  0.25741215  -0.00006908  0.39671017  1
  O2-  O122  1  0.25615726  -0.00021783  0.72718687  1
  O2-  O123  1  0.25733766  0.50006989  0.05891637  1
  O2-  O124  1  0.25823417  0.49940336  0.39496812  1
  O2-  O125  1  0.25181053  0.49743073  0.72332550  1
  O2-  O126  1  0.74605690  0.00251601  0.06469771  1
  O2-  O127  1  0.74320155  -0.00214652  0.39304490  1
  O2-  O128  1  0.75295178  0.00577251  0.72623880  1
  O2-  O129  1  0.75171614  0.49792308  0.05668051  1
  O2-  O130  1  0.75185146  0.49956430  0.39694340  1
  O2-  O131  1  0.75170746  0.49699974  0.73407109  1
  O2-  O132  1  0.00140383  0.25338802  0.27515756  1
  O2-  O133  1  0.00159913  0.24675536  0.60487891  1
  O2-  O134  1  -0.00175338  0.25228385  0.94564661  1
  O2-  O135  1  0.00445125  0.74531791  0.27153178  1
  O2-  O136  1  0.00686221  0.74598225  0.60545088  1
  O2-  O137  1  0.00924700  0.74882437  0.93842033  1
  O2-  O138  1  0.50210687  0.25138517  0.26832555  1
  O2-  O139  1  0.50771535  0.24831562  0.60609400  1
  O2-  O140  1  0.49975217  0.24768531  0.93235945  1
  O2-  O141  1  0.49971211  0.75358400  0.27545921  1
  O2-  O142  1  0.49787254  0.75935483  0.60588986  1
  O2-  O143  1  0.50084892  0.75298276  0.94369663  1
  O2-  O144  1  0.06975634  0.18113015  0.09149617  1
  O2-  O145  1  0.06797592  0.17936269  0.42345413  1
  O2-  O146  1  0.07364829  0.18083870  0.75453305  1
  O2-  O147  1  0.06871079  0.66962772  0.08795734  1
  O2-  O148  1  0.07899719  0.67928398  0.42030234  1
  O2-  O149  1  0.07620506  0.67448318  0.75469900  1
  O2-  O150  1  0.57594228  0.18194465  0.09531488  1
  O2-  O151  1  0.57106858  0.17541943  0.43108336  1
  O2-  O152  1  0.56993780  0.17386679  0.75512329  1
  O2-  O153  1  0.57020336  0.67863420  0.08965645  1
  O2-  O154  1  0.57029513  0.68192008  0.42155431  1
  O2-  O155  1  0.56745575  0.68194711  0.76589797  1
  O2-  O156  1  0.17921234  0.42885839  0.23590129  1
  O2-  O157  1  0.18125660  0.42845148  0.57572041  1
  O2-  O158  1  0.17699165  0.43181763  0.89783264  1
  O2-  O159  1  0.18143768  0.93186721  0.23503656  1
  O2-  O160  1  0.17921849  0.92918378  0.56857066  1
  O2-  O161  1  0.17843178  0.93018043  0.90218439  1
  O2-  O162  1  0.68050302  0.43212637  0.23229570  1
  O2-  O163  1  0.67541047  0.43112018  0.57011132  1
  O2-  O164  1  0.67782252  0.43269042  0.90870906  1
  O2-  O165  1  0.67656628  0.92524958  0.24385747  1
  O2-  O166  1  0.68140590  0.93140845  0.56504410  1
  O2-  O167  1  0.68368237  0.92292452  0.90109579  1
  O2-  O168  1  0.43050817  0.32050851  0.09670836  1
  O2-  O169  1  0.42866987  0.31885865  0.42999573  1
  O2-  O170  1  0.42564751  0.31760335  0.76410801  1
  O2-  O171  1  0.42393222  0.81446446  0.09192446  1
  O2-  O172  1  0.42355122  0.81697960  0.42492917  1
  O2-  O173  1  0.42387553  0.81860602  0.75795041  1
  O2-  O174  1  0.93062872  0.32779574  0.09310451  1
  O2-  O175  1  0.93311891  0.32114332  0.42517669  1
  O2-  O176  1  0.93303960  0.32146247  0.76704273  1
  O2-  O177  1  0.93106476  0.81901152  0.09806800  1
  O2-  O178  1  0.93085370  0.82124640  0.43064125  1
  O2-  O179  1  0.93257102  0.82033439  0.76517876  1
  O2-  O180  1  0.32144657  0.06975784  0.24648569  1
  O2-  O181  1  0.31823643  0.07181237  0.57714376  1
  O2-  O182  1  0.31669420  0.07075596  0.90170615  1
  O2-  O183  1  0.31930173  0.57871457  0.24597979  1
  O2-  O184  1  0.31977953  0.57349193  0.57693596  1
  O2-  O185  1  0.32509453  0.57298573  0.91109678  1
  O2-  O186  1  0.82341018  0.06941916  0.23578386  1
  O2-  O187  1  0.82377134  0.07201464  0.57751404  1
  O2-  O188  1  0.82150185  0.07238043  0.90054387  1
  O2-  O189  1  0.81803663  0.57269767  0.23331480  1
  O2-  O190  1  0.81899580  0.57100589  0.57031584  1
  O2-  O191  1  0.82198538  0.56944898  0.90997219  1
  O2-  O192  1  0.03794928  0.08925763  0.27030774  1
  O2-  O193  1  0.04568003  0.08580236  0.60232872  1
  O2-  O194  1  0.04063436  0.09013687  0.93643587  1
  O2-  O195  1  0.04997705  0.58254193  0.27050673  1
  O2-  O196  1  0.05057575  0.58290081  0.60243412  1
  O2-  O197  1  0.04112444  0.58423855  0.93338978  1
  O2-  O198  1  0.54610575  0.07880827  0.26436927  1
  O2-  O199  1  0.54320564  0.08339056  0.60190647  1
  O2-  O200  1  0.54644925  0.07513554  0.93333188  1
  O2-  O201  1  0.54067860  0.59109047  0.26691444  1
  O2-  O202  1  0.53543771  0.58775029  0.59633890  1
  O2-  O203  1  0.54133296  0.58986887  0.93497280  1
  O2-  O204  1  0.16208171  0.20448447  0.27192952  1
  O2-  O205  1  0.16343265  0.20555335  0.59990757  1
  O2-  O206  1  0.16008750  0.20856592  0.93695083  1
  O2-  O207  1  0.16770941  0.70321006  0.26752507  1
  O2-  O208  1  0.16924417  0.70113320  0.60375896  1
  O2-  O209  1  0.16891382  0.69344723  0.93965108  1
  O2-  O210  1  0.67331064  0.20703677  0.26601347  1
  O2-  O211  1  0.66820140  0.19637056  0.60656970  1
  O2-  O212  1  0.67112534  0.20665253  0.92842025  1
  O2-  O213  1  0.66066155  0.70934294  0.26639933  1
  O2-  O214  1  0.66619021  0.71189593  0.59718437  1
  O2-  O215  1  0.66298826  0.70660045  0.93677053  1
  O2-  O216  1  0.08465332  0.46324051  0.06837132  1
  O2-  O217  1  0.08622943  0.46089591  0.40534918  1
  O2-  O218  1  0.08903143  0.45619703  0.72825222  1
  O2-  O219  1  0.08135281  0.96201148  0.06744485  1
  O2-  O220  1  0.08562780  0.96514031  0.40205157  1
  O2-  O221  1  0.08385795  0.96416407  0.73544517  1
  O2-  O222  1  0.58765881  0.46255383  0.06087299  1
  O2-  O223  1  0.57882281  0.46075995  0.39607435  1
  O2-  O224  1  0.57865683  0.46229769  0.73497694  1
  O2-  O225  1  0.57727402  0.94260443  0.06394719  1
  O2-  O226  1  0.58103345  0.94867209  0.39475512  1
  O2-  O227  1  0.58072641  0.95466677  0.73118312  1
  O2-  O228  1  0.20493233  0.33278252  0.06640318  1
  O2-  O229  1  0.20718738  0.32955657  0.40400139  1
  O2-  O230  1  0.20683136  0.33448943  0.72611265  1
  O2-  O231  1  0.20138095  0.82633074  0.06622430  1
  O2-  O232  1  0.20846003  0.83180944  0.40080882  1
  O2-  O233  1  0.20589274  0.83048792  0.73602556  1
  O2-  O234  1  0.70395819  0.33790736  0.05934719  1
  O2-  O235  1  0.70403310  0.33185189  0.40038044  1
  O2-  O236  1  0.70269394  0.32834738  0.73476376  1
  O2-  O237  1  0.71178011  0.82856403  0.06875456  1
  O2-  O238  1  0.70503653  0.83478749  0.39394361  1
  O2-  O239  1  0.71148219  0.83404681  0.73149524  1
  O2-  O240  1  0.44739855  0.42378685  0.26610480  1
  O2-  O241  1  0.45467342  0.41799717  0.59821687  1
  O2-  O242  1  0.45582807  0.41994272  0.93236754  1
  O2-  O243  1  0.44811923  0.91361929  0.27379757  1
  O2-  O244  1  0.44409395  0.91866835  0.60858258  1
  O2-  O245  1  0.44636627  0.91319902  0.94058712  1
  O2-  O246  1  0.95871725  0.41649388  0.27505297  1
  O2-  O247  1  0.96156110  0.41765390  0.59878027  1
  O2-  O248  1  0.95921505  0.41546263  0.93928542  1
  O2-  O249  1  0.96398817  0.91825184  0.26595729  1
  O2-  O250  1  0.96220318  0.91787809  0.59922073  1
  O2-  O251  1  0.96016069  0.91850862  0.93142413  1
  O2-  O252  1  0.32832261  0.28962179  0.26688204  1
  O2-  O253  1  0.33354625  0.28665751  0.59644939  1
  O2-  O254  1  0.32808930  0.29172281  0.93325891  1
  O2-  O255  1  0.33585858  0.78743355  0.27071893  1
  O2-  O256  1  0.33356637  0.79032318  0.60593510  1
  O2-  O257  1  0.33532483  0.78728291  0.93801873  1
  O2-  O258  1  0.83851524  0.29618210  0.27415492  1
  O2-  O259  1  0.83108184  0.29347516  0.59942330  1
  O2-  O260  1  0.83695574  0.29909404  0.93957704  1
  O2-  O261  1  0.83344630  0.79100111  0.26203565  1
  O2-  O262  1  0.83527164  0.78937475  0.59775868  1
  O2-  O263  1  0.83588592  0.78519857  0.93155743  1
  O2-  O264  1  0.42024415  0.04525130  0.06872561  1
  O2-  O265  1  0.41805865  0.04707561  0.39677354  1
  O2-  O266  1  0.41514335  0.05248783  0.72854884  1
  O2-  O267  1  0.41894812  0.54840467  0.06334684  1
  O2-  O268  1  0.41732489  0.55356160  0.39526997  1
  O2-  O269  1  0.41310844  0.54354795  0.72893893  1
  O2-  O270  1  0.91737889  0.04384340  0.06714379  1
  O2-  O271  1  0.91541753  0.03843763  0.40485614  1
  O2-  O272  1  0.91702501  0.04785162  0.72820653  1
  O2-  O273  1  0.91267532  0.54461196  0.06343629  1
  O2-  O274  1  0.92141143  0.55389756  0.39894759  1
  O2-  O275  1  0.92203661  0.54448703  0.73514800  1
  O2-  O276  1  0.28824633  0.16692120  0.07035062  1
  O2-  O277  1  0.29344697  0.16243125  0.39870230  1
  O2-  O278  1  0.28852126  0.16399809  0.72941567  1
  O2-  O279  1  0.29680577  0.66220377  0.06622587  1
  O2-  O280  1  0.29132949  0.66346314  0.40185620  1
  O2-  O281  1  0.29312678  0.66021718  0.73326001  1
  O2-  O282  1  0.79513248  0.17330943  0.06697695  1
  O2-  O283  1  0.79369614  0.16762335  0.40352101  1
  O2-  O284  1  0.80086706  0.16768756  0.72833432  1
  O2-  O285  1  0.78994605  0.66064530  0.06181919  1
  O2-  O286  1  0.78745570  0.67176178  0.39861904  1
  O2-  O287  1  0.78936216  0.66815718  0.73615133  1
