# generated using pymatgen
data_Ca2Al2SiO7
_symmetry_space_group_name_H-M   'P 1'
_cell_length_a   15.47234755
_cell_length_b   15.47166287
_cell_length_c   15.29217908
_cell_angle_alpha   90.01012892
_cell_angle_beta   90.00875869
_cell_angle_gamma   89.95838544
_symmetry_Int_Tables_number   1
_chemical_formula_structural   Ca2Al2SiO7
_chemical_formula_sum   'Ca48 Al48 Si24 O168'
_cell_volume   3660.68580058
_cell_formula_units_Z   24
loop_
 _symmetry_equiv_pos_site_id
 _symmetry_equiv_pos_as_xyz
  1  'x, y, z'
loop_
 _atom_type_symbol
 _atom_type_oxidation_number
  Ca2+  2.0
  Al0+  0.0
  Si0+  0.0
  O2-  -2.0
loop_
 _atom_site_type_symbol
 _atom_site_label
 _atom_site_symmetry_multiplicity
 _atom_site_fract_x
 _atom_site_fract_y
 _atom_site_fract_z
 _atom_site_occupancy
  Ca2+  Ca0  1  0.16451954  0.07811505  0.17901395  1
  Ca2+  Ca1  1  0.15746557  0.07628308  0.50713211  1
  Ca2+  Ca2  1  0.15875907  0.07801544  0.83001735  1
  Ca2+  Ca3  1  0.16931474  0.58463795  0.17508197  1
  Ca2+  Ca4  1  0.17619431  0.59241801  0.50507360  1
  Ca2+  Ca5  1  0.17028452  0.59074015  0.83352035  1
  Ca2+  Ca6  1  0.66809847  0.07950832  0.17716336  1
  Ca2+  Ca7  1  0.66016923  0.07728232  0.50701059  1
  Ca2+  Ca8  1  0.65859343  0.07840956  0.82879869  1
  Ca2+  Ca9  1  0.67730745  0.58299960  0.16972882  1
  Ca2+  Ca10  1  0.66613596  0.57714893  0.51139660  1
  Ca2+  Ca11  1  0.67126299  0.57880619  0.83158981  1
  Ca2+  Ca12  1  0.08220391  0.32746837  0.16305526  1
  Ca2+  Ca13  1  0.08271507  0.32352166  0.50017967  1
  Ca2+  Ca14  1  0.06995680  0.33078497  0.82492277  1
  Ca2+  Ca15  1  0.08604783  0.82445612  0.16977226  1
  Ca2+  Ca16  1  0.07951179  0.83149553  0.49566208  1
  Ca2+  Ca17  1  0.07895855  0.82295633  0.82066534  1
  Ca2+  Ca18  1  0.57253452  0.33299397  0.16662120  1
  Ca2+  Ca19  1  0.57840715  0.32755368  0.49898079  1
  Ca2+  Ca20  1  0.57555462  0.33292996  0.82049717  1
  Ca2+  Ca21  1  0.58476112  0.83525318  0.16654856  1
  Ca2+  Ca22  1  0.58287727  0.83416550  0.49965894  1
  Ca2+  Ca23  1  0.57847915  0.82607682  0.81829162  1
  Ca2+  Ca24  1  0.33772476  0.42069254  0.17494455  1
  Ca2+  Ca25  1  0.34116564  0.42467174  0.50654164  1
  Ca2+  Ca26  1  0.33799189  0.41929525  0.83234550  1
  Ca2+  Ca27  1  0.32484530  0.92132477  0.17716806  1
  Ca2+  Ca28  1  0.32046683  0.91367939  0.50964751  1
  Ca2+  Ca29  1  0.32808163  0.91218737  0.82913090  1
  Ca2+  Ca30  1  0.84280574  0.42296936  0.16633783  1
  Ca2+  Ca31  1  0.82696846  0.41456342  0.51108913  1
  Ca2+  Ca32  1  0.83063195  0.41435100  0.83874511  1
  Ca2+  Ca33  1  0.82889195  0.91645776  0.17773941  1
  Ca2+  Ca34  1  0.82716641  0.91023571  0.50669824  1
  Ca2+  Ca35  1  0.82955365  0.91062060  0.82925902  1
  Ca2+  Ca36  1  0.41891798  0.17635360  0.16506095  1
  Ca2+  Ca37  1  0.42489469  0.17583692  0.49572614  1
  Ca2+  Ca38  1  0.42078132  0.17869535  0.82405042  1
  Ca2+  Ca39  1  0.41515806  0.66596657  0.16768138  1
  Ca2+  Ca40  1  0.41631518  0.66543790  0.50340551  1
  Ca2+  Ca41  1  0.42243132  0.66992751  0.81922091  1
  Ca2+  Ca42  1  0.92317619  0.16970221  0.16664364  1
  Ca2+  Ca43  1  0.92391075  0.16771079  0.50235008  1
  Ca2+  Ca44  1  0.91788022  0.17701640  0.82483971  1
  Ca2+  Ca45  1  0.92611212  0.66944980  0.16122119  1
  Ca2+  Ca46  1  0.92708013  0.67752601  0.49646876  1
  Ca2+  Ca47  1  0.92629442  0.66462868  0.82615255  1
  Al0+  Al48  1  -0.00201548  -0.00306144  0.00321334  1
  Al0+  Al49  1  -0.00251682  0.00127791  0.32903590  1
  Al0+  Al50  1  -0.00245128  -0.00013168  0.66860387  1
  Al0+  Al51  1  0.00175583  0.49908014  -0.00255295  1
  Al0+  Al52  1  0.00268624  0.50163905  0.33371811  1
  Al0+  Al53  1  0.00195512  0.50014040  0.65761421  1
  Al0+  Al54  1  0.49708803  -0.00002614  0.00256589  1
  Al0+  Al55  1  0.50009048  0.00048048  0.33255249  1
  Al0+  Al56  1  0.49752458  0.00006336  0.66670372  1
  Al0+  Al57  1  0.50056880  0.50053082  -0.00179464  1
  Al0+  Al58  1  0.50193341  0.50215997  0.33221727  1
  Al0+  Al59  1  0.50101100  0.50165758  0.66997143  1
  Al0+  Al60  1  0.25170423  0.24896414  -0.00403290  1
  Al0+  Al61  1  0.24965410  0.25188993  0.32576095  1
  Al0+  Al62  1  0.24946465  0.25115738  0.66189673  1
  Al0+  Al63  1  0.25011283  0.75002548  -0.00098179  1
  Al0+  Al64  1  0.25120114  0.75085708  0.33672651  1
  Al0+  Al65  1  0.25142783  0.75023312  0.67107036  1
  Al0+  Al66  1  0.74829556  0.24646017  0.00078723  1
  Al0+  Al67  1  0.74968043  0.25059614  0.32863431  1
  Al0+  Al68  1  0.74868766  0.24922712  0.66591680  1
  Al0+  Al69  1  0.74993433  0.74823614  0.00533064  1
  Al0+  Al70  1  0.75011870  0.75045821  0.33325285  1
  Al0+  Al71  1  0.75018104  0.74831211  0.66599809  1
  Al0+  Al72  1  0.07158414  0.68008906  0.98563177  1
  Al0+  Al73  1  0.68059951  0.42804215  0.67986302  1
  Al0+  Al74  1  0.17881365  0.93204790  0.34746816  1
  Al0+  Al75  1  0.31926336  0.56929010  0.68217075  1
  Al0+  Al76  1  0.07373084  0.68051589  0.31749722  1
  Al0+  Al77  1  0.67866694  0.92956647  0.34819489  1
  Al0+  Al78  1  0.57148992  0.67911493  0.65201808  1
  Al0+  Al79  1  0.43061827  0.32362859  0.31790842  1
  Al0+  Al80  1  0.42853438  0.82170281  0.65164373  1
  Al0+  Al81  1  0.92959760  0.31901342  0.98822571  1
  Al0+  Al82  1  0.43005337  0.32173061  0.98393817  1
  Al0+  Al83  1  0.92679188  0.32255787  0.65211663  1
  Al0+  Al84  1  0.42862604  0.32319751  0.65163985  1
  Al0+  Al85  1  0.32159061  0.56975207  0.34724267  1
  Al0+  Al86  1  0.17725920  0.93018213  0.68168759  1
  Al0+  Al87  1  0.57080505  0.17780707  0.65274970  1
  Al0+  Al88  1  0.92818090  0.82078170  0.65330408  1
  Al0+  Al89  1  0.06976717  0.17989703  0.31982182  1
  Al0+  Al90  1  0.57159113  0.17741143  0.31658679  1
  Al0+  Al91  1  0.67763578  0.92789266  0.68063643  1
  Al0+  Al92  1  0.07040637  0.17852987  0.65398150  1
  Al0+  Al93  1  0.07367092  0.67866621  0.65072725  1
  Al0+  Al94  1  0.92734719  0.82052550  0.31660548  1
  Al0+  Al95  1  0.82239886  0.56827539  0.01340142  1
  Si0+  Si96  1  0.92546610  0.82127692  0.98342315  1
  Si0+  Si97  1  0.82103874  0.07440323  0.35062439  1
  Si0+  Si98  1  0.57051127  0.17513441  0.98304474  1
  Si0+  Si99  1  0.32004106  0.07108156  0.01603027  1
  Si0+  Si100  1  0.82444804  0.57077823  0.68130162  1
  Si0+  Si101  1  0.42943347  0.82105219  0.98675783  1
  Si0+  Si102  1  0.92720561  0.32405112  0.31668812  1
  Si0+  Si103  1  0.07204810  0.17455551  0.98426511  1
  Si0+  Si104  1  0.82334020  0.57146136  0.34857702  1
  Si0+  Si105  1  0.57204196  0.67933993  0.31655925  1
  Si0+  Si106  1  0.67824200  0.92964540  0.01470446  1
  Si0+  Si107  1  0.32177117  0.57118615  0.01539915  1
  Si0+  Si108  1  0.67669275  0.42653416  0.01797139  1
  Si0+  Si109  1  0.42928890  0.82092582  0.31817754  1
  Si0+  Si110  1  0.68137002  0.43065801  0.34650260  1
  Si0+  Si111  1  0.17722787  0.42623990  0.35013847  1
  Si0+  Si112  1  0.57243383  0.68042127  0.98621803  1
  Si0+  Si113  1  0.32158638  0.07481199  0.34951171  1
  Si0+  Si114  1  0.32085603  0.07423272  0.68368237  1
  Si0+  Si115  1  0.82067316  0.07143971  0.68513143  1
  Si0+  Si116  1  0.17894730  0.92829327  0.01615225  1
  Si0+  Si117  1  0.82191103  0.07116683  0.01706555  1
  Si0+  Si118  1  0.17665368  0.42577833  0.68369505  1
  Si0+  Si119  1  0.18051316  0.42792523  0.01359259  1
  O2-  O120  1  0.24577036  0.00337591  0.05852207  1
  O2-  O121  1  0.25072085  0.00937053  0.39414148  1
  O2-  O122  1  0.25119317  0.00623011  0.72905855  1
  O2-  O123  1  0.25258406  0.49821557  0.05681380  1
  O2-  O124  1  0.24693807  0.49456101  0.39239118  1
  O2-  O125  1  0.24391104  0.49530253  0.72972522  1
  O2-  O126  1  0.74983846  -0.00032890  0.05739211  1
  O2-  O127  1  0.75180704  0.00597683  0.39365415  1
  O2-  O128  1  0.75151521  0.00247220  0.72955102  1
  O2-  O129  1  0.74900237  0.49190499  0.06234234  1
  O2-  O130  1  0.75648631  0.49646273  0.38922995  1
  O2-  O131  1  0.75953857  0.49865577  0.72646020  1
  O2-  O132  1  -0.00259127  0.25668899  0.27265618  1
  O2-  O133  1  0.00031843  0.25187092  0.60379203  1
  O2-  O134  1  0.00228751  0.24245608  0.94184404  1
  O2-  O135  1  -0.00044870  0.74922107  0.26562988  1
  O2-  O136  1  0.00258189  0.75221816  0.60311948  1
  O2-  O137  1  -0.00438757  0.75408760  0.94063920  1
  O2-  O138  1  0.49913417  0.24881817  0.26647682  1
  O2-  O139  1  0.49952133  0.25001213  0.60328482  1
  O2-  O140  1  0.50769304  0.24911615  0.93993136  1
  O2-  O141  1  0.50186695  0.75173192  0.27435550  1
  O2-  O142  1  0.50259136  0.75291221  0.60062830  1
  O2-  O143  1  0.50147519  0.75150997  0.94525652  1
  O2-  O144  1  0.07211311  0.17494867  0.09001642  1
  O2-  O145  1  0.06783994  0.17965857  0.43196487  1
  O2-  O146  1  0.06716179  0.17947318  0.76825632  1
  O2-  O147  1  0.07453589  0.68231285  0.09851162  1
  O2-  O148  1  0.07370576  0.68265940  0.42993307  1
  O2-  O149  1  0.07107867  0.67931963  0.76509661  1
  O2-  O150  1  0.56764074  0.17154651  0.08840108  1
  O2-  O151  1  0.57116218  0.17829077  0.42926424  1
  O2-  O152  1  0.56825731  0.17890529  0.76714408  1
  O2-  O153  1  0.57268583  0.68131306  0.09178705  1
  O2-  O154  1  0.57297031  0.67690205  0.42075797  1
  O2-  O155  1  0.57048554  0.67991711  0.76662047  1
  O2-  O156  1  0.17602348  0.42673798  0.24370966  1
  O2-  O157  1  0.17770353  0.42428221  0.57846613  1
  O2-  O158  1  0.18061500  0.42778598  0.90901194  1
  O2-  O159  1  0.18344841  0.93195049  0.23312417  1
  O2-  O160  1  0.17763126  0.93142264  0.56887013  1
  O2-  O161  1  0.18002064  0.92782723  0.91150717  1
  O2-  O162  1  0.68078381  0.43400225  0.24092249  1
  O2-  O163  1  0.68087866  0.43006185  0.56630334  1
  O2-  O164  1  0.67539549  0.42875884  0.91283927  1
  O2-  O165  1  0.68005926  0.92992460  0.23372511  1
  O2-  O166  1  0.67924084  0.92899526  0.56812603  1
  O2-  O167  1  0.67683244  0.92936434  0.91013025  1
  O2-  O168  1  0.43036962  0.32166913  0.09694061  1
  O2-  O169  1  0.43454678  0.32545530  0.43037928  1
  O2-  O170  1  0.43048486  0.32130546  0.76581698  1
  O2-  O171  1  0.42953848  0.82090441  0.09225375  1
  O2-  O172  1  0.42883703  0.82056073  0.42234759  1
  O2-  O173  1  0.43009607  0.81890203  0.76651953  1
  O2-  O174  1  0.93417400  0.31831928  0.10151026  1
  O2-  O175  1  0.92467609  0.32316129  0.42151002  1
  O2-  O176  1  0.92695485  0.32073819  0.76628585  1
  O2-  O177  1  0.92430373  0.82151123  0.08880074  1
  O2-  O178  1  0.92536393  0.81823636  0.42930802  1
  O2-  O179  1  0.92863174  0.81786366  0.76777850  1
  O2-  O180  1  0.32049824  0.07100354  0.24280891  1
  O2-  O181  1  0.32080474  0.07367429  0.57845058  1
  O2-  O182  1  0.32335201  0.06914670  0.91164321  1
  O2-  O183  1  0.32166977  0.56922046  0.23284451  1
  O2-  O184  1  0.31985362  0.56860893  0.56929103  1
  O2-  O185  1  0.32223603  0.57317387  0.91100058  1
  O2-  O186  1  0.81972856  0.07381969  0.24410770  1
  O2-  O187  1  0.82201024  0.07196128  0.57993357  1
  O2-  O188  1  0.82488273  0.07239787  0.91276749  1
  O2-  O189  1  0.82195316  0.57057940  0.24280937  1
  O2-  O190  1  0.82112792  0.57053271  0.57559748  1
  O2-  O191  1  0.81969537  0.56909543  0.90098353  1
  O2-  O192  1  0.03640896  0.08596308  0.26157198  1
  O2-  O193  1  0.03859635  0.08162292  0.60186362  1
  O2-  O194  1  0.04590975  0.07977347  0.94110271  1
  O2-  O195  1  0.04793260  0.57994992  0.26639100  1
  O2-  O196  1  0.04936390  0.58107590  0.59602570  1
  O2-  O197  1  0.04316321  0.58295731  0.93306296  1
  O2-  O198  1  0.54299614  0.07880928  0.26256738  1
  O2-  O199  1  0.54205658  0.08005387  0.60098655  1
  O2-  O200  1  0.53841466  0.08314449  0.93677539  1
  O2-  O201  1  0.54248431  0.58974942  0.26570890  1
  O2-  O202  1  0.53996780  0.58252665  0.59943753  1
  O2-  O203  1  0.54511761  0.58867472  0.93977011  1
  O2-  O204  1  0.16599702  0.20736154  0.26220098  1
  O2-  O205  1  0.16833598  0.20326382  0.60000427  1
  O2-  O206  1  0.16579721  0.19871868  0.93914937  1
  O2-  O207  1  0.17166991  0.71262217  0.26416479  1
  O2-  O208  1  0.17216308  0.70836430  0.60232590  1
  O2-  O209  1  0.16816895  0.71254770  0.93225700  1
  O2-  O210  1  0.66957249  0.20698596  0.26191986  1
  O2-  O211  1  0.66901778  0.20325418  0.60052634  1
  O2-  O212  1  0.66693874  0.19254538  0.94078742  1
  O2-  O213  1  0.66296028  0.70772840  0.26736824  1
  O2-  O214  1  0.67019994  0.70286833  0.59984931  1
  O2-  O215  1  0.66408625  0.70838354  0.93962710  1
  O2-  O216  1  0.08980364  0.45634947  0.06257080  1
  O2-  O217  1  0.08356450  0.45042695  0.39656206  1
  O2-  O218  1  0.08147033  0.45145143  0.72743091  1
  O2-  O219  1  0.08521900  0.95081129  0.06294466  1
  O2-  O220  1  0.07995638  0.96086384  0.39633925  1
  O2-  O221  1  0.08107324  0.96067736  0.73810647  1
  O2-  O222  1  0.58497403  0.45901425  0.06521425  1
  O2-  O223  1  0.59185838  0.46389975  0.39360624  1
  O2-  O224  1  0.58718966  0.46417735  0.73688845  1
  O2-  O225  1  0.58587549  0.95726417  0.06265181  1
  O2-  O226  1  0.58016746  0.95685055  0.39935553  1
  O2-  O227  1  0.58055460  0.95841281  0.73597271  1
  O2-  O228  1  0.20699374  0.33458093  0.06022948  1
  O2-  O229  1  0.20172929  0.33155153  0.39375882  1
  O2-  O230  1  0.20208223  0.33238681  0.73122707  1
  O2-  O231  1  0.21316323  0.83842711  0.06416402  1
  O2-  O232  1  0.21355424  0.83702561  0.40016889  1
  O2-  O233  1  0.21220766  0.83584488  0.73829859  1
  O2-  O234  1  0.69678854  0.33042768  0.06160866  1
  O2-  O235  1  0.70496581  0.33673731  0.39102301  1
  O2-  O236  1  0.70700217  0.33072375  0.73528133  1
  O2-  O237  1  0.70400991  0.83760201  0.06335468  1
  O2-  O238  1  0.70813922  0.83167005  0.39961321  1
  O2-  O239  1  0.70939789  0.83110361  0.73577690  1
  O2-  O240  1  0.46517221  0.42030546  0.26283199  1
  O2-  O241  1  0.46058975  0.42055281  0.60178025  1
  O2-  O242  1  0.45836233  0.41999252  0.93234522  1
  O2-  O243  1  0.45542266  0.91262034  0.26886310  1
  O2-  O244  1  0.45069789  0.92099697  0.60065137  1
  O2-  O245  1  0.45503086  0.91364346  0.94057040  1
  O2-  O246  1  0.95360090  0.41799793  0.27157873  1
  O2-  O247  1  0.95221294  0.41956945  0.59660590  1
  O2-  O248  1  0.96130037  0.41406309  0.93344685  1
  O2-  O249  1  0.95308491  0.91955940  0.26361903  1
  O2-  O250  1  0.95118972  0.92053433  0.60326390  1
  O2-  O251  1  0.94916671  0.91620357  0.93943387  1
  O2-  O252  1  0.33145663  0.29954422  0.26377008  1
  O2-  O253  1  0.33005875  0.29871066  0.59939462  1
  O2-  O254  1  0.33398567  0.28921673  0.93031566  1
  O2-  O255  1  0.33944784  0.79027406  0.26832609  1
  O2-  O256  1  0.33146955  0.79022168  0.60066838  1
  O2-  O257  1  0.33850469  0.79237269  0.93929462  1
  O2-  O258  1  0.83499012  0.29850315  0.26742788  1
  O2-  O259  1  0.82994310  0.29195957  0.59929607  1
  O2-  O260  1  0.83055825  0.29074054  0.93769324  1
  O2-  O261  1  0.82918125  0.78988308  0.26255713  1
  O2-  O262  1  0.83127451  0.79070701  0.60024123  1
  O2-  O263  1  0.83115674  0.79481835  0.93955451  1
  O2-  O264  1  0.40979107  0.03939775  0.06683516  1
  O2-  O265  1  0.41475319  0.04706013  0.39342135  1
  O2-  O266  1  0.41292700  0.04676671  0.73249398  1
  O2-  O267  1  0.41494875  0.54565535  0.06247926  1
  O2-  O268  1  0.41974562  0.54117941  0.39913113  1
  O2-  O269  1  0.41571636  0.53931919  0.73804723  1
  O2-  O270  1  0.91318413  0.04270304  0.06695437  1
  O2-  O271  1  0.91467647  0.04879177  0.39474791  1
  O2-  O272  1  0.91269921  0.04548975  0.73472094  1
  O2-  O273  1  0.91915196  0.53719819  0.06825473  1
  O2-  O274  1  0.91666082  0.54880653  0.39449973  1
  O2-  O275  1  0.92022822  0.54853510  0.72429021  1
  O2-  O276  1  0.29535544  0.16431143  0.06270845  1
  O2-  O277  1  0.29986177  0.17085025  0.39036878  1
  O2-  O278  1  0.29504644  0.16818957  0.73012405  1
  O2-  O279  1  0.29303817  0.66330511  0.06302084  1
  O2-  O280  1  0.29261107  0.66655843  0.40034773  1
  O2-  O281  1  0.29046482  0.66561044  0.73905398  1
  O2-  O282  1  0.79421223  0.16222988  0.06697137  1
  O2-  O283  1  0.79716946  0.16933559  0.39432145  1
  O2-  O284  1  0.79339211  0.16428802  0.73249893  1
  O2-  O285  1  0.78858070  0.66369220  0.07048549  1
  O2-  O286  1  0.79012164  0.66122810  0.39466232  1
  O2-  O287  1  0.79512064  0.66207628  0.73002898  1
