# generated using pymatgen
data_Ca2Al2SiO7
_symmetry_space_group_name_H-M   'P 1'
_cell_length_a   15.45288199
_cell_length_b   15.45325744
_cell_length_c   15.28024419
_cell_angle_alpha   90.00652878
_cell_angle_beta   90.00504104
_cell_angle_gamma   89.99644312
_symmetry_Int_Tables_number   1
_chemical_formula_structural   Ca2Al2SiO7
_chemical_formula_sum   'Ca48 Al48 Si24 O168'
_cell_volume   3648.88198010
_cell_formula_units_Z   24
loop_
 _symmetry_equiv_pos_site_id
 _symmetry_equiv_pos_as_xyz
  1  'x, y, z'
loop_
 _atom_type_symbol
 _atom_type_oxidation_number
  Ca2+  2.0
  Al0+  0.0
  Si0+  0.0
  O2-  -2.0
loop_
 _atom_site_type_symbol
 _atom_site_label
 _atom_site_symmetry_multiplicity
 _atom_site_fract_x
 _atom_site_fract_y
 _atom_site_fract_z
 _atom_site_occupancy
  Ca2+  Ca0  1  0.16585524  0.07705709  0.17715434  1
  Ca2+  Ca1  1  0.16282013  0.08152758  0.49956101  1
  Ca2+  Ca2  1  0.16982374  0.08044303  0.83474945  1
  Ca2+  Ca3  1  0.17178913  0.58334144  0.17805635  1
  Ca2+  Ca4  1  0.16867836  0.57550436  0.50072411  1
  Ca2+  Ca5  1  0.16362940  0.57860037  0.83523456  1
  Ca2+  Ca6  1  0.66634427  0.06944948  0.17148402  1
  Ca2+  Ca7  1  0.66696583  0.07379731  0.50961683  1
  Ca2+  Ca8  1  0.66598907  0.07743258  0.83345197  1
  Ca2+  Ca9  1  0.66755749  0.58696858  0.16759060  1
  Ca2+  Ca10  1  0.67132487  0.58499350  0.50472710  1
  Ca2+  Ca11  1  0.67872794  0.58147945  0.84240402  1
  Ca2+  Ca12  1  0.08114609  0.33224235  0.16488057  1
  Ca2+  Ca13  1  0.08375579  0.33330122  0.49624473  1
  Ca2+  Ca14  1  0.07122675  0.33786496  0.82706735  1
  Ca2+  Ca15  1  0.09018958  0.82084243  0.16369005  1
  Ca2+  Ca16  1  0.07507763  0.83167541  0.49184617  1
  Ca2+  Ca17  1  0.07526712  0.82261934  0.82703735  1
  Ca2+  Ca18  1  0.57709023  0.33970945  0.16195806  1
  Ca2+  Ca19  1  0.57515108  0.32971111  0.49607406  1
  Ca2+  Ca20  1  0.58474803  0.32825496  0.82354454  1
  Ca2+  Ca21  1  0.58462830  0.82480061  0.16009346  1
  Ca2+  Ca22  1  0.58363654  0.83222449  0.49605870  1
  Ca2+  Ca23  1  0.58054276  0.83742939  0.82926668  1
  Ca2+  Ca24  1  0.32904142  0.42568524  0.18169366  1
  Ca2+  Ca25  1  0.32790963  0.41444462  0.50172900  1
  Ca2+  Ca26  1  0.32828542  0.41210154  0.83318775  1
  Ca2+  Ca27  1  0.33033257  0.91449740  0.17191565  1
  Ca2+  Ca28  1  0.32604394  0.90987521  0.50399287  1
  Ca2+  Ca29  1  0.34044861  0.91342153  0.83674771  1
  Ca2+  Ca30  1  0.83122536  0.41844614  0.16152104  1
  Ca2+  Ca31  1  0.83811984  0.42471796  0.51008807  1
  Ca2+  Ca32  1  0.83386527  0.42265692  0.84139034  1
  Ca2+  Ca33  1  0.82052292  0.90900769  0.17025492  1
  Ca2+  Ca34  1  0.82321696  0.91892619  0.51167947  1
  Ca2+  Ca35  1  0.82376817  0.91634704  0.83289618  1
  Ca2+  Ca36  1  0.41364678  0.17473657  0.16721270  1
  Ca2+  Ca37  1  0.41812906  0.17725869  0.50105848  1
  Ca2+  Ca38  1  0.42716520  0.17224771  0.82167163  1
  Ca2+  Ca39  1  0.42725151  0.66742001  0.16131097  1
  Ca2+  Ca40  1  0.42212180  0.66781922  0.49321978  1
  Ca2+  Ca41  1  0.42591655  0.67719384  0.83142234  1
  Ca2+  Ca42  1  0.92234736  0.17128171  0.16395651  1
  Ca2+  Ca43  1  0.91642504  0.17079257  0.49788449  1
  Ca2+  Ca44  1  0.90847832  0.17806964  0.82648630  1
  Ca2+  Ca45  1  0.93008094  0.65908230  0.16174739  1
  Ca2+  Ca46  1  0.91747959  0.67063576  0.49883021  1
  Ca2+  Ca47  1  0.91551198  0.66292803  0.82941553  1
  Al0+  Al48  1  0.00185147  -0.00057810  0.00068085  1
  Al0+  Al49  1  -0.00166536  0.00241882  0.33131404  1
  Al0+  Al50  1  -0.00096037  -0.00139780  0.66929159  1
  Al0+  Al51  1  0.00060139  0.49810440  -0.00305566  1
  Al0+  Al52  1  -0.00077371  0.50112081  0.33308348  1
  Al0+  Al53  1  0.00216524  0.49852289  0.67014204  1
  Al0+  Al54  1  0.49926183  0.00276572  0.00401408  1
  Al0+  Al55  1  0.49978285  0.00177681  0.33810366  1
  Al0+  Al56  1  0.49761979  -0.00083158  0.66056167  1
  Al0+  Al57  1  0.49859914  0.50167121  -0.00343561  1
  Al0+  Al58  1  0.50099936  0.50143400  0.32960510  1
  Al0+  Al59  1  0.49805796  0.50170400  0.66435590  1
  Al0+  Al60  1  0.24957846  0.24797299  0.00028197  1
  Al0+  Al61  1  0.24853157  0.24971099  0.32759842  1
  Al0+  Al62  1  0.24925230  0.24915213  0.66986178  1
  Al0+  Al63  1  0.24960142  0.74906332  -0.00972638  1
  Al0+  Al64  1  0.24951906  0.75090786  0.33977941  1
  Al0+  Al65  1  0.25157052  0.74742207  0.66461508  1
  Al0+  Al66  1  0.74978639  0.25057315  0.00253434  1
  Al0+  Al67  1  0.74894534  0.25023571  0.33152012  1
  Al0+  Al68  1  0.75073311  0.24905592  0.65813155  1
  Al0+  Al69  1  0.75293221  0.74920200  0.00630060  1
  Al0+  Al70  1  0.74862876  0.75033394  0.33451486  1
  Al0+  Al71  1  0.75145598  0.74955490  0.67164972  1
  Al0+  Al72  1  0.82073885  0.56950981  0.67973088  1
  Al0+  Al73  1  0.43089743  0.82228425  0.98685887  1
  Al0+  Al74  1  0.57235599  0.17877495  0.65050161  1
  Al0+  Al75  1  0.92993288  0.32157628  0.65282327  1
  Al0+  Al76  1  0.67887087  0.93064704  0.01490638  1
  Al0+  Al77  1  0.07091287  0.67837401  0.98505592  1
  Al0+  Al78  1  0.93046155  0.31735994  0.98669040  1
  Al0+  Al79  1  0.17794611  0.42823556  0.34733196  1
  Al0+  Al80  1  0.42689486  0.32287975  0.65227933  1
  Al0+  Al81  1  0.82252644  0.07289606  0.68171048  1
  Al0+  Al82  1  0.57443996  0.67809926  0.98355039  1
  Al0+  Al83  1  0.07043449  0.68056315  0.32215351  1
  Al0+  Al84  1  0.92899110  0.82016089  0.65411504  1
  Al0+  Al85  1  0.82314156  0.57066126  0.01783985  1
  Al0+  Al86  1  0.67691171  0.92962868  0.68262656  1
  Al0+  Al87  1  0.67675432  0.42842452  0.01430849  1
  Al0+  Al88  1  0.32372171  0.57196772  0.34847970  1
  Al0+  Al89  1  0.43022511  0.31999644  0.31859739  1
  Al0+  Al90  1  0.17859001  0.92923951  0.34663987  1
  Al0+  Al91  1  0.06925791  0.17943869  0.31981171  1
  Al0+  Al92  1  0.67944658  0.92867139  0.34882007  1
  Al0+  Al93  1  0.18168648  0.42855980  0.68208373  1
  Al0+  Al94  1  0.42890649  0.82040501  0.65050681  1
  Al0+  Al95  1  0.57154087  0.68056494  0.31968542  1
  Si0+  Si96  1  0.31896991  0.57161531  0.01289906  1
  Si0+  Si97  1  0.56924277  0.18047173  0.98751447  1
  Si0+  Si98  1  0.32122626  0.07343254  0.35145876  1
  Si0+  Si99  1  0.92823023  0.82380736  0.98438177  1
  Si0+  Si100  1  0.17814824  0.92593778  0.68270519  1
  Si0+  Si101  1  0.82348239  0.07337127  0.01812001  1
  Si0+  Si102  1  0.82087969  0.56961080  0.34869410  1
  Si0+  Si103  1  0.57260483  0.17736936  0.31420295  1
  Si0+  Si104  1  0.07373724  0.17540331  0.98145340  1
  Si0+  Si105  1  0.32046794  0.07174785  0.01613377  1
  Si0+  Si106  1  0.32380509  0.57375016  0.68668722  1
  Si0+  Si107  1  0.17985039  0.92773817  0.01299946  1
  Si0+  Si108  1  0.92582017  0.32441096  0.31542233  1
  Si0+  Si109  1  0.07233466  0.17673720  0.65180059  1
  Si0+  Si110  1  0.82124932  0.07393360  0.34944295  1
  Si0+  Si111  1  0.67598910  0.42817565  0.67872090  1
  Si0+  Si112  1  0.92751045  0.82255071  0.31672705  1
  Si0+  Si113  1  0.31873093  0.06930709  0.68120677  1
  Si0+  Si114  1  0.57333927  0.67918458  0.65078129  1
  Si0+  Si115  1  0.42681835  0.32206300  0.98536898  1
  Si0+  Si116  1  0.18001483  0.42801573  0.01533816  1
  Si0+  Si117  1  0.67840639  0.42800595  0.34841780  1
  Si0+  Si118  1  0.42753214  0.82365279  0.31865035  1
  Si0+  Si119  1  0.07213921  0.67704888  0.64831502  1
  O2-  O120  1  0.24980593  -0.00056390  0.05640528  1
  O2-  O121  1  0.25441807  0.00232604  0.39502336  1
  O2-  O122  1  0.25019292  -0.00377614  0.72508537  1
  O2-  O123  1  0.25170945  0.49785119  0.05708687  1
  O2-  O124  1  0.25115690  0.49923681  0.39703474  1
  O2-  O125  1  0.25700012  0.50238369  0.73006564  1
  O2-  O126  1  0.75770191  0.00187187  0.06229267  1
  O2-  O127  1  0.75280380  0.00545560  0.39329667  1
  O2-  O128  1  0.74867491  0.00280459  0.73187095  1
  O2-  O129  1  0.74601351  0.50254765  0.06652232  1
  O2-  O130  1  0.75146067  0.49665943  0.39068885  1
  O2-  O131  1  0.74561250  0.49430371  0.72452043  1
  O2-  O132  1  -0.00416377  0.25554636  0.27329434  1
  O2-  O133  1  0.00230368  0.24381714  0.60778605  1
  O2-  O134  1  0.00331524  0.24137513  0.93793023  1
  O2-  O135  1  -0.00122889  0.75668746  0.27210855  1
  O2-  O136  1  0.00452344  0.74728784  0.60539287  1
  O2-  O137  1  -0.00607589  0.75185621  0.94063281  1
  O2-  O138  1  0.50547046  0.24695006  0.26887338  1
  O2-  O139  1  0.50278256  0.25484653  0.60285339  1
  O2-  O140  1  0.50260620  0.25570220  0.94474921  1
  O2-  O141  1  0.49603732  0.75569777  0.27407945  1
  O2-  O142  1  0.50490351  0.74733367  0.60510794  1
  O2-  O143  1  0.50680854  0.75541059  0.93530209  1
  O2-  O144  1  0.07603440  0.17530711  0.08686265  1
  O2-  O145  1  0.06726418  0.17813135  0.43278738  1
  O2-  O146  1  0.07495612  0.17771897  0.75756582  1
  O2-  O147  1  0.07476651  0.68009160  0.09840165  1
  O2-  O148  1  0.06620506  0.68015547  0.43490619  1
  O2-  O149  1  0.07224573  0.67878085  0.75436213  1
  O2-  O150  1  0.56518448  0.17875788  0.09259599  1
  O2-  O151  1  0.57260285  0.17886744  0.41932684  1
  O2-  O152  1  0.56939791  0.17889659  0.76516828  1
  O2-  O153  1  0.56944302  0.67835480  0.09734273  1
  O2-  O154  1  0.57403710  0.68115861  0.43281605  1
  O2-  O155  1  0.57183137  0.67888958  0.75610639  1
  O2-  O156  1  0.17922422  0.43014987  0.23296626  1
  O2-  O157  1  0.18139160  0.42872126  0.56931076  1
  O2-  O158  1  0.18194025  0.42667532  0.91018987  1
  O2-  O159  1  0.18149337  0.92943903  0.23283568  1
  O2-  O160  1  0.17753660  0.92753220  0.57768345  1
  O2-  O161  1  0.17966691  0.93032679  0.90782543  1
  O2-  O162  1  0.67895042  0.42740696  0.24344007  1
  O2-  O163  1  0.67592878  0.43206739  0.57272311  1
  O2-  O164  1  0.67879742  0.42444546  0.90069811  1
  O2-  O165  1  0.68038439  0.92908138  0.23527603  1
  O2-  O166  1  0.67920733  0.92920928  0.56898520  1
  O2-  O167  1  0.67616108  0.93537428  0.90241307  1
  O2-  O168  1  0.42388309  0.31924293  0.09047391  1
  O2-  O169  1  0.43113273  0.31789194  0.43125464  1
  O2-  O170  1  0.42714231  0.31803398  0.76660246  1
  O2-  O171  1  0.42682296  0.82061670  0.10039712  1
  O2-  O172  1  0.42899359  0.82239952  0.42415251  1
  O2-  O173  1  0.42858545  0.81995937  0.76357238  1
  O2-  O174  1  0.93410755  0.31601451  0.10006787  1
  O2-  O175  1  0.92434283  0.32475618  0.42087505  1
  O2-  O176  1  0.93140501  0.32187049  0.76596260  1
  O2-  O177  1  0.93266178  0.82714054  0.09001688  1
  O2-  O178  1  0.92774375  0.82070204  0.42245965  1
  O2-  O179  1  0.93155375  0.81914908  0.76730019  1
  O2-  O180  1  0.32070770  0.07256977  0.24520702  1
  O2-  O181  1  0.31508892  0.07106145  0.57643131  1
  O2-  O182  1  0.32010565  0.07492708  0.91104277  1
  O2-  O183  1  0.32230175  0.57151804  0.23389632  1
  O2-  O184  1  0.32304123  0.57611675  0.58146059  1
  O2-  O185  1  0.31718261  0.57003077  0.90786844  1
  O2-  O186  1  0.82004581  0.07460776  0.24357759  1
  O2-  O187  1  0.82408999  0.06969218  0.56800084  1
  O2-  O188  1  0.82206064  0.07512210  0.91294009  1
  O2-  O189  1  0.82241978  0.56884765  0.24392204  1
  O2-  O190  1  0.82032631  0.56957333  0.56585659  1
  O2-  O191  1  0.82429081  0.56649930  0.90426304  1
  O2-  O192  1  0.03744961  0.08406159  0.26161543  1
  O2-  O193  1  0.04967464  0.08189633  0.60723869  1
  O2-  O194  1  0.05242689  0.08006189  0.93663489  1
  O2-  O195  1  0.03854465  0.58464689  0.26648760  1
  O2-  O196  1  0.04472450  0.58384227  0.60431078  1
  O2-  O197  1  0.04186243  0.58165745  0.93117070  1
  O2-  O198  1  0.54364542  0.08381605  0.26900258  1
  O2-  O199  1  0.53724561  0.08353554  0.59605832  1
  O2-  O200  1  0.53562193  0.09153793  0.93859012  1
  O2-  O201  1  0.54277393  0.58445996  0.26387051  1
  O2-  O202  1  0.54759232  0.58563420  0.60394252  1
  O2-  O203  1  0.54134848  0.58154921  0.92882327  1
  O2-  O204  1  0.16530502  0.20629970  0.26219609  1
  O2-  O205  1  0.16496229  0.20429065  0.60526414  1
  O2-  O206  1  0.16735316  0.20268306  0.93517977  1
  O2-  O207  1  0.16824041  0.71108598  0.26939913  1
  O2-  O208  1  0.16636872  0.70129299  0.60400398  1
  O2-  O209  1  0.16386767  0.71175590  0.92575503  1
  O2-  O210  1  0.66692551  0.20088274  0.26817571  1
  O2-  O211  1  0.66980311  0.20205313  0.59407759  1
  O2-  O212  1  0.66268064  0.20332912  0.94184149  1
  O2-  O213  1  0.66759042  0.71267186  0.26476703  1
  O2-  O214  1  0.66713705  0.70446630  0.60567085  1
  O2-  O215  1  0.67670681  0.70073408  0.93750615  1
  O2-  O216  1  0.08852247  0.45576598  0.06134761  1
  O2-  O217  1  0.07918659  0.45703435  0.39960579  1
  O2-  O218  1  0.08685376  0.46219551  0.73816740  1
  O2-  O219  1  0.08823897  0.95385020  0.06221025  1
  O2-  O220  1  0.08118053  0.96196387  0.39843214  1
  O2-  O221  1  0.08792224  0.95459816  0.73250747  1
  O2-  O222  1  0.57582527  0.45458713  0.06491405  1
  O2-  O223  1  0.58780247  0.45813098  0.39530228  1
  O2-  O224  1  0.58179915  0.45188203  0.72524936  1
  O2-  O225  1  0.58373586  0.96595545  0.07045392  1
  O2-  O226  1  0.58197010  0.95834032  0.40162156  1
  O2-  O227  1  0.57661863  0.95857885  0.73177235  1
  O2-  O228  1  0.20627877  0.33442037  0.06124099  1
  O2-  O229  1  0.20548980  0.32843761  0.39709064  1
  O2-  O230  1  0.21097322  0.33187298  0.73839337  1
  O2-  O231  1  0.20935492  0.83542188  0.05819443  1
  O2-  O232  1  0.20646353  0.83451543  0.40510034  1
  O2-  O233  1  0.20656420  0.83354853  0.72867710  1
  O2-  O234  1  0.70657498  0.33080072  0.07029205  1
  O2-  O235  1  0.70281013  0.33439686  0.39462659  1
  O2-  O236  1  0.69929396  0.33244854  0.72014258  1
  O2-  O237  1  0.70839257  0.83384552  0.06938418  1
  O2-  O238  1  0.71186061  0.83286357  0.40313220  1
  O2-  O239  1  0.70792912  0.83245611  0.73609151  1
  O2-  O240  1  0.46124623  0.41614658  0.26384945  1
  O2-  O241  1  0.44859509  0.42308590  0.60061771  1
  O2-  O242  1  0.44695449  0.41511227  0.93849438  1
  O2-  O243  1  0.45057975  0.91934721  0.27480395  1
  O2-  O244  1  0.45273678  0.91748972  0.59524098  1
  O2-  O245  1  0.45443445  0.92386913  0.93680077  1
  O2-  O246  1  0.95183123  0.41729154  0.26892992  1
  O2-  O247  1  0.96545397  0.41680441  0.59892293  1
  O2-  O248  1  0.96396319  0.41224853  0.93191449  1
  O2-  O249  1  0.94817429  0.91741354  0.27165319  1
  O2-  O250  1  0.95998894  0.91692781  0.60019173  1
  O2-  O251  1  0.95686134  0.91651401  0.93698280  1
  O2-  O252  1  0.33480661  0.28791379  0.26235039  1
  O2-  O253  1  0.33043585  0.28641937  0.60043440  1
  O2-  O254  1  0.33668449  0.28788685  0.93758723  1
  O2-  O255  1  0.33263874  0.79981397  0.27493079  1
  O2-  O256  1  0.33198148  0.78839612  0.59701726  1
  O2-  O257  1  0.33474066  0.79153360  0.92985283  1
  O2-  O258  1  0.83259444  0.29691550  0.26846764  1
  O2-  O259  1  0.83400738  0.29594203  0.59545664  1
  O2-  O260  1  0.83224936  0.28902083  0.93434660  1
  O2-  O261  1  0.83541891  0.79222644  0.27097589  1
  O2-  O262  1  0.83290196  0.78788415  0.60014532  1
  O2-  O263  1  0.83340696  0.80140283  0.94113793  1
  O2-  O264  1  0.41094911  0.04650492  0.06695360  1
  O2-  O265  1  0.41565093  0.05252202  0.39742844  1
  O2-  O266  1  0.41087023  0.04227331  0.72793929  1
  O2-  O267  1  0.41190589  0.54694377  0.05928609  1
  O2-  O268  1  0.42223934  0.54242568  0.40037797  1
  O2-  O269  1  0.41833978  0.55020577  0.73242661  1
  O2-  O270  1  0.91953284  0.05023890  0.06203730  1
  O2-  O271  1  0.91527825  0.05020596  0.39447223  1
  O2-  O272  1  0.92070813  0.04492830  0.73665887  1
  O2-  O273  1  0.92069222  0.53447645  0.06979215  1
  O2-  O274  1  0.91216655  0.54303025  0.39757225  1
  O2-  O275  1  0.91725263  0.53923443  0.73352367  1
  O2-  O276  1  0.29008038  0.16250999  0.06586465  1
  O2-  O277  1  0.29089111  0.16561656  0.39623992  1
  O2-  O278  1  0.28940721  0.15890062  0.73289412  1
  O2-  O279  1  0.28762754  0.66316923  0.05845340  1
  O2-  O280  1  0.29606222  0.66939896  0.40276255  1
  O2-  O281  1  0.29405984  0.66601422  0.73414038  1
  O2-  O282  1  0.79543580  0.16500647  0.06660734  1
  O2-  O283  1  0.79672102  0.16859216  0.39481980  1
  O2-  O284  1  0.79374572  0.17310776  0.73153640  1
  O2-  O285  1  0.80393036  0.67072821  0.07137840  1
  O2-  O286  1  0.79092942  0.66100691  0.39550092  1
  O2-  O287  1  0.79133332  0.66468197  0.73639969  1
