# generated using pymatgen
data_Ca2Al2SiO7
_symmetry_space_group_name_H-M   'P 1'
_cell_length_a   15.45636508
_cell_length_b   15.45603211
_cell_length_c   15.28225406
_cell_angle_alpha   89.99527724
_cell_angle_beta   90.00132621
_cell_angle_gamma   90.02100888
_symmetry_Int_Tables_number   1
_chemical_formula_structural   Ca2Al2SiO7
_chemical_formula_sum   'Ca48 Al48 Si24 O168'
_cell_volume   3650.83968652
_cell_formula_units_Z   24
loop_
 _symmetry_equiv_pos_site_id
 _symmetry_equiv_pos_as_xyz
  1  'x, y, z'
loop_
 _atom_type_symbol
 _atom_type_oxidation_number
  Ca2+  2.0
  Al0+  0.0
  Si0+  0.0
  O2-  -2.0
loop_
 _atom_site_type_symbol
 _atom_site_label
 _atom_site_symmetry_multiplicity
 _atom_site_fract_x
 _atom_site_fract_y
 _atom_site_fract_z
 _atom_site_occupancy
  Ca2+  Ca0  1  0.16624275  0.07288925  0.17205775  1
  Ca2+  Ca1  1  0.17458728  0.08866974  0.50622539  1
  Ca2+  Ca2  1  0.16506626  0.08278310  0.83675108  1
  Ca2+  Ca3  1  0.17548471  0.58426266  0.17903026  1
  Ca2+  Ca4  1  0.16110870  0.57433778  0.49595933  1
  Ca2+  Ca5  1  0.16752126  0.57531596  0.83798020  1
  Ca2+  Ca6  1  0.66614204  0.07457942  0.17712967  1
  Ca2+  Ca7  1  0.67609199  0.08436891  0.49728153  1
  Ca2+  Ca8  1  0.67701606  0.07826684  0.83771556  1
  Ca2+  Ca9  1  0.67877420  0.57862720  0.16886151  1
  Ca2+  Ca10  1  0.67200622  0.58663937  0.50287725  1
  Ca2+  Ca11  1  0.67067808  0.57978476  0.84200819  1
  Ca2+  Ca12  1  0.08131127  0.33019486  0.16590887  1
  Ca2+  Ca13  1  0.07839481  0.33372102  0.49627761  1
  Ca2+  Ca14  1  0.08032526  0.32407240  0.82360692  1
  Ca2+  Ca15  1  0.09168667  0.83019274  0.16363849  1
  Ca2+  Ca16  1  0.07999666  0.83168205  0.49365735  1
  Ca2+  Ca17  1  0.07860768  0.83274396  0.82903395  1
  Ca2+  Ca18  1  0.58662046  0.32792271  0.16491014  1
  Ca2+  Ca19  1  0.57851855  0.32431844  0.49023273  1
  Ca2+  Ca20  1  0.58248259  0.33748205  0.83053801  1
  Ca2+  Ca21  1  0.57718127  0.83951901  0.15953354  1
  Ca2+  Ca22  1  0.58445510  0.83170426  0.49556552  1
  Ca2+  Ca23  1  0.58101820  0.82955096  0.83039259  1
  Ca2+  Ca24  1  0.32722691  0.42888650  0.17383322  1
  Ca2+  Ca25  1  0.31676662  0.41372679  0.50182805  1
  Ca2+  Ca26  1  0.32690964  0.42220766  0.83663493  1
  Ca2+  Ca27  1  0.32400052  0.91591922  0.17302121  1
  Ca2+  Ca28  1  0.32657522  0.92630201  0.49770498  1
  Ca2+  Ca29  1  0.32875326  0.91989602  0.83958470  1
  Ca2+  Ca30  1  0.83691406  0.42371280  0.17152731  1
  Ca2+  Ca31  1  0.84498669  0.42029373  0.50072207  1
  Ca2+  Ca32  1  0.82983472  0.42045777  0.83898577  1
  Ca2+  Ca33  1  0.82039730  0.92299784  0.17476165  1
  Ca2+  Ca34  1  0.83628361  0.92771001  0.50396644  1
  Ca2+  Ca35  1  0.83306010  0.91883191  0.83598062  1
  Ca2+  Ca36  1  0.42106609  0.15891552  0.16768755  1
  Ca2+  Ca37  1  0.41943038  0.15781841  0.49171112  1
  Ca2+  Ca38  1  0.41792668  0.16534519  0.82745504  1
  Ca2+  Ca39  1  0.41056528  0.67141436  0.15818077  1
  Ca2+  Ca40  1  0.42261988  0.66280888  0.49408670  1
  Ca2+  Ca41  1  0.41969609  0.67035952  0.83145652  1
  Ca2+  Ca42  1  0.91857907  0.16946317  0.16477420  1
  Ca2+  Ca43  1  0.91242168  0.17608308  0.49491618  1
  Ca2+  Ca44  1  0.92801087  0.16798492  0.82262539  1
  Ca2+  Ca45  1  0.91981861  0.66130631  0.16777890  1
  Ca2+  Ca46  1  0.92014240  0.67293777  0.49133985  1
  Ca2+  Ca47  1  0.91063350  0.67403973  0.82776428  1
  Al0+  Al48  1  0.00137559  -0.00061899  0.00000532  1
  Al0+  Al49  1  -0.00306138  0.00032825  0.33820721  1
  Al0+  Al50  1  0.00123801  0.00016024  0.66271409  1
  Al0+  Al51  1  0.00044305  0.49909524  0.00087868  1
  Al0+  Al52  1  -0.00018359  0.50158018  0.33100969  1
  Al0+  Al53  1  0.00012184  0.50003189  0.67171329  1
  Al0+  Al54  1  0.50004112  0.00034903  -0.00498045  1
  Al0+  Al55  1  0.49951472  -0.00216309  0.33587930  1
  Al0+  Al56  1  0.49920848  -0.00122806  0.67082007  1
  Al0+  Al57  1  0.50068929  0.49911202  0.00702525  1
  Al0+  Al58  1  0.50126342  0.49971515  0.33338964  1
  Al0+  Al59  1  0.50034851  0.50041551  0.66133412  1
  Al0+  Al60  1  0.25184022  0.24998536  -0.00423033  1
  Al0+  Al61  1  0.24998291  0.25125853  0.33672348  1
  Al0+  Al62  1  0.25058488  0.25115131  0.67361284  1
  Al0+  Al63  1  0.25020729  0.75120955  -0.00216351  1
  Al0+  Al64  1  0.25099241  0.75022328  0.33982590  1
  Al0+  Al65  1  0.25196646  0.75050908  0.66504881  1
  Al0+  Al66  1  0.75020643  0.25047220  0.00040719  1
  Al0+  Al67  1  0.74835248  0.24951489  0.32514583  1
  Al0+  Al68  1  0.74995158  0.24967566  0.66876953  1
  Al0+  Al69  1  0.75027410  0.75000771  0.00774504  1
  Al0+  Al70  1  0.74930345  0.74831586  0.33818330  1
  Al0+  Al71  1  0.74926914  0.75034568  0.65847054  1
  Al0+  Al72  1  0.17810969  0.43107872  0.68302219  1
  Al0+  Al73  1  0.67757138  0.92806827  0.34993293  1
  Al0+  Al74  1  0.92958183  0.82106285  0.65274776  1
  Al0+  Al75  1  0.07066437  0.17842674  0.98682138  1
  Al0+  Al76  1  0.17623348  0.92779958  0.34912486  1
  Al0+  Al77  1  0.07335588  0.17975045  0.65007243  1
  Al0+  Al78  1  0.56929360  0.67929324  0.65312436  1
  Al0+  Al79  1  0.42800274  0.82140579  0.98553131  1
  Al0+  Al80  1  0.67830156  0.93068441  0.01164407  1
  Al0+  Al81  1  0.17795424  0.42943136  0.34693746  1
  Al0+  Al82  1  0.67838146  0.42680051  0.01591350  1
  Al0+  Al83  1  0.32335307  0.57266058  0.34989603  1
  Al0+  Al84  1  0.82049551  0.56852958  0.34932089  1
  Al0+  Al85  1  0.06994991  0.68307519  0.31991918  1
  Al0+  Al86  1  0.82012081  0.07368008  0.34723096  1
  Al0+  Al87  1  0.32126233  0.07012231  0.68289988  1
  Al0+  Al88  1  0.56799133  0.17853356  0.31930500  1
  Al0+  Al89  1  0.92769667  0.32127140  0.65250748  1
  Al0+  Al90  1  0.31863536  0.57091889  0.01134100  1
  Al0+  Al91  1  0.82302897  0.57161942  0.01505141  1
  Al0+  Al92  1  0.93012825  0.32090875  0.31752146  1
  Al0+  Al93  1  0.82160645  0.07179906  0.68132872  1
  Al0+  Al94  1  0.31900835  0.07035178  0.34545518  1
  Al0+  Al95  1  0.17910856  0.93044950  0.01166270  1
  Si0+  Si96  1  0.32283831  0.07358769  0.01543223  1
  Si0+  Si97  1  0.17797593  0.92649695  0.68393290  1
  Si0+  Si98  1  0.43151148  0.81803482  0.31874236  1
  Si0+  Si99  1  0.92793879  0.81964508  0.98751920  1
  Si0+  Si100  1  0.67946115  0.92671361  0.68421565  1
  Si0+  Si101  1  0.42764895  0.82372728  0.64780500  1
  Si0+  Si102  1  0.57358414  0.67614080  0.31516893  1
  Si0+  Si103  1  0.67846145  0.42686283  0.35080008  1
  Si0+  Si104  1  0.07207412  0.67841502  0.98515640  1
  Si0+  Si105  1  0.17881467  0.42595200  0.01642032  1
  Si0+  Si106  1  0.67713011  0.42911707  0.67927235  1
  Si0+  Si107  1  0.57167661  0.17851830  0.98258345  1
  Si0+  Si108  1  0.82324397  0.07111457  0.01539862  1
  Si0+  Si109  1  0.32499148  0.57178270  0.68317182  1
  Si0+  Si110  1  0.07419479  0.17653051  0.31712840  1
  Si0+  Si111  1  0.92556023  0.82388290  0.31504767  1
  Si0+  Si112  1  0.42981028  0.32124759  0.65232013  1
  Si0+  Si113  1  0.57251801  0.67807022  0.98633298  1
  Si0+  Si114  1  0.81951954  0.57210405  0.68031110  1
  Si0+  Si115  1  0.07334154  0.67720865  0.65190062  1
  Si0+  Si116  1  0.43053966  0.32252925  0.98439107  1
  Si0+  Si117  1  0.57045801  0.17808827  0.65350422  1
  Si0+  Si118  1  0.42600692  0.32348368  0.31545905  1
  Si0+  Si119  1  0.92778945  0.32278608  0.98206535  1
  O2-  O120  1  0.25349051  0.00567632  0.05794977  1
  O2-  O121  1  0.24123901  0.00669228  0.39811091  1
  O2-  O122  1  0.24605194  -0.00428615  0.72872005  1
  O2-  O123  1  0.24304553  0.49856094  0.05978253  1
  O2-  O124  1  0.25245745  0.49899463  0.39782639  1
  O2-  O125  1  0.25218463  0.50819053  0.72807233  1
  O2-  O126  1  0.75031732  0.00702623  0.05893945  1
  O2-  O127  1  0.75255935  -0.00239351  0.39804399  1
  O2-  O128  1  0.74854504  -0.00504597  0.72856324  1
  O2-  O129  1  0.75371941  0.49610670  0.06370465  1
  O2-  O130  1  0.74605257  0.49443125  0.39796880  1
  O2-  O131  1  0.74916891  0.49958962  0.72119656  1
  O2-  O132  1  0.00429233  0.24423664  0.27253242  1
  O2-  O133  1  -0.00134378  0.24934640  0.60108980  1
  O2-  O134  1  -0.00360703  0.25376898  0.93918832  1
  O2-  O135  1  -0.00160457  0.75981536  0.26995230  1
  O2-  O136  1  0.00679180  0.74788245  0.60837984  1
  O2-  O137  1  -0.00302097  0.74623526  0.94434595  1
  O2-  O138  1  0.49268955  0.25257081  0.27115461  1
  O2-  O139  1  0.49779239  0.24714785  0.61073700  1
  O2-  O140  1  0.50194662  0.25157601  0.94093439  1
  O2-  O141  1  0.50077803  0.74580702  0.27433803  1
  O2-  O142  1  0.49443966  0.75282735  0.60460720  1
  O2-  O143  1  0.50423317  0.74652037  0.94060902  1
  O2-  O144  1  0.06945302  0.17835473  0.09988257  1
  O2-  O145  1  0.07627879  0.17899846  0.42224034  1
  O2-  O146  1  0.07189110  0.18111095  0.76433409  1
  O2-  O147  1  0.07470464  0.67984190  0.08985831  1
  O2-  O148  1  0.06631325  0.68267019  0.43324379  1
  O2-  O149  1  0.07234164  0.67773118  0.75819960  1
  O2-  O150  1  0.56946599  0.17615204  0.08727627  1
  O2-  O151  1  0.56714073  0.18051940  0.43295428  1
  O2-  O152  1  0.57008329  0.18068015  0.75904029  1
  O2-  O153  1  0.57171727  0.67921564  0.09162624  1
  O2-  O154  1  0.57247941  0.67617105  0.42056030  1
  O2-  O155  1  0.56939313  0.67877907  0.76673259  1
  O2-  O156  1  0.18014128  0.43063099  0.23292887  1
  O2-  O157  1  0.17789010  0.43165423  0.57048591  1
  O2-  O158  1  0.18074919  0.42694810  0.91057922  1
  O2-  O159  1  0.18120191  0.92635703  0.23517205  1
  O2-  O160  1  0.18043637  0.92451251  0.57891348  1
  O2-  O161  1  0.17865892  0.93005894  0.89854053  1
  O2-  O162  1  0.67857275  0.42959393  0.24532934  1
  O2-  O163  1  0.67360317  0.42935890  0.57472882  1
  O2-  O164  1  0.67745339  0.42940048  0.90130318  1
  O2-  O165  1  0.67582594  0.93047534  0.23581836  1
  O2-  O166  1  0.67840777  0.92770982  0.57914989  1
  O2-  O167  1  0.68098604  0.93056183  0.89825884  1
  O2-  O168  1  0.42896785  0.32157242  0.08899687  1
  O2-  O169  1  0.42863521  0.32437390  0.42131768  1
  O2-  O170  1  0.43383203  0.32424762  0.75787499  1
  O2-  O171  1  0.42784111  0.82092536  0.09866707  1
  O2-  O172  1  0.43409512  0.81784144  0.42391819  1
  O2-  O173  1  0.42810143  0.82322818  0.75363981  1
  O2-  O174  1  0.92840878  0.32318675  0.08747438  1
  O2-  O175  1  0.93042363  0.32094232  0.43043576  1
  O2-  O176  1  0.92754634  0.32130067  0.76644550  1
  O2-  O177  1  0.92819469  0.82115559  0.09204375  1
  O2-  O178  1  0.92491623  0.82026409  0.42073631  1
  O2-  O179  1  0.92741488  0.81779187  0.76696132  1
  O2-  O180  1  0.32118929  0.06636640  0.23167093  1
  O2-  O181  1  0.32416914  0.06868734  0.57028427  1
  O2-  O182  1  0.32318654  0.07308766  0.90970301  1
  O2-  O183  1  0.32156901  0.57329970  0.23579595  1
  O2-  O184  1  0.32826593  0.56800165  0.57837894  1
  O2-  O185  1  0.31795318  0.56846405  0.89783318  1
  O2-  O186  1  0.81755791  0.07258892  0.23303426  1
  O2-  O187  1  0.81639866  0.07441355  0.56906233  1
  O2-  O188  1  0.82291258  0.06880732  0.90944065  1
  O2-  O189  1  0.81967265  0.56795129  0.23639510  1
  O2-  O190  1  0.81942963  0.57203130  0.57554656  1
  O2-  O191  1  0.82006631  0.57398965  0.90061387  1
  O2-  O192  1  0.04804110  0.08170986  0.27285795  1
  O2-  O193  1  0.05197027  0.07932840  0.60027307  1
  O2-  O194  1  0.03939961  0.08185874  0.93158731  1
  O2-  O195  1  0.03786430  0.58774589  0.26420881  1
  O2-  O196  1  0.04422315  0.58465937  0.60718100  1
  O2-  O197  1  0.04794174  0.58462638  0.93862322  1
  O2-  O198  1  0.53528868  0.08168342  0.26549458  1
  O2-  O199  1  0.54362123  0.08513918  0.60852772  1
  O2-  O200  1  0.54251508  0.08880039  0.93144899  1
  O2-  O201  1  0.54902912  0.58290749  0.26863216  1
  O2-  O202  1  0.54010891  0.58329394  0.59595797  1
  O2-  O203  1  0.54645661  0.58358697  0.94132958  1
  O2-  O204  1  0.16781797  0.20300777  0.27030523  1
  O2-  O205  1  0.17267348  0.21182849  0.60142584  1
  O2-  O206  1  0.16847257  0.20750496  0.93273763  1
  O2-  O207  1  0.16911370  0.71200234  0.26855569  1
  O2-  O208  1  0.16864605  0.69846946  0.60710636  1
  O2-  O209  1  0.16082078  0.70965857  0.93389938  1
  O2-  O210  1  0.66196442  0.20984226  0.26070017  1
  O2-  O211  1  0.66094975  0.20831180  0.60621450  1
  O2-  O212  1  0.66469710  0.20489495  0.93564363  1
  O2-  O213  1  0.66570306  0.70458796  0.26922722  1
  O2-  O214  1  0.66410173  0.70971692  0.59579551  1
  O2-  O215  1  0.66660237  0.70447864  0.94067544  1
  O2-  O216  1  0.08319299  0.44619151  0.05901687  1
  O2-  O217  1  0.08197760  0.46297926  0.40012640  1
  O2-  O218  1  0.08272799  0.46205969  0.74076076  1
  O2-  O219  1  0.08296982  0.95902428  0.06756276  1
  O2-  O220  1  0.07471862  0.94549870  0.39796107  1
  O2-  O221  1  0.08369960  0.95040583  0.72896627  1
  O2-  O222  1  0.58170468  0.45470115  0.07155713  1
  O2-  O223  1  0.58423233  0.45131862  0.39628966  1
  O2-  O224  1  0.58594349  0.45913777  0.72805230  1
  O2-  O225  1  0.58096872  0.96169710  0.06388502  1
  O2-  O226  1  0.58124807  0.95907040  0.40440511  1
  O2-  O227  1  0.58584607  0.95241479  0.73061216  1
  O2-  O228  1  0.20965786  0.33382379  0.06183264  1
  O2-  O229  1  0.20518137  0.33180828  0.40200903  1
  O2-  O230  1  0.21308810  0.33703910  0.73937876  1
  O2-  O231  1  0.21117400  0.83426637  0.06474097  1
  O2-  O232  1  0.21226935  0.83408408  0.40561072  1
  O2-  O233  1  0.20440457  0.83210952  0.73026566  1
  O2-  O234  1  0.70255416  0.32661061  0.06736908  1
  O2-  O235  1  0.70163723  0.33192385  0.39331348  1
  O2-  O236  1  0.70275119  0.33791513  0.72909504  1
  O2-  O237  1  0.70682554  0.83527791  0.06771593  1
  O2-  O238  1  0.70170939  0.82851361  0.40112840  1
  O2-  O239  1  0.70616208  0.83231441  0.72850093  1
  O2-  O240  1  0.45558198  0.41612446  0.26839610  1
  O2-  O241  1  0.45994031  0.41056584  0.60188135  1
  O2-  O242  1  0.45998691  0.41418239  0.93637195  1
  O2-  O243  1  0.46056581  0.90900122  0.27051551  1
  O2-  O244  1  0.45699782  0.91651847  0.60238820  1
  O2-  O245  1  0.45873909  0.91740550  0.92924452  1
  O2-  O246  1  0.96289290  0.41651631  0.26258697  1
  O2-  O247  1  0.95662500  0.42150534  0.60342555  1
  O2-  O248  1  0.95229725  0.41725394  0.93598926  1
  O2-  O249  1  0.94379850  0.92033094  0.27176037  1
  O2-  O250  1  0.95845630  0.91690499  0.59774075  1
  O2-  O251  1  0.95784886  0.91018682  0.93828481  1
  O2-  O252  1  0.33149561  0.30121747  0.26999839  1
  O2-  O253  1  0.33687738  0.29555678  0.60839082  1
  O2-  O254  1  0.33963691  0.29511154  0.93397948  1
  O2-  O255  1  0.33857886  0.79133533  0.27317914  1
  O2-  O256  1  0.33325460  0.80094582  0.60205901  1
  O2-  O257  1  0.33320361  0.78860538  0.92824175  1
  O2-  O258  1  0.83358427  0.29169039  0.26189020  1
  O2-  O259  1  0.82774028  0.29518649  0.60077313  1
  O2-  O260  1  0.83265403  0.29931007  0.93712923  1
  O2-  O261  1  0.83273563  0.79194102  0.27025733  1
  O2-  O262  1  0.83502858  0.78918478  0.59641744  1
  O2-  O263  1  0.83573275  0.79197159  0.93947159  1
  O2-  O264  1  0.41702171  0.04741602  0.05895266  1
  O2-  O265  1  0.41400675  0.03457299  0.40062772  1
  O2-  O266  1  0.41791227  0.03890824  0.73877795  1
  O2-  O267  1  0.41452896  0.54143245  0.06629627  1
  O2-  O268  1  0.42354268  0.54573949  0.39968066  1
  O2-  O269  1  0.41697080  0.54056908  0.73049440  1
  O2-  O270  1  0.91440652  0.04147288  0.06245591  1
  O2-  O271  1  0.91887765  0.05153447  0.40128153  1
  O2-  O272  1  0.91943344  0.04075014  0.73291451  1
  O2-  O273  1  0.92264042  0.54524137  0.06704467  1
  O2-  O274  1  0.91680268  0.53837716  0.40240117  1
  O2-  O275  1  0.91094161  0.54774680  0.72994916  1
  O2-  O276  1  0.30060589  0.16844088  0.06007726  1
  O2-  O277  1  0.30155351  0.17134539  0.39746128  1
  O2-  O278  1  0.29482126  0.16747198  0.73774294  1
  O2-  O279  1  0.28874670  0.66756541  0.06425078  1
  O2-  O280  1  0.29525854  0.66889805  0.40535712  1
  O2-  O281  1  0.30486362  0.66852679  0.72574213  1
  O2-  O282  1  0.80182461  0.16679631  0.05780375  1
  O2-  O283  1  0.78470565  0.17063688  0.39853162  1
  O2-  O284  1  0.78736845  0.16679358  0.73796257  1
  O2-  O285  1  0.79378671  0.66777041  0.07126514  1
  O2-  O286  1  0.78937443  0.66449212  0.40367023  1
  O2-  O287  1  0.78813497  0.66357811  0.72671743  1
