# generated using pymatgen
data_Ca2Al2SiO7
_symmetry_space_group_name_H-M   'P 1'
_cell_length_a   15.45920720
_cell_length_b   15.46036215
_cell_length_c   15.28428818
_cell_angle_alpha   89.99794277
_cell_angle_beta   89.99106478
_cell_angle_gamma   90.01226556
_symmetry_Int_Tables_number   1
_chemical_formula_structural   Ca2Al2SiO7
_chemical_formula_sum   'Ca48 Al48 Si24 O168'
_cell_volume   3653.02027758
_cell_formula_units_Z   24
loop_
 _symmetry_equiv_pos_site_id
 _symmetry_equiv_pos_as_xyz
  1  'x, y, z'
loop_
 _atom_type_symbol
 _atom_type_oxidation_number
  Ca2+  2.0
  Al0+  0.0
  Si0+  0.0
  O2-  -2.0
loop_
 _atom_site_type_symbol
 _atom_site_label
 _atom_site_symmetry_multiplicity
 _atom_site_fract_x
 _atom_site_fract_y
 _atom_site_fract_z
 _atom_site_occupancy
  Ca2+  Ca0  1  0.16690821  0.08012401  0.15960335  1
  Ca2+  Ca1  1  0.17625642  0.08059329  0.50749828  1
  Ca2+  Ca2  1  0.17798151  0.08103146  0.84171998  1
  Ca2+  Ca3  1  0.16357219  0.56948860  0.17116099  1
  Ca2+  Ca4  1  0.16988488  0.57063944  0.50553872  1
  Ca2+  Ca5  1  0.16578963  0.57158363  0.83679803  1
  Ca2+  Ca6  1  0.67699236  0.09086748  0.16843998  1
  Ca2+  Ca7  1  0.67705768  0.07856225  0.50988684  1
  Ca2+  Ca8  1  0.67257769  0.07771558  0.83887732  1
  Ca2+  Ca9  1  0.67591815  0.59325461  0.16554001  1
  Ca2+  Ca10  1  0.67231857  0.58349765  0.50956984  1
  Ca2+  Ca11  1  0.66970718  0.58952537  0.83567166  1
  Ca2+  Ca12  1  0.08454628  0.32991298  0.15907838  1
  Ca2+  Ca13  1  0.08516629  0.33524116  0.49737868  1
  Ca2+  Ca14  1  0.08719996  0.33081561  0.83133080  1
  Ca2+  Ca15  1  0.07672564  0.83346991  0.15554334  1
  Ca2+  Ca16  1  0.07590790  0.83114308  0.49933778  1
  Ca2+  Ca17  1  0.07181075  0.84386834  0.83160574  1
  Ca2+  Ca18  1  0.57738293  0.32817702  0.15997565  1
  Ca2+  Ca19  1  0.57212819  0.34146733  0.49895286  1
  Ca2+  Ca20  1  0.58182052  0.32676322  0.82485199  1
  Ca2+  Ca21  1  0.57900998  0.83001689  0.16209414  1
  Ca2+  Ca22  1  0.57891129  0.83597727  0.50470394  1
  Ca2+  Ca23  1  0.58557139  0.82482533  0.82390594  1
  Ca2+  Ca24  1  0.32279349  0.40935894  0.16995096  1
  Ca2+  Ca25  1  0.32607501  0.40489569  0.50626985  1
  Ca2+  Ca26  1  0.32495704  0.40896163  0.83512906  1
  Ca2+  Ca27  1  0.33315003  0.91921256  0.16838338  1
  Ca2+  Ca28  1  0.33994714  0.91926904  0.50935226  1
  Ca2+  Ca29  1  0.33450791  0.92502739  0.83925491  1
  Ca2+  Ca30  1  0.83377592  0.43055690  0.17125293  1
  Ca2+  Ca31  1  0.82429046  0.42795571  0.50958130  1
  Ca2+  Ca32  1  0.82676672  0.42956855  0.83472896  1
  Ca2+  Ca33  1  0.83729717  0.92699596  0.16588365  1
  Ca2+  Ca34  1  0.82891083  0.92418106  0.51046201  1
  Ca2+  Ca35  1  0.83321183  0.91892600  0.83524152  1
  Ca2+  Ca36  1  0.42046188  0.16997056  0.15956358  1
  Ca2+  Ca37  1  0.41583152  0.17424049  0.49967779  1
  Ca2+  Ca38  1  0.41722748  0.16543923  0.82875310  1
  Ca2+  Ca39  1  0.42241045  0.67241386  0.16005214  1
  Ca2+  Ca40  1  0.42214461  0.67638672  0.49681745  1
  Ca2+  Ca41  1  0.42840411  0.67188724  0.82330765  1
  Ca2+  Ca42  1  0.92059936  0.16450431  0.15536784  1
  Ca2+  Ca43  1  0.91434424  0.16451300  0.49655492  1
  Ca2+  Ca44  1  0.92358192  0.15621853  0.83068099  1
  Ca2+  Ca45  1  0.91205443  0.67122968  0.15699585  1
  Ca2+  Ca46  1  0.90645076  0.66926131  0.50119679  1
  Ca2+  Ca47  1  0.90978930  0.67580294  0.82818700  1
  Al0+  Al48  1  0.00075249  0.00116483  -0.00095889  1
  Al0+  Al49  1  0.00146340  -0.00053083  0.33716383  1
  Al0+  Al50  1  0.00280779  -0.00080317  0.66107888  1
  Al0+  Al51  1  -0.00104372  0.50055475  0.00751410  1
  Al0+  Al52  1  0.00027120  0.49938165  0.34190821  1
  Al0+  Al53  1  0.00022724  0.49778634  0.67359644  1
  Al0+  Al54  1  0.50066157  0.00167499  0.00171307  1
  Al0+  Al55  1  0.50054248  -0.00011602  0.32838560  1
  Al0+  Al56  1  0.50282548  0.00113170  0.67058379  1
  Al0+  Al57  1  0.49881175  0.50027039  -0.00382822  1
  Al0+  Al58  1  0.49852862  0.50133565  0.32441570  1
  Al0+  Al59  1  0.49829871  0.49885659  0.66041304  1
  Al0+  Al60  1  0.24829115  0.24871301  0.00475044  1
  Al0+  Al61  1  0.24943634  0.24715254  0.33205415  1
  Al0+  Al62  1  0.25003010  0.24666264  0.67022701  1
  Al0+  Al63  1  0.24837072  0.74852834  0.00242409  1
  Al0+  Al64  1  0.24847737  0.74841335  0.32851029  1
  Al0+  Al65  1  0.24736196  0.74801177  0.66301939  1
  Al0+  Al66  1  0.74877773  0.25218438  -0.00097369  1
  Al0+  Al67  1  0.75125267  0.25247997  0.33729264  1
  Al0+  Al68  1  0.75364657  0.25166717  0.67259978  1
  Al0+  Al69  1  0.74953391  0.75162473  -0.00255371  1
  Al0+  Al70  1  0.74987675  0.75286550  0.33641163  1
  Al0+  Al71  1  0.75119589  0.75241138  0.66271246  1
  Al0+  Al72  1  0.81744483  0.57187606  0.01381463  1
  Al0+  Al73  1  0.68005445  0.93032234  0.68261235  1
  Al0+  Al74  1  0.18006615  0.43001756  0.01502667  1
  Al0+  Al75  1  0.93124842  0.82045876  0.98688064  1
  Al0+  Al76  1  0.57194609  0.67838259  0.64947442  1
  Al0+  Al77  1  0.56962529  0.68053631  0.98613534  1
  Al0+  Al78  1  0.93117489  0.82055970  0.65067051  1
  Al0+  Al79  1  0.42745876  0.32037881  0.31777861  1
  Al0+  Al80  1  0.82517640  0.07184531  0.68278322  1
  Al0+  Al81  1  0.42768448  0.82184307  0.31777916  1
  Al0+  Al82  1  0.42851460  0.31804227  0.65449501  1
  Al0+  Al83  1  0.82230574  0.07192968  0.34683983  1
  Al0+  Al84  1  0.81940314  0.57229992  0.34799811  1
  Al0+  Al85  1  0.17866323  0.92786865  0.01409800  1
  Al0+  Al86  1  0.67433062  0.42915409  0.68122802  1
  Al0+  Al87  1  0.82015181  0.07162749  0.01266091  1
  Al0+  Al88  1  0.32313087  0.07029534  0.01777705  1
  Al0+  Al89  1  0.42764902  0.82309162  0.65430299  1
  Al0+  Al90  1  0.81935183  0.57192292  0.68272608  1
  Al0+  Al91  1  0.18093463  0.42793257  0.68139410  1
  Al0+  Al92  1  0.32133668  0.06859257  0.67858009  1
  Al0+  Al93  1  0.06917176  0.18120433  0.98561420  1
  Al0+  Al94  1  0.18219411  0.42728013  0.34869486  1
  Al0+  Al95  1  0.57297605  0.17900221  0.98564954  1
  Si0+  Si96  1  0.17883954  0.92619961  0.34911997  1
  Si0+  Si97  1  0.67694556  0.92993833  0.34990714  1
  Si0+  Si98  1  0.07255771  0.67474858  0.98429446  1
  Si0+  Si99  1  0.92986808  0.82123182  0.31778208  1
  Si0+  Si100  1  0.17836423  0.92513795  0.68040462  1
  Si0+  Si101  1  0.67510236  0.42805910  0.01725957  1
  Si0+  Si102  1  0.32239207  0.57320675  0.34882278  1
  Si0+  Si103  1  0.92953999  0.32194172  0.32013251  1
  Si0+  Si104  1  0.07091614  0.18002562  0.65019068  1
  Si0+  Si105  1  0.42724849  0.31995807  0.98327545  1
  Si0+  Si106  1  0.06967700  0.17760970  0.31799713  1
  Si0+  Si107  1  0.06926779  0.67727285  0.31827271  1
  Si0+  Si108  1  0.07132301  0.67279699  0.64890100  1
  Si0+  Si109  1  0.92743277  0.32555961  0.98348447  1
  Si0+  Si110  1  0.32412090  0.57220875  0.01647894  1
  Si0+  Si111  1  0.42554607  0.82253188  0.98411692  1
  Si0+  Si112  1  0.67563795  0.42834723  0.34804318  1
  Si0+  Si113  1  0.32145503  0.57395403  0.68154346  1
  Si0+  Si114  1  0.57320794  0.67944878  0.31520025  1
  Si0+  Si115  1  0.92969098  0.32243408  0.65155784  1
  Si0+  Si116  1  0.57356203  0.17930327  0.31805339  1
  Si0+  Si117  1  0.32121922  0.06799200  0.34822791  1
  Si0+  Si118  1  0.57605252  0.17892733  0.65045007  1
  Si0+  Si119  1  0.67845538  0.92783955  0.01799013  1
  O2-  O120  1  0.25380911  -0.00515720  0.06727523  1
  O2-  O121  1  0.25401147  -0.00682213  0.39068380  1
  O2-  O122  1  0.25376817  -0.01352634  0.72273843  1
  O2-  O123  1  0.25452449  0.50483155  0.06194215  1
  O2-  O124  1  0.25992441  0.49937067  0.39457008  1
  O2-  O125  1  0.25536482  0.50312992  0.72680323  1
  O2-  O126  1  0.74355943  0.00032466  0.06238267  1
  O2-  O127  1  0.74566376  -0.00043480  0.39234126  1
  O2-  O128  1  0.75184488  0.00222463  0.73288548  1
  O2-  O129  1  0.74295005  0.49751927  0.06230870  1
  O2-  O130  1  0.74165328  0.49970887  0.39160860  1
  O2-  O131  1  0.74211723  0.50490071  0.73178057  1
  O2-  O132  1  -0.00339489  0.24748416  0.27692601  1
  O2-  O133  1  -0.00209329  0.24878991  0.60753742  1
  O2-  O134  1  -0.00672898  0.25442010  0.93843459  1
  O2-  O135  1  -0.00225891  0.74752373  0.27513053  1
  O2-  O136  1  0.00293179  0.74202556  0.60417295  1
  O2-  O137  1  0.00748940  0.74655397  0.94047239  1
  O2-  O138  1  0.50548951  0.24844209  0.27300053  1
  O2-  O139  1  0.50813544  0.24875668  0.60591003  1
  O2-  O140  1  0.49731790  0.25296439  0.93959978  1
  O2-  O141  1  0.50216425  0.74654995  0.27193691  1
  O2-  O142  1  0.49797300  0.75048336  0.60190632  1
  O2-  O143  1  0.49314999  0.75340574  0.94031275  1
  O2-  O144  1  0.06740352  0.18210868  0.09954487  1
  O2-  O145  1  0.07109229  0.17733877  0.42328331  1
  O2-  O146  1  0.07186942  0.18062765  0.75491944  1
  O2-  O147  1  0.06936031  0.67346236  0.09049614  1
  O2-  O148  1  0.07075935  0.67919791  0.42314120  1
  O2-  O149  1  0.07248513  0.67156625  0.75417543  1
  O2-  O150  1  0.57390769  0.18300694  0.09951975  1
  O2-  O151  1  0.57258265  0.17799870  0.42337535  1
  O2-  O152  1  0.57437020  0.17938776  0.75589054  1
  O2-  O153  1  0.56933433  0.68371790  0.09990166  1
  O2-  O154  1  0.57334736  0.67864770  0.42011117  1
  O2-  O155  1  0.56998183  0.68005706  0.76317840  1
  O2-  O156  1  0.18018748  0.42803801  0.23578925  1
  O2-  O157  1  0.18192191  0.42733697  0.56799192  1
  O2-  O158  1  0.18103859  0.42984205  0.90208715  1
  O2-  O159  1  0.17504607  0.92828411  0.24458264  1
  O2-  O160  1  0.17607824  0.92884979  0.57403848  1
  O2-  O161  1  0.17915861  0.93092279  0.90069575  1
  O2-  O162  1  0.67927035  0.42494541  0.24246670  1
  O2-  O163  1  0.67791816  0.42876209  0.56687563  1
  O2-  O164  1  0.67541730  0.42823057  0.91218464  1
  O2-  O165  1  0.67771666  0.92835431  0.24420658  1
  O2-  O166  1  0.68018610  0.93371588  0.56823871  1
  O2-  O167  1  0.68018328  0.92637635  0.91299409  1
  O2-  O168  1  0.42837097  0.31908755  0.08944512  1
  O2-  O169  1  0.42610206  0.31646083  0.43074514  1
  O2-  O170  1  0.42468018  0.31325483  0.76710697  1
  O2-  O171  1  0.42705652  0.82012229  0.09035114  1
  O2-  O172  1  0.42798759  0.82218763  0.43039293  1
  O2-  O173  1  0.42652446  0.82042353  0.76757010  1
  O2-  O174  1  0.92988607  0.32579962  0.08997267  1
  O2-  O175  1  0.93128947  0.32153160  0.42517717  1
  O2-  O176  1  0.93260297  0.32508587  0.75618799  1
  O2-  O177  1  0.93130080  0.81915472  0.10100365  1
  O2-  O178  1  0.93237522  0.82209314  0.42260565  1
  O2-  O179  1  0.93458425  0.82304201  0.76345362  1
  O2-  O180  1  0.31967148  0.06863914  0.24364253  1
  O2-  O181  1  0.31735665  0.07083512  0.56455138  1
  O2-  O182  1  0.32167566  0.07076957  0.90434123  1
  O2-  O183  1  0.31758674  0.57470892  0.24327341  1
  O2-  O184  1  0.31781156  0.57571757  0.57575266  1
  O2-  O185  1  0.32409204  0.57121392  0.91106346  1
  O2-  O186  1  0.82399009  0.07086911  0.23365735  1
  O2-  O187  1  0.82384601  0.06999237  0.56838006  1
  O2-  O188  1  0.82105469  0.06815554  0.90060531  1
  O2-  O189  1  0.81987435  0.57247661  0.23459797  1
  O2-  O190  1  0.82003470  0.56771635  0.56867544  1
  O2-  O191  1  0.81752751  0.57193090  0.90168904  1
  O2-  O192  1  0.04286095  0.08487743  0.27145108  1
  O2-  O193  1  0.04668520  0.08837786  0.59981401  1
  O2-  O194  1  0.03976967  0.08508973  0.93114507  1
  O2-  O195  1  0.04113721  0.58415938  0.27324484  1
  O2-  O196  1  0.04495941  0.57889353  0.60311525  1
  O2-  O197  1  0.04364250  0.58194578  0.93889255  1
  O2-  O198  1  0.54834504  0.08647204  0.27015768  1
  O2-  O199  1  0.54848707  0.08612441  0.60408134  1
  O2-  O200  1  0.54438618  0.08104967  0.93362415  1
  O2-  O201  1  0.55129256  0.58592362  0.26652809  1
  O2-  O202  1  0.54445072  0.58013182  0.59521334  1
  O2-  O203  1  0.54216103  0.58276489  0.93273836  1
  O2-  O204  1  0.16047697  0.20667776  0.27001014  1
  O2-  O205  1  0.16127149  0.21124753  0.60143460  1
  O2-  O206  1  0.16636578  0.21276581  0.93346515  1
  O2-  O207  1  0.16018417  0.70384566  0.26838801  1
  O2-  O208  1  0.16412372  0.69816185  0.59993802  1
  O2-  O209  1  0.16829773  0.69419925  0.94015184  1
  O2-  O210  1  0.66781176  0.20655366  0.27264100  1
  O2-  O211  1  0.67118325  0.20309213  0.60629335  1
  O2-  O212  1  0.66880180  0.20999613  0.93052276  1
  O2-  O213  1  0.66616774  0.71058126  0.26929699  1
  O2-  O214  1  0.66917485  0.70906274  0.59580590  1
  O2-  O215  1  0.66482030  0.71351657  0.93231218  1
  O2-  O216  1  0.08422392  0.46050618  0.07154233  1
  O2-  O217  1  0.08694598  0.46023840  0.40398830  1
  O2-  O218  1  0.08530236  0.45712568  0.73682122  1
  O2-  O219  1  0.08282700  0.96254752  0.06947569  1
  O2-  O220  1  0.08966879  0.95862794  0.39949580  1
  O2-  O221  1  0.08858228  0.96030353  0.72679887  1
  O2-  O222  1  0.58044253  0.45248619  0.06238369  1
  O2-  O223  1  0.57946714  0.45208259  0.38952468  1
  O2-  O224  1  0.57260317  0.44874258  0.73038028  1
  O2-  O225  1  0.58366854  0.94974742  0.06319416  1
  O2-  O226  1  0.58288428  0.95565940  0.39503279  1
  O2-  O227  1  0.58252371  0.95647722  0.73739090  1
  O2-  O228  1  0.21080024  0.33436563  0.07064935  1
  O2-  O229  1  0.21041255  0.32883098  0.40100616  1
  O2-  O230  1  0.21278643  0.33219797  0.73528514  1
  O2-  O231  1  0.19892403  0.82675856  0.06710948  1
  O2-  O232  1  0.20158360  0.83206056  0.39397821  1
  O2-  O233  1  0.19209428  0.82846872  0.72348028  1
  O2-  O234  1  0.70158016  0.33537005  0.06475600  1
  O2-  O235  1  0.70258003  0.33676150  0.39736874  1
  O2-  O236  1  0.70796970  0.33320989  0.73560183  1
  O2-  O237  1  0.70891931  0.83671376  0.06634236  1
  O2-  O238  1  0.70374477  0.83761683  0.39728106  1
  O2-  O239  1  0.70945697  0.83191017  0.73269373  1
  O2-  O240  1  0.45173470  0.41841206  0.26247110  1
  O2-  O241  1  0.45042177  0.41564996  0.59750361  1
  O2-  O242  1  0.44849008  0.41485167  0.93853229  1
  O2-  O243  1  0.45898880  0.91790068  0.26200064  1
  O2-  O244  1  0.45888536  0.92160936  0.60110474  1
  O2-  O245  1  0.45053307  0.91722828  0.94186384  1
  O2-  O246  1  0.96141719  0.41312742  0.27324327  1
  O2-  O247  1  0.96172019  0.41262980  0.60267051  1
  O2-  O248  1  0.95783476  0.41801866  0.93828797  1
  O2-  O249  1  0.96234368  0.91255047  0.27145736  1
  O2-  O250  1  0.96718088  0.91486443  0.59298873  1
  O2-  O251  1  0.96300969  0.91608510  0.93278155  1
  O2-  O252  1  0.33227147  0.28412288  0.26373421  1
  O2-  O253  1  0.33365100  0.27966477  0.59947351  1
  O2-  O254  1  0.33364277  0.29196800  0.93979857  1
  O2-  O255  1  0.33051155  0.79155427  0.26352106  1
  O2-  O256  1  0.32773496  0.79704093  0.60067431  1
  O2-  O257  1  0.33048701  0.79930472  0.94046866  1
  O2-  O258  1  0.83586536  0.29977088  0.27342081  1
  O2-  O259  1  0.83711127  0.29736180  0.60356861  1
  O2-  O260  1  0.83225232  0.30527521  0.94010426  1
  O2-  O261  1  0.83608444  0.79745256  0.27253528  1
  O2-  O262  1  0.83503391  0.79345227  0.59436118  1
  O2-  O263  1  0.83541711  0.78927997  0.93328318  1
  O2-  O264  1  0.42242424  0.04558695  0.07170940  1
  O2-  O265  1  0.41516822  0.04444903  0.39326489  1
  O2-  O266  1  0.41911143  0.04680762  0.73240445  1
  O2-  O267  1  0.41721640  0.54598903  0.06403816  1
  O2-  O268  1  0.41951915  0.55433797  0.38934551  1
  O2-  O269  1  0.41605296  0.55021107  0.72434735  1
  O2-  O270  1  0.91566420  0.03822328  0.06748356  1
  O2-  O271  1  0.91835238  0.03965985  0.40144354  1
  O2-  O272  1  0.92465927  0.04025534  0.73066519  1
  O2-  O273  1  0.91334533  0.54134929  0.07033472  1
  O2-  O274  1  0.91439143  0.53962065  0.40314726  1
  O2-  O275  1  0.91603676  0.53915541  0.73586116  1
  O2-  O276  1  0.28911172  0.16642681  0.07194870  1
  O2-  O277  1  0.28770925  0.15788777  0.39588287  1
  O2-  O278  1  0.28185683  0.15983093  0.73553433  1
  O2-  O279  1  0.30058569  0.66608357  0.06320424  1
  O2-  O280  1  0.29060735  0.66485698  0.39587378  1
  O2-  O281  1  0.29317391  0.66604218  0.72964124  1
  O2-  O282  1  0.79281264  0.17049495  0.06575627  1
  O2-  O283  1  0.79556349  0.17004789  0.40043196  1
  O2-  O284  1  0.80505541  0.17214277  0.73335591  1
  O2-  O285  1  0.78548086  0.66846125  0.06840135  1
  O2-  O286  1  0.79145524  0.67024019  0.40063861  1
  O2-  O287  1  0.79696444  0.67293061  0.73030725  1
