# generated using pymatgen
data_Ca2Al2SiO7
_symmetry_space_group_name_H-M   'P 1'
_cell_length_a   15.45710663
_cell_length_b   15.45637705
_cell_length_c   15.28301730
_cell_angle_alpha   89.99456862
_cell_angle_beta   89.99198462
_cell_angle_gamma   90.00799950
_symmetry_Int_Tables_number   1
_chemical_formula_structural   Ca2Al2SiO7
_chemical_formula_sum   'Ca48 Al48 Si24 O168'
_cell_volume   3651.27884361
_cell_formula_units_Z   24
loop_
 _symmetry_equiv_pos_site_id
 _symmetry_equiv_pos_as_xyz
  1  'x, y, z'
loop_
 _atom_type_symbol
 _atom_type_oxidation_number
  Ca2+  2.0
  Al0+  0.0
  Si0+  0.0
  O2-  -2.0
loop_
 _atom_site_type_symbol
 _atom_site_label
 _atom_site_symmetry_multiplicity
 _atom_site_fract_x
 _atom_site_fract_y
 _atom_site_fract_z
 _atom_site_occupancy
  Ca2+  Ca0  1  0.17345925  0.08164316  0.17135570  1
  Ca2+  Ca1  1  0.17318233  0.08012363  0.50226900  1
  Ca2+  Ca2  1  0.17371316  0.09068798  0.83741880  1
  Ca2+  Ca3  1  0.17519319  0.58572722  0.16709453  1
  Ca2+  Ca4  1  0.18106957  0.58522470  0.50447768  1
  Ca2+  Ca5  1  0.17317119  0.58079175  0.84395900  1
  Ca2+  Ca6  1  0.67481237  0.07259231  0.17590735  1
  Ca2+  Ca7  1  0.67666624  0.08020522  0.50192223  1
  Ca2+  Ca8  1  0.67479464  0.08595895  0.83576199  1
  Ca2+  Ca9  1  0.65610758  0.58147010  0.16790715  1
  Ca2+  Ca10  1  0.66382079  0.57908999  0.50291662  1
  Ca2+  Ca11  1  0.66581916  0.57204114  0.84045728  1
  Ca2+  Ca12  1  0.07876754  0.32811450  0.15240838  1
  Ca2+  Ca13  1  0.08143621  0.32579022  0.49940525  1
  Ca2+  Ca14  1  0.08122627  0.32712480  0.82896810  1
  Ca2+  Ca15  1  0.08289921  0.83462775  0.16591917  1
  Ca2+  Ca16  1  0.07960677  0.83879533  0.49351622  1
  Ca2+  Ca17  1  0.09032895  0.82464205  0.83355274  1
  Ca2+  Ca18  1  0.57662393  0.33342320  0.16399499  1
  Ca2+  Ca19  1  0.57888016  0.33274845  0.49482716  1
  Ca2+  Ca20  1  0.58592874  0.33746383  0.83040737  1
  Ca2+  Ca21  1  0.58170409  0.82345818  0.15936521  1
  Ca2+  Ca22  1  0.57935329  0.82903871  0.49205748  1
  Ca2+  Ca23  1  0.57030267  0.82769134  0.83189934  1
  Ca2+  Ca24  1  0.33031031  0.42522085  0.16989065  1
  Ca2+  Ca25  1  0.34139355  0.42736394  0.50221433  1
  Ca2+  Ca26  1  0.32775006  0.43040972  0.84327908  1
  Ca2+  Ca27  1  0.33169940  0.92489590  0.17148159  1
  Ca2+  Ca28  1  0.33220902  0.92350979  0.50551518  1
  Ca2+  Ca29  1  0.34140154  0.92470482  0.83842357  1
  Ca2+  Ca30  1  0.82972065  0.41427372  0.16431695  1
  Ca2+  Ca31  1  0.82625513  0.41379970  0.50938201  1
  Ca2+  Ca32  1  0.82581943  0.40386631  0.83717353  1
  Ca2+  Ca33  1  0.83082783  0.91904690  0.18060031  1
  Ca2+  Ca34  1  0.83203706  0.92278454  0.49917471  1
  Ca2+  Ca35  1  0.83529978  0.92377471  0.83424810  1
  Ca2+  Ca36  1  0.40866828  0.16905822  0.16357535  1
  Ca2+  Ca37  1  0.40906232  0.17224785  0.49374346  1
  Ca2+  Ca38  1  0.41452511  0.16504282  0.82773024  1
  Ca2+  Ca39  1  0.42159887  0.66834141  0.15913200  1
  Ca2+  Ca40  1  0.41847739  0.66782679  0.49429537  1
  Ca2+  Ca41  1  0.40831979  0.67516508  0.83075365  1
  Ca2+  Ca42  1  0.92355464  0.16779349  0.15776286  1
  Ca2+  Ca43  1  0.91626540  0.16268353  0.49985446  1
  Ca2+  Ca44  1  0.92763884  0.17423523  0.82565706  1
  Ca2+  Ca45  1  0.92272948  0.67542145  0.16120695  1
  Ca2+  Ca46  1  0.91962985  0.67383593  0.49095504  1
  Ca2+  Ca47  1  0.92553033  0.66200167  0.83379332  1
  Al0+  Al48  1  0.00171232  0.00199079  -0.00478336  1
  Al0+  Al49  1  0.00066961  0.00069322  0.33533703  1
  Al0+  Al50  1  0.00051530  -0.00113687  0.66868183  1
  Al0+  Al51  1  -0.00390089  0.50114510  -0.00364968  1
  Al0+  Al52  1  -0.00012156  0.49877790  0.33302270  1
  Al0+  Al53  1  -0.00042114  0.49959354  0.65952448  1
  Al0+  Al54  1  0.50168009  0.00045576  0.00149389  1
  Al0+  Al55  1  0.50161396  0.00060030  0.34040115  1
  Al0+  Al56  1  0.49966050  -0.00149853  0.66484526  1
  Al0+  Al57  1  0.50195255  0.49884212  0.00415158  1
  Al0+  Al58  1  0.49865290  0.49869614  0.32911373  1
  Al0+  Al59  1  0.50068143  0.50098907  0.67588768  1
  Al0+  Al60  1  0.25050624  0.25135512  0.00294746  1
  Al0+  Al61  1  0.24803537  0.25183086  0.33138665  1
  Al0+  Al62  1  0.24928375  0.24984879  0.66438381  1
  Al0+  Al63  1  0.24904537  0.75304095  -0.00284131  1
  Al0+  Al64  1  0.25059500  0.74904948  0.34111143  1
  Al0+  Al65  1  0.25087975  0.75154586  0.66419426  1
  Al0+  Al66  1  0.74904364  0.24968229  0.00399803  1
  Al0+  Al67  1  0.74901538  0.25004749  0.33508700  1
  Al0+  Al68  1  0.74973577  0.24872450  0.67015348  1
  Al0+  Al69  1  0.74831786  0.74921898  -0.00733779  1
  Al0+  Al70  1  0.75064944  0.74819514  0.32906563  1
  Al0+  Al71  1  0.74970969  0.74811236  0.66853583  1
  Al0+  Al72  1  0.32124046  0.56852807  0.34728692  1
  Al0+  Al73  1  0.07008180  0.68059717  0.98808701  1
  Al0+  Al74  1  0.42933286  0.82117667  0.64961939  1
  Al0+  Al75  1  0.92654755  0.32050944  0.98537104  1
  Al0+  Al76  1  0.07266808  0.17751727  0.64787363  1
  Al0+  Al77  1  0.32057451  0.07119615  0.68075831  1
  Al0+  Al78  1  0.42870165  0.31919402  0.31926137  1
  Al0+  Al79  1  0.32008495  0.57152297  0.68175958  1
  Al0+  Al80  1  0.57088386  0.67583929  0.98168747  1
  Al0+  Al81  1  0.68029024  0.42834506  0.01745465  1
  Al0+  Al82  1  0.32238585  0.07098001  0.01340833  1
  Al0+  Al83  1  0.82147801  0.07196139  0.34759346  1
  Al0+  Al84  1  0.82085478  0.06892041  0.68269328  1
  Al0+  Al85  1  0.93144691  0.82097625  0.32121048  1
  Al0+  Al86  1  0.92737007  0.31953379  0.64887945  1
  Al0+  Al87  1  0.67918558  0.92427632  0.34793464  1
  Al0+  Al88  1  0.17598671  0.42982976  0.01381452  1
  Al0+  Al89  1  0.18000759  0.92866435  0.34818381  1
  Al0+  Al90  1  0.68081028  0.43019171  0.67935672  1
  Al0+  Al91  1  0.07388068  0.17939469  0.98426147  1
  Al0+  Al92  1  0.32034410  0.57393866  0.01606191  1
  Al0+  Al93  1  0.56948355  0.67954786  0.32008591  1
  Al0+  Al94  1  0.42920541  0.82234644  0.98664782  1
  Al0+  Al95  1  0.32154244  0.07354586  0.34854803  1
  Si0+  Si96  1  0.06926660  0.18038217  0.31736041  1
  Si0+  Si97  1  0.82464635  0.57352907  0.68250708  1
  Si0+  Si98  1  0.07394557  0.67624246  0.31799115  1
  Si0+  Si99  1  0.17494403  0.42789110  0.35115816  1
  Si0+  Si100  1  0.92768732  0.81992674  0.65209166  1
  Si0+  Si101  1  0.42669680  0.82391684  0.31827221  1
  Si0+  Si102  1  0.42956226  0.32059049  0.98480505  1
  Si0+  Si103  1  0.68045815  0.92858944  0.01291794  1
  Si0+  Si104  1  0.57058814  0.17903852  0.98608943  1
  Si0+  Si105  1  0.17776856  0.92822793  0.68531694  1
  Si0+  Si106  1  0.92640557  0.82390931  0.98202388  1
  Si0+  Si107  1  0.82328049  0.57006557  0.34685669  1
  Si0+  Si108  1  0.57136541  0.17822672  0.65227098  1
  Si0+  Si109  1  0.67735281  0.92555256  0.68517677  1
  Si0+  Si110  1  0.17629807  0.92881767  0.01580091  1
  Si0+  Si111  1  0.17676522  0.42885817  0.68130511  1
  Si0+  Si112  1  0.92609826  0.32235232  0.31733511  1
  Si0+  Si113  1  0.82103522  0.57528985  0.01761221  1
  Si0+  Si114  1  0.43040547  0.32207238  0.65485477  1
  Si0+  Si115  1  0.07157608  0.67898701  0.64974393  1
  Si0+  Si116  1  0.57111801  0.67683063  0.65045350  1
  Si0+  Si117  1  0.82155862  0.06922934  0.01413738  1
  Si0+  Si118  1  0.57371711  0.17738713  0.31719368  1
  Si0+  Si119  1  0.67949604  0.43046690  0.34767252  1
  O2-  O120  1  0.24547717  -0.00228391  0.05825885  1
  O2-  O121  1  0.25444615  -0.00247468  0.39921530  1
  O2-  O122  1  0.24552477  -0.00222731  0.72889763  1
  O2-  O123  1  0.24701341  0.50227321  0.06513911  1
  O2-  O124  1  0.24437021  0.49598678  0.39512982  1
  O2-  O125  1  0.24368282  0.49814061  0.72661039  1
  O2-  O126  1  0.75674808  -0.00696125  0.05635766  1
  O2-  O127  1  0.74912685  -0.00069523  0.39678879  1
  O2-  O128  1  0.74636850  -0.00617162  0.73011442  1
  O2-  O129  1  0.75208527  0.50693486  0.06272080  1
  O2-  O130  1  0.75256397  0.49913601  0.38989216  1
  O2-  O131  1  0.75866133  0.50213302  0.72549438  1
  O2-  O132  1  -0.00286586  0.25136701  0.27626135  1
  O2-  O133  1  -0.00127369  0.24796262  0.59712706  1
  O2-  O134  1  0.00268521  0.25310487  0.93571356  1
  O2-  O135  1  0.00712621  0.74727683  0.27468995  1
  O2-  O136  1  -0.00214192  0.74823364  0.60941215  1
  O2-  O137  1  -0.00460451  0.75507121  0.93877089  1
  O2-  O138  1  0.49939089  0.23979244  0.27271125  1
  O2-  O139  1  0.49840320  0.24826566  0.61135713  1
  O2-  O140  1  0.49945459  0.24873293  0.94193215  1
  O2-  O141  1  0.49740027  0.75734249  0.27417302  1
  O2-  O142  1  0.50480901  0.74624108  0.60452137  1
  O2-  O143  1  0.49491503  0.74500046  0.93433093  1
  O2-  O144  1  0.06963604  0.17635035  0.09835975  1
  O2-  O145  1  0.06973419  0.18166060  0.42227098  1
  O2-  O146  1  0.07392224  0.18063337  0.76110026  1
  O2-  O147  1  0.06848443  0.68359954  0.10121405  1
  O2-  O148  1  0.07031407  0.67367604  0.42382121  1
  O2-  O149  1  0.07136482  0.67890270  0.75493395  1
  O2-  O150  1  0.57154299  0.17902136  0.09104276  1
  O2-  O151  1  0.57887789  0.18315842  0.42271383  1
  O2-  O152  1  0.57173334  0.17865182  0.75782283  1
  O2-  O153  1  0.57216369  0.68023349  0.09544682  1
  O2-  O154  1  0.56853241  0.67666915  0.43356251  1
  O2-  O155  1  0.57108381  0.67742820  0.75545372  1
  O2-  O156  1  0.17233195  0.42921005  0.24597296  1
  O2-  O157  1  0.17822493  0.43089920  0.57540993  1
  O2-  O158  1  0.17995979  0.43061474  0.89979628  1
  O2-  O159  1  0.17895077  0.93040575  0.23449141  1
  O2-  O160  1  0.17777813  0.92755438  0.57979634  1
  O2-  O161  1  0.17441088  0.92830396  0.91032400  1
  O2-  O162  1  0.68079303  0.42982617  0.24287579  1
  O2-  O163  1  0.67852438  0.43267417  0.56562880  1
  O2-  O164  1  0.68236124  0.42590095  0.90443085  1
  O2-  O165  1  0.68252740  0.92514726  0.23363941  1
  O2-  O166  1  0.67947724  0.92434813  0.57981941  1
  O2-  O167  1  0.68040614  0.93291170  0.90772085  1
  O2-  O168  1  0.43091515  0.31920645  0.08998703  1
  O2-  O169  1  0.43388058  0.32200681  0.43312929  1
  O2-  O170  1  0.43213868  0.32178123  0.75999133  1
  O2-  O171  1  0.43325534  0.82588337  0.10017233  1
  O2-  O172  1  0.42783294  0.82074623  0.42403495  1
  O2-  O173  1  0.42994246  0.82197060  0.76252984  1
  O2-  O174  1  0.92518933  0.31520101  0.09975652  1
  O2-  O175  1  0.92512912  0.32426158  0.42207355  1
  O2-  O176  1  0.92754844  0.31820790  0.76186836  1
  O2-  O177  1  0.92522471  0.82458004  0.08758625  1
  O2-  O178  1  0.93152939  0.81773775  0.43469309  1
  O2-  O179  1  0.92781180  0.81846310  0.75728716  1
  O2-  O180  1  0.31775670  0.07373071  0.23491046  1
  O2-  O181  1  0.32025504  0.07127237  0.56808712  1
  O2-  O182  1  0.32470388  0.06985371  0.90021686  1
  O2-  O183  1  0.32056662  0.56848951  0.23478265  1
  O2-  O184  1  0.32228347  0.56858989  0.56835094  1
  O2-  O185  1  0.31776764  0.57242781  0.90215606  1
  O2-  O186  1  0.82070043  0.07148181  0.23339331  1
  O2-  O187  1  0.81832085  0.06704399  0.56984412  1
  O2-  O188  1  0.81867436  0.06910099  0.90900339  1
  O2-  O189  1  0.82676262  0.56845138  0.24223123  1
  O2-  O190  1  0.82273662  0.57687527  0.57658391  1
  O2-  O191  1  0.82020105  0.57702735  0.91201862  1
  O2-  O192  1  0.04152050  0.08867943  0.27042841  1
  O2-  O193  1  0.04402975  0.07707077  0.59914931  1
  O2-  O194  1  0.04529197  0.08160205  0.92951087  1
  O2-  O195  1  0.04532298  0.58361129  0.27127015  1
  O2-  O196  1  0.04661925  0.58752118  0.60020060  1
  O2-  O197  1  0.03771690  0.58592198  0.93073848  1
  O2-  O198  1  0.55563096  0.08046261  0.27503867  1
  O2-  O199  1  0.54698167  0.08597781  0.60483700  1
  O2-  O200  1  0.54514410  0.08759896  0.93699851  1
  O2-  O201  1  0.53639142  0.58435100  0.26500424  1
  O2-  O202  1  0.54332858  0.58290553  0.60567990  1
  O2-  O203  1  0.54859615  0.57424073  0.93357946  1
  O2-  O204  1  0.16014212  0.20924450  0.26911109  1
  O2-  O205  1  0.17029872  0.20918373  0.59351377  1
  O2-  O206  1  0.17280965  0.20795514  0.93260372  1
  O2-  O207  1  0.16854670  0.70086004  0.27456777  1
  O2-  O208  1  0.16175921  0.70993250  0.60142563  1
  O2-  O209  1  0.16461634  0.71232367  0.93041914  1
  O2-  O210  1  0.66466121  0.20931066  0.26788514  1
  O2-  O211  1  0.66163799  0.20882173  0.60412891  1
  O2-  O212  1  0.66186902  0.20874036  0.93849342  1
  O2-  O213  1  0.66729937  0.70462643  0.26531353  1
  O2-  O214  1  0.66694891  0.69953571  0.60588670  1
  O2-  O215  1  0.66818488  0.70636899  0.92648736  1
  O2-  O216  1  0.07524291  0.45491612  0.06361538  1
  O2-  O217  1  0.08129970  0.45296372  0.39879239  1
  O2-  O218  1  0.08165619  0.45350567  0.72451760  1
  O2-  O219  1  0.08203683  0.95455120  0.06195830  1
  O2-  O220  1  0.08291057  0.96021218  0.40216051  1
  O2-  O221  1  0.08334141  0.94889528  0.73164484  1
  O2-  O222  1  0.58336631  0.45580195  0.07232373  1
  O2-  O223  1  0.58860493  0.46066262  0.39461029  1
  O2-  O224  1  0.58696492  0.46186603  0.73790783  1
  O2-  O225  1  0.59230382  0.96193789  0.06301569  1
  O2-  O226  1  0.58139597  0.95045231  0.40254889  1
  O2-  O227  1  0.58441403  0.95372039  0.73014129  1
  O2-  O228  1  0.20610786  0.33269929  0.06829300  1
  O2-  O229  1  0.20071523  0.33447200  0.39648425  1
  O2-  O230  1  0.20305016  0.33533295  0.72581012  1
  O2-  O231  1  0.20045124  0.83569938  0.06261282  1
  O2-  O232  1  0.20105762  0.82928310  0.40314634  1
  O2-  O233  1  0.20523662  0.83440258  0.72993432  1
  O2-  O234  1  0.71246766  0.33243851  0.07349438  1
  O2-  O235  1  0.70529234  0.33836451  0.39569321  1
  O2-  O236  1  0.70753086  0.33295985  0.73409034  1
  O2-  O237  1  0.70311559  0.83403165  0.05665459  1
  O2-  O238  1  0.71087582  0.82681948  0.40120307  1
  O2-  O239  1  0.70350343  0.83180971  0.73156812  1
  O2-  O240  1  0.46531855  0.41220406  0.26269676  1
  O2-  O241  1  0.46293172  0.41327001  0.60827138  1
  O2-  O242  1  0.45973029  0.41175365  0.93816749  1
  O2-  O243  1  0.44900179  0.92009081  0.27605062  1
  O2-  O244  1  0.46090105  0.91755356  0.59540722  1
  O2-  O245  1  0.46645284  0.91838628  0.93209718  1
  O2-  O246  1  0.95347088  0.41458177  0.26987632  1
  O2-  O247  1  0.95249994  0.41961803  0.59536468  1
  O2-  O248  1  0.94340072  0.42193828  0.93494207  1
  O2-  O249  1  0.96043649  0.91790832  0.26659191  1
  O2-  O250  1  0.95620736  0.91131495  0.60528080  1
  O2-  O251  1  0.95258927  0.91698845  0.93517062  1
  O2-  O252  1  0.33035751  0.29439772  0.26544119  1
  O2-  O253  1  0.33828714  0.29827870  0.60639436  1
  O2-  O254  1  0.33768137  0.29480716  0.93764593  1
  O2-  O255  1  0.33255034  0.79642059  0.27477484  1
  O2-  O256  1  0.33240366  0.79087307  0.59595730  1
  O2-  O257  1  0.32921124  0.80195873  0.93340292  1
  O2-  O258  1  0.83347958  0.29557150  0.27087534  1
  O2-  O259  1  0.82768679  0.28995057  0.59801729  1
  O2-  O260  1  0.82934034  0.28522399  0.93363851  1
  O2-  O261  1  0.83694634  0.78758037  0.26486087  1
  O2-  O262  1  0.83515885  0.79262822  0.60509679  1
  O2-  O263  1  0.83385251  0.79892371  0.93355263  1
  O2-  O264  1  0.41924361  0.04074759  0.06816013  1
  O2-  O265  1  0.42272975  0.05496026  0.39968312  1
  O2-  O266  1  0.41884966  0.04106639  0.73263562  1
  O2-  O267  1  0.41868598  0.54310181  0.06662074  1
  O2-  O268  1  0.41674107  0.53256643  0.40132577  1
  O2-  O269  1  0.41484102  0.54033660  0.73768851  1
  O2-  O270  1  0.91576045  0.04626843  0.05882227  1
  O2-  O271  1  0.91846013  0.04304343  0.40127684  1
  O2-  O272  1  0.91706780  0.03686293  0.73684563  1
  O2-  O273  1  0.91422815  0.55022182  0.06432562  1
  O2-  O274  1  0.91469698  0.54342648  0.39679762  1
  O2-  O275  1  0.92019663  0.55049719  0.72554909  1
  O2-  O276  1  0.29347413  0.16778945  0.06712776  1
  O2-  O277  1  0.28873603  0.17177082  0.40008572  1
  O2-  O278  1  0.29265717  0.16992742  0.73283633  1
  O2-  O279  1  0.29207958  0.67354772  0.06647644  1
  O2-  O280  1  0.29289677  0.66434637  0.40410367  1
  O2-  O281  1  0.28768749  0.66885119  0.73218883  1
  O2-  O282  1  0.78828148  0.15790553  0.06324482  1
  O2-  O283  1  0.79105291  0.16988312  0.40159526  1
  O2-  O284  1  0.78694607  0.16391013  0.73708112  1
  O2-  O285  1  0.79600912  0.67029160  0.06206473  1
  O2-  O286  1  0.79466709  0.66108081  0.39456750  1
  O2-  O287  1  0.79866635  0.66588146  0.73144565  1
