# generated using pymatgen
data_Ca2Al2SiO7
_symmetry_space_group_name_H-M   'P 1'
_cell_length_a   15.46831703
_cell_length_b   15.46972182
_cell_length_c   15.29113171
_cell_angle_alpha   89.97528119
_cell_angle_beta   90.00445084
_cell_angle_gamma   89.98517156
_symmetry_Int_Tables_number   1
_chemical_formula_structural   Ca2Al2SiO7
_chemical_formula_sum   'Ca48 Al48 Si24 O168'
_cell_volume   3659.02301844
_cell_formula_units_Z   24
loop_
 _symmetry_equiv_pos_site_id
 _symmetry_equiv_pos_as_xyz
  1  'x, y, z'
loop_
 _atom_type_symbol
 _atom_type_oxidation_number
  Ca2+  2.0
  Al0+  0.0
  Si0+  0.0
  O2-  -2.0
loop_
 _atom_site_type_symbol
 _atom_site_label
 _atom_site_symmetry_multiplicity
 _atom_site_fract_x
 _atom_site_fract_y
 _atom_site_fract_z
 _atom_site_occupancy
  Ca2+  Ca0  1  0.17481111  0.09163034  0.16374534  1
  Ca2+  Ca1  1  0.16950697  0.07503149  0.51595250  1
  Ca2+  Ca2  1  0.17121710  0.08486394  0.83870112  1
  Ca2+  Ca3  1  0.16245349  0.57366169  0.16785205  1
  Ca2+  Ca4  1  0.16561371  0.57890277  0.50771210  1
  Ca2+  Ca5  1  0.17638708  0.58281383  0.84196769  1
  Ca2+  Ca6  1  0.67326189  0.09302601  0.16407908  1
  Ca2+  Ca7  1  0.66552839  0.08261912  0.50829552  1
  Ca2+  Ca8  1  0.66895343  0.09433838  0.84169359  1
  Ca2+  Ca9  1  0.67091614  0.57751401  0.17441677  1
  Ca2+  Ca10  1  0.67538857  0.58301817  0.50970137  1
  Ca2+  Ca11  1  0.67085992  0.59162209  0.83730720  1
  Ca2+  Ca12  1  0.07958522  0.33632312  0.15512871  1
  Ca2+  Ca13  1  0.08863099  0.32921622  0.49814776  1
  Ca2+  Ca14  1  0.08691506  0.32687841  0.83559406  1
  Ca2+  Ca15  1  0.08343157  0.81924768  0.16111174  1
  Ca2+  Ca16  1  0.09136518  0.81992660  0.50031156  1
  Ca2+  Ca17  1  0.09128660  0.82330924  0.82910153  1
  Ca2+  Ca18  1  0.57786198  0.33433849  0.15626305  1
  Ca2+  Ca19  1  0.57801992  0.33509631  0.50255406  1
  Ca2+  Ca20  1  0.56913012  0.32442551  0.83045082  1
  Ca2+  Ca21  1  0.57735355  0.82395569  0.15601841  1
  Ca2+  Ca22  1  0.58277800  0.82622022  0.50089499  1
  Ca2+  Ca23  1  0.57463124  0.82552432  0.83527286  1
  Ca2+  Ca24  1  0.32384199  0.41627340  0.16290115  1
  Ca2+  Ca25  1  0.32846928  0.42015386  0.50649309  1
  Ca2+  Ca26  1  0.33475747  0.42179292  0.84059763  1
  Ca2+  Ca27  1  0.33979366  0.92081995  0.16183311  1
  Ca2+  Ca28  1  0.32569062  0.92326010  0.51227430  1
  Ca2+  Ca29  1  0.33338194  0.92682509  0.83703136  1
  Ca2+  Ca30  1  0.82736423  0.41800407  0.17298013  1
  Ca2+  Ca31  1  0.82792383  0.42700007  0.50124972  1
  Ca2+  Ca32  1  0.83396362  0.41772523  0.83665033  1
  Ca2+  Ca33  1  0.83603817  0.92420111  0.16341610  1
  Ca2+  Ca34  1  0.83086474  0.91598686  0.50630867  1
  Ca2+  Ca35  1  0.82950955  0.92403710  0.84083506  1
  Ca2+  Ca36  1  0.42301523  0.17458965  0.15127781  1
  Ca2+  Ca37  1  0.41351010  0.17028123  0.50388562  1
  Ca2+  Ca38  1  0.41089284  0.17514433  0.82711375  1
  Ca2+  Ca39  1  0.42191603  0.66992937  0.15060134  1
  Ca2+  Ca40  1  0.41828720  0.65928083  0.50345717  1
  Ca2+  Ca41  1  0.42234160  0.65989403  0.82828614  1
  Ca2+  Ca42  1  0.92277981  0.17621132  0.15071968  1
  Ca2+  Ca43  1  0.92507884  0.16593862  0.49967651  1
  Ca2+  Ca44  1  0.92457370  0.17023072  0.83389902  1
  Ca2+  Ca45  1  0.92710852  0.65613930  0.16496850  1
  Ca2+  Ca46  1  0.92485781  0.65599808  0.49835199  1
  Ca2+  Ca47  1  0.93053813  0.66200884  0.82766112  1
  Al0+  Al48  1  -0.00105356  -0.00028786  0.00388222  1
  Al0+  Al49  1  0.00227464  -0.00176129  0.33285388  1
  Al0+  Al50  1  -0.00298999  -0.00137779  0.66687686  1
  Al0+  Al51  1  -0.00034426  0.50073467  -0.00559388  1
  Al0+  Al52  1  -0.00006068  0.49719100  0.33762392  1
  Al0+  Al53  1  -0.00298204  0.49954836  0.66668371  1
  Al0+  Al54  1  0.50269290  -0.00347439  -0.00083311  1
  Al0+  Al55  1  0.50212885  0.00109408  0.33344525  1
  Al0+  Al56  1  0.49924418  -0.00095322  0.66655150  1
  Al0+  Al57  1  0.50228223  0.49929162  -0.00336992  1
  Al0+  Al58  1  0.49861572  0.49810983  0.33472662  1
  Al0+  Al59  1  0.50037847  0.49792921  0.66064777  1
  Al0+  Al60  1  0.24923774  0.25041918  0.00242710  1
  Al0+  Al61  1  0.25267723  0.25073751  0.33671768  1
  Al0+  Al62  1  0.24808129  0.24985041  0.65979552  1
  Al0+  Al63  1  0.25128572  0.75315590  -0.00244360  1
  Al0+  Al64  1  0.25080447  0.75182449  0.32765575  1
  Al0+  Al65  1  0.24974879  0.74850337  0.66846645  1
  Al0+  Al66  1  0.75156424  0.25274013  -0.00170217  1
  Al0+  Al67  1  0.75134900  0.24968782  0.34016076  1
  Al0+  Al68  1  0.74885192  0.25092888  0.66161207  1
  Al0+  Al69  1  0.75112740  0.75158114  0.00045994  1
  Al0+  Al70  1  0.75140077  0.75368617  0.33511423  1
  Al0+  Al71  1  0.75001241  0.75064271  0.66823245  1
  Al0+  Al72  1  0.31970817  0.07164946  0.68199098  1
  Al0+  Al73  1  0.42778357  0.82233082  0.98377861  1
  Al0+  Al74  1  0.06843086  0.17858849  0.65280780  1
  Al0+  Al75  1  0.57076203  0.17737677  0.65036972  1
  Al0+  Al76  1  0.32378289  0.57260232  0.01402962  1
  Al0+  Al77  1  0.06976569  0.67765087  0.31951890  1
  Al0+  Al78  1  0.42739311  0.32051888  0.98627430  1
  Al0+  Al79  1  0.42694914  0.32108353  0.64899184  1
  Al0+  Al80  1  0.17978616  0.42922766  0.34787558  1
  Al0+  Al81  1  0.81940616  0.57110829  0.68359839  1
  Al0+  Al82  1  0.32099904  0.56821412  0.67912712  1
  Al0+  Al83  1  0.92831695  0.32338654  0.98518611  1
  Al0+  Al84  1  0.81972994  0.57224776  0.34812625  1
  Al0+  Al85  1  0.57177273  0.67987537  0.65201483  1
  Al0+  Al86  1  0.17845260  0.43058960  0.01325024  1
  Al0+  Al87  1  0.82005853  0.07269315  0.01308202  1
  Al0+  Al88  1  0.67595046  0.42733568  0.34985836  1
  Al0+  Al89  1  0.57200120  0.67744032  0.98647865  1
  Al0+  Al90  1  0.07178559  0.17770177  0.98686681  1
  Al0+  Al91  1  0.32183891  0.07044850  0.01359454  1
  Al0+  Al92  1  0.57212455  0.17914422  0.98860927  1
  Al0+  Al93  1  0.17614799  0.92748658  0.68240223  1
  Al0+  Al94  1  0.07138641  0.67892101  0.65297938  1
  Al0+  Al95  1  0.07084986  0.67957426  0.98626716  1
  Si0+  Si96  1  0.07275184  0.17721042  0.31881077  1
  Si0+  Si97  1  0.17563302  0.42710682  0.68296897  1
  Si0+  Si98  1  0.67890693  0.93136896  0.34933313  1
  Si0+  Si99  1  0.92982906  0.31740500  0.31961793  1
  Si0+  Si100  1  0.92624313  0.32228776  0.64607863  1
  Si0+  Si101  1  0.81914303  0.07218709  0.68122647  1
  Si0+  Si102  1  0.67987257  0.92641970  0.01888610  1
  Si0+  Si103  1  0.82159569  0.57341453  0.01460302  1
  Si0+  Si104  1  0.92850254  0.82280331  0.98388999  1
  Si0+  Si105  1  0.32118818  0.57502776  0.34833716  1
  Si0+  Si106  1  0.43095591  0.82316476  0.31877166  1
  Si0+  Si107  1  0.92694087  0.82107976  0.65048299  1
  Si0+  Si108  1  0.17996659  0.92836707  0.34790582  1
  Si0+  Si109  1  0.92699971  0.82475275  0.31506954  1
  Si0+  Si110  1  0.17640761  0.92781447  0.01963812  1
  Si0+  Si111  1  0.42838880  0.32068888  0.31604206  1
  Si0+  Si112  1  0.42783037  0.82056931  0.64876154  1
  Si0+  Si113  1  0.57147617  0.67929052  0.32049879  1
  Si0+  Si114  1  0.68123080  0.43022639  0.01297273  1
  Si0+  Si115  1  0.82304925  0.07046528  0.34941556  1
  Si0+  Si116  1  0.32242422  0.06982840  0.34797488  1
  Si0+  Si117  1  0.57169471  0.17882835  0.31846108  1
  Si0+  Si118  1  0.67813689  0.92868901  0.68256815  1
  Si0+  Si119  1  0.67793647  0.42745685  0.68554428  1
  O2-  O120  1  0.24579723  -0.00279287  0.06315256  1
  O2-  O121  1  0.24948606  0.00083711  0.38983237  1
  O2-  O122  1  0.24564524  0.00184258  0.73155606  1
  O2-  O123  1  0.24940242  0.50348941  0.06506368  1
  O2-  O124  1  0.25098085  0.50803578  0.39261384  1
  O2-  O125  1  0.24544903  0.49482537  0.72543717  1
  O2-  O126  1  0.74432155  -0.00002710  0.06258394  1
  O2-  O127  1  0.75183669  0.00009500  0.39245330  1
  O2-  O128  1  0.74393161  0.00542745  0.72280140  1
  O2-  O129  1  0.74944849  0.50377898  0.05621399  1
  O2-  O130  1  0.74277064  0.50531434  0.39823592  1
  O2-  O131  1  0.74402905  0.49783233  0.73103920  1
  O2-  O132  1  0.00114940  0.24713908  0.27668619  1
  O2-  O133  1  -0.00352553  0.25439136  0.60248020  1
  O2-  O134  1  0.00122323  0.25123630  0.93768142  1
  O2-  O135  1  -0.00802429  0.75118572  0.27389393  1
  O2-  O136  1  -0.00310703  0.75421021  0.60567623  1
  O2-  O137  1  -0.00211256  0.75613166  0.93953336  1
  O2-  O138  1  0.50401583  0.25259407  0.27651840  1
  O2-  O139  1  0.49813950  0.24728813  0.59851693  1
  O2-  O140  1  0.49284291  0.24135672  0.93815382  1
  O2-  O141  1  0.49766930  0.74713185  0.27805747  1
  O2-  O142  1  0.49521682  0.75134750  0.60240191  1
  O2-  O143  1  0.49379966  0.74314381  0.93690981  1
  O2-  O144  1  0.06936140  0.17901587  0.10152316  1
  O2-  O145  1  0.06997467  0.17568978  0.42392148  1
  O2-  O146  1  0.06586911  0.17757957  0.76499897  1
  O2-  O147  1  0.06657202  0.67849742  0.09998560  1
  O2-  O148  1  0.07093953  0.68037580  0.43247333  1
  O2-  O149  1  0.07025789  0.67961928  0.76552683  1
  O2-  O150  1  0.57357887  0.18522781  0.10317724  1
  O2-  O151  1  0.56918012  0.17424077  0.42303677  1
  O2-  O152  1  0.57451551  0.18026251  0.76295937  1
  O2-  O153  1  0.57527318  0.67962159  0.10120949  1
  O2-  O154  1  0.57177550  0.68276113  0.42547781  1
  O2-  O155  1  0.57338008  0.68374274  0.76421439  1
  O2-  O156  1  0.17954735  0.42657571  0.23536354  1
  O2-  O157  1  0.17595062  0.42921998  0.57652186  1
  O2-  O158  1  0.17723749  0.43151750  0.90018063  1
  O2-  O159  1  0.17943018  0.92791486  0.24329934  1
  O2-  O160  1  0.17897759  0.92827086  0.56743359  1
  O2-  O161  1  0.17372201  0.92875280  0.91462601  1
  O2-  O162  1  0.67783614  0.42647245  0.23583011  1
  O2-  O163  1  0.68096042  0.42904754  0.57954449  1
  O2-  O164  1  0.68357554  0.42899464  0.90838126  1
  O2-  O165  1  0.67713463  0.93201313  0.24492076  1
  O2-  O166  1  0.68114619  0.92773965  0.57652018  1
  O2-  O167  1  0.68421396  0.92156517  0.91371583  1
  O2-  O168  1  0.43111189  0.32089149  0.10082436  1
  O2-  O169  1  0.42531585  0.31850023  0.42064830  1
  O2-  O170  1  0.42789912  0.32100967  0.76195511  1
  O2-  O171  1  0.43357607  0.82237248  0.09873040  1
  O2-  O172  1  0.43266123  0.82691205  0.42360549  1
  O2-  O173  1  0.43028809  0.82160803  0.75345997  1
  O2-  O174  1  0.92636225  0.32224215  0.09972950  1
  O2-  O175  1  0.92946917  0.31429702  0.42459091  1
  O2-  O176  1  0.92356364  0.32057848  0.75116172  1
  O2-  O177  1  0.92834235  0.82223177  0.08989933  1
  O2-  O178  1  0.92730069  0.83176047  0.42006200  1
  O2-  O179  1  0.92435495  0.82108556  0.75568395  1
  O2-  O180  1  0.32369209  0.06917393  0.24303076  1
  O2-  O181  1  0.31871776  0.06766671  0.56700190  1
  O2-  O182  1  0.32056180  0.07006223  0.90144051  1
  O2-  O183  1  0.32305551  0.57512470  0.24324441  1
  O2-  O184  1  0.31815628  0.56804119  0.56506334  1
  O2-  O185  1  0.32364332  0.56916694  0.90067320  1
  O2-  O186  1  0.82201671  0.07148649  0.24469060  1
  O2-  O187  1  0.82007317  0.06867840  0.57531710  1
  O2-  O188  1  0.81915707  0.07025203  0.90006134  1
  O2-  O189  1  0.81919325  0.56924787  0.23408913  1
  O2-  O190  1  0.81898050  0.57008980  0.57029152  1
  O2-  O191  1  0.82042829  0.57498311  0.90975905  1
  O2-  O192  1  0.04704779  0.08455016  0.27239575  1
  O2-  O193  1  0.03384131  0.08229470  0.59776137  1
  O2-  O194  1  0.04070699  0.07947449  0.93654314  1
  O2-  O195  1  0.03770917  0.58002645  0.26788890  1
  O2-  O196  1  0.03770384  0.58237379  0.59967163  1
  O2-  O197  1  0.03783519  0.58599726  0.93017263  1
  O2-  O198  1  0.54269482  0.08767784  0.26984367  1
  O2-  O199  1  0.54558043  0.07697527  0.59795560  1
  O2-  O200  1  0.55935587  0.07586683  0.94310819  1
  O2-  O201  1  0.54775819  0.58529328  0.27573612  1
  O2-  O202  1  0.54433464  0.58314301  0.59710201  1
  O2-  O203  1  0.55194919  0.57866458  0.93283161  1
  O2-  O204  1  0.16609177  0.20529048  0.27518503  1
  O2-  O205  1  0.16381345  0.20640544  0.59488926  1
  O2-  O206  1  0.16980582  0.20443285  0.93513749  1
  O2-  O207  1  0.16549764  0.71162161  0.26512111  1
  O2-  O208  1  0.16757938  0.70992870  0.59744608  1
  O2-  O209  1  0.16763640  0.70948647  0.93426693  1
  O2-  O210  1  0.66698539  0.20310297  0.27620124  1
  O2-  O211  1  0.66915860  0.20634749  0.59510888  1
  O2-  O212  1  0.66698720  0.21416585  0.93459102  1
  O2-  O213  1  0.66295600  0.71030731  0.27406268  1
  O2-  O214  1  0.66684166  0.71651518  0.59739519  1
  O2-  O215  1  0.66883859  0.71316323  0.93465629  1
  O2-  O216  1  0.07889560  0.46072969  0.06575429  1
  O2-  O217  1  0.08283712  0.45478184  0.40319661  1
  O2-  O218  1  0.08134952  0.45092002  0.72666316  1
  O2-  O219  1  0.08281449  0.95150468  0.06757306  1
  O2-  O220  1  0.08752853  0.95419732  0.39560085  1
  O2-  O221  1  0.07541841  0.95106698  0.73189201  1
  O2-  O222  1  0.58951660  0.45571763  0.06167875  1
  O2-  O223  1  0.57550887  0.45000946  0.40093790  1
  O2-  O224  1  0.58271510  0.44996935  0.72695973  1
  O2-  O225  1  0.58550635  0.94610872  0.06496518  1
  O2-  O226  1  0.58855847  0.96173035  0.39900364  1
  O2-  O227  1  0.58457992  0.94966949  0.72760521  1
  O2-  O228  1  0.20504950  0.33252050  0.06899056  1
  O2-  O229  1  0.21389345  0.33339402  0.40311043  1
  O2-  O230  1  0.19958653  0.33199471  0.72449068  1
  O2-  O231  1  0.20404914  0.83503778  0.06696999  1
  O2-  O232  1  0.21032222  0.83707043  0.39529963  1
  O2-  O233  1  0.20719368  0.83034221  0.73398549  1
  O2-  O234  1  0.71230520  0.34096886  0.06389657  1
  O2-  O235  1  0.70975851  0.33120073  0.40499839  1
  O2-  O236  1  0.70729881  0.33390199  0.72902413  1
  O2-  O237  1  0.71262347  0.83615130  0.06968439  1
  O2-  O238  1  0.70513947  0.83963043  0.39823481  1
  O2-  O239  1  0.71225568  0.84043348  0.73145523  1
  O2-  O240  1  0.45242650  0.41410615  0.26985008  1
  O2-  O241  1  0.45905385  0.41687685  0.59188112  1
  O2-  O242  1  0.46238385  0.41532977  0.93228478  1
  O2-  O243  1  0.46464473  0.91307147  0.27015803  1
  O2-  O244  1  0.45567330  0.91322449  0.60098457  1
  O2-  O245  1  0.46450747  0.91649154  0.92838788  1
  O2-  O246  1  0.95610097  0.40975784  0.27372014  1
  O2-  O247  1  0.95180826  0.41584134  0.60031369  1
  O2-  O248  1  0.95401683  0.42022534  0.92962751  1
  O2-  O249  1  0.95837444  0.91618915  0.26606932  1
  O2-  O250  1  0.94869715  0.91523006  0.60296222  1
  O2-  O251  1  0.95050344  0.91741959  0.93931891  1
  O2-  O252  1  0.33803364  0.28800471  0.26843022  1
  O2-  O253  1  0.32922229  0.29374405  0.59302634  1
  O2-  O254  1  0.32796510  0.29761184  0.93582343  1
  O2-  O255  1  0.33814725  0.80165756  0.27096168  1
  O2-  O256  1  0.33454568  0.79481211  0.60209244  1
  O2-  O257  1  0.32681762  0.80744661  0.93373001  1
  O2-  O258  1  0.83724217  0.28864359  0.27335742  1
  O2-  O259  1  0.83427713  0.29451113  0.59766525  1
  O2-  O260  1  0.83261107  0.29218148  0.93005766  1
  O2-  O261  1  0.83131115  0.80543896  0.27004570  1
  O2-  O262  1  0.83438677  0.79426919  0.60220458  1
  O2-  O263  1  0.83528302  0.79745077  0.93801036  1
  O2-  O264  1  0.41907668  0.03732393  0.06782611  1
  O2-  O265  1  0.41380356  0.03979913  0.39520323  1
  O2-  O266  1  0.41888273  0.04258745  0.73213138  1
  O2-  O267  1  0.42294741  0.54280435  0.06633034  1
  O2-  O268  1  0.41425904  0.54702057  0.39480173  1
  O2-  O269  1  0.41950318  0.53877285  0.72918919  1
  O2-  O270  1  0.91463536  0.03952655  0.07116833  1
  O2-  O271  1  0.91528070  0.04110256  0.39591167  1
  O2-  O272  1  0.90861713  0.04065567  0.72945989  1
  O2-  O273  1  0.91245691  0.54256409  0.06121721  1
  O2-  O274  1  0.91529331  0.53687226  0.40217394  1
  O2-  O275  1  0.91585395  0.53853801  0.73629518  1
  O2-  O276  1  0.29162356  0.16624145  0.07081856  1
  O2-  O277  1  0.29686364  0.16192175  0.39504944  1
  O2-  O278  1  0.29163478  0.17176904  0.72913078  1
  O2-  O279  1  0.30019964  0.67412528  0.06322869  1
  O2-  O280  1  0.29913858  0.67049545  0.39277022  1
  O2-  O281  1  0.29375369  0.66555009  0.73155974  1
  O2-  O282  1  0.78911150  0.16911892  0.06880408  1
  O2-  O283  1  0.79657106  0.16094658  0.39953582  1
  O2-  O284  1  0.79488951  0.16593133  0.72515409  1
  O2-  O285  1  0.79612386  0.66539619  0.06319392  1
  O2-  O286  1  0.79888992  0.67404805  0.39830203  1
  O2-  O287  1  0.78942520  0.66851871  0.73571728  1
