# generated using pymatgen
data_Ca2Al2SiO7
_symmetry_space_group_name_H-M   'P 1'
_cell_length_a   15.45329178
_cell_length_b   15.45284266
_cell_length_c   15.28041438
_cell_angle_alpha   89.99662132
_cell_angle_beta   89.99903351
_cell_angle_gamma   90.00743397
_symmetry_Int_Tables_number   1
_chemical_formula_structural   Ca2Al2SiO7
_chemical_formula_sum   'Ca48 Al48 Si24 O168'
_cell_volume   3648.92145159
_cell_formula_units_Z   24
loop_
 _symmetry_equiv_pos_site_id
 _symmetry_equiv_pos_as_xyz
  1  'x, y, z'
loop_
 _atom_type_symbol
 _atom_type_oxidation_number
  Ca2+  2.0
  Al0+  0.0
  Si0+  0.0
  O2-  -2.0
loop_
 _atom_site_type_symbol
 _atom_site_label
 _atom_site_symmetry_multiplicity
 _atom_site_fract_x
 _atom_site_fract_y
 _atom_site_fract_z
 _atom_site_occupancy
  Ca2+  Ca0  1  0.17273688  0.08077731  0.16503144  1
  Ca2+  Ca1  1  0.17657460  0.08392444  0.50666759  1
  Ca2+  Ca2  1  0.17221962  0.08520675  0.84152569  1
  Ca2+  Ca3  1  0.15339688  0.57100508  0.17085970  1
  Ca2+  Ca4  1  0.16795409  0.57891857  0.50379624  1
  Ca2+  Ca5  1  0.17636235  0.57858878  0.83809226  1
  Ca2+  Ca6  1  0.67623865  0.07962279  0.17096030  1
  Ca2+  Ca7  1  0.66251366  0.06909119  0.50405249  1
  Ca2+  Ca8  1  0.66957070  0.07508330  0.83887461  1
  Ca2+  Ca9  1  0.67537882  0.58685167  0.16256901  1
  Ca2+  Ca10  1  0.67713397  0.59209456  0.50687723  1
  Ca2+  Ca11  1  0.67064470  0.58466843  0.84064504  1
  Ca2+  Ca12  1  0.08084456  0.33183510  0.15550699  1
  Ca2+  Ca13  1  0.08848708  0.32944332  0.49791337  1
  Ca2+  Ca14  1  0.08532883  0.32459345  0.83482630  1
  Ca2+  Ca15  1  0.08070685  0.82683853  0.15734452  1
  Ca2+  Ca16  1  0.08171515  0.82232718  0.49273718  1
  Ca2+  Ca17  1  0.07606757  0.84389924  0.83474265  1
  Ca2+  Ca18  1  0.58269451  0.33427635  0.15814980  1
  Ca2+  Ca19  1  0.57392996  0.33457769  0.50025843  1
  Ca2+  Ca20  1  0.58019028  0.33305722  0.82830376  1
  Ca2+  Ca21  1  0.58149695  0.83262972  0.16434475  1
  Ca2+  Ca22  1  0.57707166  0.83623904  0.49924678  1
  Ca2+  Ca23  1  0.58202173  0.82310045  0.82472999  1
  Ca2+  Ca24  1  0.31911408  0.41807578  0.16923142  1
  Ca2+  Ca25  1  0.32949852  0.42179186  0.50716576  1
  Ca2+  Ca26  1  0.33348832  0.41910308  0.83635647  1
  Ca2+  Ca27  1  0.33355588  0.92444138  0.17007598  1
  Ca2+  Ca28  1  0.34230322  0.92337132  0.50608822  1
  Ca2+  Ca29  1  0.33077176  0.92589732  0.83872028  1
  Ca2+  Ca30  1  0.83424429  0.42402902  0.16669004  1
  Ca2+  Ca31  1  0.83352491  0.42980868  0.50477051  1
  Ca2+  Ca32  1  0.82926065  0.42604406  0.84437001  1
  Ca2+  Ca33  1  0.83321697  0.91786829  0.16548496  1
  Ca2+  Ca34  1  0.81802309  0.90945993  0.50449719  1
  Ca2+  Ca35  1  0.82984154  0.91814880  0.84013240  1
  Ca2+  Ca36  1  0.41338887  0.16236127  0.16413679  1
  Ca2+  Ca37  1  0.40895973  0.16851313  0.49894657  1
  Ca2+  Ca38  1  0.40766961  0.17186746  0.82704895  1
  Ca2+  Ca39  1  0.42304060  0.67452242  0.15959140  1
  Ca2+  Ca40  1  0.41634991  0.67785895  0.49732780  1
  Ca2+  Ca41  1  0.42814664  0.66802009  0.82158320  1
  Ca2+  Ca42  1  0.92243704  0.17282439  0.14872089  1
  Ca2+  Ca43  1  0.92509954  0.16738411  0.49813433  1
  Ca2+  Ca44  1  0.92566595  0.16637403  0.83248682  1
  Ca2+  Ca45  1  0.91453473  0.66807481  0.16201021  1
  Ca2+  Ca46  1  0.91841917  0.66080659  0.49433125  1
  Ca2+  Ca47  1  0.91133790  0.66748891  0.83365557  1
  Al0+  Al48  1  0.00102265  -0.00146124  0.00042430  1
  Al0+  Al49  1  0.00165997  0.00002418  0.33355587  1
  Al0+  Al50  1  -0.00055886  0.00009084  0.65677163  1
  Al0+  Al51  1  -0.00017421  0.50106545  0.00053273  1
  Al0+  Al52  1  -0.00051094  0.49796346  0.33919991  1
  Al0+  Al53  1  -0.00119884  0.49915206  0.67215883  1
  Al0+  Al54  1  0.49971925  0.00061419  0.00268763  1
  Al0+  Al55  1  0.50064898  0.00096365  0.33531847  1
  Al0+  Al56  1  0.50028990  -0.00002389  0.67516756  1
  Al0+  Al57  1  0.50093245  0.50033344  0.00083197  1
  Al0+  Al58  1  0.49945972  0.49982248  0.33058874  1
  Al0+  Al59  1  0.50094065  0.49942141  0.65896982  1
  Al0+  Al60  1  0.25099572  0.25136092  0.00454793  1
  Al0+  Al61  1  0.24957557  0.25032131  0.33953231  1
  Al0+  Al62  1  0.24906619  0.24889159  0.66123148  1
  Al0+  Al63  1  0.25078707  0.75146245  0.00169206  1
  Al0+  Al64  1  0.24978133  0.74920197  0.32111147  1
  Al0+  Al65  1  0.24876216  0.74950798  0.66791346  1
  Al0+  Al66  1  0.74892438  0.25037067  0.00158142  1
  Al0+  Al67  1  0.74941943  0.25101775  0.33540934  1
  Al0+  Al68  1  0.75165020  0.25025085  0.66223167  1
  Al0+  Al69  1  0.74967240  0.74942482  -0.00393078  1
  Al0+  Al70  1  0.74977328  0.75025523  0.34010596  1
  Al0+  Al71  1  0.75005664  0.75027884  0.67180130  1
  Al0+  Al72  1  0.31877311  0.06793867  0.34938592  1
  Al0+  Al73  1  0.82119137  0.07061494  0.01066600  1
  Al0+  Al74  1  0.82059425  0.57246508  0.01565047  1
  Al0+  Al75  1  0.82079933  0.57002987  0.68327571  1
  Al0+  Al76  1  0.57285083  0.67910137  0.64947154  1
  Al0+  Al77  1  0.56873965  0.68032768  0.98636678  1
  Al0+  Al78  1  0.67945971  0.93059336  0.68332709  1
  Al0+  Al79  1  0.32144526  0.07181288  0.01589614  1
  Al0+  Al80  1  0.32196188  0.57192510  0.67785256  1
  Al0+  Al81  1  0.07015663  0.17923372  0.65083339  1
  Al0+  Al82  1  0.18072276  0.43164349  0.01160494  1
  Al0+  Al83  1  0.06920794  0.67726927  0.31995485  1
  Al0+  Al84  1  0.17974541  0.43044130  0.34884003  1
  Al0+  Al85  1  0.92668306  0.32330574  0.98465505  1
  Al0+  Al86  1  0.43036462  0.82290369  0.31764263  1
  Al0+  Al87  1  0.67703669  0.42814511  0.01400867  1
  Al0+  Al88  1  0.31885316  0.07036401  0.68097807  1
  Al0+  Al89  1  0.07240696  0.17958663  0.98632928  1
  Al0+  Al90  1  0.68132765  0.93124440  0.34614049  1
  Al0+  Al91  1  0.17785506  0.92736749  0.01550377  1
  Al0+  Al92  1  0.42778207  0.82194360  0.65363250  1
  Al0+  Al93  1  0.93043394  0.81963409  0.98663858  1
  Al0+  Al94  1  0.42926827  0.32014692  0.65271989  1
  Al0+  Al95  1  0.81798552  0.56840317  0.34746578  1
  Si0+  Si96  1  0.57207473  0.17726379  0.98608637  1
  Si0+  Si97  1  0.32396472  0.57307817  0.01655461  1
  Si0+  Si98  1  0.42707530  0.82448231  0.98213924  1
  Si0+  Si99  1  0.92797769  0.32369550  0.64834793  1
  Si0+  Si100  1  0.92657962  0.82181976  0.31804575  1
  Si0+  Si101  1  0.17473456  0.92657499  0.68065953  1
  Si0+  Si102  1  0.57047321  0.18004278  0.31856677  1
  Si0+  Si103  1  0.67772216  0.42591998  0.68091756  1
  Si0+  Si104  1  0.82472640  0.07496682  0.35050003  1
  Si0+  Si105  1  0.42985601  0.31968109  0.98720256  1
  Si0+  Si106  1  0.17691318  0.92457151  0.34998040  1
  Si0+  Si107  1  0.17923109  0.42762031  0.68431736  1
  Si0+  Si108  1  0.67862380  0.92767099  0.01661897  1
  Si0+  Si109  1  0.82422553  0.07271371  0.68124504  1
  Si0+  Si110  1  0.07052586  0.67673246  0.65361451  1
  Si0+  Si111  1  0.07215333  0.17925200  0.31747983  1
  Si0+  Si112  1  0.42785142  0.32110025  0.31677722  1
  Si0+  Si113  1  0.57390715  0.67783458  0.31586463  1
  Si0+  Si114  1  0.67468033  0.42535274  0.35213787  1
  Si0+  Si115  1  0.07417692  0.67663585  0.98148971  1
  Si0+  Si116  1  0.32397950  0.57355291  0.34787326  1
  Si0+  Si117  1  0.92900556  0.82037747  0.65054098  1
  Si0+  Si118  1  0.92898348  0.31923506  0.31936047  1
  Si0+  Si119  1  0.57418979  0.17713968  0.65063366  1
  O2-  O120  1  0.25155284  -0.00229382  0.06537496  1
  O2-  O121  1  0.24572787  -0.00840951  0.39638790  1
  O2-  O122  1  0.24454211  -0.00579218  0.72452654  1
  O2-  O123  1  0.24992251  0.51043946  0.06113733  1
  O2-  O124  1  0.25438744  0.50628026  0.39320355  1
  O2-  O125  1  0.24911381  0.49604325  0.72657369  1
  O2-  O126  1  0.74658536  -0.00268324  0.06031866  1
  O2-  O127  1  0.75854174  0.00382994  0.39419793  1
  O2-  O128  1  0.75389329  0.00719974  0.72680876  1
  O2-  O129  1  0.75125886  0.49729672  0.06478506  1
  O2-  O130  1  0.74053079  0.49676841  0.39552270  1
  O2-  O131  1  0.74488216  0.49495336  0.72581050  1
  O2-  O132  1  -0.00490873  0.24396835  0.27661826  1
  O2-  O133  1  -0.00413279  0.25450769  0.60331253  1
  O2-  O134  1  -0.00152729  0.25001731  0.93597248  1
  O2-  O135  1  -0.00247958  0.75555974  0.27434944  1
  O2-  O136  1  -0.00022656  0.74802865  0.61040762  1
  O2-  O137  1  0.00685776  0.74704588  0.93768749  1
  O2-  O138  1  0.50182915  0.25296111  0.27489125  1
  O2-  O139  1  0.50456489  0.24505329  0.60597658  1
  O2-  O140  1  0.50055953  0.24830037  0.94489682  1
  O2-  O141  1  0.50313416  0.74498032  0.27237560  1
  O2-  O142  1  0.49851674  0.74973474  0.60082429  1
  O2-  O143  1  0.49302290  0.75332535  0.93879204  1
  O2-  O144  1  0.07202521  0.18253693  0.10055022  1
  O2-  O145  1  0.07166482  0.18094437  0.42283364  1
  O2-  O146  1  0.06994089  0.17896547  0.76339598  1
  O2-  O147  1  0.07196385  0.67605979  0.08724448  1
  O2-  O148  1  0.06782595  0.67778777  0.43388872  1
  O2-  O149  1  0.07064904  0.67587414  0.75827013  1
  O2-  O150  1  0.57203058  0.17654372  0.09154055  1
  O2-  O151  1  0.56990805  0.18082291  0.42365512  1
  O2-  O152  1  0.57713042  0.17988853  0.75617552  1
  O2-  O153  1  0.56808327  0.68297813  0.10008438  1
  O2-  O154  1  0.57430789  0.67800119  0.42112115  1
  O2-  O155  1  0.57229328  0.67974179  0.76313456  1
  O2-  O156  1  0.17962068  0.42929318  0.23574311  1
  O2-  O157  1  0.17854553  0.42983155  0.57829190  1
  O2-  O158  1  0.18611942  0.43020309  0.89859836  1
  O2-  O159  1  0.17463547  0.92810691  0.24494506  1
  O2-  O160  1  0.17294251  0.92669222  0.57481133  1
  O2-  O161  1  0.17910243  0.92883325  0.90151131  1
  O2-  O162  1  0.67585792  0.42108015  0.24711600  1
  O2-  O163  1  0.68078958  0.42428902  0.57494856  1
  O2-  O164  1  0.67356623  0.42928390  0.90049366  1
  O2-  O165  1  0.68313754  0.93347183  0.23302585  1
  O2-  O166  1  0.68043212  0.93147746  0.56972036  1
  O2-  O167  1  0.67866272  0.92954510  0.91115141  1
  O2-  O168  1  0.43012879  0.31902481  0.09266229  1
  O2-  O169  1  0.42831712  0.32063872  0.42182610  1
  O2-  O170  1  0.42920239  0.31916343  0.76614176  1
  O2-  O171  1  0.43026592  0.82507530  0.08814784  1
  O2-  O172  1  0.43163605  0.82356377  0.43060580  1
  O2-  O173  1  0.42891001  0.82065542  0.76694652  1
  O2-  O174  1  0.92885572  0.32178300  0.09918949  1
  O2-  O175  1  0.92999149  0.31806140  0.42474319  1
  O2-  O176  1  0.92683152  0.32358033  0.75315801  1
  O2-  O177  1  0.92936486  0.81778885  0.10004679  1
  O2-  O178  1  0.92680182  0.82066344  0.42408819  1
  O2-  O179  1  0.93030116  0.82412356  0.75536778  1
  O2-  O180  1  0.31763763  0.06976065  0.23673392  1
  O2-  O181  1  0.31777636  0.07025558  0.56761832  1
  O2-  O182  1  0.32117640  0.07330838  0.90242820  1
  O2-  O183  1  0.32690883  0.56921021  0.24237217  1
  O2-  O184  1  0.31673645  0.57193441  0.56452143  1
  O2-  O185  1  0.32525794  0.56943765  0.91076011  1
  O2-  O186  1  0.82308921  0.07750961  0.24505316  1
  O2-  O187  1  0.82389583  0.07045351  0.57517832  1
  O2-  O188  1  0.81837099  0.06872695  0.89746456  1
  O2-  O189  1  0.81814532  0.56814799  0.23503341  1
  O2-  O190  1  0.82295944  0.56869468  0.56964310  1
  O2-  O191  1  0.81715124  0.57244677  0.90227221  1
  O2-  O192  1  0.05120767  0.08426638  0.27305384  1
  O2-  O193  1  0.03902535  0.08427406  0.59168629  1
  O2-  O194  1  0.04572406  0.08069719  0.93476225  1
  O2-  O195  1  0.03397705  0.58069120  0.26841578  1
  O2-  O196  1  0.04169533  0.58460974  0.60635263  1
  O2-  O197  1  0.04815518  0.58401484  0.93436301  1
  O2-  O198  1  0.54110596  0.08978751  0.26989063  1
  O2-  O199  1  0.54695423  0.08314053  0.60727314  1
  O2-  O200  1  0.54514321  0.08511328  0.93838635  1
  O2-  O201  1  0.55062919  0.58281326  0.27048167  1
  O2-  O202  1  0.55028075  0.57983948  0.59603733  1
  O2-  O203  1  0.53890838  0.58281273  0.93318840  1
  O2-  O204  1  0.16270049  0.21301618  0.27217882  1
  O2-  O205  1  0.16457250  0.21207305  0.59370968  1
  O2-  O206  1  0.17031914  0.21287832  0.93431231  1
  O2-  O207  1  0.16536537  0.70127735  0.26210751  1
  O2-  O208  1  0.16147631  0.70407271  0.60418545  1
  O2-  O209  1  0.16992062  0.69976985  0.93793389  1
  O2-  O210  1  0.66405790  0.20571844  0.27214316  1
  O2-  O211  1  0.66719867  0.20125711  0.60089565  1
  O2-  O212  1  0.66257659  0.20450029  0.93660811  1
  O2-  O213  1  0.66702882  0.70778590  0.27116249  1
  O2-  O214  1  0.67136874  0.71252715  0.59885752  1
  O2-  O215  1  0.66419149  0.71149027  0.93148460  1
  O2-  O216  1  0.08342217  0.45880687  0.06608769  1
  O2-  O217  1  0.08442404  0.45992230  0.40569389  1
  O2-  O218  1  0.08610930  0.45320948  0.73027566  1
  O2-  O219  1  0.08023373  0.95470278  0.06998627  1
  O2-  O220  1  0.08264207  0.94947608  0.39694055  1
  O2-  O221  1  0.08064505  0.95554404  0.72427055  1
  O2-  O222  1  0.57995403  0.45843806  0.07021813  1
  O2-  O223  1  0.57895950  0.44844282  0.39531659  1
  O2-  O224  1  0.58241311  0.44806887  0.72367198  1
  O2-  O225  1  0.58532472  0.95361302  0.06287570  1
  O2-  O226  1  0.58709403  0.96669867  0.40151902  1
  O2-  O227  1  0.58507169  0.96092343  0.74076420  1
  O2-  O228  1  0.21517596  0.33822353  0.06933830  1
  O2-  O229  1  0.21310124  0.33574142  0.40487799  1
  O2-  O230  1  0.20634549  0.33384219  0.72729911  1
  O2-  O231  1  0.20355335  0.82786817  0.06904742  1
  O2-  O232  1  0.20070904  0.82843335  0.39121136  1
  O2-  O233  1  0.19544399  0.83263377  0.72747450  1
  O2-  O234  1  0.70087965  0.32900673  0.06794214  1
  O2-  O235  1  0.70166957  0.33254044  0.40024282  1
  O2-  O236  1  0.70286594  0.33133842  0.72601981  1
  O2-  O237  1  0.70630423  0.83512253  0.06215892  1
  O2-  O238  1  0.70984998  0.83563336  0.40341212  1
  O2-  O239  1  0.71367074  0.83591140  0.73744367  1
  O2-  O240  1  0.45219808  0.41375226  0.26874925  1
  O2-  O241  1  0.45938714  0.41455061  0.59337897  1
  O2-  O242  1  0.45704404  0.41149957  0.93966959  1
  O2-  O243  1  0.46578808  0.91865289  0.26409340  1
  O2-  O244  1  0.45986360  0.92125372  0.60342657  1
  O2-  O245  1  0.45455726  0.91828595  0.93742212  1
  O2-  O246  1  0.96128546  0.40968159  0.27344124  1
  O2-  O247  1  0.95694254  0.41698738  0.60221309  1
  O2-  O248  1  0.95603913  0.42153949  0.93238856  1
  O2-  O249  1  0.94866596  0.91777777  0.27416313  1
  O2-  O250  1  0.95488067  0.91044296  0.59826995  1
  O2-  O251  1  0.96008641  0.91587021  0.93086108  1
  O2-  O252  1  0.33630989  0.28920185  0.27120238  1
  O2-  O253  1  0.33398766  0.28894211  0.59612255  1
  O2-  O254  1  0.33901166  0.29151522  0.93882264  1
  O2-  O255  1  0.33408795  0.79578230  0.26091086  1
  O2-  O256  1  0.32785705  0.79560899  0.60078159  1
  O2-  O257  1  0.33163296  0.80297913  0.93869321  1
  O2-  O258  1  0.83444478  0.29740240  0.27402349  1
  O2-  O259  1  0.83473796  0.29933845  0.59930343  1
  O2-  O260  1  0.82741146  0.29555688  0.93306478  1
  O2-  O261  1  0.83339203  0.79398524  0.27282256  1
  O2-  O262  1  0.83754155  0.79038114  0.60439481  1
  O2-  O263  1  0.83463001  0.78927746  0.93079250  1
  O2-  O264  1  0.42071561  0.04461700  0.06955968  1
  O2-  O265  1  0.41699643  0.04108315  0.40163898  1
  O2-  O266  1  0.41589921  0.04562443  0.73624172  1
  O2-  O267  1  0.41419658  0.54158836  0.06523705  1
  O2-  O268  1  0.41726475  0.54677298  0.39468283  1
  O2-  O269  1  0.41981867  0.54046111  0.72868331  1
  O2-  O270  1  0.91635393  0.03991527  0.06652786  1
  O2-  O271  1  0.91994334  0.05204746  0.39501480  1
  O2-  O272  1  0.91756431  0.04335011  0.72496072  1
  O2-  O273  1  0.92050485  0.54832744  0.06681471  1
  O2-  O274  1  0.91232781  0.53334197  0.40374501  1
  O2-  O275  1  0.91704636  0.53959797  0.73797711  1
  O2-  O276  1  0.29303313  0.16920955  0.07067002  1
  O2-  O277  1  0.28649613  0.16430119  0.40336044  1
  O2-  O278  1  0.28562117  0.16761743  0.73214406  1
  O2-  O279  1  0.30576665  0.66916846  0.05955420  1
  O2-  O280  1  0.29843681  0.66889242  0.38931229  1
  O2-  O281  1  0.28954638  0.66660908  0.73483207  1
  O2-  O282  1  0.79018888  0.16596139  0.06693017  1
  O2-  O283  1  0.79686260  0.16755420  0.39814566  1
  O2-  O284  1  0.80284726  0.16863973  0.72375010  1
  O2-  O285  1  0.78731050  0.66978689  0.06861853  1
  O2-  O286  1  0.79159048  0.66556688  0.40310795  1
  O2-  O287  1  0.79219773  0.66690292  0.73607134  1
