# generated using pymatgen
data_Ca2Al2SiO7
_symmetry_space_group_name_H-M   'P 1'
_cell_length_a   15.46228100
_cell_length_b   15.46133073
_cell_length_c   15.28657508
_cell_angle_alpha   90.00297104
_cell_angle_beta   89.99283752
_cell_angle_gamma   89.99666976
_symmetry_Int_Tables_number   1
_chemical_formula_structural   Ca2Al2SiO7
_chemical_formula_sum   'Ca48 Al48 Si24 O168'
_cell_volume   3654.52233577
_cell_formula_units_Z   24
loop_
 _symmetry_equiv_pos_site_id
 _symmetry_equiv_pos_as_xyz
  1  'x, y, z'
loop_
 _atom_type_symbol
 _atom_type_oxidation_number
  Ca2+  2.0
  Al0+  0.0
  Si0+  0.0
  O2-  -2.0
loop_
 _atom_site_type_symbol
 _atom_site_label
 _atom_site_symmetry_multiplicity
 _atom_site_fract_x
 _atom_site_fract_y
 _atom_site_fract_z
 _atom_site_occupancy
  Ca2+  Ca0  1  0.15935600  0.07986020  0.16543878  1
  Ca2+  Ca1  1  0.16207030  0.07689586  0.50878900  1
  Ca2+  Ca2  1  0.15198080  0.07552243  0.83784876  1
  Ca2+  Ca3  1  0.18056789  0.58483427  0.17047877  1
  Ca2+  Ca4  1  0.17744489  0.58349483  0.50899233  1
  Ca2+  Ca5  1  0.17519096  0.58477839  0.83356293  1
  Ca2+  Ca6  1  0.66051299  0.07501768  0.17607428  1
  Ca2+  Ca7  1  0.66215089  0.08376523  0.50526247  1
  Ca2+  Ca8  1  0.67228665  0.09193136  0.83066251  1
  Ca2+  Ca9  1  0.67422835  0.57384160  0.17274105  1
  Ca2+  Ca10  1  0.67528862  0.57863827  0.49968016  1
  Ca2+  Ca11  1  0.67822882  0.57519654  0.84001576  1
  Ca2+  Ca12  1  0.07728479  0.32931176  0.16288884  1
  Ca2+  Ca13  1  0.06841276  0.33911474  0.49934936  1
  Ca2+  Ca14  1  0.07939243  0.32164688  0.82373591  1
  Ca2+  Ca15  1  0.07561536  0.83139685  0.15665186  1
  Ca2+  Ca16  1  0.08553255  0.82766121  0.50267930  1
  Ca2+  Ca17  1  0.08333375  0.83057016  0.82939725  1
  Ca2+  Ca18  1  0.57710706  0.34654772  0.16659347  1
  Ca2+  Ca19  1  0.57905725  0.32712892  0.49303306  1
  Ca2+  Ca20  1  0.57643289  0.33772355  0.82903316  1
  Ca2+  Ca21  1  0.59021664  0.82456498  0.16749382  1
  Ca2+  Ca22  1  0.58663349  0.82625293  0.49037075  1
  Ca2+  Ca23  1  0.57979058  0.82835304  0.82928633  1
  Ca2+  Ca24  1  0.33879439  0.42029882  0.17074009  1
  Ca2+  Ca25  1  0.34500340  0.42386820  0.50165300  1
  Ca2+  Ca26  1  0.34097248  0.42299112  0.83792033  1
  Ca2+  Ca27  1  0.32590408  0.91815224  0.16954062  1
  Ca2+  Ca28  1  0.32763212  0.92062763  0.50882746  1
  Ca2+  Ca29  1  0.31861711  0.92061464  0.83729674  1
  Ca2+  Ca30  1  0.82499001  0.42162909  0.17701690  1
  Ca2+  Ca31  1  0.83126308  0.41590732  0.50535937  1
  Ca2+  Ca32  1  0.83390876  0.42409611  0.83879245  1
  Ca2+  Ca33  1  0.83098682  0.91835492  0.17180926  1
  Ca2+  Ca34  1  0.82585264  0.92565392  0.50423138  1
  Ca2+  Ca35  1  0.84018887  0.92363577  0.83550877  1
  Ca2+  Ca36  1  0.42355133  0.17950733  0.16290126  1
  Ca2+  Ca37  1  0.42451117  0.17731574  0.49393864  1
  Ca2+  Ca38  1  0.42269121  0.18192516  0.82413777  1
  Ca2+  Ca39  1  0.42359479  0.65379332  0.16681404  1
  Ca2+  Ca40  1  0.42086464  0.66307036  0.49300065  1
  Ca2+  Ca41  1  0.41200026  0.66329601  0.82903323  1
  Ca2+  Ca42  1  0.91741171  0.17545201  0.16448673  1
  Ca2+  Ca43  1  0.91419085  0.17591081  0.50295626  1
  Ca2+  Ca44  1  0.92267657  0.17062420  0.82395653  1
  Ca2+  Ca45  1  0.90671523  0.67143492  0.16099565  1
  Ca2+  Ca46  1  0.92111885  0.65582583  0.49729633  1
  Ca2+  Ca47  1  0.91664925  0.66939560  0.82644880  1
  Al0+  Al48  1  -0.00181206  -0.00232283  -0.00080117  1
  Al0+  Al49  1  -0.00058277  -0.00233824  0.33471912  1
  Al0+  Al50  1  -0.00364568  -0.00148729  0.66945284  1
  Al0+  Al51  1  0.00322760  0.50225021  0.00362790  1
  Al0+  Al52  1  0.00339748  0.49966334  0.32763563  1
  Al0+  Al53  1  0.00278691  0.50193163  0.66489576  1
  Al0+  Al54  1  0.49896414  -0.00014008  -0.00157648  1
  Al0+  Al55  1  0.49668364  -0.00087352  0.33435623  1
  Al0+  Al56  1  0.49679052  -0.00139545  0.66690022  1
  Al0+  Al57  1  0.50223173  0.50076310  0.00108912  1
  Al0+  Al58  1  0.50270582  0.50157403  0.33403369  1
  Al0+  Al59  1  0.50191289  0.50284035  0.66754624  1
  Al0+  Al60  1  0.25187884  0.24911139  -0.00908251  1
  Al0+  Al61  1  0.24961284  0.24853098  0.32977777  1
  Al0+  Al62  1  0.25071202  0.25049207  0.65718137  1
  Al0+  Al63  1  0.24996672  0.75157610  0.00932492  1
  Al0+  Al64  1  0.24895424  0.74980544  0.33645730  1
  Al0+  Al65  1  0.24855179  0.75094887  0.67065297  1
  Al0+  Al66  1  0.74946153  0.24937764  0.00529380  1
  Al0+  Al67  1  0.75179009  0.24821032  0.32794414  1
  Al0+  Al68  1  0.74829236  0.24838409  0.66578253  1
  Al0+  Al69  1  0.74940280  0.75174868  -0.00479861  1
  Al0+  Al70  1  0.75050586  0.75191048  0.33751249  1
  Al0+  Al71  1  0.74918621  0.75039827  0.67014558  1
  Al0+  Al72  1  0.17883581  0.93156174  0.68091307  1
  Al0+  Al73  1  0.31973900  0.56973289  0.01432928  1
  Al0+  Al74  1  0.06859235  0.18015707  0.98715397  1
  Al0+  Al75  1  0.43212027  0.32210055  0.98485658  1
  Al0+  Al76  1  0.68133100  0.42852403  0.01531991  1
  Al0+  Al77  1  0.92821059  0.81825753  0.98540518  1
  Al0+  Al78  1  0.81727454  0.07072925  0.68045543  1
  Al0+  Al79  1  0.17837716  0.93175922  0.01579367  1
  Al0+  Al80  1  0.42947390  0.32559777  0.65029341  1
  Al0+  Al81  1  0.82378869  0.57352241  0.01396221  1
  Al0+  Al82  1  0.57168000  0.17628236  0.31729105  1
  Al0+  Al83  1  0.82374066  0.57087143  0.68078974  1
  Al0+  Al84  1  0.57212085  0.68123439  0.31983129  1
  Al0+  Al85  1  0.82351388  0.57142731  0.34853085  1
  Al0+  Al86  1  0.32016092  0.56918977  0.34820134  1
  Al0+  Al87  1  0.67780949  0.93058463  0.34620221  1
  Al0+  Al88  1  0.68045010  0.42698854  0.35079665  1
  Al0+  Al89  1  0.07061631  0.17519046  0.65088944  1
  Al0+  Al90  1  0.57000959  0.17796358  0.65232545  1
  Al0+  Al91  1  0.43038932  0.32193932  0.31628615  1
  Al0+  Al92  1  0.32168135  0.56907283  0.68016744  1
  Al0+  Al93  1  0.92929653  0.32259732  0.65426619  1
  Al0+  Al94  1  0.92938978  0.32195329  0.31802108  1
  Al0+  Al95  1  0.07101664  0.68128336  0.65381080  1
  Si0+  Si96  1  0.67939915  0.42860482  0.68268598  1
  Si0+  Si97  1  0.67442539  0.92683217  0.68520385  1
  Si0+  Si98  1  0.17848935  0.42501752  0.34943628  1
  Si0+  Si99  1  0.92674441  0.32381971  0.98511387  1
  Si0+  Si100  1  0.67605570  0.92930699  0.01361465  1
  Si0+  Si101  1  0.07088035  0.17474571  0.31672272  1
  Si0+  Si102  1  0.07603714  0.67863541  0.98453600  1
  Si0+  Si103  1  0.17778772  0.42669148  0.68218270  1
  Si0+  Si104  1  0.42681431  0.82261587  0.98527701  1
  Si0+  Si105  1  0.82396990  0.07109439  0.34940802  1
  Si0+  Si106  1  0.32237703  0.07403934  0.68323498  1
  Si0+  Si107  1  0.17760755  0.92931369  0.34980000  1
  Si0+  Si108  1  0.42488149  0.82133545  0.31653080  1
  Si0+  Si109  1  0.17879502  0.42357872  0.01516435  1
  Si0+  Si110  1  0.82038469  0.06904895  0.01553846  1
  Si0+  Si111  1  0.42738902  0.81907136  0.65341358  1
  Si0+  Si112  1  0.56922587  0.68094659  0.98359765  1
  Si0+  Si113  1  0.57299207  0.17382464  0.98277114  1
  Si0+  Si114  1  0.92532762  0.82126513  0.64800307  1
  Si0+  Si115  1  0.57243331  0.68137836  0.65200893  1
  Si0+  Si116  1  0.07368583  0.67914449  0.31708648  1
  Si0+  Si117  1  0.31932495  0.07131048  0.34830197  1
  Si0+  Si118  1  0.32345315  0.07298923  0.01652050  1
  Si0+  Si119  1  0.93134328  0.82026016  0.31975620  1
  O2-  O120  1  0.25212846  0.00740901  0.06279698  1
  O2-  O121  1  0.24773461  0.00075174  0.39128897  1
  O2-  O122  1  0.24733935  0.01227243  0.72800670  1
  O2-  O123  1  0.24579705  0.49383123  0.06017789  1
  O2-  O124  1  0.24884930  0.49156550  0.39454750  1
  O2-  O125  1  0.25153309  0.49020715  0.72672513  1
  O2-  O126  1  0.74430539  0.00249245  0.05617569  1
  O2-  O127  1  0.74767311  0.00971160  0.39209262  1
  O2-  O128  1  0.74129865  -0.00288046  0.72893795  1
  O2-  O129  1  0.75872188  0.49588697  0.06381894  1
  O2-  O130  1  0.75610524  0.49612088  0.39997310  1
  O2-  O131  1  0.75228111  0.49321892  0.72674409  1
  O2-  O132  1  0.00410069  0.24524319  0.27344193  1
  O2-  O133  1  0.00219196  0.25121174  0.60282733  1
  O2-  O134  1  -0.00257625  0.25784441  0.94031039  1
  O2-  O135  1  -0.00173665  0.74613214  0.27616621  1
  O2-  O136  1  -0.00796517  0.75054100  0.60419736  1
  O2-  O137  1  0.00077376  0.74044812  0.94097958  1
  O2-  O138  1  0.50548990  0.25278363  0.26568854  1
  O2-  O139  1  0.49872097  0.25000187  0.60245388  1
  O2-  O140  1  0.50720540  0.24597226  0.94085324  1
  O2-  O141  1  0.49481899  0.75425609  0.27200074  1
  O2-  O142  1  0.50128582  0.75253849  0.61013080  1
  O2-  O143  1  0.49599108  0.75055127  0.94174895  1
  O2-  O144  1  0.06543308  0.17991249  0.10073283  1
  O2-  O145  1  0.06969690  0.16987526  0.42155839  1
  O2-  O146  1  0.06597874  0.17531770  0.76467924  1
  O2-  O147  1  0.07995343  0.68361011  0.09019100  1
  O2-  O148  1  0.07703037  0.68249662  0.42209267  1
  O2-  O149  1  0.07353765  0.68468954  0.76677147  1
  O2-  O150  1  0.56931055  0.16540990  0.08748876  1
  O2-  O151  1  0.56584105  0.17359376  0.43038832  1
  O2-  O152  1  0.56875267  0.17891873  0.76639000  1
  O2-  O153  1  0.57014525  0.68361805  0.08858278  1
  O2-  O154  1  0.57120143  0.68417095  0.43318252  1
  O2-  O155  1  0.57213268  0.68300494  0.75745656  1
  O2-  O156  1  0.17835434  0.42662896  0.24352706  1
  O2-  O157  1  0.17388675  0.43210456  0.57683552  1
  O2-  O158  1  0.17870985  0.42364945  0.90975905  1
  O2-  O159  1  0.17607121  0.92982962  0.24471296  1
  O2-  O160  1  0.18297738  0.92924181  0.56729316  1
  O2-  O161  1  0.17969438  0.93095705  0.90300389  1
  O2-  O162  1  0.68069093  0.43181320  0.23729113  1
  O2-  O163  1  0.67794347  0.43102482  0.57747463  1
  O2-  O164  1  0.68053266  0.43095321  0.90127155  1
  O2-  O165  1  0.68222448  0.92861926  0.23248504  1
  O2-  O166  1  0.67518002  0.92448249  0.57971348  1
  O2-  O167  1  0.67426940  0.92842133  0.90876165  1
  O2-  O168  1  0.43199254  0.32216793  0.09753009  1
  O2-  O169  1  0.42951198  0.31935896  0.42932815  1
  O2-  O170  1  0.43307647  0.32675619  0.76431777  1
  O2-  O171  1  0.42864209  0.82568425  0.09007195  1
  O2-  O172  1  0.42287950  0.82046605  0.42236080  1
  O2-  O173  1  0.42786040  0.81776159  0.75886598  1
  O2-  O174  1  0.92779362  0.32011582  0.09071344  1
  O2-  O175  1  0.93089103  0.32225355  0.43080677  1
  O2-  O176  1  0.93083787  0.32213992  0.76824895  1
  O2-  O177  1  0.92853023  0.82036104  0.09919506  1
  O2-  O178  1  0.93509783  0.82499484  0.42435365  1
  O2-  O179  1  0.92582057  0.82082601  0.75373002  1
  O2-  O180  1  0.31789014  0.06924891  0.24310966  1
  O2-  O181  1  0.32540571  0.06650789  0.57767087  1
  O2-  O182  1  0.32610685  0.06849121  0.91134316  1
  O2-  O183  1  0.31735108  0.57132320  0.23503650  1
  O2-  O184  1  0.32087337  0.57210047  0.56733768  1
  O2-  O185  1  0.31837663  0.57153443  0.90118022  1
  O2-  O186  1  0.83049295  0.06441879  0.24373619  1
  O2-  O187  1  0.81745306  0.06775031  0.56747405  1
  O2-  O188  1  0.82045171  0.06824954  0.91048909  1
  O2-  O189  1  0.82038792  0.57358266  0.23499965  1
  O2-  O190  1  0.82031769  0.57237052  0.56823350  1
  O2-  O191  1  0.82043446  0.57412813  0.90016641  1
  O2-  O192  1  0.04216401  0.08144114  0.26956119  1
  O2-  O193  1  0.03757517  0.07749348  0.59899191  1
  O2-  O194  1  0.03289387  0.08443991  0.93501428  1
  O2-  O195  1  0.05429812  0.58644418  0.26884632  1
  O2-  O196  1  0.04651794  0.58439186  0.59827439  1
  O2-  O197  1  0.06018032  0.58156193  0.94175050  1
  O2-  O198  1  0.53673180  0.07842324  0.26447423  1
  O2-  O199  1  0.54213941  0.07748968  0.60201312  1
  O2-  O200  1  0.54595262  0.08142253  0.93356038  1
  O2-  O201  1  0.54160260  0.58574324  0.26476278  1
  O2-  O202  1  0.54442712  0.59048667  0.60495569  1
  O2-  O203  1  0.54181793  0.58992281  0.93579230  1
  O2-  O204  1  0.16464639  0.19792616  0.26974290  1
  O2-  O205  1  0.17121472  0.19490944  0.59947171  1
  O2-  O206  1  0.16675089  0.20236135  0.93224924  1
  O2-  O207  1  0.16294034  0.71402317  0.26825207  1
  O2-  O208  1  0.16571609  0.71852026  0.59866112  1
  O2-  O209  1  0.16721942  0.71294241  0.93835259  1
  O2-  O210  1  0.67384784  0.19171855  0.26776228  1
  O2-  O211  1  0.66869832  0.20221379  0.59958630  1
  O2-  O212  1  0.66906885  0.19766568  0.94111328  1
  O2-  O213  1  0.66733499  0.71788225  0.26583778  1
  O2-  O214  1  0.66339071  0.71078408  0.60403874  1
  O2-  O215  1  0.65864290  0.71277431  0.93367976  1
  O2-  O216  1  0.08499354  0.44714569  0.06275292  1
  O2-  O217  1  0.08605207  0.45494283  0.39475887  1
  O2-  O218  1  0.08739943  0.45736589  0.73181894  1
  O2-  O219  1  0.08150200  0.96255134  0.07011268  1
  O2-  O220  1  0.08609936  0.95643782  0.39808935  1
  O2-  O221  1  0.08019033  0.95516881  0.73375016  1
  O2-  O222  1  0.58595230  0.46585500  0.06817096  1
  O2-  O223  1  0.58335427  0.45970974  0.40289675  1
  O2-  O224  1  0.58899504  0.46235793  0.73091035  1
  O2-  O225  1  0.58350569  0.95366516  0.06193283  1
  O2-  O226  1  0.57836110  0.95326001  0.39892365  1
  O2-  O227  1  0.57917414  0.94854587  0.73047863  1
  O2-  O228  1  0.20557855  0.32991866  0.06053459  1
  O2-  O229  1  0.19863039  0.32938834  0.39341028  1
  O2-  O230  1  0.19789864  0.32961485  0.72353851  1
  O2-  O231  1  0.21103882  0.83755025  0.07323453  1
  O2-  O232  1  0.20645022  0.83818699  0.39745927  1
  O2-  O233  1  0.21639351  0.83830715  0.73689097  1
  O2-  O234  1  0.70045301  0.32787815  0.06838741  1
  O2-  O235  1  0.70598498  0.32532302  0.39815701  1
  O2-  O236  1  0.69850582  0.33334625  0.72717687  1
  O2-  O237  1  0.70693441  0.83833899  0.06032323  1
  O2-  O238  1  0.71362336  0.83777732  0.40370755  1
  O2-  O239  1  0.70191444  0.83453150  0.73320797  1
  O2-  O240  1  0.45735940  0.42176357  0.26561199  1
  O2-  O241  1  0.46177578  0.42352350  0.59876000  1
  O2-  O242  1  0.46529231  0.41855153  0.93126108  1
  O2-  O243  1  0.44756075  0.91544279  0.27096891  1
  O2-  O244  1  0.45047494  0.91204131  0.60600512  1
  O2-  O245  1  0.45568825  0.91311751  0.93516369  1
  O2-  O246  1  0.96309465  0.41669325  0.26101339  1
  O2-  O247  1  0.95882891  0.41990355  0.59978647  1
  O2-  O248  1  0.94958686  0.41999227  0.94313096  1
  O2-  O249  1  0.96299689  0.91014542  0.26922543  1
  O2-  O250  1  0.95378177  0.91353862  0.60195953  1
  O2-  O251  1  0.96282496  0.91329876  0.93106691  1
  O2-  O252  1  0.33118386  0.29096586  0.26421313  1
  O2-  O253  1  0.33003515  0.30324959  0.59720308  1
  O2-  O254  1  0.33621344  0.29272827  0.92864372  1
  O2-  O255  1  0.33121239  0.79495134  0.27017760  1
  O2-  O256  1  0.33737088  0.78917956  0.60481880  1
  O2-  O257  1  0.33421866  0.79419074  0.94017824  1
  O2-  O258  1  0.83482875  0.29037628  0.26094385  1
  O2-  O259  1  0.83150882  0.29195739  0.60216408  1
  O2-  O260  1  0.83303142  0.29582312  0.94082532  1
  O2-  O261  1  0.83830647  0.79624405  0.27345734  1
  O2-  O262  1  0.82987095  0.79911463  0.60432756  1
  O2-  O263  1  0.83105082  0.79403202  0.92862847  1
  O2-  O264  1  0.41535573  0.04245114  0.06423503  1
  O2-  O265  1  0.40912423  0.04121628  0.39772600  1
  O2-  O266  1  0.41239853  0.04076686  0.73293420  1
  O2-  O267  1  0.41715933  0.53994546  0.06611775  1
  O2-  O268  1  0.41849335  0.54395956  0.40002717  1
  O2-  O269  1  0.41995292  0.54462505  0.73482073  1
  O2-  O270  1  0.90849625  0.03402395  0.06468540  1
  O2-  O271  1  0.91339173  0.03557824  0.39872504  1
  O2-  O272  1  0.91187800  0.03634468  0.73671946  1
  O2-  O273  1  0.92644176  0.55825204  0.06356130  1
  O2-  O274  1  0.92635443  0.54802490  0.39429429  1
  O2-  O275  1  0.92231254  0.54559290  0.73345075  1
  O2-  O276  1  0.29983253  0.16795891  0.05952829  1
  O2-  O277  1  0.29212227  0.16307312  0.39551011  1
  O2-  O278  1  0.30531694  0.17160094  0.72321395  1
  O2-  O279  1  0.29056735  0.66567004  0.07086906  1
  O2-  O280  1  0.28710921  0.66619745  0.40151088  1
  O2-  O281  1  0.28647220  0.66445275  0.73466512  1
  O2-  O282  1  0.79890641  0.16199840  0.06338792  1
  O2-  O283  1  0.80725114  0.16728057  0.39093308  1
  O2-  O284  1  0.78823954  0.16694715  0.73728421  1
  O2-  O285  1  0.78750861  0.67134668  0.06426940  1
  O2-  O286  1  0.79415188  0.66955530  0.40153597  1
  O2-  O287  1  0.78959126  0.66733367  0.73446879  1
