# generated using pymatgen
data_Ca2Al2SiO7
_symmetry_space_group_name_H-M   'P 1'
_cell_length_a   15.45517506
_cell_length_b   15.45527337
_cell_length_c   15.28100344
_cell_angle_alpha   90.00584215
_cell_angle_beta   90.01099710
_cell_angle_gamma   90.00204385
_symmetry_Int_Tables_number   1
_chemical_formula_structural   Ca2Al2SiO7
_chemical_formula_sum   'Ca48 Al48 Si24 O168'
_cell_volume   3650.08083748
_cell_formula_units_Z   24
loop_
 _symmetry_equiv_pos_site_id
 _symmetry_equiv_pos_as_xyz
  1  'x, y, z'
loop_
 _atom_type_symbol
 _atom_type_oxidation_number
  Ca2+  2.0
  Al0+  0.0
  Si0+  0.0
  O2-  -2.0
loop_
 _atom_site_type_symbol
 _atom_site_label
 _atom_site_symmetry_multiplicity
 _atom_site_fract_x
 _atom_site_fract_y
 _atom_site_fract_z
 _atom_site_occupancy
  Ca2+  Ca0  1  0.16373484  0.07460071  0.16817458  1
  Ca2+  Ca1  1  0.17273435  0.07108173  0.50837941  1
  Ca2+  Ca2  1  0.16844298  0.07471019  0.83998726  1
  Ca2+  Ca3  1  0.17402948  0.58053362  0.17341425  1
  Ca2+  Ca4  1  0.17719530  0.59388399  0.50479358  1
  Ca2+  Ca5  1  0.17262381  0.58186099  0.83470465  1
  Ca2+  Ca6  1  0.66080429  0.06874835  0.17028525  1
  Ca2+  Ca7  1  0.66193273  0.07175003  0.50835161  1
  Ca2+  Ca8  1  0.65749921  0.07218066  0.83200701  1
  Ca2+  Ca9  1  0.66879369  0.58538257  0.17248932  1
  Ca2+  Ca10  1  0.65871075  0.57932790  0.50269137  1
  Ca2+  Ca11  1  0.67209223  0.59357101  0.83960202  1
  Ca2+  Ca12  1  0.08237982  0.32905622  0.15787111  1
  Ca2+  Ca13  1  0.06958628  0.33628150  0.49510838  1
  Ca2+  Ca14  1  0.08301429  0.33086155  0.83088688  1
  Ca2+  Ca15  1  0.08983758  0.83042406  0.16421210  1
  Ca2+  Ca16  1  0.09598501  0.82635415  0.49766642  1
  Ca2+  Ca17  1  0.08679953  0.83127294  0.82655469  1
  Ca2+  Ca18  1  0.57795596  0.33669038  0.16314730  1
  Ca2+  Ca19  1  0.58748468  0.32608632  0.49515706  1
  Ca2+  Ca20  1  0.57656332  0.32765511  0.82877906  1
  Ca2+  Ca21  1  0.58231868  0.82609894  0.15714987  1
  Ca2+  Ca22  1  0.58061753  0.82702181  0.49664186  1
  Ca2+  Ca23  1  0.57636611  0.83041628  0.82618758  1
  Ca2+  Ca24  1  0.33111687  0.41970975  0.17007676  1
  Ca2+  Ca25  1  0.33537402  0.43325111  0.50486632  1
  Ca2+  Ca26  1  0.33312310  0.42252703  0.83976387  1
  Ca2+  Ca27  1  0.32444403  0.90719934  0.16675921  1
  Ca2+  Ca28  1  0.32591481  0.91510049  0.51027617  1
  Ca2+  Ca29  1  0.33027477  0.91396657  0.83363591  1
  Ca2+  Ca30  1  0.82888535  0.42209429  0.17213839  1
  Ca2+  Ca31  1  0.83213412  0.41252343  0.50207949  1
  Ca2+  Ca32  1  0.83433796  0.42284059  0.83734387  1
  Ca2+  Ca33  1  0.82115063  0.91565566  0.16979870  1
  Ca2+  Ca34  1  0.81973092  0.91010115  0.50271760  1
  Ca2+  Ca35  1  0.81793248  0.91018188  0.83784088  1
  Ca2+  Ca36  1  0.41565311  0.17536498  0.15899908  1
  Ca2+  Ca37  1  0.41993121  0.15907307  0.50411762  1
  Ca2+  Ca38  1  0.41501468  0.17099873  0.82781073  1
  Ca2+  Ca39  1  0.42724935  0.66840717  0.16143346  1
  Ca2+  Ca40  1  0.41932329  0.66843008  0.49788302  1
  Ca2+  Ca41  1  0.42342425  0.67683053  0.82597359  1
  Ca2+  Ca42  1  0.92161617  0.17198278  0.16236934  1
  Ca2+  Ca43  1  0.91123821  0.17831096  0.49620966  1
  Ca2+  Ca44  1  0.92346705  0.17110646  0.82823149  1
  Ca2+  Ca45  1  0.92093600  0.66399166  0.16448741  1
  Ca2+  Ca46  1  0.93264309  0.66790919  0.49617963  1
  Ca2+  Ca47  1  0.92267898  0.66452961  0.82849540  1
  Al0+  Al48  1  0.00014186  0.00018394  -0.00008419  1
  Al0+  Al49  1  -0.00093763  0.00063366  0.33878879  1
  Al0+  Al50  1  -0.00254219  0.00063581  0.66803030  1
  Al0+  Al51  1  0.00002764  0.49994271  0.00850847  1
  Al0+  Al52  1  -0.00061082  0.50007067  0.32392633  1
  Al0+  Al53  1  -0.00101414  0.50054762  0.65819177  1
  Al0+  Al54  1  0.49838968  0.00013734  0.00276530  1
  Al0+  Al55  1  0.49873967  -0.00003890  0.33512745  1
  Al0+  Al56  1  0.49796552  0.00075898  0.66685626  1
  Al0+  Al57  1  0.50190192  0.49955112  -0.00877859  1
  Al0+  Al58  1  0.50103962  0.50029840  0.33749288  1
  Al0+  Al59  1  0.49979203  0.49919523  0.67051228  1
  Al0+  Al60  1  0.24890173  0.25013768  -0.00461673  1
  Al0+  Al61  1  0.24906751  0.25012965  0.33528429  1
  Al0+  Al62  1  0.24829211  0.25003167  0.66602228  1
  Al0+  Al63  1  0.25154386  0.74935352  0.00045443  1
  Al0+  Al64  1  0.25097130  0.74959689  0.33468599  1
  Al0+  Al65  1  0.25155632  0.74865741  0.66958992  1
  Al0+  Al66  1  0.75094046  0.25090701  -0.00033134  1
  Al0+  Al67  1  0.74937484  0.25066112  0.32866572  1
  Al0+  Al68  1  0.74890096  0.24986888  0.66118637  1
  Al0+  Al69  1  0.75315941  0.74983268  0.00712636  1
  Al0+  Al70  1  0.75224631  0.74889637  0.33533839  1
  Al0+  Al71  1  0.75092376  0.74790017  0.66622320  1
  Al0+  Al72  1  0.57464246  0.68018654  0.98530416  1
  Al0+  Al73  1  0.18056217  0.42851267  0.01294287  1
  Al0+  Al74  1  0.32036251  0.56890509  0.34573611  1
  Al0+  Al75  1  0.07292162  0.68170263  0.31712360  1
  Al0+  Al76  1  0.17787059  0.92833801  0.68345464  1
  Al0+  Al77  1  0.82104512  0.57074949  0.01447458  1
  Al0+  Al78  1  0.32240061  0.57008345  0.68318685  1
  Al0+  Al79  1  0.56840319  0.18047741  0.65312988  1
  Al0+  Al80  1  0.42885299  0.32108588  0.98681753  1
  Al0+  Al81  1  0.92780543  0.32032003  0.31520273  1
  Al0+  Al82  1  0.17876816  0.92821583  0.01476764  1
  Al0+  Al83  1  0.06968078  0.17805428  0.98593446  1
  Al0+  Al84  1  0.68004201  0.92762473  0.68025561  1
  Al0+  Al85  1  0.93043273  0.31989390  0.65355569  1
  Al0+  Al86  1  0.67846595  0.92749334  0.34813155  1
  Al0+  Al87  1  0.68027877  0.43004449  0.34701628  1
  Al0+  Al88  1  0.32071887  0.07261047  0.68352118  1
  Al0+  Al89  1  0.67812326  0.93086665  0.01387460  1
  Al0+  Al90  1  0.42962393  0.82082805  0.65033823  1
  Al0+  Al91  1  0.57339271  0.67774578  0.65032325  1
  Al0+  Al92  1  0.42773497  0.82148162  0.98448680  1
  Al0+  Al93  1  0.57120681  0.67883233  0.31983118  1
  Al0+  Al94  1  0.17963293  0.93008189  0.34695336  1
  Al0+  Al95  1  0.07069219  0.68132214  0.65523131  1
  Si0+  Si96  1  0.92788055  0.82343641  0.31628120  1
  Si0+  Si97  1  0.92647837  0.82356804  0.65108349  1
  Si0+  Si98  1  0.42532450  0.32322234  0.64839150  1
  Si0+  Si99  1  0.82469070  0.57133447  0.35280038  1
  Si0+  Si100  1  0.17604854  0.42669592  0.34972269  1
  Si0+  Si101  1  0.07226077  0.17758239  0.31739510  1
  Si0+  Si102  1  0.17515336  0.42975515  0.68033474  1
  Si0+  Si103  1  0.57308743  0.17744710  0.98498938  1
  Si0+  Si104  1  0.32190725  0.07592572  0.34987243  1
  Si0+  Si105  1  0.67935976  0.42656717  0.68208905  1
  Si0+  Si106  1  0.32095339  0.07317078  0.01746480  1
  Si0+  Si107  1  0.42947277  0.32146885  0.32102250  1
  Si0+  Si108  1  0.93020908  0.82100963  0.98654197  1
  Si0+  Si109  1  0.32388178  0.57087026  0.01643320  1
  Si0+  Si110  1  0.81988255  0.07510488  0.68336175  1
  Si0+  Si111  1  0.07093848  0.67789195  0.98642237  1
  Si0+  Si112  1  0.82167410  0.56841300  0.67938203  1
  Si0+  Si113  1  0.82033418  0.07254163  0.34971134  1
  Si0+  Si114  1  0.82291413  0.07365134  0.01609928  1
  Si0+  Si115  1  0.56992949  0.17752334  0.31720320  1
  Si0+  Si116  1  0.07248609  0.17566642  0.64812987  1
  Si0+  Si117  1  0.42897243  0.82316259  0.31632624  1
  Si0+  Si118  1  0.92839236  0.32346643  0.98331804  1
  Si0+  Si119  1  0.67739950  0.42651992  0.01484370  1
  O2-  O120  1  0.25516567  0.00159388  0.06175607  1
  O2-  O121  1  0.25379668  0.00590790  0.39158328  1
  O2-  O122  1  0.24734405  0.00245665  0.73395052  1
  O2-  O123  1  0.25609848  0.50138467  0.06119768  1
  O2-  O124  1  0.24313278  0.49628544  0.39375966  1
  O2-  O125  1  0.24804394  0.49260190  0.72629887  1
  O2-  O126  1  0.75059529  0.00879708  0.06026642  1
  O2-  O127  1  0.75312559  0.00296300  0.39439923  1
  O2-  O128  1  0.75571353  0.00225767  0.72739099  1
  O2-  O129  1  0.74359946  0.49748405  0.05871133  1
  O2-  O130  1  0.75460641  0.50382796  0.39666959  1
  O2-  O131  1  0.74675931  0.50176233  0.72283515  1
  O2-  O132  1  0.00556235  0.24739654  0.27137948  1
  O2-  O133  1  0.00387512  0.24489961  0.60457407  1
  O2-  O134  1  -0.00462518  0.25365981  0.93916520  1
  O2-  O135  1  -0.00140856  0.75738455  0.27069822  1
  O2-  O136  1  0.00165123  0.76165971  0.60801489  1
  O2-  O137  1  0.00251820  0.75129747  0.94403193  1
  O2-  O138  1  0.49732722  0.24788181  0.27687355  1
  O2-  O139  1  0.49307925  0.25372984  0.60384450  1
  O2-  O140  1  0.50465645  0.24657752  0.94159104  1
  O2-  O141  1  0.50153635  0.75803698  0.27290103  1
  O2-  O142  1  0.50184777  0.74928226  0.59948742  1
  O2-  O143  1  0.50250367  0.75169697  0.93562695  1
  O2-  O144  1  0.06719118  0.17868163  0.09943742  1
  O2-  O145  1  0.07162228  0.17896292  0.42275955  1
  O2-  O146  1  0.07083002  0.17658077  0.75378988  1
  O2-  O147  1  0.07032229  0.67898928  0.09156068  1
  O2-  O148  1  0.07258564  0.68268546  0.43026846  1
  O2-  O149  1  0.06594428  0.67683029  0.76870975  1
  O2-  O150  1  0.57245943  0.17839237  0.09109295  1
  O2-  O151  1  0.57081354  0.17715233  0.42216108  1
  O2-  O152  1  0.57044612  0.18433491  0.76625982  1
  O2-  O153  1  0.57324512  0.67976484  0.09939085  1
  O2-  O154  1  0.56784380  0.67780564  0.43241656  1
  O2-  O155  1  0.57609273  0.68058264  0.76362508  1
  O2-  O156  1  0.17993406  0.42387961  0.24405246  1
  O2-  O157  1  0.17413764  0.43238217  0.57462101  1
  O2-  O158  1  0.17853386  0.43176330  0.89969026  1
  O2-  O159  1  0.18066843  0.93125953  0.23352126  1
  O2-  O160  1  0.17969274  0.92966901  0.56958040  1
  O2-  O161  1  0.17583384  0.92925873  0.90257101  1
  O2-  O162  1  0.67973162  0.43051589  0.23377870  1
  O2-  O163  1  0.68127523  0.42448255  0.57687997  1
  O2-  O164  1  0.68090408  0.42158185  0.90937236  1
  O2-  O165  1  0.67881029  0.92989979  0.23478642  1
  O2-  O166  1  0.68231122  0.92838441  0.56698540  1
  O2-  O167  1  0.67995669  0.93113655  0.90086090  1
  O2-  O168  1  0.43027404  0.32038923  0.10087058  1
  O2-  O169  1  0.43118849  0.32055074  0.42576174  1
  O2-  O170  1  0.42738885  0.32297273  0.75410213  1
  O2-  O171  1  0.42743671  0.81835563  0.09865501  1
  O2-  O172  1  0.42848524  0.82394466  0.42157822  1
  O2-  O173  1  0.43068381  0.81986107  0.76380591  1
  O2-  O174  1  0.92812782  0.32139639  0.08875485  1
  O2-  O175  1  0.92797487  0.31851117  0.42859364  1
  O2-  O176  1  0.93175058  0.32092672  0.76674806  1
  O2-  O177  1  0.92991078  0.82073208  0.09170482  1
  O2-  O178  1  0.92607608  0.82117004  0.42179737  1
  O2-  O179  1  0.92302069  0.81938725  0.75692327  1
  O2-  O180  1  0.32205415  0.08149121  0.24446239  1
  O2-  O181  1  0.31820024  0.07216616  0.56938819  1
  O2-  O182  1  0.31976910  0.07524706  0.91246093  1
  O2-  O183  1  0.32040593  0.56524151  0.23241262  1
  O2-  O184  1  0.32144501  0.56943813  0.56973995  1
  O2-  O185  1  0.32086354  0.57025019  0.91098767  1
  O2-  O186  1  0.81990790  0.07172919  0.24390782  1
  O2-  O187  1  0.81700881  0.07733622  0.57766219  1
  O2-  O188  1  0.82420973  0.07352707  0.91073161  1
  O2-  O189  1  0.82381986  0.57019142  0.24701931  1
  O2-  O190  1  0.82449218  0.56584627  0.57466948  1
  O2-  O191  1  0.82459821  0.56860513  0.90078567  1
  O2-  O192  1  0.04413729  0.08392681  0.27216346  1
  O2-  O193  1  0.04568083  0.08218857  0.60215149  1
  O2-  O194  1  0.03693191  0.08266173  0.93067793  1
  O2-  O195  1  0.04242477  0.58522874  0.26244652  1
  O2-  O196  1  0.03492915  0.58854866  0.59684450  1
  O2-  O197  1  0.03879500  0.58659738  0.94091504  1
  O2-  O198  1  0.54124661  0.08603112  0.26893000  1
  O2-  O199  1  0.53839819  0.08458517  0.59766618  1
  O2-  O200  1  0.54682001  0.08423614  0.93979806  1
  O2-  O201  1  0.53782672  0.58211771  0.26669091  1
  O2-  O202  1  0.54514288  0.57677684  0.60243729  1
  O2-  O203  1  0.55189065  0.58073864  0.93227627  1
  O2-  O204  1  0.16674692  0.20178670  0.27141955  1
  O2-  O205  1  0.16602426  0.20064502  0.60185699  1
  O2-  O206  1  0.16464614  0.20920166  0.93041946  1
  O2-  O207  1  0.16947006  0.71240788  0.26270253  1
  O2-  O208  1  0.16775017  0.70866308  0.60173654  1
  O2-  O209  1  0.16363150  0.70256826  0.94023895  1
  O2-  O210  1  0.66040383  0.20606697  0.26832203  1
  O2-  O211  1  0.66350603  0.21245262  0.59627227  1
  O2-  O212  1  0.66714975  0.20222463  0.93913936  1
  O2-  O213  1  0.67124466  0.70450818  0.26981356  1
  O2-  O214  1  0.67322446  0.70282639  0.59805596  1
  O2-  O215  1  0.67506090  0.70879505  0.93654074  1
  O2-  O216  1  0.08548609  0.45869129  0.07007464  1
  O2-  O217  1  0.08050639  0.45198382  0.39088041  1
  O2-  O218  1  0.08300604  0.46044963  0.72672715  1
  O2-  O219  1  0.08196247  0.96031443  0.06869156  1
  O2-  O220  1  0.08214108  0.95711403  0.40155786  1
  O2-  O221  1  0.07600900  0.95286349  0.73273425  1
  O2-  O222  1  0.58213920  0.44959116  0.05856292  1
  O2-  O223  1  0.58461713  0.45841781  0.40353406  1
  O2-  O224  1  0.58631438  0.44831977  0.72910573  1
  O2-  O225  1  0.58184955  0.96058915  0.07001838  1
  O2-  O226  1  0.58160123  0.95967512  0.40043007  1
  O2-  O227  1  0.58439838  0.96183245  0.73238539  1
  O2-  O228  1  0.21018199  0.33122117  0.06660394  1
  O2-  O229  1  0.20037433  0.33319102  0.39714637  1
  O2-  O230  1  0.19430010  0.33350576  0.72343273  1
  O2-  O231  1  0.20942148  0.83071498  0.06859560  1
  O2-  O232  1  0.21252702  0.83433849  0.40012588  1
  O2-  O233  1  0.20665475  0.83019726  0.73552472  1
  O2-  O234  1  0.70410847  0.33366122  0.06364613  1
  O2-  O235  1  0.71091944  0.33172390  0.39878538  1
  O2-  O236  1  0.71230121  0.33669156  0.73009025  1
  O2-  O237  1  0.71480389  0.83719267  0.06956057  1
  O2-  O238  1  0.71209135  0.83184103  0.40215714  1
  O2-  O239  1  0.71390239  0.83158790  0.73413991  1
  O2-  O240  1  0.46097095  0.41101165  0.27215932  1
  O2-  O241  1  0.45422574  0.41614955  0.60368206  1
  O2-  O242  1  0.45895816  0.41533898  0.92831397  1
  O2-  O243  1  0.44928160  0.91885786  0.27104579  1
  O2-  O244  1  0.45479404  0.92023776  0.59864963  1
  O2-  O245  1  0.45223939  0.92258123  0.93584097  1
  O2-  O246  1  0.95548513  0.41690389  0.26060936  1
  O2-  O247  1  0.96093488  0.41425427  0.59477891  1
  O2-  O248  1  0.95682538  0.41717177  0.93938835  1
  O2-  O249  1  0.94972120  0.91939500  0.27310998  1
  O2-  O250  1  0.94179890  0.92028482  0.60731145  1
  O2-  O251  1  0.95452749  0.91292761  0.93842413  1
  O2-  O252  1  0.33584545  0.29638069  0.27441970  1
  O2-  O253  1  0.33045525  0.30141437  0.60292527  1
  O2-  O254  1  0.33375165  0.29057161  0.93081064  1
  O2-  O255  1  0.33716186  0.79204253  0.27015177  1
  O2-  O256  1  0.33132065  0.78979458  0.59910298  1
  O2-  O257  1  0.32975363  0.79114911  0.93137098  1
  O2-  O258  1  0.83226843  0.28729237  0.25981912  1
  O2-  O259  1  0.83464912  0.28884288  0.59758000  1
  O2-  O260  1  0.83392757  0.29997550  0.93732661  1
  O2-  O261  1  0.83569156  0.79448667  0.26858011  1
  O2-  O262  1  0.83726836  0.78958616  0.60135284  1
  O2-  O263  1  0.83964463  0.78985109  0.93898300  1
  O2-  O264  1  0.41563734  0.05282395  0.06426794  1
  O2-  O265  1  0.41587009  0.05067336  0.39515266  1
  O2-  O266  1  0.41943734  0.04682559  0.73599171  1
  O2-  O267  1  0.41888456  0.54403875  0.05894120  1
  O2-  O268  1  0.41417912  0.53483096  0.40244329  1
  O2-  O269  1  0.41820936  0.53870195  0.73884332  1
  O2-  O270  1  0.91406398  0.04377121  0.06475485  1
  O2-  O271  1  0.91421332  0.05136354  0.39745812  1
  O2-  O272  1  0.91544044  0.05495328  0.72749571  1
  O2-  O273  1  0.91487160  0.53794993  0.07296032  1
  O2-  O274  1  0.91872492  0.54210155  0.39620407  1
  O2-  O275  1  0.91188023  0.53564992  0.72789266  1
  O2-  O276  1  0.29126608  0.16563813  0.06409103  1
  O2-  O277  1  0.29661929  0.16851336  0.39924597  1
  O2-  O278  1  0.29464250  0.17357597  0.73415698  1
  O2-  O279  1  0.29651166  0.66331321  0.06327653  1
  O2-  O280  1  0.29000151  0.66511044  0.39989871  1
  O2-  O281  1  0.28852703  0.66422020  0.73831088  1
  O2-  O282  1  0.80124485  0.16900670  0.06174974  1
  O2-  O283  1  0.79193650  0.16592133  0.39424535  1
  O2-  O284  1  0.79042664  0.16716341  0.73076653  1
  O2-  O285  1  0.79502684  0.66645823  0.07262034  1
  O2-  O286  1  0.80367834  0.66602250  0.39760256  1
  O2-  O287  1  0.79856069  0.66102861  0.72765289  1
