# generated using pymatgen
data_Ca2Al2SiO7
_symmetry_space_group_name_H-M   'P 1'
_cell_length_a   15.45827396
_cell_length_b   15.45702857
_cell_length_c   15.28390677
_cell_angle_alpha   90.00202386
_cell_angle_beta   89.99283281
_cell_angle_gamma   90.00348651
_symmetry_Int_Tables_number   1
_chemical_formula_structural   Ca2Al2SiO7
_chemical_formula_sum   'Ca48 Al48 Si24 O168'
_cell_volume   3651.92108913
_cell_formula_units_Z   24
loop_
 _symmetry_equiv_pos_site_id
 _symmetry_equiv_pos_as_xyz
  1  'x, y, z'
loop_
 _atom_type_symbol
 _atom_type_oxidation_number
  Ca2+  2.0
  Al0+  0.0
  Si0+  0.0
  O2-  -2.0
loop_
 _atom_site_type_symbol
 _atom_site_label
 _atom_site_symmetry_multiplicity
 _atom_site_fract_x
 _atom_site_fract_y
 _atom_site_fract_z
 _atom_site_occupancy
  Ca2+  Ca0  1  0.17393021  0.07874854  0.17451636  1
  Ca2+  Ca1  1  0.17005149  0.07226725  0.50139213  1
  Ca2+  Ca2  1  0.16087523  0.07678182  0.83650090  1
  Ca2+  Ca3  1  0.17656491  0.58043610  0.17104597  1
  Ca2+  Ca4  1  0.17483411  0.58596915  0.50407414  1
  Ca2+  Ca5  1  0.17419647  0.57168501  0.83564079  1
  Ca2+  Ca6  1  0.65854010  0.08023351  0.17504080  1
  Ca2+  Ca7  1  0.66762361  0.07862363  0.50165730  1
  Ca2+  Ca8  1  0.67205121  0.08729672  0.83472999  1
  Ca2+  Ca9  1  0.66606910  0.58451217  0.17364211  1
  Ca2+  Ca10  1  0.66989306  0.57891385  0.50797049  1
  Ca2+  Ca11  1  0.67185752  0.58147159  0.83059377  1
  Ca2+  Ca12  1  0.08265012  0.32993017  0.16026228  1
  Ca2+  Ca13  1  0.07063103  0.34642381  0.49852863  1
  Ca2+  Ca14  1  0.08804795  0.33085819  0.82728142  1
  Ca2+  Ca15  1  0.09643423  0.82571286  0.16985351  1
  Ca2+  Ca16  1  0.08348466  0.83287902  0.49698112  1
  Ca2+  Ca17  1  0.07999142  0.83181777  0.82164274  1
  Ca2+  Ca18  1  0.57505876  0.32050502  0.16118586  1
  Ca2+  Ca19  1  0.58803032  0.32825265  0.49472511  1
  Ca2+  Ca20  1  0.58204957  0.33442258  0.83224007  1
  Ca2+  Ca21  1  0.57254053  0.83229803  0.16718397  1
  Ca2+  Ca22  1  0.57432020  0.82718712  0.49020357  1
  Ca2+  Ca23  1  0.56849017  0.83047335  0.82700353  1
  Ca2+  Ca24  1  0.33624508  0.42325070  0.16981515  1
  Ca2+  Ca25  1  0.32968200  0.43154215  0.50991613  1
  Ca2+  Ca26  1  0.32987942  0.42549277  0.84347785  1
  Ca2+  Ca27  1  0.33630257  0.92078645  0.17832735  1
  Ca2+  Ca28  1  0.32882927  0.91337534  0.50070936  1
  Ca2+  Ca29  1  0.33144701  0.91074404  0.83306569  1
  Ca2+  Ca30  1  0.83325842  0.41429995  0.17173415  1
  Ca2+  Ca31  1  0.83093908  0.41877879  0.51077370  1
  Ca2+  Ca32  1  0.83208395  0.41550477  0.82812193  1
  Ca2+  Ca33  1  0.82206748  0.92115383  0.17586543  1
  Ca2+  Ca34  1  0.82686574  0.91822086  0.50844083  1
  Ca2+  Ca35  1  0.83912508  0.92372332  0.83349137  1
  Ca2+  Ca36  1  0.42300331  0.16463098  0.16019324  1
  Ca2+  Ca37  1  0.42089618  0.16734925  0.49178806  1
  Ca2+  Ca38  1  0.42060825  0.17392379  0.83383635  1
  Ca2+  Ca39  1  0.40695737  0.67535714  0.16682906  1
  Ca2+  Ca40  1  0.41332084  0.67228137  0.49300649  1
  Ca2+  Ca41  1  0.40497319  0.67240061  0.82932273  1
  Ca2+  Ca42  1  0.92402337  0.17210730  0.16365836  1
  Ca2+  Ca43  1  0.91239595  0.17630115  0.49926742  1
  Ca2+  Ca44  1  0.92309818  0.17031826  0.82447886  1
  Ca2+  Ca45  1  0.92568304  0.66862800  0.16663248  1
  Ca2+  Ca46  1  0.92205614  0.66715191  0.49532724  1
  Ca2+  Ca47  1  0.91768990  0.67152474  0.82221881  1
  Al0+  Al48  1  -0.00149554  0.00138054  0.00076675  1
  Al0+  Al49  1  -0.00119401  0.00303476  0.33636190  1
  Al0+  Al50  1  -0.00027575  -0.00037844  0.66825177  1
  Al0+  Al51  1  -0.00027723  0.50092562  0.00341227  1
  Al0+  Al52  1  -0.00166139  0.50192457  0.32253076  1
  Al0+  Al53  1  0.00091509  0.49980371  0.67052387  1
  Al0+  Al54  1  0.50064536  -0.00243311  -0.01033317  1
  Al0+  Al55  1  0.50124668  -0.00013268  0.33630380  1
  Al0+  Al56  1  0.49928021  -0.00036704  0.66300712  1
  Al0+  Al57  1  0.50302173  0.50178958  0.00234120  1
  Al0+  Al58  1  0.50131550  0.49933480  0.33540841  1
  Al0+  Al59  1  0.50083649  0.50001706  0.67506661  1
  Al0+  Al60  1  0.24927994  0.24767455  -0.00477965  1
  Al0+  Al61  1  0.24684051  0.25095776  0.33977278  1
  Al0+  Al62  1  0.25242349  0.24696643  0.66563238  1
  Al0+  Al63  1  0.24806567  0.74790988  -0.00244022  1
  Al0+  Al64  1  0.24820743  0.74897050  0.33296573  1
  Al0+  Al65  1  0.24880997  0.75209955  0.66993029  1
  Al0+  Al66  1  0.75251664  0.25032558  -0.00148865  1
  Al0+  Al67  1  0.74931543  0.25076942  0.32332729  1
  Al0+  Al68  1  0.75188683  0.24845523  0.67123221  1
  Al0+  Al69  1  0.74898714  0.75154141  0.00087911  1
  Al0+  Al70  1  0.75002366  0.75046014  0.33384418  1
  Al0+  Al71  1  0.74800127  0.75060365  0.66761334  1
  Al0+  Al72  1  0.93168842  0.31992533  0.65422180  1
  Al0+  Al73  1  0.67955917  0.42693023  0.68206957  1
  Al0+  Al74  1  0.17895840  0.42584425  0.01683933  1
  Al0+  Al75  1  0.32294113  0.07310557  0.34778353  1
  Al0+  Al76  1  0.82195438  0.57310623  0.67981268  1
  Al0+  Al77  1  0.17803330  0.92824952  0.34774779  1
  Al0+  Al78  1  0.17887267  0.42644645  0.67989733  1
  Al0+  Al79  1  0.07002346  0.68100062  0.31934694  1
  Al0+  Al80  1  0.56821065  0.17982651  0.32163928  1
  Al0+  Al81  1  0.57263474  0.17769300  0.98256230  1
  Al0+  Al82  1  0.42897091  0.81880777  0.31912739  1
  Al0+  Al83  1  0.32192243  0.57157207  0.01816650  1
  Al0+  Al84  1  0.07048571  0.17852859  0.98639048  1
  Al0+  Al85  1  0.42802859  0.81817467  0.98503466  1
  Al0+  Al86  1  0.92730139  0.82236343  0.65324368  1
  Al0+  Al87  1  0.18052130  0.93191128  0.68114586  1
  Al0+  Al88  1  0.67949743  0.92840175  0.34744445  1
  Al0+  Al89  1  0.57312418  0.67637990  0.31934922  1
  Al0+  Al90  1  0.42952149  0.32255146  0.98584610  1
  Al0+  Al91  1  0.32078360  0.57206932  0.68244313  1
  Al0+  Al92  1  0.92961484  0.32064998  0.31873486  1
  Al0+  Al93  1  0.42772899  0.81951166  0.65003720  1
  Al0+  Al94  1  0.32129983  0.56862370  0.34748351  1
  Al0+  Al95  1  0.81959157  0.06895128  0.67999814  1
  Si0+  Si96  1  0.82155696  0.07163121  0.01700893  1
  Si0+  Si97  1  0.67870921  0.93067122  0.01404800  1
  Si0+  Si98  1  0.82037278  0.57367132  0.01716325  1
  Si0+  Si99  1  0.17415965  0.42873913  0.34901480  1
  Si0+  Si100  1  0.92684928  0.82527543  0.31731784  1
  Si0+  Si101  1  0.92742598  0.82037302  0.98633781  1
  Si0+  Si102  1  0.07419041  0.17604214  0.64763379  1
  Si0+  Si103  1  0.42914826  0.32256565  0.65180567  1
  Si0+  Si104  1  0.32567898  0.07216552  0.68570939  1
  Si0+  Si105  1  0.32215926  0.06781704  0.01135722  1
  Si0+  Si106  1  0.82207535  0.57068066  0.34597719  1
  Si0+  Si107  1  0.17658977  0.92917836  0.01409057  1
  Si0+  Si108  1  0.92926480  0.32378190  0.98111128  1
  Si0+  Si109  1  0.68103074  0.42821578  0.34539964  1
  Si0+  Si110  1  0.42507740  0.32310062  0.32099921  1
  Si0+  Si111  1  0.07295649  0.17677132  0.31753228  1
  Si0+  Si112  1  0.57161949  0.67629841  0.65085029  1
  Si0+  Si113  1  0.57615953  0.67859483  0.98192214  1
  Si0+  Si114  1  0.82066400  0.07459549  0.34882907  1
  Si0+  Si115  1  0.67554635  0.92787922  0.68469877  1
  Si0+  Si116  1  0.06930308  0.67914715  0.98309282  1
  Si0+  Si117  1  0.68121718  0.42803157  0.01805834  1
  Si0+  Si118  1  0.07005109  0.67890635  0.65125599  1
  Si0+  Si119  1  0.57162863  0.18072802  0.65109830  1
  O2-  O120  1  0.25070929  -0.00258853  0.05464734  1
  O2-  O121  1  0.25100101  0.00002112  0.39652334  1
  O2-  O122  1  0.25446030  0.00613230  0.73005541  1
  O2-  O123  1  0.25347560  0.49510486  0.06739731  1
  O2-  O124  1  0.24743830  0.49215714  0.39288719  1
  O2-  O125  1  0.25386478  0.49438287  0.73071650  1
  O2-  O126  1  0.74634857  0.00468817  0.05811530  1
  O2-  O127  1  0.75668578  0.00175036  0.39269571  1
  O2-  O128  1  0.74711123  -0.00680096  0.72987781  1
  O2-  O129  1  0.75124151  0.50087213  0.05981740  1
  O2-  O130  1  0.74871856  0.50223869  0.38738017  1
  O2-  O131  1  0.75093793  0.50069151  0.73125157  1
  O2-  O132  1  0.00629242  0.24763206  0.27335278  1
  O2-  O133  1  0.01024887  0.25025981  0.60493213  1
  O2-  O134  1  0.00063235  0.25743918  0.93884213  1
  O2-  O135  1  -0.00109651  0.76058283  0.27202120  1
  O2-  O136  1  -0.00188737  0.74450544  0.60683803  1
  O2-  O137  1  -0.00210281  0.75041970  0.94227834  1
  O2-  O138  1  0.48777823  0.24897505  0.27630005  1
  O2-  O139  1  0.50073388  0.25196708  0.60902386  1
  O2-  O140  1  0.50323247  0.25254782  0.93364756  1
  O2-  O141  1  0.49952264  0.74562087  0.26773045  1
  O2-  O142  1  0.50160798  0.74281605  0.60625980  1
  O2-  O143  1  0.50043544  0.74009163  0.93918435  1
  O2-  O144  1  0.06607708  0.17440810  0.09948511  1
  O2-  O145  1  0.07136971  0.17414054  0.42260678  1
  O2-  O146  1  0.07082515  0.17422134  0.75357836  1
  O2-  O147  1  0.06895531  0.68097268  0.08829922  1
  O2-  O148  1  0.06607946  0.67766672  0.43209177  1
  O2-  O149  1  0.06873722  0.68149526  0.75736406  1
  O2-  O150  1  0.57020840  0.17629148  0.09625034  1
  O2-  O151  1  0.57347745  0.18435924  0.43482926  1
  O2-  O152  1  0.57050226  0.18052185  0.75612531  1
  O2-  O153  1  0.58452968  0.68386478  0.08672751  1
  O2-  O154  1  0.57513885  0.67647521  0.43269352  1
  O2-  O155  1  0.57394795  0.67915654  0.75666806  1
  O2-  O156  1  0.17425244  0.42868058  0.24351417  1
  O2-  O157  1  0.17867039  0.43089145  0.56601008  1
  O2-  O158  1  0.17748451  0.42939283  0.90358838  1
  O2-  O159  1  0.17903629  0.93099286  0.23322263  1
  O2-  O160  1  0.18025230  0.93184235  0.56864801  1
  O2-  O161  1  0.17334631  0.93072690  0.90911176  1
  O2-  O162  1  0.68346965  0.42720671  0.24021464  1
  O2-  O163  1  0.68114265  0.42539614  0.56791294  1
  O2-  O164  1  0.68345883  0.42707380  0.91323714  1
  O2-  O165  1  0.68019618  0.93054457  0.23346642  1
  O2-  O166  1  0.67594673  0.93033843  0.57930400  1
  O2-  O167  1  0.68266203  0.92930717  0.90916647  1
  O2-  O168  1  0.43136845  0.31910824  0.09991306  1
  O2-  O169  1  0.43030418  0.32455591  0.42675009  1
  O2-  O170  1  0.42945945  0.32060865  0.75663485  1
  O2-  O171  1  0.42956585  0.82276821  0.09761616  1
  O2-  O172  1  0.42979353  0.81685621  0.43240987  1
  O2-  O173  1  0.42949649  0.81907341  0.76361161  1
  O2-  O174  1  0.92719662  0.32124472  0.08706788  1
  O2-  O175  1  0.92744791  0.32161533  0.43172570  1
  O2-  O176  1  0.93092426  0.31619903  0.76711889  1
  O2-  O177  1  0.92553754  0.81906435  0.09131824  1
  O2-  O178  1  0.92470990  0.82212735  0.42255498  1
  O2-  O179  1  0.93130902  0.82233621  0.76726102  1
  O2-  O180  1  0.32221225  0.07327816  0.23326705  1
  O2-  O181  1  0.32729244  0.07255567  0.58044582  1
  O2-  O182  1  0.32182381  0.06576231  0.90632921  1
  O2-  O183  1  0.32005204  0.56768473  0.23456184  1
  O2-  O184  1  0.31985319  0.57211936  0.56859696  1
  O2-  O185  1  0.31644122  0.57351670  0.90494163  1
  O2-  O186  1  0.81998214  0.07362363  0.24262132  1
  O2-  O187  1  0.81569454  0.07065426  0.56697096  1
  O2-  O188  1  0.82416735  0.06892357  0.91212907  1
  O2-  O189  1  0.82215062  0.56933976  0.24034087  1
  O2-  O190  1  0.82088892  0.57173664  0.56589506  1
  O2-  O191  1  0.81966273  0.57648425  0.91249742  1
  O2-  O192  1  0.04478119  0.08451648  0.26879101  1
  O2-  O193  1  0.04064730  0.08536275  0.60138705  1
  O2-  O194  1  0.03328516  0.08334332  0.93124854  1
  O2-  O195  1  0.03415652  0.58900807  0.25902031  1
  O2-  O196  1  0.04788712  0.58448368  0.60624482  1
  O2-  O197  1  0.03952625  0.58727884  0.93754399  1
  O2-  O198  1  0.54239153  0.08238860  0.26783024  1
  O2-  O199  1  0.54385647  0.08869604  0.60410100  1
  O2-  O200  1  0.54428002  0.08100090  0.92684896  1
  O2-  O201  1  0.54970747  0.57588083  0.26770467  1
  O2-  O202  1  0.55021244  0.58019542  0.60808244  1
  O2-  O203  1  0.55978851  0.58162394  0.94060280  1
  O2-  O204  1  0.16737321  0.20127346  0.27192751  1
  O2-  O205  1  0.17084093  0.19299261  0.60455217  1
  O2-  O206  1  0.16766873  0.20041622  0.93019576  1
  O2-  O207  1  0.16535275  0.71019767  0.26223040  1
  O2-  O208  1  0.16168899  0.71028651  0.60567355  1
  O2-  O209  1  0.15957353  0.70743132  0.93420628  1
  O2-  O210  1  0.66127683  0.21420811  0.26225401  1
  O2-  O211  1  0.66359111  0.20873851  0.60496710  1
  O2-  O212  1  0.67295669  0.20559361  0.93299750  1
  O2-  O213  1  0.67166867  0.70599189  0.26557141  1
  O2-  O214  1  0.66487360  0.70265310  0.60435133  1
  O2-  O215  1  0.66657211  0.71191643  0.93215126  1
  O2-  O216  1  0.07987574  0.45718164  0.06903956  1
  O2-  O217  1  0.08130197  0.46247029  0.39203014  1
  O2-  O218  1  0.08208255  0.45523556  0.73545904  1
  O2-  O219  1  0.08577610  0.95864987  0.06288623  1
  O2-  O220  1  0.07861567  0.95661648  0.40017796  1
  O2-  O221  1  0.08399369  0.96230992  0.73618506  1
  O2-  O222  1  0.58941076  0.45364115  0.06589103  1
  O2-  O223  1  0.58903538  0.45057765  0.39458090  1
  O2-  O224  1  0.58274542  0.45434121  0.73848258  1
  O2-  O225  1  0.58544282  0.95691015  0.05886560  1
  O2-  O226  1  0.58558098  0.96092968  0.40382943  1
  O2-  O227  1  0.58342847  0.95886003  0.73088283  1
  O2-  O228  1  0.20188543  0.32394821  0.06576045  1
  O2-  O229  1  0.18917755  0.33334394  0.39506932  1
  O2-  O230  1  0.20239803  0.32484221  0.72837252  1
  O2-  O231  1  0.20202526  0.83562273  0.05803321  1
  O2-  O232  1  0.20302200  0.82942297  0.39985732  1
  O2-  O233  1  0.20976762  0.83613048  0.73740727  1
  O2-  O234  1  0.71202099  0.33632890  0.06534414  1
  O2-  O235  1  0.71318780  0.33728165  0.39192629  1
  O2-  O236  1  0.71110081  0.33097592  0.73780405  1
  O2-  O237  1  0.71022027  0.84043270  0.06285230  1
  O2-  O238  1  0.71049032  0.83208474  0.40205812  1
  O2-  O239  1  0.69644941  0.83327001  0.73000313  1
  O2-  O240  1  0.45756485  0.41313258  0.27230932  1
  O2-  O241  1  0.45683785  0.41561742  0.60697555  1
  O2-  O242  1  0.45892834  0.42203730  0.93503875  1
  O2-  O243  1  0.46023628  0.91755938  0.26848576  1
  O2-  O244  1  0.45933670  0.91685582  0.59792883  1
  O2-  O245  1  0.46199485  0.91162926  0.92682124  1
  O2-  O246  1  0.95721661  0.41605549  0.26077407  1
  O2-  O247  1  0.95781346  0.41883440  0.60114796  1
  O2-  O248  1  0.94962493  0.42009503  0.93898003  1
  O2-  O249  1  0.94620069  0.92152024  0.27350779  1
  O2-  O250  1  0.95982706  0.91789305  0.59903696  1
  O2-  O251  1  0.95538319  0.91290350  0.94068685  1
  O2-  O252  1  0.32811551  0.30537439  0.27926328  1
  O2-  O253  1  0.33805570  0.29437482  0.60279536  1
  O2-  O254  1  0.33259659  0.29197800  0.93168226  1
  O2-  O255  1  0.33010671  0.79256088  0.26619178  1
  O2-  O256  1  0.32958788  0.79051123  0.59925718  1
  O2-  O257  1  0.33011322  0.78973600  0.93140894  1
  O2-  O258  1  0.83602278  0.28737835  0.25956690  1
  O2-  O259  1  0.83514264  0.28505798  0.60135908  1
  O2-  O260  1  0.83676727  0.29493583  0.93524097  1
  O2-  O261  1  0.83559943  0.79489146  0.26855296  1
  O2-  O262  1  0.82820889  0.79668210  0.60188350  1
  O2-  O263  1  0.83587030  0.79323020  0.93799341  1
  O2-  O264  1  0.41482980  0.03852370  0.05681624  1
  O2-  O265  1  0.42076131  0.04649499  0.40178673  1
  O2-  O266  1  0.41834477  0.04352333  0.73220880  1
  O2-  O267  1  0.42436109  0.55138796  0.06703467  1
  O2-  O268  1  0.41850861  0.53965880  0.40190403  1
  O2-  O269  1  0.41998240  0.54913058  0.73571313  1
  O2-  O270  1  0.91071767  0.03852757  0.06711099  1
  O2-  O271  1  0.91553973  0.05645561  0.39447743  1
  O2-  O272  1  0.91552699  0.03843561  0.73569887  1
  O2-  O273  1  0.91246143  0.54727783  0.06498695  1
  O2-  O274  1  0.91307676  0.53954132  0.39212182  1
  O2-  O275  1  0.91927601  0.54600372  0.73506317  1
  O2-  O276  1  0.29591414  0.15988135  0.05800620  1
  O2-  O277  1  0.29491831  0.17129110  0.40341385  1
  O2-  O278  1  0.30339623  0.16690878  0.73064260  1
  O2-  O279  1  0.28506759  0.66904328  0.06957516  1
  O2-  O280  1  0.28699927  0.66440855  0.39953986  1
  O2-  O281  1  0.28627141  0.66791383  0.73575642  1
  O2-  O282  1  0.79913971  0.16567588  0.06253318  1
  O2-  O283  1  0.78852408  0.16717416  0.39273930  1
  O2-  O284  1  0.78784711  0.16291930  0.73796503  1
  O2-  O285  1  0.79136439  0.66522769  0.06540798  1
  O2-  O286  1  0.79921189  0.66357957  0.39249439  1
  O2-  O287  1  0.79225857  0.67090624  0.73535755  1
