# generated using pymatgen
data_Ca2Al2SiO7
_symmetry_space_group_name_H-M   'P 1'
_cell_length_a   15.45848924
_cell_length_b   15.45831811
_cell_length_c   15.28399490
_cell_angle_alpha   90.00816882
_cell_angle_beta   89.99572703
_cell_angle_gamma   90.00208591
_symmetry_Int_Tables_number   1
_chemical_formula_structural   Ca2Al2SiO7
_chemical_formula_sum   'Ca48 Al48 Si24 O168'
_cell_volume   3652.29767375
_cell_formula_units_Z   24
loop_
 _symmetry_equiv_pos_site_id
 _symmetry_equiv_pos_as_xyz
  1  'x, y, z'
loop_
 _atom_type_symbol
 _atom_type_oxidation_number
  Ca2+  2.0
  Al0+  0.0
  Si0+  0.0
  O2-  -2.0
loop_
 _atom_site_type_symbol
 _atom_site_label
 _atom_site_symmetry_multiplicity
 _atom_site_fract_x
 _atom_site_fract_y
 _atom_site_fract_z
 _atom_site_occupancy
  Ca2+  Ca0  1  0.17173869  0.08675113  0.17305668  1
  Ca2+  Ca1  1  0.16681132  0.08710885  0.50464601  1
  Ca2+  Ca2  1  0.16048825  0.08075434  0.83083152  1
  Ca2+  Ca3  1  0.17049158  0.57016258  0.16776013  1
  Ca2+  Ca4  1  0.16864176  0.56928525  0.51042985  1
  Ca2+  Ca5  1  0.17359516  0.57427406  0.83572199  1
  Ca2+  Ca6  1  0.66940740  0.07388777  0.16905302  1
  Ca2+  Ca7  1  0.66921516  0.07792199  0.51090063  1
  Ca2+  Ca8  1  0.67379217  0.08298691  0.83789248  1
  Ca2+  Ca9  1  0.67408397  0.58173030  0.17182745  1
  Ca2+  Ca10  1  0.67442974  0.58162982  0.50032049  1
  Ca2+  Ca11  1  0.66782710  0.58117623  0.83514768  1
  Ca2+  Ca12  1  0.07923359  0.33407275  0.16619556  1
  Ca2+  Ca13  1  0.08709546  0.32522079  0.49277753  1
  Ca2+  Ca14  1  0.08230842  0.33264269  0.82920535  1
  Ca2+  Ca15  1  0.07523390  0.82951628  0.15682450  1
  Ca2+  Ca16  1  0.09074836  0.82678168  0.50150884  1
  Ca2+  Ca17  1  0.08112600  0.83034632  0.82422575  1
  Ca2+  Ca18  1  0.56922271  0.33508151  0.15968744  1
  Ca2+  Ca19  1  0.57141364  0.32792158  0.49828535  1
  Ca2+  Ca20  1  0.57193447  0.32995252  0.82408468  1
  Ca2+  Ca21  1  0.58329349  0.83624272  0.15973554  1
  Ca2+  Ca22  1  0.58833105  0.83758238  0.49723780  1
  Ca2+  Ca23  1  0.58196186  0.83919131  0.83357379  1
  Ca2+  Ca24  1  0.32327543  0.40668753  0.16986392  1
  Ca2+  Ca25  1  0.32582769  0.41387753  0.50731842  1
  Ca2+  Ca26  1  0.32629409  0.41745552  0.83990321  1
  Ca2+  Ca27  1  0.33655744  0.92301102  0.17111831  1
  Ca2+  Ca28  1  0.32822780  0.92781730  0.50516284  1
  Ca2+  Ca29  1  0.32814014  0.91444983  0.83673981  1
  Ca2+  Ca30  1  0.84104829  0.41938784  0.17319889  1
  Ca2+  Ca31  1  0.84254160  0.41989473  0.49906893  1
  Ca2+  Ca32  1  0.83403573  0.41421915  0.84021766  1
  Ca2+  Ca33  1  0.82656703  0.91786730  0.16783960  1
  Ca2+  Ca34  1  0.82351772  0.92507648  0.50959864  1
  Ca2+  Ca35  1  0.82801373  0.92958477  0.84035800  1
  Ca2+  Ca36  1  0.41215357  0.17429276  0.16584258  1
  Ca2+  Ca37  1  0.41234192  0.17564402  0.49620046  1
  Ca2+  Ca38  1  0.42115081  0.17851979  0.82583616  1
  Ca2+  Ca39  1  0.41670426  0.67299894  0.15653130  1
  Ca2+  Ca40  1  0.41404528  0.66648650  0.50041793  1
  Ca2+  Ca41  1  0.40588174  0.66897149  0.83068294  1
  Ca2+  Ca42  1  0.92076682  0.17308734  0.16053919  1
  Ca2+  Ca43  1  0.92743320  0.16650344  0.49593004  1
  Ca2+  Ca44  1  0.91625288  0.16738076  0.82780391  1
  Ca2+  Ca45  1  0.91500978  0.67069586  0.16071644  1
  Ca2+  Ca46  1  0.92253151  0.66424190  0.49616461  1
  Ca2+  Ca47  1  0.92347101  0.67592981  0.82811209  1
  Al0+  Al48  1  -0.00104288  -0.00006452  0.00107976  1
  Al0+  Al49  1  -0.00062434  -0.00296717  0.32876368  1
  Al0+  Al50  1  -0.00193418  0.00124826  0.66886759  1
  Al0+  Al51  1  0.00189812  0.49838482  -0.00079397  1
  Al0+  Al52  1  0.00199993  0.50042355  0.33804368  1
  Al0+  Al53  1  0.00156311  0.50281944  0.66838904  1
  Al0+  Al54  1  0.50024736  -0.00175574  -0.00140482  1
  Al0+  Al55  1  0.49839324  0.00015397  0.34202018  1
  Al0+  Al56  1  0.49952981  -0.00036721  0.66733376  1
  Al0+  Al57  1  0.50050642  0.50197389  -0.00071125  1
  Al0+  Al58  1  0.50112688  0.50152012  0.32804734  1
  Al0+  Al59  1  0.50114109  0.50397582  0.66401399  1
  Al0+  Al60  1  0.24920823  0.24874562  -0.00152211  1
  Al0+  Al61  1  0.25038337  0.24840604  0.33338691  1
  Al0+  Al62  1  0.24720074  0.25056683  0.66499600  1
  Al0+  Al63  1  0.25115804  0.74853060  0.00097323  1
  Al0+  Al64  1  0.25059955  0.74918735  0.33020910  1
  Al0+  Al65  1  0.24929693  0.75049658  0.66688891  1
  Al0+  Al66  1  0.75166125  0.24954513  0.00227400  1
  Al0+  Al67  1  0.74895482  0.24919119  0.33030912  1
  Al0+  Al68  1  0.74855208  0.25193377  0.66459261  1
  Al0+  Al69  1  0.75022893  0.75039927  -0.00309363  1
  Al0+  Al70  1  0.75015937  0.74823958  0.34124415  1
  Al0+  Al71  1  0.74846451  0.75127099  0.66982892  1
  Al0+  Al72  1  0.92919553  0.32186199  0.31933750  1
  Al0+  Al73  1  0.32249922  0.57084398  0.68051237  1
  Al0+  Al74  1  0.17951220  0.42686031  0.01761416  1
  Al0+  Al75  1  0.31815513  0.06962950  0.34700384  1
  Al0+  Al76  1  0.82309161  0.07325339  0.01877908  1
  Al0+  Al77  1  0.42911547  0.82103504  0.98634836  1
  Al0+  Al78  1  0.67927892  0.92924687  0.01618227  1
  Al0+  Al79  1  0.18160203  0.43020655  0.34812577  1
  Al0+  Al80  1  0.42824590  0.32286068  0.65145131  1
  Al0+  Al81  1  0.92808844  0.82156921  0.98559919  1
  Al0+  Al82  1  0.42804548  0.32135639  0.98557294  1
  Al0+  Al83  1  0.07124560  0.68053870  0.65237513  1
  Al0+  Al84  1  0.06821099  0.17871653  0.65374801  1
  Al0+  Al85  1  0.67661770  0.92838830  0.68519529  1
  Al0+  Al86  1  0.92951447  0.32107202  0.98611479  1
  Al0+  Al87  1  0.17843962  0.42661164  0.68318146  1
  Al0+  Al88  1  0.82071607  0.56849515  0.34665012  1
  Al0+  Al89  1  0.43029969  0.32067357  0.31851460  1
  Al0+  Al90  1  0.17977494  0.93004739  0.67903664  1
  Al0+  Al91  1  0.57145809  0.17810684  0.65179413  1
  Al0+  Al92  1  0.07128679  0.17653172  0.31669630  1
  Al0+  Al93  1  0.32252470  0.57145233  0.01716806  1
  Al0+  Al94  1  0.68040834  0.93046038  0.34832898  1
  Al0+  Al95  1  0.82030491  0.07376769  0.68116841  1
  Si0+  Si96  1  0.32145465  0.07306464  0.68464917  1
  Si0+  Si97  1  0.42965357  0.82136095  0.32020250  1
  Si0+  Si98  1  0.17846461  0.92748487  0.01439916  1
  Si0+  Si99  1  0.32418112  0.57461598  0.34907692  1
  Si0+  Si100  1  0.67939484  0.43134649  0.67993908  1
  Si0+  Si101  1  0.92718909  0.81769969  0.31958116  1
  Si0+  Si102  1  0.57377238  0.68012730  0.64922858  1
  Si0+  Si103  1  0.57123440  0.17484384  0.31648073  1
  Si0+  Si104  1  0.57271469  0.68070346  0.31838486  1
  Si0+  Si105  1  0.07215313  0.17701113  0.98245825  1
  Si0+  Si106  1  0.07217087  0.67875825  0.31727802  1
  Si0+  Si107  1  0.42811112  0.82063003  0.65058333  1
  Si0+  Si108  1  0.17556846  0.92436135  0.34774297  1
  Si0+  Si109  1  0.57171056  0.17842832  0.98525815  1
  Si0+  Si110  1  0.57318047  0.67806093  0.98228642  1
  Si0+  Si111  1  0.92726937  0.82127745  0.64899121  1
  Si0+  Si112  1  0.92677105  0.32482562  0.65078732  1
  Si0+  Si113  1  0.32076434  0.06923347  0.01272192  1
  Si0+  Si114  1  0.07177516  0.67854420  0.98313837  1
  Si0+  Si115  1  0.82081649  0.56967380  0.01217311  1
  Si0+  Si116  1  0.82388142  0.07297051  0.34988142  1
  Si0+  Si117  1  0.67845618  0.42833189  0.01376018  1
  Si0+  Si118  1  0.82214619  0.57168916  0.68306272  1
  Si0+  Si119  1  0.67487440  0.42664553  0.34863334  1
  O2-  O120  1  0.24943788  -0.00159254  0.05598537  1
  O2-  O121  1  0.24033891  -0.00338166  0.39113382  1
  O2-  O122  1  0.25280516  0.00441681  0.72913237  1
  O2-  O123  1  0.25517775  0.49584735  0.06777144  1
  O2-  O124  1  0.25858748  0.50385387  0.39293015  1
  O2-  O125  1  0.25502073  0.49531162  0.73079125  1
  O2-  O126  1  0.75135784  -0.00005844  0.06750644  1
  O2-  O127  1  0.75271585  0.00712554  0.39444633  1
  O2-  O128  1  0.74662402  0.00345624  0.73169459  1
  O2-  O129  1  0.75179324  0.49750689  0.05567399  1
  O2-  O130  1  0.74970619  0.48942085  0.39275711  1
  O2-  O131  1  0.75363122  0.49826642  0.72446181  1
  O2-  O132  1  -0.00269176  0.24719752  0.26767695  1
  O2-  O133  1  -0.00493159  0.25558547  0.60792610  1
  O2-  O134  1  0.00234919  0.24527559  0.93975172  1
  O2-  O135  1  0.00206449  0.75115158  0.27571724  1
  O2-  O136  1  -0.00402692  0.75369447  0.60260314  1
  O2-  O137  1  0.00523674  0.74947108  0.93904761  1
  O2-  O138  1  0.50771064  0.24803762  0.27140564  1
  O2-  O139  1  0.49678305  0.24711670  0.60135401  1
  O2-  O140  1  0.50530952  0.24892993  0.94034767  1
  O2-  O141  1  0.50007956  0.75017666  0.27709327  1
  O2-  O142  1  0.50250544  0.75213206  0.60882243  1
  O2-  O143  1  0.50187654  0.74456477  0.93931816  1
  O2-  O144  1  0.07365837  0.17633117  0.08793601  1
  O2-  O145  1  0.07000258  0.17599687  0.43018064  1
  O2-  O146  1  0.06639190  0.17769498  0.76676838  1
  O2-  O147  1  0.06892419  0.67978661  0.08948566  1
  O2-  O148  1  0.07300431  0.68041515  0.42228758  1
  O2-  O149  1  0.06777144  0.68244255  0.76536087  1
  O2-  O150  1  0.56917737  0.17883890  0.09117404  1
  O2-  O151  1  0.56899633  0.17474229  0.42175751  1
  O2-  O152  1  0.57108288  0.18279456  0.76577670  1
  O2-  O153  1  0.57655028  0.67878863  0.08820365  1
  O2-  O154  1  0.57359153  0.68030446  0.42347918  1
  O2-  O155  1  0.57755734  0.67765911  0.75375043  1
  O2-  O156  1  0.18028061  0.43218308  0.23512964  1
  O2-  O157  1  0.17729834  0.42818821  0.56939087  1
  O2-  O158  1  0.17796537  0.42792024  0.90455935  1
  O2-  O159  1  0.17821947  0.91997420  0.24198343  1
  O2-  O160  1  0.18352096  0.92905491  0.56577611  1
  O2-  O161  1  0.17875020  0.92710342  0.90935742  1
  O2-  O162  1  0.67142732  0.43239846  0.24294494  1
  O2-  O163  1  0.67909942  0.43473098  0.57490659  1
  O2-  O164  1  0.67865948  0.43045838  0.90832478  1
  O2-  O165  1  0.68088710  0.92806716  0.23548716  1
  O2-  O166  1  0.68099235  0.92615665  0.57115500  1
  O2-  O167  1  0.67908803  0.93123600  0.90349153  1
  O2-  O168  1  0.42850550  0.31769031  0.09895989  1
  O2-  O169  1  0.43130371  0.32133078  0.43116787  1
  O2-  O170  1  0.43162005  0.32297010  0.76527046  1
  O2-  O171  1  0.43078519  0.82177116  0.10010936  1
  O2-  O172  1  0.42834170  0.81917912  0.42521191  1
  O2-  O173  1  0.42631666  0.81898771  0.75554581  1
  O2-  O174  1  0.93055284  0.32366621  0.09879168  1
  O2-  O175  1  0.93198796  0.32273117  0.43286771  1
  O2-  O176  1  0.92609628  0.32544794  0.75660953  1
  O2-  O177  1  0.92874351  0.81661627  0.09961277  1
  O2-  O178  1  0.92678705  0.81569506  0.42444346  1
  O2-  O179  1  0.92826558  0.81794218  0.75453921  1
  O2-  O180  1  0.32021154  0.06601102  0.23322775  1
  O2-  O181  1  0.32113896  0.07080303  0.57888578  1
  O2-  O182  1  0.32032323  0.06825576  0.90777516  1
  O2-  O183  1  0.32208659  0.57954572  0.24399286  1
  O2-  O184  1  0.32102032  0.57146305  0.56643591  1
  O2-  O185  1  0.31891114  0.57281672  0.90409919  1
  O2-  O186  1  0.82387814  0.06991912  0.24454774  1
  O2-  O187  1  0.82101879  0.07085101  0.56711034  1
  O2-  O188  1  0.82167303  0.07400839  0.90554219  1
  O2-  O189  1  0.81777426  0.57259602  0.23321844  1
  O2-  O190  1  0.82097740  0.57243119  0.57787479  1
  O2-  O191  1  0.81882062  0.56903203  0.90686012  1
  O2-  O192  1  0.04757988  0.07573285  0.26412080  1
  O2-  O193  1  0.03792818  0.08191310  0.59848015  1
  O2-  O194  1  0.04759727  0.08258432  0.93777960  1
  O2-  O195  1  0.04120961  0.58831443  0.27045852  1
  O2-  O196  1  0.03853644  0.58452435  0.59785806  1
  O2-  O197  1  0.04320757  0.58626496  0.93727481  1
  O2-  O198  1  0.53855482  0.08260520  0.27111370  1
  O2-  O199  1  0.54689868  0.07758880  0.60113426  1
  O2-  O200  1  0.54387297  0.08595966  0.93893624  1
  O2-  O201  1  0.54863888  0.58923941  0.26828389  1
  O2-  O202  1  0.54652807  0.58987189  0.59809672  1
  O2-  O203  1  0.55129984  0.58390258  0.93571049  1
  O2-  O204  1  0.16936513  0.20625601  0.26455250  1
  O2-  O205  1  0.16553943  0.20587933  0.59946269  1
  O2-  O206  1  0.16522750  0.20191003  0.93524608  1
  O2-  O207  1  0.16372693  0.70591335  0.26814619  1
  O2-  O208  1  0.16638276  0.71386089  0.59669745  1
  O2-  O209  1  0.16557319  0.70380540  0.93897653  1
  O2-  O210  1  0.66690090  0.19334921  0.27170684  1
  O2-  O211  1  0.66816848  0.21020384  0.59655201  1
  O2-  O212  1  0.66616136  0.20279452  0.94134605  1
  O2-  O213  1  0.66435441  0.71048372  0.27132667  1
  O2-  O214  1  0.66543250  0.70847780  0.60028242  1
  O2-  O215  1  0.66520395  0.70497553  0.93341346  1
  O2-  O216  1  0.08184285  0.46098751  0.07011234  1
  O2-  O217  1  0.08703580  0.46386031  0.40337272  1
  O2-  O218  1  0.08123684  0.46095788  0.73595275  1
  O2-  O219  1  0.08693419  0.95406822  0.06276161  1
  O2-  O220  1  0.07980505  0.94335747  0.39169826  1
  O2-  O221  1  0.08267180  0.95795192  0.73286345  1
  O2-  O222  1  0.58847734  0.45939939  0.06295816  1
  O2-  O223  1  0.58489869  0.46135287  0.39701206  1
  O2-  O224  1  0.59017402  0.46488680  0.72886473  1
  O2-  O225  1  0.57988695  0.95764630  0.06868561  1
  O2-  O226  1  0.58335968  0.95729449  0.40300950  1
  O2-  O227  1  0.57565504  0.95118622  0.73466632  1
  O2-  O228  1  0.20692160  0.32695382  0.06878961  1
  O2-  O229  1  0.21166463  0.33296643  0.39949765  1
  O2-  O230  1  0.20217080  0.32716027  0.73547192  1
  O2-  O231  1  0.20573872  0.83614285  0.06287875  1
  O2-  O232  1  0.20662608  0.83235851  0.39508341  1
  O2-  O233  1  0.21217224  0.83494732  0.73437105  1
  O2-  O234  1  0.70217345  0.33657492  0.06184545  1
  O2-  O235  1  0.69249461  0.33011503  0.39116348  1
  O2-  O236  1  0.70288491  0.33921254  0.72788391  1
  O2-  O237  1  0.70773703  0.82887812  0.06666618  1
  O2-  O238  1  0.71224922  0.83457761  0.40326347  1
  O2-  O239  1  0.70551050  0.82948133  0.73712141  1
  O2-  O240  1  0.45946891  0.41824638  0.26393416  1
  O2-  O241  1  0.46154016  0.42044931  0.59899531  1
  O2-  O242  1  0.45876625  0.41914115  0.93464503  1
  O2-  O243  1  0.45823470  0.91351607  0.27429800  1
  O2-  O244  1  0.45285101  0.91337289  0.60346490  1
  O2-  O245  1  0.45931225  0.91664946  0.93019786  1
  O2-  O246  1  0.95983148  0.42140218  0.26829963  1
  O2-  O247  1  0.95208870  0.41946343  0.60687644  1
  O2-  O248  1  0.95874894  0.41812504  0.93124059  1
  O2-  O249  1  0.94986185  0.90990582  0.27068721  1
  O2-  O250  1  0.95176485  0.91523220  0.60460078  1
  O2-  O251  1  0.95781473  0.91864737  0.93329577  1
  O2-  O252  1  0.33573252  0.28432162  0.26491719  1
  O2-  O253  1  0.32933781  0.29499125  0.60041860  1
  O2-  O254  1  0.33274034  0.28735812  0.93199205  1
  O2-  O255  1  0.33780652  0.79537092  0.27072039  1
  O2-  O256  1  0.33847987  0.78994704  0.60074062  1
  O2-  O257  1  0.33160575  0.79143426  0.93277353  1
  O2-  O258  1  0.82701125  0.30211151  0.26865771  1
  O2-  O259  1  0.83245332  0.30344094  0.60451091  1
  O2-  O260  1  0.83070713  0.29426413  0.93346182  1
  O2-  O261  1  0.83713376  0.78318939  0.27253883  1
  O2-  O262  1  0.83359010  0.79252032  0.60431520  1
  O2-  O263  1  0.83378837  0.78749874  0.92995998  1
  O2-  O264  1  0.41154427  0.04036982  0.06126428  1
  O2-  O265  1  0.41142428  0.03585749  0.40543198  1
  O2-  O266  1  0.41464528  0.04644457  0.73010548  1
  O2-  O267  1  0.42484257  0.55186752  0.06636303  1
  O2-  O268  1  0.42047179  0.55319115  0.39136975  1
  O2-  O269  1  0.42463081  0.55270380  0.73055604  1
  O2-  O270  1  0.92166634  0.04344608  0.07102943  1
  O2-  O271  1  0.91696716  0.04249600  0.39478134  1
  O2-  O272  1  0.91668743  0.04252767  0.73591952  1
  O2-  O273  1  0.91302514  0.54459151  0.05964769  1
  O2-  O274  1  0.91717388  0.54230658  0.40295186  1
  O2-  O275  1  0.91386515  0.54766148  0.73143270  1
  O2-  O276  1  0.29204632  0.16017466  0.06113640  1
  O2-  O277  1  0.28917610  0.16523695  0.40222895  1
  O2-  O278  1  0.29512304  0.16623268  0.72981824  1
  O2-  O279  1  0.29139971  0.66964481  0.07110203  1
  O2-  O280  1  0.29690528  0.66811182  0.39564974  1
  O2-  O281  1  0.28949907  0.66804482  0.73277574  1
  O2-  O282  1  0.79404222  0.17147018  0.07229173  1
  O2-  O283  1  0.80218813  0.16858720  0.39332477  1
  O2-  O284  1  0.79407137  0.17395131  0.73239063  1
  O2-  O285  1  0.79081618  0.66070338  0.05989385  1
  O2-  O286  1  0.78502919  0.66113532  0.40558905  1
  O2-  O287  1  0.79015199  0.66194337  0.73070750  1
