# generated using pymatgen
data_Ca2Al2SiO7
_symmetry_space_group_name_H-M   'P 1'
_cell_length_a   15.45355570
_cell_length_b   15.45436469
_cell_length_c   15.28038138
_cell_angle_alpha   89.98802641
_cell_angle_beta   90.00365328
_cell_angle_gamma   89.98895473
_symmetry_Int_Tables_number   1
_chemical_formula_structural   Ca2Al2SiO7
_chemical_formula_sum   'Ca48 Al48 Si24 O168'
_cell_volume   3649.33517899
_cell_formula_units_Z   24
loop_
 _symmetry_equiv_pos_site_id
 _symmetry_equiv_pos_as_xyz
  1  'x, y, z'
loop_
 _atom_type_symbol
 _atom_type_oxidation_number
  Ca2+  2.0
  Al0+  0.0
  Si0+  0.0
  O2-  -2.0
loop_
 _atom_site_type_symbol
 _atom_site_label
 _atom_site_symmetry_multiplicity
 _atom_site_fract_x
 _atom_site_fract_y
 _atom_site_fract_z
 _atom_site_occupancy
  Ca2+  Ca0  1  0.16756177  0.08050669  0.17201230  1
  Ca2+  Ca1  1  0.15723600  0.07656575  0.50102226  1
  Ca2+  Ca2  1  0.17208887  0.08488788  0.84242026  1
  Ca2+  Ca3  1  0.16044354  0.58069163  0.16851888  1
  Ca2+  Ca4  1  0.17007932  0.58719979  0.50949238  1
  Ca2+  Ca5  1  0.17008015  0.58351187  0.83925256  1
  Ca2+  Ca6  1  0.67912390  0.08970166  0.16926669  1
  Ca2+  Ca7  1  0.67416111  0.08305360  0.50099673  1
  Ca2+  Ca8  1  0.67065093  0.08508274  0.84585419  1
  Ca2+  Ca9  1  0.66557221  0.57572052  0.17388868  1
  Ca2+  Ca10  1  0.67660380  0.58629280  0.50500940  1
  Ca2+  Ca11  1  0.66545859  0.58390924  0.83733876  1
  Ca2+  Ca12  1  0.08348469  0.32332915  0.15893753  1
  Ca2+  Ca13  1  0.08528653  0.31984036  0.49478967  1
  Ca2+  Ca14  1  0.09365603  0.32257872  0.83289481  1
  Ca2+  Ca15  1  0.08321780  0.82533407  0.16872778  1
  Ca2+  Ca16  1  0.08074581  0.82202821  0.49058273  1
  Ca2+  Ca17  1  0.08417282  0.82071199  0.83100722  1
  Ca2+  Ca18  1  0.58172569  0.33626281  0.16194592  1
  Ca2+  Ca19  1  0.57197153  0.34561325  0.49703761  1
  Ca2+  Ca20  1  0.58294693  0.33119714  0.83308320  1
  Ca2+  Ca21  1  0.57897722  0.82680815  0.15530498  1
  Ca2+  Ca22  1  0.57953613  0.82875288  0.50140586  1
  Ca2+  Ca23  1  0.57286580  0.82622952  0.82946171  1
  Ca2+  Ca24  1  0.32799943  0.41421671  0.16882945  1
  Ca2+  Ca25  1  0.33586704  0.41989010  0.50688920  1
  Ca2+  Ca26  1  0.33134259  0.42058409  0.83537626  1
  Ca2+  Ca27  1  0.33118615  0.92126025  0.16901635  1
  Ca2+  Ca28  1  0.32555024  0.91249401  0.50443779  1
  Ca2+  Ca29  1  0.33761567  0.91874982  0.84003472  1
  Ca2+  Ca30  1  0.81957860  0.42098495  0.17401574  1
  Ca2+  Ca31  1  0.83003460  0.42795458  0.50232681  1
  Ca2+  Ca32  1  0.82788496  0.42315342  0.83978113  1
  Ca2+  Ca33  1  0.84198029  0.92553193  0.17207576  1
  Ca2+  Ca34  1  0.84119192  0.91810938  0.49765010  1
  Ca2+  Ca35  1  0.83150390  0.92404374  0.83883749  1
  Ca2+  Ca36  1  0.42170646  0.17053571  0.15925809  1
  Ca2+  Ca37  1  0.41654946  0.18244575  0.49399925  1
  Ca2+  Ca38  1  0.41926486  0.17035607  0.83141814  1
  Ca2+  Ca39  1  0.42278693  0.67489804  0.15662933  1
  Ca2+  Ca40  1  0.41928478  0.66400085  0.50171865  1
  Ca2+  Ca41  1  0.42337191  0.67227536  0.82625311  1
  Ca2+  Ca42  1  0.92465177  0.15863459  0.16204768  1
  Ca2+  Ca43  1  0.92540974  0.16289476  0.49296421  1
  Ca2+  Ca44  1  0.92563397  0.16678202  0.83188881  1
  Ca2+  Ca45  1  0.92134767  0.66648120  0.16600219  1
  Ca2+  Ca46  1  0.92273123  0.66466806  0.49146694  1
  Ca2+  Ca47  1  0.92660662  0.65884075  0.82844425  1
  Al0+  Al48  1  0.00147007  -0.00057151  -0.00187715  1
  Al0+  Al49  1  0.00164856  -0.00222276  0.33481822  1
  Al0+  Al50  1  0.00073402  -0.00100511  0.66704117  1
  Al0+  Al51  1  -0.00036228  0.49915828  0.00104773  1
  Al0+  Al52  1  0.00002418  0.49618864  0.33390447  1
  Al0+  Al53  1  -0.00109428  0.49641150  0.66769383  1
  Al0+  Al54  1  0.50034394  0.00202624  -0.00183832  1
  Al0+  Al55  1  0.50067792  0.00236050  0.33540965  1
  Al0+  Al56  1  0.49997985  -0.00010788  0.66178894  1
  Al0+  Al57  1  0.49895253  0.50111022  0.00051159  1
  Al0+  Al58  1  0.49708666  0.50011445  0.33079667  1
  Al0+  Al59  1  0.49949677  0.50030367  0.66524001  1
  Al0+  Al60  1  0.25005220  0.24977757  0.00494914  1
  Al0+  Al61  1  0.25186082  0.25088303  0.32541745  1
  Al0+  Al62  1  0.25077561  0.24749920  0.65777641  1
  Al0+  Al63  1  0.24860237  0.75108469  -0.00608659  1
  Al0+  Al64  1  0.25024224  0.75065552  0.33302330  1
  Al0+  Al65  1  0.24890980  0.74988782  0.66599616  1
  Al0+  Al66  1  0.75039668  0.25221001  0.00424790  1
  Al0+  Al67  1  0.74846338  0.24975183  0.34653122  1
  Al0+  Al68  1  0.75140387  0.25031139  0.66737714  1
  Al0+  Al69  1  0.75079483  0.75136747  -0.00382742  1
  Al0+  Al70  1  0.75023561  0.75130466  0.33202500  1
  Al0+  Al71  1  0.74980166  0.75187076  0.67003174  1
  Al0+  Al72  1  0.32000393  0.57099153  0.68082667  1
  Al0+  Al73  1  0.67807238  0.43145562  0.01327244  1
  Al0+  Al74  1  0.32233878  0.07094256  0.01325454  1
  Al0+  Al75  1  0.43074522  0.32246530  0.31621544  1
  Al0+  Al76  1  0.82150391  0.57200461  0.34766303  1
  Al0+  Al77  1  0.57202334  0.67906593  0.65020616  1
  Al0+  Al78  1  0.06842196  0.67739561  0.98548320  1
  Al0+  Al79  1  0.67541598  0.42991339  0.35130359  1
  Al0+  Al80  1  0.82164792  0.07033458  0.01267940  1
  Al0+  Al81  1  0.06989056  0.17884837  0.65257180  1
  Al0+  Al82  1  0.42858398  0.82270723  0.98578430  1
  Al0+  Al83  1  0.06896641  0.67696649  0.65401849  1
  Al0+  Al84  1  0.18181042  0.92986785  0.34730055  1
  Al0+  Al85  1  0.07305170  0.67536836  0.31839161  1
  Al0+  Al86  1  0.06890903  0.17898881  0.31776992  1
  Al0+  Al87  1  0.82189268  0.57214342  0.68208401  1
  Al0+  Al88  1  0.82157646  0.06902718  0.34859670  1
  Al0+  Al89  1  0.57274241  0.18216560  0.98894997  1
  Al0+  Al90  1  0.57219118  0.67687230  0.98513244  1
  Al0+  Al91  1  0.92843780  0.81965005  0.31820376  1
  Al0+  Al92  1  0.43107695  0.31910813  0.65490452  1
  Al0+  Al93  1  0.17920818  0.42938938  0.01357480  1
  Al0+  Al94  1  0.07148915  0.17888050  0.98656087  1
  Al0+  Al95  1  0.42769771  0.82227958  0.64902608  1
  Si0+  Si96  1  0.31841109  0.57100426  0.34693537  1
  Si0+  Si97  1  0.67498993  0.92705828  0.35067476  1
  Si0+  Si98  1  0.82178647  0.07076311  0.68314583  1
  Si0+  Si99  1  0.57314898  0.17728064  0.31769097  1
  Si0+  Si100  1  0.92523705  0.32096398  0.64884101  1
  Si0+  Si101  1  0.42678677  0.32201114  0.98327590  1
  Si0+  Si102  1  0.17922598  0.42634206  0.34817182  1
  Si0+  Si103  1  0.32339671  0.07379877  0.35131113  1
  Si0+  Si104  1  0.67688850  0.93096175  0.68322770  1
  Si0+  Si105  1  0.67832244  0.92827516  0.01558941  1
  Si0+  Si106  1  0.92516195  0.32069460  0.31762670  1
  Si0+  Si107  1  0.42869769  0.82333814  0.31897526  1
  Si0+  Si108  1  0.17882610  0.92931676  0.68328396  1
  Si0+  Si109  1  0.92817803  0.82223571  0.65150699  1
  Si0+  Si110  1  0.17878569  0.42441162  0.68114910  1
  Si0+  Si111  1  0.32031722  0.57365877  0.01640123  1
  Si0+  Si112  1  0.32080434  0.07145409  0.67954821  1
  Si0+  Si113  1  0.92781508  0.32150368  0.98436894  1
  Si0+  Si114  1  0.92822042  0.82343646  0.98151429  1
  Si0+  Si115  1  0.57548680  0.17704398  0.64932829  1
  Si0+  Si116  1  0.56991130  0.68088933  0.31909598  1
  Si0+  Si117  1  0.67764053  0.42882100  0.68479708  1
  Si0+  Si118  1  0.17826490  0.92679873  0.01644071  1
  Si0+  Si119  1  0.82278740  0.57406820  0.01670807  1
  O2-  O120  1  0.24800417  -0.00461424  0.05923260  1
  O2-  O121  1  0.25548232  0.00505153  0.39659680  1
  O2-  O122  1  0.25197231  -0.00080151  0.72364125  1
  O2-  O123  1  0.25172961  0.50569163  0.06202507  1
  O2-  O124  1  0.24485288  0.50246925  0.38967848  1
  O2-  O125  1  0.24292795  0.49722128  0.72572852  1
  O2-  O126  1  0.74793436  -0.00472286  0.06071927  1
  O2-  O127  1  0.74557573  -0.00542542  0.39468795  1
  O2-  O128  1  0.74713315  0.00365603  0.72503181  1
  O2-  O129  1  0.74849788  0.51069612  0.05939356  1
  O2-  O130  1  0.74850900  0.50166883  0.39950322  1
  O2-  O131  1  0.74579191  0.49818526  0.72858376  1
  O2-  O132  1  -0.00789736  0.25151833  0.27113499  1
  O2-  O133  1  -0.00551498  0.25219007  0.60550368  1
  O2-  O134  1  -0.00180334  0.25455139  0.93903193  1
  O2-  O135  1  -0.00254635  0.74421543  0.26928428  1
  O2-  O136  1  -0.00850350  0.74862501  0.60792384  1
  O2-  O137  1  -0.00769510  0.75030733  0.93779349  1
  O2-  O138  1  0.50680411  0.24771207  0.27312202  1
  O2-  O139  1  0.50821582  0.24746941  0.60634861  1
  O2-  O140  1  0.49757415  0.25506908  0.93982319  1
  O2-  O141  1  0.50249292  0.75556413  0.27708955  1
  O2-  O142  1  0.49809370  0.74882231  0.59868477  1
  O2-  O143  1  0.49931756  0.74895687  0.93691026  1
  O2-  O144  1  0.07003473  0.17834945  0.09936466  1
  O2-  O145  1  0.06852917  0.18011716  0.43133465  1
  O2-  O146  1  0.07097939  0.17897160  0.76575348  1
  O2-  O147  1  0.06786074  0.67798307  0.09819082  1
  O2-  O148  1  0.07549707  0.67797602  0.43210139  1
  O2-  O149  1  0.06936725  0.67917906  0.76723296  1
  O2-  O150  1  0.57318663  0.18401947  0.10182982  1
  O2-  O151  1  0.56941898  0.17380871  0.42349927  1
  O2-  O152  1  0.57624146  0.17631821  0.75504779  1
  O2-  O153  1  0.57018797  0.67862345  0.09962075  1
  O2-  O154  1  0.56845493  0.68077567  0.42397570  1
  O2-  O155  1  0.57091387  0.68138485  0.76344191  1
  O2-  O156  1  0.18135579  0.42508665  0.24312900  1
  O2-  O157  1  0.18142111  0.42290526  0.57520534  1
  O2-  O158  1  0.18268352  0.42785086  0.90021289  1
  O2-  O159  1  0.18529714  0.92916427  0.23427590  1
  O2-  O160  1  0.17694954  0.93047484  0.57816534  1
  O2-  O161  1  0.17711616  0.92790605  0.91038480  1
  O2-  O162  1  0.67541539  0.43167510  0.23744767  1
  O2-  O163  1  0.67917106  0.42832356  0.57946784  1
  O2-  O164  1  0.68115895  0.42899222  0.90005711  1
  O2-  O165  1  0.67020088  0.92819927  0.24551873  1
  O2-  O166  1  0.67697489  0.93199193  0.57796754  1
  O2-  O167  1  0.67968175  0.93070174  0.90967376  1
  O2-  O168  1  0.42742955  0.32094130  0.08883883  1
  O2-  O169  1  0.42965978  0.32241045  0.42969195  1
  O2-  O170  1  0.42947507  0.31570745  0.76782907  1
  O2-  O171  1  0.43013522  0.82118435  0.10028178  1
  O2-  O172  1  0.42822995  0.82152211  0.42381508  1
  O2-  O173  1  0.43086009  0.82532892  0.76205738  1
  O2-  O174  1  0.92838588  0.32031891  0.08988098  1
  O2-  O175  1  0.92985802  0.32001964  0.42348521  1
  O2-  O176  1  0.92165535  0.31824917  0.75442249  1
  O2-  O177  1  0.92942545  0.82563977  0.08672888  1
  O2-  O178  1  0.93143447  0.81983235  0.43220039  1
  O2-  O179  1  0.93184492  0.82671608  0.75714209  1
  O2-  O180  1  0.32477396  0.07127032  0.24577577  1
  O2-  O181  1  0.31866013  0.07217151  0.57454863  1
  O2-  O182  1  0.32027200  0.07214039  0.89937174  1
  O2-  O183  1  0.31981316  0.57082679  0.24178526  1
  O2-  O184  1  0.31908587  0.56885734  0.56706613  1
  O2-  O185  1  0.31983263  0.57198671  0.91081424  1
  O2-  O186  1  0.82089321  0.06877422  0.23553299  1
  O2-  O187  1  0.82296265  0.06860315  0.57816943  1
  O2-  O188  1  0.82066356  0.06889691  0.89890402  1
  O2-  O189  1  0.81806628  0.57089388  0.23391642  1
  O2-  O190  1  0.82211408  0.57089282  0.56923548  1
  O2-  O191  1  0.82480827  0.57036176  0.91092398  1
  O2-  O192  1  0.03990056  0.08151956  0.26640248  1
  O2-  O193  1  0.03720643  0.08205909  0.59978866  1
  O2-  O194  1  0.04150708  0.08258804  0.93150022  1
  O2-  O195  1  0.04843614  0.57464359  0.26832976  1
  O2-  O196  1  0.04419125  0.57764909  0.60277175  1
  O2-  O197  1  0.03955682  0.58006688  0.93148956  1
  O2-  O198  1  0.54687020  0.08420016  0.27018213  1
  O2-  O199  1  0.54919253  0.08468231  0.60186963  1
  O2-  O200  1  0.54409141  0.08572470  0.93370583  1
  O2-  O201  1  0.53668884  0.59119657  0.27122776  1
  O2-  O202  1  0.54504771  0.58025491  0.59817443  1
  O2-  O203  1  0.54333231  0.57884779  0.93192557  1
  O2-  O204  1  0.16544073  0.21043487  0.26476937  1
  O2-  O205  1  0.16473119  0.20848866  0.59505139  1
  O2-  O206  1  0.16849296  0.21158713  0.93389408  1
  O2-  O207  1  0.17023756  0.70886836  0.26476332  1
  O2-  O208  1  0.16425464  0.71096629  0.60044392  1
  O2-  O209  1  0.16410123  0.70953590  0.93052628  1
  O2-  O210  1  0.66925374  0.20113763  0.27721613  1
  O2-  O211  1  0.67013279  0.20057440  0.60422646  1
  O2-  O212  1  0.66858411  0.21384104  0.93320420  1
  O2-  O213  1  0.66214686  0.70510939  0.27159498  1
  O2-  O214  1  0.67011358  0.71270833  0.59888870  1
  O2-  O215  1  0.67116033  0.70412793  0.93269115  1
  O2-  O216  1  0.08175377  0.45739759  0.06776562  1
  O2-  O217  1  0.08536341  0.44530482  0.39500909  1
  O2-  O218  1  0.08310802  0.44199154  0.72552693  1
  O2-  O219  1  0.08542974  0.95404613  0.06238848  1
  O2-  O220  1  0.08627418  0.96032753  0.40320035  1
  O2-  O221  1  0.08789346  0.95926963  0.73172900  1
  O2-  O222  1  0.57971967  0.45742883  0.06712256  1
  O2-  O223  1  0.57663493  0.46229284  0.40153674  1
  O2-  O224  1  0.58361647  0.45248633  0.73008894  1
  O2-  O225  1  0.58506669  0.95390237  0.06143246  1
  O2-  O226  1  0.58290924  0.95543793  0.40036210  1
  O2-  O227  1  0.58457173  0.95888188  0.72986394  1
  O2-  O228  1  0.21129352  0.33467072  0.07043602  1
  O2-  O229  1  0.21350615  0.33610371  0.39548759  1
  O2-  O230  1  0.21134112  0.33188909  0.72651849  1
  O2-  O231  1  0.20372471  0.83302727  0.06218868  1
  O2-  O232  1  0.21424135  0.83364092  0.40251937  1
  O2-  O233  1  0.20553368  0.83755302  0.73080123  1
  O2-  O234  1  0.71279896  0.33746793  0.06994814  1
  O2-  O235  1  0.69924755  0.33168165  0.40677412  1
  O2-  O236  1  0.70444117  0.33404313  0.72974727  1
  O2-  O237  1  0.70216606  0.83354757  0.06073670  1
  O2-  O238  1  0.69993015  0.83358715  0.39700478  1
  O2-  O239  1  0.70568043  0.84061744  0.73243237  1
  O2-  O240  1  0.45902095  0.41902451  0.26070468  1
  O2-  O241  1  0.45928475  0.41563235  0.59955986  1
  O2-  O242  1  0.45002829  0.41658742  0.93879657  1
  O2-  O243  1  0.45333001  0.91728019  0.27419251  1
  O2-  O244  1  0.45742805  0.92026622  0.59429175  1
  O2-  O245  1  0.45804809  0.92029444  0.93201651  1
  O2-  O246  1  0.95041571  0.41350219  0.27035388  1
  O2-  O247  1  0.95116073  0.41399728  0.60272625  1
  O2-  O248  1  0.95153415  0.41526236  0.93804012  1
  O2-  O249  1  0.96271143  0.91610324  0.26536980  1
  O2-  O250  1  0.95903676  0.91371528  0.60361702  1
  O2-  O251  1  0.95879049  0.91445053  0.93238739  1
  O2-  O252  1  0.33583348  0.29032254  0.26032366  1
  O2-  O253  1  0.33742130  0.28607296  0.59581807  1
  O2-  O254  1  0.33442388  0.29301416  0.93762659  1
  O2-  O255  1  0.33889149  0.79236557  0.27039045  1
  O2-  O256  1  0.32859223  0.79439329  0.59824427  1
  O2-  O257  1  0.33008818  0.79766220  0.93196012  1
  O2-  O258  1  0.82888587  0.29642314  0.27746501  1
  O2-  O259  1  0.83237096  0.29521357  0.60096509  1
  O2-  O260  1  0.83585441  0.29324619  0.93675223  1
  O2-  O261  1  0.82800065  0.79896536  0.26478226  1
  O2-  O262  1  0.83219469  0.80441915  0.60860292  1
  O2-  O263  1  0.83301752  0.80436994  0.93585189  1
  O2-  O264  1  0.41924113  0.04198364  0.06835558  1
  O2-  O265  1  0.41744821  0.05054620  0.39795803  1
  O2-  O266  1  0.41482213  0.04680231  0.72478923  1
  O2-  O267  1  0.41369816  0.54827712  0.06321455  1
  O2-  O268  1  0.40890141  0.53984627  0.39481772  1
  O2-  O269  1  0.41641147  0.53853762  0.73434583  1
  O2-  O270  1  0.91845720  0.03796758  0.06548953  1
  O2-  O271  1  0.91679697  0.03528591  0.40376487  1
  O2-  O272  1  0.91247127  0.03891312  0.73119250  1
  O2-  O273  1  0.91384588  0.54328429  0.06435773  1
  O2-  O274  1  0.92014462  0.54097146  0.40044942  1
  O2-  O275  1  0.91751766  0.53658212  0.73687812  1
  O2-  O276  1  0.29144142  0.16588031  0.06967037  1
  O2-  O277  1  0.29605117  0.16858564  0.39398323  1
  O2-  O278  1  0.29032371  0.16257390  0.72689698  1
  O2-  O279  1  0.29470892  0.66817570  0.06072003  1
  O2-  O280  1  0.29459933  0.66335077  0.39515466  1
  O2-  O281  1  0.28999705  0.66808997  0.73442661  1
  O2-  O282  1  0.79111679  0.16612357  0.06751843  1
  O2-  O283  1  0.79211920  0.16373529  0.40770125  1
  O2-  O284  1  0.79790002  0.16431782  0.72904272  1
  O2-  O285  1  0.80381863  0.67091996  0.05844229  1
  O2-  O286  1  0.79456818  0.67171865  0.39929472  1
  O2-  O287  1  0.79491701  0.67020570  0.73565288  1
