# generated using pymatgen
data_Ca2Al2SiO7
_symmetry_space_group_name_H-M   'P 1'
_cell_length_a   15.46219585
_cell_length_b   15.46331568
_cell_length_c   15.28675665
_cell_angle_alpha   89.99592361
_cell_angle_beta   90.00826657
_cell_angle_gamma   89.98320796
_symmetry_Int_Tables_number   1
_chemical_formula_structural   Ca2Al2SiO7
_chemical_formula_sum   'Ca48 Al48 Si24 O168'
_cell_volume   3655.01463053
_cell_formula_units_Z   24
loop_
 _symmetry_equiv_pos_site_id
 _symmetry_equiv_pos_as_xyz
  1  'x, y, z'
loop_
 _atom_type_symbol
 _atom_type_oxidation_number
  Ca2+  2.0
  Al0+  0.0
  Si0+  0.0
  O2-  -2.0
loop_
 _atom_site_type_symbol
 _atom_site_label
 _atom_site_symmetry_multiplicity
 _atom_site_fract_x
 _atom_site_fract_y
 _atom_site_fract_z
 _atom_site_occupancy
  Ca2+  Ca0  1  0.18298997  0.08720906  0.17202410  1
  Ca2+  Ca1  1  0.17714583  0.08735907  0.50249493  1
  Ca2+  Ca2  1  0.17527997  0.08121052  0.84300286  1
  Ca2+  Ca3  1  0.16239512  0.57644986  0.17230833  1
  Ca2+  Ca4  1  0.16396178  0.58275306  0.49892633  1
  Ca2+  Ca5  1  0.16626526  0.58188988  0.84049557  1
  Ca2+  Ca6  1  0.65750527  0.08078400  0.17484663  1
  Ca2+  Ca7  1  0.66382038  0.08209337  0.50259899  1
  Ca2+  Ca8  1  0.66656647  0.09071159  0.83443193  1
  Ca2+  Ca9  1  0.66856818  0.57031925  0.17405708  1
  Ca2+  Ca10  1  0.66758706  0.57975889  0.50215111  1
  Ca2+  Ca11  1  0.66323970  0.57923615  0.84315698  1
  Ca2+  Ca12  1  0.07319108  0.34695854  0.16420208  1
  Ca2+  Ca13  1  0.07696343  0.33670787  0.48974407  1
  Ca2+  Ca14  1  0.07797655  0.33846099  0.83687640  1
  Ca2+  Ca15  1  0.08466383  0.81902418  0.16290109  1
  Ca2+  Ca16  1  0.07743539  0.82367680  0.49541534  1
  Ca2+  Ca17  1  0.08112738  0.82250503  0.82466860  1
  Ca2+  Ca18  1  0.58080214  0.32687730  0.15889858  1
  Ca2+  Ca19  1  0.57540180  0.32382319  0.49104601  1
  Ca2+  Ca20  1  0.57455400  0.32868962  0.82923798  1
  Ca2+  Ca21  1  0.58273970  0.83090168  0.16677145  1
  Ca2+  Ca22  1  0.58482234  0.83046384  0.49307530  1
  Ca2+  Ca23  1  0.58570152  0.81999766  0.83180612  1
  Ca2+  Ca24  1  0.32364494  0.40637198  0.17135812  1
  Ca2+  Ca25  1  0.32991540  0.40695976  0.50085208  1
  Ca2+  Ca26  1  0.32958391  0.41155190  0.84156886  1
  Ca2+  Ca27  1  0.34350706  0.92894414  0.17437641  1
  Ca2+  Ca28  1  0.33932262  0.92001584  0.49736277  1
  Ca2+  Ca29  1  0.33523929  0.92487392  0.84094259  1
  Ca2+  Ca30  1  0.82361945  0.41411167  0.17440029  1
  Ca2+  Ca31  1  0.82822041  0.41637238  0.49376062  1
  Ca2+  Ca32  1  0.82410271  0.41714535  0.84280576  1
  Ca2+  Ca33  1  0.82404740  0.92052674  0.17422980  1
  Ca2+  Ca34  1  0.83019274  0.92120462  0.50732810  1
  Ca2+  Ca35  1  0.83821471  0.92161190  0.83156407  1
  Ca2+  Ca36  1  0.42223641  0.17254731  0.16400051  1
  Ca2+  Ca37  1  0.42382799  0.17240161  0.49098303  1
  Ca2+  Ca38  1  0.42279173  0.17511279  0.83179476  1
  Ca2+  Ca39  1  0.41960497  0.67426111  0.16354851  1
  Ca2+  Ca40  1  0.42331777  0.67331533  0.49642937  1
  Ca2+  Ca41  1  0.43044709  0.65872270  0.83145205  1
  Ca2+  Ca42  1  0.91410268  0.18231527  0.16338718  1
  Ca2+  Ca43  1  0.91632613  0.16966600  0.49502171  1
  Ca2+  Ca44  1  0.91098795  0.17366357  0.82971013  1
  Ca2+  Ca45  1  0.92539217  0.65410144  0.16619878  1
  Ca2+  Ca46  1  0.92531938  0.66092073  0.49391674  1
  Ca2+  Ca47  1  0.92840205  0.67112377  0.82680879  1
  Al0+  Al48  1  -0.00001462  0.00028064  0.00402368  1
  Al0+  Al49  1  0.00158513  -0.00230940  0.33117930  1
  Al0+  Al50  1  -0.00016471  0.00044117  0.66855626  1
  Al0+  Al51  1  0.00011612  0.50133588  -0.00789170  1
  Al0+  Al52  1  0.00078891  0.49897665  0.33463376  1
  Al0+  Al53  1  -0.00085863  0.49944280  0.66517230  1
  Al0+  Al54  1  0.50144447  0.00043631  -0.00072487  1
  Al0+  Al55  1  0.50055598  -0.00080467  0.33709252  1
  Al0+  Al56  1  0.50090220  -0.00039813  0.66891858  1
  Al0+  Al57  1  0.49854929  0.50026704  -0.00081657  1
  Al0+  Al58  1  0.49760010  0.49979696  0.33498943  1
  Al0+  Al59  1  0.49727836  0.50011993  0.65880049  1
  Al0+  Al60  1  0.24833156  0.24962533  0.00554944  1
  Al0+  Al61  1  0.25059796  0.24873079  0.34112826  1
  Al0+  Al62  1  0.24787293  0.25038085  0.66816363  1
  Al0+  Al63  1  0.24948975  0.75070205  -0.00447763  1
  Al0+  Al64  1  0.25023683  0.75014109  0.32513499  1
  Al0+  Al65  1  0.25042946  0.74782857  0.66565484  1
  Al0+  Al66  1  0.75075156  0.25075874  -0.00394550  1
  Al0+  Al67  1  0.75094700  0.24960835  0.33062835  1
  Al0+  Al68  1  0.74880164  0.24999437  0.66737055  1
  Al0+  Al69  1  0.75186434  0.75230574  -0.00294778  1
  Al0+  Al70  1  0.75244241  0.75054781  0.34107913  1
  Al0+  Al71  1  0.75096437  0.75050746  0.66210855  1
  Al0+  Al72  1  0.42600567  0.32001177  0.65048727  1
  Al0+  Al73  1  0.07050879  0.68009904  0.98488459  1
  Al0+  Al74  1  0.67542043  0.42627563  0.34915060  1
  Al0+  Al75  1  0.42627531  0.32284004  0.31701113  1
  Al0+  Al76  1  0.82107527  0.56897292  0.34808840  1
  Al0+  Al77  1  0.82025263  0.07124864  0.68100781  1
  Al0+  Al78  1  0.57150484  0.17770512  0.98368646  1
  Al0+  Al79  1  0.67997124  0.93004185  0.34731607  1
  Al0+  Al80  1  0.42576480  0.32085250  0.98614703  1
  Al0+  Al81  1  0.57178152  0.17884669  0.65026856  1
  Al0+  Al82  1  0.92948892  0.32082739  0.98487527  1
  Al0+  Al83  1  0.32026778  0.06919493  0.34964648  1
  Al0+  Al84  1  0.43148140  0.81964059  0.32059668  1
  Al0+  Al85  1  0.93050407  0.82317500  0.65065293  1
  Al0+  Al86  1  0.67760938  0.42912516  0.01171630  1
  Al0+  Al87  1  0.06891895  0.67999826  0.31789163  1
  Al0+  Al88  1  0.17873304  0.43191512  0.01322575  1
  Al0+  Al89  1  0.57120299  0.67925636  0.99024812  1
  Al0+  Al90  1  0.18139805  0.43108816  0.34774870  1
  Al0+  Al91  1  0.07149213  0.67734594  0.64882757  1
  Al0+  Al92  1  0.32140044  0.06931288  0.01451499  1
  Al0+  Al93  1  0.57051410  0.17995927  0.31843067  1
  Al0+  Al94  1  0.93133662  0.31892236  0.32053743  1
  Al0+  Al95  1  0.57177833  0.67857061  0.65240759  1
  Si0+  Si96  1  0.67719005  0.92587282  0.68639299  1
  Si0+  Si97  1  0.32191597  0.57679667  0.35002215  1
  Si0+  Si98  1  0.07050249  0.17904904  0.65404759  1
  Si0+  Si99  1  0.17717733  0.42875461  0.68340376  1
  Si0+  Si100  1  0.82099208  0.57341230  0.01293005  1
  Si0+  Si101  1  0.18010853  0.92867535  0.68104217  1
  Si0+  Si102  1  0.92833044  0.32070964  0.65158526  1
  Si0+  Si103  1  0.07086395  0.17668398  0.98484928  1
  Si0+  Si104  1  0.32281518  0.57457636  0.01664520  1
  Si0+  Si105  1  0.17702178  0.92628208  0.01755690  1
  Si0+  Si106  1  0.17782903  0.92529032  0.34990149  1
  Si0+  Si107  1  0.42909297  0.82265458  0.98340721  1
  Si0+  Si108  1  0.32067098  0.57100266  0.68183999  1
  Si0+  Si109  1  0.92803090  0.82549981  0.98315512  1
  Si0+  Si110  1  0.92622084  0.82373852  0.31501608  1
  Si0+  Si111  1  0.32105468  0.07155720  0.68367919  1
  Si0+  Si112  1  0.82179375  0.57151355  0.68287067  1
  Si0+  Si113  1  0.82223936  0.07255176  0.01577737  1
  Si0+  Si114  1  0.67822476  0.43141777  0.68119325  1
  Si0+  Si115  1  0.68117856  0.92868726  0.01412539  1
  Si0+  Si116  1  0.42822536  0.82236723  0.65242702  1
  Si0+  Si117  1  0.82482675  0.07188073  0.34807093  1
  Si0+  Si118  1  0.57567929  0.67720752  0.31777649  1
  Si0+  Si119  1  0.07373034  0.17489355  0.31782989  1
  O2-  O120  1  0.24703474  -0.00666422  0.06133491  1
  O2-  O121  1  0.24288364  -0.00377379  0.39631050  1
  O2-  O122  1  0.25212454  -0.00215070  0.72544766  1
  O2-  O123  1  0.25455997  0.50546939  0.06011923  1
  O2-  O124  1  0.25862072  0.50299147  0.39501105  1
  O2-  O125  1  0.24921280  0.49969764  0.72373746  1
  O2-  O126  1  0.74939038  0.00273496  0.05613967  1
  O2-  O127  1  0.75648833  0.00357434  0.39263263  1
  O2-  O128  1  0.74515221  -0.00330691  0.72929544  1
  O2-  O129  1  0.75074051  0.50660697  0.05653714  1
  O2-  O130  1  0.74465302  0.50188980  0.39925213  1
  O2-  O131  1  0.74764803  0.50395151  0.72539520  1
  O2-  O132  1  0.00470143  0.24269694  0.27360539  1
  O2-  O133  1  -0.00030221  0.24938965  0.61095294  1
  O2-  O134  1  0.00214129  0.24375222  0.93789415  1
  O2-  O135  1  -0.00699679  0.75357603  0.27069822  1
  O2-  O136  1  -0.00223387  0.74767425  0.59957694  1
  O2-  O137  1  -0.00133657  0.75835518  0.94015423  1
  O2-  O138  1  0.50349830  0.25622344  0.26810148  1
  O2-  O139  1  0.49748696  0.24794698  0.60113479  1
  O2-  O140  1  0.50028633  0.25163808  0.93580446  1
  O2-  O141  1  0.50530117  0.74427406  0.27358098  1
  O2-  O142  1  0.50058801  0.75779013  0.60863334  1
  O2-  O143  1  0.49426666  0.75060519  0.94006613  1
  O2-  O144  1  0.06809183  0.17449833  0.08998928  1
  O2-  O145  1  0.07161740  0.17440554  0.42412791  1
  O2-  O146  1  0.07241180  0.18014518  0.75905980  1
  O2-  O147  1  0.06839901  0.67915914  0.09773334  1
  O2-  O148  1  0.06899404  0.68155450  0.43076307  1
  O2-  O149  1  0.07153788  0.67870572  0.76257809  1
  O2-  O150  1  0.57089577  0.17483322  0.09665470  1
  O2-  O151  1  0.56902492  0.17822803  0.43196964  1
  O2-  O152  1  0.57077918  0.18186237  0.76379869  1
  O2-  O153  1  0.57182011  0.68332554  0.10281216  1
  O2-  O154  1  0.57417779  0.68030218  0.42363527  1
  O2-  O155  1  0.56995399  0.67745019  0.76601739  1
  O2-  O156  1  0.17845673  0.43357097  0.23484366  1
  O2-  O157  1  0.17566583  0.42703759  0.57864262  1
  O2-  O158  1  0.17829959  0.43379896  0.89943405  1
  O2-  O159  1  0.17849213  0.92611881  0.24442121  1
  O2-  O160  1  0.18098906  0.93026493  0.57626245  1
  O2-  O161  1  0.17689610  0.92783099  0.91134356  1
  O2-  O162  1  0.67851198  0.42622002  0.23531315  1
  O2-  O163  1  0.68134363  0.43163082  0.57655075  1
  O2-  O164  1  0.67921039  0.43098871  0.89772509  1
  O2-  O165  1  0.68093888  0.93003609  0.23345562  1
  O2-  O166  1  0.67622992  0.92601061  0.58119294  1
  O2-  O167  1  0.68310455  0.92526208  0.90923820  1
  O2-  O168  1  0.42482360  0.31853284  0.09890831  1
  O2-  O169  1  0.42498521  0.31682465  0.43060609  1
  O2-  O170  1  0.42415944  0.31953989  0.76418304  1
  O2-  O171  1  0.43079005  0.82397705  0.08873949  1
  O2-  O172  1  0.43184097  0.81789846  0.43405441  1
  O2-  O173  1  0.42681743  0.82140009  0.75824651  1
  O2-  O174  1  0.92986903  0.32106471  0.09758016  1
  O2-  O175  1  0.93299760  0.31680595  0.43432316  1
  O2-  O176  1  0.92959376  0.32142044  0.75677053  1
  O2-  O177  1  0.92629168  0.82708840  0.08841927  1
  O2-  O178  1  0.92932528  0.82747335  0.42014404  1
  O2-  O179  1  0.93527845  0.82285703  0.76482675  1
  O2-  O180  1  0.31972451  0.06755988  0.23662385  1
  O2-  O181  1  0.31890261  0.07153660  0.57890409  1
  O2-  O182  1  0.31836113  0.06664162  0.90056711  1
  O2-  O183  1  0.31837520  0.58196228  0.24474496  1
  O2-  O184  1  0.31985770  0.57441776  0.57723590  1
  O2-  O185  1  0.32178530  0.57579364  0.91054899  1
  O2-  O186  1  0.82648003  0.06974549  0.24228483  1
  O2-  O187  1  0.82256627  0.07049256  0.56825623  1
  O2-  O188  1  0.82495612  0.07044622  0.91061313  1
  O2-  O189  1  0.82099727  0.56670913  0.23401030  1
  O2-  O190  1  0.82428763  0.56801194  0.57833025  1
  O2-  O191  1  0.81940717  0.57315535  0.90674647  1
  O2-  O192  1  0.05214624  0.08056667  0.27099382  1
  O2-  O193  1  0.04435727  0.08769341  0.60623430  1
  O2-  O194  1  0.04738057  0.08187791  0.93877842  1
  O2-  O195  1  0.03660376  0.58347307  0.26552248  1
  O2-  O196  1  0.04226641  0.57828831  0.59795092  1
  O2-  O197  1  0.03702537  0.58702358  0.92652654  1
  O2-  O198  1  0.53756440  0.08183546  0.26815007  1
  O2-  O199  1  0.54701512  0.07714606  0.60288793  1
  O2-  O200  1  0.54305048  0.07912291  0.92999164  1
  O2-  O201  1  0.55170785  0.58257966  0.27438890  1
  O2-  O202  1  0.53652502  0.58572781  0.59551136  1
  O2-  O203  1  0.54108562  0.58401616  0.93299570  1
  O2-  O204  1  0.16740177  0.20194047  0.27506069  1
  O2-  O205  1  0.16136515  0.20738570  0.60528080  1
  O2-  O206  1  0.16370787  0.20386382  0.93868661  1
  O2-  O207  1  0.16389154  0.71168673  0.26184574  1
  O2-  O208  1  0.17043587  0.70645951  0.59824813  1
  O2-  O209  1  0.16783781  0.70860926  0.92976708  1
  O2-  O210  1  0.67131284  0.20040493  0.26727292  1
  O2-  O211  1  0.67035515  0.20797654  0.59873738  1
  O2-  O212  1  0.67044832  0.20462242  0.93156659  1
  O2-  O213  1  0.66929466  0.70523198  0.27400180  1
  O2-  O214  1  0.66903543  0.70472103  0.59896411  1
  O2-  O215  1  0.66658100  0.71274840  0.93388465  1
  O2-  O216  1  0.08138451  0.46621668  0.06403317  1
  O2-  O217  1  0.08637456  0.46427232  0.40345131  1
  O2-  O218  1  0.08498472  0.45727537  0.73062500  1
  O2-  O219  1  0.08353783  0.95079928  0.06436218  1
  O2-  O220  1  0.08254897  0.94745334  0.39489467  1
  O2-  O221  1  0.08985313  0.95830094  0.73030261  1
  O2-  O222  1  0.58090452  0.45844062  0.06547454  1
  O2-  O223  1  0.57580816  0.45159593  0.40167124  1
  O2-  O224  1  0.58442682  0.45910560  0.72490085  1
  O2-  O225  1  0.58828559  0.95337886  0.06040467  1
  O2-  O226  1  0.58516364  0.96038747  0.40419856  1
  O2-  O227  1  0.58263780  0.94857474  0.73317795  1
  O2-  O228  1  0.20293380  0.33394431  0.06726411  1
  O2-  O229  1  0.20636730  0.33356472  0.40390826  1
  O2-  O230  1  0.20336584  0.33644635  0.73173099  1
  O2-  O231  1  0.20153793  0.83154981  0.06141382  1
  O2-  O232  1  0.20792610  0.83297418  0.39553109  1
  O2-  O233  1  0.20750778  0.83607758  0.72843789  1
  O2-  O234  1  0.71236431  0.33315694  0.06395409  1
  O2-  O235  1  0.71142511  0.32956921  0.40184872  1
  O2-  O236  1  0.70864787  0.34039548  0.72864025  1
  O2-  O237  1  0.71247886  0.83861233  0.06378422  1
  O2-  O238  1  0.70878984  0.83431434  0.40392836  1
  O2-  O239  1  0.70544130  0.83218759  0.73232302  1
  O2-  O240  1  0.44227750  0.42617260  0.26986113  1
  O2-  O241  1  0.45091322  0.41849387  0.59766621  1
  O2-  O242  1  0.44984937  0.42103397  0.93431109  1
  O2-  O243  1  0.46515039  0.91478970  0.26684461  1
  O2-  O244  1  0.44930159  0.91740811  0.60793824  1
  O2-  O245  1  0.45908308  0.91357298  0.93482714  1
  O2-  O246  1  0.96496606  0.41401957  0.26691922  1
  O2-  O247  1  0.95737824  0.41153038  0.60409537  1
  O2-  O248  1  0.96170446  0.41517995  0.92739523  1
  O2-  O249  1  0.95266741  0.91660834  0.26654160  1
  O2-  O250  1  0.96238391  0.92068795  0.59807586  1
  O2-  O251  1  0.95299849  0.91983200  0.93758278  1
  O2-  O252  1  0.32792016  0.28754124  0.26810714  1
  O2-  O253  1  0.32625916  0.29103618  0.60021039  1
  O2-  O254  1  0.32715080  0.28934544  0.93379147  1
  O2-  O255  1  0.33586705  0.79211388  0.26312331  1
  O2-  O256  1  0.33651822  0.79308391  0.60514176  1
  O2-  O257  1  0.33398503  0.80255268  0.93776810  1
  O2-  O258  1  0.83574230  0.28916930  0.26462982  1
  O2-  O259  1  0.83712035  0.29239286  0.60505437  1
  O2-  O260  1  0.83473147  0.28914378  0.92802607  1
  O2-  O261  1  0.83146260  0.79949851  0.27128779  1
  O2-  O262  1  0.82995612  0.80196179  0.60121974  1
  O2-  O263  1  0.83618133  0.79874673  0.93411770  1
  O2-  O264  1  0.41794427  0.03660467  0.06722620  1
  O2-  O265  1  0.41397030  0.03327516  0.40518564  1
  O2-  O266  1  0.41328473  0.04494466  0.73098531  1
  O2-  O267  1  0.41673882  0.55284120  0.06262771  1
  O2-  O268  1  0.41753671  0.55844148  0.39492625  1
  O2-  O269  1  0.41291414  0.54217443  0.72884741  1
  O2-  O270  1  0.91317701  0.04450237  0.06533789  1
  O2-  O271  1  0.91934954  0.04652582  0.39402948  1
  O2-  O272  1  0.91740663  0.04087750  0.73675832  1
  O2-  O273  1  0.91432606  0.54438103  0.05617885  1
  O2-  O274  1  0.91678811  0.53446859  0.40315188  1
  O2-  O275  1  0.91283371  0.53993445  0.73115289  1
  O2-  O276  1  0.28740199  0.16372163  0.06964563  1
  O2-  O277  1  0.28798056  0.16325631  0.40772842  1
  O2-  O278  1  0.28765973  0.16160114  0.73145836  1
  O2-  O279  1  0.29698736  0.66953285  0.06080693  1
  O2-  O280  1  0.28959133  0.66818518  0.39767898  1
  O2-  O281  1  0.29382745  0.66251898  0.73170733  1
  O2-  O282  1  0.79656498  0.16516605  0.06121356  1
  O2-  O283  1  0.80106191  0.16554434  0.39363490  1
  O2-  O284  1  0.79002098  0.16841763  0.73621741  1
  O2-  O285  1  0.80027354  0.66849927  0.05824361  1
  O2-  O286  1  0.80086044  0.66893312  0.40186430  1
  O2-  O287  1  0.79862851  0.66588122  0.72746724  1
