# generated using pymatgen
data_Ca2Al2SiO7
_symmetry_space_group_name_H-M   'P 1'
_cell_length_a   15.45386711
_cell_length_b   15.45399530
_cell_length_c   15.28045811
_cell_angle_alpha   89.99984256
_cell_angle_beta   89.99371208
_cell_angle_gamma   90.00022280
_symmetry_Int_Tables_number   1
_chemical_formula_structural   Ca2Al2SiO7
_chemical_formula_sum   'Ca48 Al48 Si24 O168'
_cell_volume   3649.33994789
_cell_formula_units_Z   24
loop_
 _symmetry_equiv_pos_site_id
 _symmetry_equiv_pos_as_xyz
  1  'x, y, z'
loop_
 _atom_type_symbol
 _atom_type_oxidation_number
  Ca2+  2.0
  Al0+  0.0
  Si0+  0.0
  O2-  -2.0
loop_
 _atom_site_type_symbol
 _atom_site_label
 _atom_site_symmetry_multiplicity
 _atom_site_fract_x
 _atom_site_fract_y
 _atom_site_fract_z
 _atom_site_occupancy
  Ca2+  Ca0  1  0.16752589  0.06978598  0.17155565  1
  Ca2+  Ca1  1  0.17070527  0.07648441  0.50767883  1
  Ca2+  Ca2  1  0.18052775  0.07587653  0.84407126  1
  Ca2+  Ca3  1  0.16599115  0.58471846  0.17008575  1
  Ca2+  Ca4  1  0.17485583  0.58915901  0.49907006  1
  Ca2+  Ca5  1  0.16752155  0.58274886  0.83813824  1
  Ca2+  Ca6  1  0.66782043  0.08872337  0.17164446  1
  Ca2+  Ca7  1  0.66868677  0.09085113  0.50054332  1
  Ca2+  Ca8  1  0.66163995  0.08577853  0.83557968  1
  Ca2+  Ca9  1  0.68244326  0.57753735  0.17731535  1
  Ca2+  Ca10  1  0.66570957  0.57022207  0.50863822  1
  Ca2+  Ca11  1  0.67087845  0.58098251  0.83590113  1
  Ca2+  Ca12  1  0.07159874  0.34173297  0.15974870  1
  Ca2+  Ca13  1  0.07026690  0.33568889  0.49483047  1
  Ca2+  Ca14  1  0.07352668  0.34262422  0.83213894  1
  Ca2+  Ca15  1  0.09208472  0.82438752  0.16335777  1
  Ca2+  Ca16  1  0.08157239  0.83095961  0.49424531  1
  Ca2+  Ca17  1  0.08209078  0.83106273  0.83282769  1
  Ca2+  Ca18  1  0.58994957  0.32479649  0.16646324  1
  Ca2+  Ca19  1  0.59158550  0.32777641  0.49520569  1
  Ca2+  Ca20  1  0.58708860  0.32278430  0.82691180  1
  Ca2+  Ca21  1  0.57498879  0.83226924  0.15826339  1
  Ca2+  Ca22  1  0.57652875  0.82627700  0.50213292  1
  Ca2+  Ca23  1  0.57219174  0.82622956  0.82580449  1
  Ca2+  Ca24  1  0.32421737  0.42118291  0.17223816  1
  Ca2+  Ca25  1  0.33659514  0.42973700  0.50653269  1
  Ca2+  Ca26  1  0.32699365  0.42414716  0.83820778  1
  Ca2+  Ca27  1  0.32637210  0.91501221  0.16413603  1
  Ca2+  Ca28  1  0.32896737  0.91794237  0.50572715  1
  Ca2+  Ca29  1  0.33982197  0.92223723  0.83946935  1
  Ca2+  Ca30  1  0.83509946  0.42178635  0.17229816  1
  Ca2+  Ca31  1  0.82733831  0.41458304  0.49979449  1
  Ca2+  Ca32  1  0.83202335  0.41717419  0.83680553  1
  Ca2+  Ca33  1  0.83072708  0.92668551  0.17500337  1
  Ca2+  Ca34  1  0.83683851  0.92291130  0.50494540  1
  Ca2+  Ca35  1  0.83197279  0.91434227  0.83546728  1
  Ca2+  Ca36  1  0.42764476  0.16153545  0.15967412  1
  Ca2+  Ca37  1  0.42701983  0.16213897  0.49806676  1
  Ca2+  Ca38  1  0.42293815  0.15978154  0.82773109  1
  Ca2+  Ca39  1  0.41336772  0.67088584  0.16297827  1
  Ca2+  Ca40  1  0.41473061  0.66391422  0.49884847  1
  Ca2+  Ca41  1  0.41489988  0.67705374  0.82431239  1
  Ca2+  Ca42  1  0.91148454  0.17849149  0.16431242  1
  Ca2+  Ca43  1  0.90987960  0.17763487  0.49346495  1
  Ca2+  Ca44  1  0.91868271  0.18057177  0.82747744  1
  Ca2+  Ca45  1  0.92664805  0.65583117  0.16193297  1
  Ca2+  Ca46  1  0.92122557  0.67036469  0.49252058  1
  Ca2+  Ca47  1  0.92136989  0.66711450  0.83162701  1
  Al0+  Al48  1  0.00012280  0.00051992  0.00415092  1
  Al0+  Al49  1  -0.00080832  0.00049373  0.34224426  1
  Al0+  Al50  1  0.00008366  0.00052731  0.66598987  1
  Al0+  Al51  1  -0.00003139  0.50147479  -0.00321064  1
  Al0+  Al52  1  0.00025978  0.50123515  0.33056577  1
  Al0+  Al53  1  -0.00132763  0.50075881  0.66003329  1
  Al0+  Al54  1  0.50153198  -0.00116893  -0.00343592  1
  Al0+  Al55  1  0.49957125  -0.00081975  0.32843805  1
  Al0+  Al56  1  0.50101481  -0.00164830  0.66023749  1
  Al0+  Al57  1  0.50135506  0.49743237  0.00125044  1
  Al0+  Al58  1  0.49946063  0.49938730  0.33753275  1
  Al0+  Al59  1  0.50035956  0.49824666  0.67651399  1
  Al0+  Al60  1  0.25118363  0.25069107  0.01014110  1
  Al0+  Al61  1  0.25029116  0.24913213  0.33390505  1
  Al0+  Al62  1  0.25007853  0.24927290  0.67171984  1
  Al0+  Al63  1  0.24993286  0.75092675  -0.00716863  1
  Al0+  Al64  1  0.24868463  0.75123452  0.33739177  1
  Al0+  Al65  1  0.24883775  0.75041790  0.66780811  1
  Al0+  Al66  1  0.74984361  0.25033186  -0.00940690  1
  Al0+  Al67  1  0.75021482  0.24925960  0.33094867  1
  Al0+  Al68  1  0.75072394  0.25083926  0.66452259  1
  Al0+  Al69  1  0.75120938  0.74997675  0.00618690  1
  Al0+  Al70  1  0.74921574  0.75132125  0.33554553  1
  Al0+  Al71  1  0.75052965  0.75047908  0.65908644  1
  Al0+  Al72  1  0.68085215  0.42978709  0.34755084  1
  Al0+  Al73  1  0.18040552  0.93015321  0.34900889  1
  Al0+  Al74  1  0.68041438  0.42771026  0.68313334  1
  Al0+  Al75  1  0.81800853  0.06973772  0.34661748  1
  Al0+  Al76  1  0.56852041  0.18095013  0.31853514  1
  Al0+  Al77  1  0.43082163  0.81743706  0.98654402  1
  Al0+  Al78  1  0.17853556  0.43068869  0.01306891  1
  Al0+  Al79  1  0.92896647  0.82247361  0.65330706  1
  Al0+  Al80  1  0.32247290  0.06944807  0.67959587  1
  Al0+  Al81  1  0.56910984  0.18007440  0.65135743  1
  Al0+  Al82  1  0.32044414  0.57156085  0.68250167  1
  Al0+  Al83  1  0.56839758  0.18140270  0.98458712  1
  Al0+  Al84  1  0.17818707  0.92811401  0.01516915  1
  Al0+  Al85  1  0.81985558  0.57077592  0.01248908  1
  Al0+  Al86  1  0.57055614  0.67550703  0.65249202  1
  Al0+  Al87  1  0.42787334  0.81995927  0.64941207  1
  Al0+  Al88  1  0.82442079  0.57277885  0.35042269  1
  Al0+  Al89  1  0.31920025  0.57007412  0.34551012  1
  Al0+  Al90  1  0.93123608  0.31888682  0.31802562  1
  Al0+  Al91  1  0.93169224  0.32017659  0.98478254  1
  Al0+  Al92  1  0.32485588  0.07079223  0.01681122  1
  Al0+  Al93  1  0.06950296  0.68074311  0.98540157  1
  Al0+  Al94  1  0.06977253  0.68299150  0.31933912  1
  Al0+  Al95  1  0.93017030  0.32082869  0.65073816  1
  Si0+  Si96  1  0.92613682  0.82502579  0.31624222  1
  Si0+  Si97  1  0.07344536  0.17795564  0.65165408  1
  Si0+  Si98  1  0.42956510  0.81871111  0.31725434  1
  Si0+  Si99  1  0.42408149  0.32412658  0.98365245  1
  Si0+  Si100  1  0.42513609  0.32215095  0.65235991  1
  Si0+  Si101  1  0.17577694  0.42860595  0.68189122  1
  Si0+  Si102  1  0.42577252  0.32498477  0.31672238  1
  Si0+  Si103  1  0.68008612  0.92910956  0.01366709  1
  Si0+  Si104  1  0.82223783  0.57382163  0.68258620  1
  Si0+  Si105  1  0.57563234  0.67586117  0.98661170  1
  Si0+  Si106  1  0.07112623  0.67842734  0.64837843  1
  Si0+  Si107  1  0.67411667  0.92686994  0.35083413  1
  Si0+  Si108  1  0.92557980  0.82538147  0.98598449  1
  Si0+  Si109  1  0.32275380  0.57275679  0.01514439  1
  Si0+  Si110  1  0.68054095  0.92832351  0.68058936  1
  Si0+  Si111  1  0.82098550  0.07144010  0.68299414  1
  Si0+  Si112  1  0.07443351  0.17550243  0.31741963  1
  Si0+  Si113  1  0.07407811  0.17557627  0.98580043  1
  Si0+  Si114  1  0.57159507  0.67614441  0.31810361  1
  Si0+  Si115  1  0.17623802  0.92879453  0.68537236  1
  Si0+  Si116  1  0.67874736  0.42530071  0.01642440  1
  Si0+  Si117  1  0.17689411  0.42617165  0.35022342  1
  Si0+  Si118  1  0.32408865  0.07229745  0.35019746  1
  Si0+  Si119  1  0.82030075  0.07274570  0.01220628  1
  O2-  O120  1  0.24856059  0.00217710  0.06521246  1
  O2-  O121  1  0.25160467  0.00844422  0.39507604  1
  O2-  O122  1  0.24795088  -0.00493521  0.72759112  1
  O2-  O123  1  0.25649116  0.50232743  0.05984832  1
  O2-  O124  1  0.24857237  0.49183698  0.39379429  1
  O2-  O125  1  0.24484299  0.49650889  0.72670281  1
  O2-  O126  1  0.75232799  -0.00085431  0.05489976  1
  O2-  O127  1  0.74589378  -0.00727655  0.39439609  1
  O2-  O128  1  0.75125269  -0.00085554  0.72521235  1
  O2-  O129  1  0.74285195  0.49837148  0.05927569  1
  O2-  O130  1  0.74924753  0.50421073  0.39982952  1
  O2-  O131  1  0.75351483  0.50553653  0.72762204  1
  O2-  O132  1  0.00930996  0.24674452  0.27176956  1
  O2-  O133  1  0.00656098  0.24708884  0.60553848  1
  O2-  O134  1  0.00834302  0.24611468  0.93922138  1
  O2-  O135  1  -0.00888783  0.75374310  0.27118432  1
  O2-  O136  1  0.00301156  0.74828736  0.60578867  1
  O2-  O137  1  -0.00470539  0.75787301  0.94192165  1
  O2-  O138  1  0.49218128  0.25407263  0.27205334  1
  O2-  O139  1  0.49329621  0.25408363  0.60592188  1
  O2-  O140  1  0.49175447  0.25447981  0.93891024  1
  O2-  O141  1  0.50223502  0.74882619  0.27507472  1
  O2-  O142  1  0.49509851  0.74302746  0.59996428  1
  O2-  O143  1  0.50245006  0.73882648  0.94176176  1
  O2-  O144  1  0.06865306  0.17362831  0.09122666  1
  O2-  O145  1  0.07437770  0.17692051  0.42325402  1
  O2-  O146  1  0.07076062  0.17672913  0.75720424  1
  O2-  O147  1  0.06970863  0.68077836  0.09842797  1
  O2-  O148  1  0.07139362  0.68636581  0.43242589  1
  O2-  O149  1  0.06944623  0.67667860  0.75408958  1
  O2-  O150  1  0.57155428  0.18234699  0.09769022  1
  O2-  O151  1  0.56771725  0.18056181  0.43147083  1
  O2-  O152  1  0.56915004  0.17959659  0.76452139  1
  O2-  O153  1  0.57646339  0.67974433  0.09250688  1
  O2-  O154  1  0.56959882  0.67624879  0.42285515  1
  O2-  O155  1  0.57288899  0.68082261  0.76647653  1
  O2-  O156  1  0.17725608  0.42777294  0.24451121  1
  O2-  O157  1  0.17593673  0.42830459  0.57631065  1
  O2-  O158  1  0.17835018  0.43410961  0.89968970  1
  O2-  O159  1  0.18351856  0.92810349  0.23614707  1
  O2-  O160  1  0.17492058  0.93115319  0.57948567  1
  O2-  O161  1  0.17662951  0.92989632  0.90177368  1
  O2-  O162  1  0.68186905  0.43049165  0.23352522  1
  O2-  O163  1  0.68277843  0.42567799  0.57034607  1
  O2-  O164  1  0.68080091  0.42416844  0.91080822  1
  O2-  O165  1  0.67331797  0.92746247  0.24466094  1
  O2-  O166  1  0.68184357  0.92957028  0.57558604  1
  O2-  O167  1  0.68084871  0.92735958  0.90845373  1
  O2-  O168  1  0.42631747  0.32697421  0.08913754  1
  O2-  O169  1  0.42508758  0.32542833  0.42228798  1
  O2-  O170  1  0.42449218  0.31976230  0.75795020  1
  O2-  O171  1  0.43244366  0.81662527  0.10040540  1
  O2-  O172  1  0.43019121  0.81914435  0.42208181  1
  O2-  O173  1  0.43187562  0.82120180  0.76301153  1
  O2-  O174  1  0.92941211  0.31824870  0.09777946  1
  O2-  O175  1  0.93111218  0.31630107  0.43121872  1
  O2-  O176  1  0.93163116  0.32039988  0.76412562  1
  O2-  O177  1  0.92199745  0.82755611  0.09101730  1
  O2-  O178  1  0.92916433  0.82587622  0.42198734  1
  O2-  O179  1  0.92914361  0.82261154  0.76678171  1
  O2-  O180  1  0.32590694  0.06955577  0.24497470  1
  O2-  O181  1  0.31982953  0.06840211  0.56621395  1
  O2-  O182  1  0.32573980  0.06702218  0.90297303  1
  O2-  O183  1  0.31794971  0.57079398  0.23213973  1
  O2-  O184  1  0.31823018  0.57038244  0.56913629  1
  O2-  O185  1  0.32144958  0.57185966  0.90964028  1
  O2-  O186  1  0.81568010  0.06989957  0.23277178  1
  O2-  O187  1  0.81987328  0.07126076  0.57788073  1
  O2-  O188  1  0.81969983  0.07186571  0.90687144  1
  O2-  O189  1  0.82377025  0.56981238  0.23645555  1
  O2-  O190  1  0.82259538  0.57328639  0.57735583  1
  O2-  O191  1  0.81827565  0.57234592  0.89914654  1
  O2-  O192  1  0.04452350  0.08202259  0.27364652  1
  O2-  O193  1  0.04675686  0.08506826  0.60458312  1
  O2-  O194  1  0.04640723  0.08290381  0.93809125  1
  O2-  O195  1  0.04378872  0.58472744  0.26594016  1
  O2-  O196  1  0.04598659  0.58597806  0.59996639  1
  O2-  O197  1  0.03532481  0.58694309  0.92855066  1
  O2-  O198  1  0.54035179  0.08291481  0.26401194  1
  O2-  O199  1  0.54105358  0.08371568  0.59593017  1
  O2-  O200  1  0.54163939  0.08328569  0.93145335  1
  O2-  O201  1  0.54223143  0.58520471  0.27009813  1
  O2-  O202  1  0.54433611  0.57464053  0.60423043  1
  O2-  O203  1  0.55738950  0.57919946  0.94405348  1
  O2-  O204  1  0.17015337  0.19497423  0.27243968  1
  O2-  O205  1  0.16800766  0.20132629  0.60633229  1
  O2-  O206  1  0.17035931  0.19864575  0.94473245  1
  O2-  O207  1  0.16600233  0.71741915  0.26590418  1
  O2-  O208  1  0.16475475  0.70473206  0.60356476  1
  O2-  O209  1  0.16498163  0.70984009  0.92858222  1
  O2-  O210  1  0.66427092  0.21284096  0.26360871  1
  O2-  O211  1  0.66620498  0.21144131  0.59928949  1
  O2-  O212  1  0.66379046  0.21207517  0.92748196  1
  O2-  O213  1  0.66449892  0.70355326  0.27162936  1
  O2-  O214  1  0.66657867  0.70757995  0.59689368  1
  O2-  O215  1  0.66724966  0.70755237  0.93999165  1
  O2-  O216  1  0.08363657  0.46582899  0.06689416  1
  O2-  O217  1  0.08509461  0.45609911  0.39632479  1
  O2-  O218  1  0.08219546  0.45780947  0.72693518  1
  O2-  O219  1  0.07886204  0.95333397  0.06974979  1
  O2-  O220  1  0.08358788  0.95727028  0.40450999  1
  O2-  O221  1  0.08332650  0.95709962  0.73204134  1
  O2-  O222  1  0.58276525  0.44347574  0.06117810  1
  O2-  O223  1  0.58116950  0.45368550  0.40027757  1
  O2-  O224  1  0.58387394  0.45292918  0.73999108  1
  O2-  O225  1  0.58997676  0.95925784  0.06231296  1
  O2-  O226  1  0.58155974  0.95614137  0.39657958  1
  O2-  O227  1  0.58892992  0.95764742  0.72714078  1
  O2-  O228  1  0.20282261  0.33406097  0.07063195  1
  O2-  O229  1  0.19740495  0.33063995  0.39516333  1
  O2-  O230  1  0.19841001  0.33486340  0.72936222  1
  O2-  O231  1  0.21201586  0.82993134  0.06578622  1
  O2-  O232  1  0.21543480  0.83666934  0.40547571  1
  O2-  O233  1  0.19769339  0.83356457  0.72869861  1
  O2-  O234  1  0.71070522  0.33280895  0.06116236  1
  O2-  O235  1  0.71302013  0.33220661  0.39923156  1
  O2-  O236  1  0.71626609  0.33205684  0.73701899  1
  O2-  O237  1  0.70539205  0.83849764  0.06517238  1
  O2-  O238  1  0.69508117  0.83234310  0.39646467  1
  O2-  O239  1  0.70928795  0.83667957  0.72817313  1
  O2-  O240  1  0.45255083  0.41792645  0.26944089  1
  O2-  O241  1  0.45164513  0.41647510  0.60940805  1
  O2-  O242  1  0.44998502  0.41801787  0.93658036  1
  O2-  O243  1  0.45705676  0.91002781  0.26837044  1
  O2-  O244  1  0.46251299  0.91470562  0.59329210  1
  O2-  O245  1  0.46727601  0.91168275  0.93211616  1
  O2-  O246  1  0.96084413  0.41620210  0.26496402  1
  O2-  O247  1  0.95881426  0.41716415  0.59533726  1
  O2-  O248  1  0.96304085  0.41577553  0.92977010  1
  O2-  O249  1  0.95390093  0.91928261  0.27241929  1
  O2-  O250  1  0.95912228  0.91960438  0.59877041  1
  O2-  O251  1  0.94954412  0.91949531  0.93903165  1
  O2-  O252  1  0.33063741  0.30179435  0.27144438  1
  O2-  O253  1  0.33075330  0.29899181  0.60600094  1
  O2-  O254  1  0.32882165  0.30134074  0.93969527  1
  O2-  O255  1  0.33857456  0.78758610  0.27105760  1
  O2-  O256  1  0.32693600  0.79616869  0.59977471  1
  O2-  O257  1  0.33531542  0.79106711  0.92939222  1
  O2-  O258  1  0.83650187  0.28375794  0.26354623  1
  O2-  O259  1  0.83569984  0.28514735  0.59708541  1
  O2-  O260  1  0.83711791  0.28689529  0.92818210  1
  O2-  O261  1  0.82920555  0.80660286  0.27315704  1
  O2-  O262  1  0.83332194  0.79581634  0.59607031  1
  O2-  O263  1  0.83229319  0.79732636  0.93927805  1
  O2-  O264  1  0.42206863  0.03562625  0.06893332  1
  O2-  O265  1  0.41623314  0.04049065  0.39585494  1
  O2-  O266  1  0.41993474  0.03652549  0.73098307  1
  O2-  O267  1  0.41843420  0.55094631  0.06015079  1
  O2-  O268  1  0.41581331  0.54258699  0.40105472  1
  O2-  O269  1  0.41545606  0.54204040  0.73957896  1
  O2-  O270  1  0.91209726  0.04956489  0.06139202  1
  O2-  O271  1  0.91411474  0.04359496  0.40406401  1
  O2-  O272  1  0.91354214  0.04477567  0.72978317  1
  O2-  O273  1  0.91521195  0.53623360  0.06512459  1
  O2-  O274  1  0.92248725  0.54270111  0.40218979  1
  O2-  O275  1  0.91650748  0.54610124  0.72695637  1
  O2-  O276  1  0.30447868  0.17073687  0.06959282  1
  O2-  O277  1  0.30474627  0.16829045  0.39448237  1
  O2-  O278  1  0.29458137  0.16652756  0.73505620  1
  O2-  O279  1  0.29435271  0.66593492  0.05943170  1
  O2-  O280  1  0.28502740  0.66431950  0.40138013  1
  O2-  O281  1  0.28858020  0.66841876  0.73578998  1
  O2-  O282  1  0.78718566  0.16344065  0.05844176  1
  O2-  O283  1  0.78335161  0.16425742  0.40125175  1
  O2-  O284  1  0.79109884  0.16223075  0.73050790  1
  O2-  O285  1  0.79363638  0.66745709  0.07003522  1
  O2-  O286  1  0.80117756  0.67461585  0.39844701  1
  O2-  O287  1  0.79724815  0.66849767  0.72725691  1
