# generated using pymatgen
data_Ca2Al2SiO7
_symmetry_space_group_name_H-M   'P 1'
_cell_length_a   15.46937993
_cell_length_b   15.46815493
_cell_length_c   15.29165233
_cell_angle_alpha   90.00060645
_cell_angle_beta   90.01381227
_cell_angle_gamma   89.99164455
_symmetry_Int_Tables_number   1
_chemical_formula_structural   Ca2Al2SiO7
_chemical_formula_sum   'Ca48 Al48 Si24 O168'
_cell_volume   3659.02871172
_cell_formula_units_Z   24
loop_
 _symmetry_equiv_pos_site_id
 _symmetry_equiv_pos_as_xyz
  1  'x, y, z'
loop_
 _atom_type_symbol
 _atom_type_oxidation_number
  Ca2+  2.0
  Al0+  0.0
  Si0+  0.0
  O2-  -2.0
loop_
 _atom_site_type_symbol
 _atom_site_label
 _atom_site_symmetry_multiplicity
 _atom_site_fract_x
 _atom_site_fract_y
 _atom_site_fract_z
 _atom_site_occupancy
  Ca2+  Ca0  1  0.16595092  0.07747078  0.17973293  1
  Ca2+  Ca1  1  0.15999976  0.07699641  0.49840110  1
  Ca2+  Ca2  1  0.16760366  0.07864503  0.83599155  1
  Ca2+  Ca3  1  0.15545058  0.57650229  0.17103451  1
  Ca2+  Ca4  1  0.15601359  0.57817890  0.50388751  1
  Ca2+  Ca5  1  0.15398512  0.57525491  0.83542829  1
  Ca2+  Ca6  1  0.67024353  0.07346655  0.17471518  1
  Ca2+  Ca7  1  0.67155377  0.07751965  0.50654717  1
  Ca2+  Ca8  1  0.67192484  0.08564527  0.82847507  1
  Ca2+  Ca9  1  0.67536230  0.58595376  0.17735567  1
  Ca2+  Ca10  1  0.67665568  0.58188882  0.50387867  1
  Ca2+  Ca11  1  0.67970263  0.58646387  0.83819129  1
  Ca2+  Ca12  1  0.08178170  0.33562139  0.16217482  1
  Ca2+  Ca13  1  0.07903773  0.33472105  0.49545458  1
  Ca2+  Ca14  1  0.07273409  0.34245039  0.82948241  1
  Ca2+  Ca15  1  0.08105250  0.82330477  0.16859021  1
  Ca2+  Ca16  1  0.07246015  0.82272349  0.49142065  1
  Ca2+  Ca17  1  0.07855576  0.81795273  0.82343552  1
  Ca2+  Ca18  1  0.58457232  0.33800872  0.16475907  1
  Ca2+  Ca19  1  0.59725659  0.33127351  0.49764089  1
  Ca2+  Ca20  1  0.58825389  0.32834447  0.82138377  1
  Ca2+  Ca21  1  0.59218149  0.81872705  0.17053386  1
  Ca2+  Ca22  1  0.57487088  0.83255783  0.48986924  1
  Ca2+  Ca23  1  0.57835095  0.82642032  0.82913272  1
  Ca2+  Ca24  1  0.32131578  0.42055812  0.17342999  1
  Ca2+  Ca25  1  0.31958216  0.41836411  0.50294745  1
  Ca2+  Ca26  1  0.31927022  0.41758556  0.83620907  1
  Ca2+  Ca27  1  0.32787224  0.91489198  0.17667849  1
  Ca2+  Ca28  1  0.32882431  0.90465353  0.50109373  1
  Ca2+  Ca29  1  0.33642800  0.91367067  0.83277979  1
  Ca2+  Ca30  1  0.83315098  0.42933087  0.17139665  1
  Ca2+  Ca31  1  0.83122389  0.42998610  0.50604327  1
  Ca2+  Ca32  1  0.83874060  0.42655415  0.83360694  1
  Ca2+  Ca33  1  0.83055214  0.91506706  0.17828246  1
  Ca2+  Ca34  1  0.83475975  0.91562013  0.50496689  1
  Ca2+  Ca35  1  0.84436838  0.92384040  0.83099169  1
  Ca2+  Ca36  1  0.41748751  0.16897275  0.16617254  1
  Ca2+  Ca37  1  0.42331229  0.16920595  0.49924896  1
  Ca2+  Ca38  1  0.42542109  0.16961796  0.82524486  1
  Ca2+  Ca39  1  0.42903519  0.66662295  0.16783285  1
  Ca2+  Ca40  1  0.42341920  0.67440440  0.49300633  1
  Ca2+  Ca41  1  0.42495904  0.66691763  0.82847972  1
  Ca2+  Ca42  1  0.92367055  0.17512268  0.16471693  1
  Ca2+  Ca43  1  0.91456056  0.17423076  0.49744423  1
  Ca2+  Ca44  1  0.91069360  0.18090634  0.82488120  1
  Ca2+  Ca45  1  0.92131804  0.66105922  0.16636142  1
  Ca2+  Ca46  1  0.91975293  0.66578020  0.49580906  1
  Ca2+  Ca47  1  0.92308312  0.66155978  0.82800102  1
  Al0+  Al48  1  0.00162575  0.00170211  0.00250352  1
  Al0+  Al49  1  0.00242084  0.00223238  0.32968669  1
  Al0+  Al50  1  0.00120462  -0.00081846  0.67149213  1
  Al0+  Al51  1  -0.00213842  0.49943489  0.00169113  1
  Al0+  Al52  1  -0.00240130  0.49929177  0.33762529  1
  Al0+  Al53  1  -0.00167227  0.49714468  0.66574174  1
  Al0+  Al54  1  0.50026133  0.00132285  0.00137715  1
  Al0+  Al55  1  0.49999246  0.00314901  0.33255409  1
  Al0+  Al56  1  0.49962962  0.00149863  0.66036771  1
  Al0+  Al57  1  0.49834079  0.50005201  -0.00652163  1
  Al0+  Al58  1  0.49790062  0.49791932  0.33336916  1
  Al0+  Al59  1  0.49637072  0.49808257  0.66925002  1
  Al0+  Al60  1  0.25132510  0.24863780  0.00301113  1
  Al0+  Al61  1  0.25090920  0.24978117  0.33397792  1
  Al0+  Al62  1  0.25166568  0.24834361  0.67237663  1
  Al0+  Al63  1  0.25065732  0.74988412  -0.00309125  1
  Al0+  Al64  1  0.24970479  0.74993637  0.32928714  1
  Al0+  Al65  1  0.25080446  0.74762939  0.66192627  1
  Al0+  Al66  1  0.75022287  0.24874877  -0.00208278  1
  Al0+  Al67  1  0.75057482  0.24932705  0.33048999  1
  Al0+  Al68  1  0.75078892  0.24693384  0.66369556  1
  Al0+  Al69  1  0.74986496  0.75207293  -0.00202765  1
  Al0+  Al70  1  0.74907734  0.75228733  0.33739265  1
  Al0+  Al71  1  0.74884802  0.75054178  0.67061281  1
  Al0+  Al72  1  0.06857189  0.67702808  0.65104329  1
  Al0+  Al73  1  0.43082512  0.82026625  0.65316783  1
  Al0+  Al74  1  0.67645366  0.42757088  0.34582966  1
  Al0+  Al75  1  0.82206484  0.06860678  0.67947294  1
  Al0+  Al76  1  0.93047947  0.31887135  0.98645331  1
  Al0+  Al77  1  0.92790552  0.82247676  0.31907375  1
  Al0+  Al78  1  0.67893088  0.93009356  0.34699332  1
  Al0+  Al79  1  0.42821367  0.82327519  0.31670088  1
  Al0+  Al80  1  0.17984343  0.43113042  0.01457698  1
  Al0+  Al81  1  0.17936893  0.42838482  0.68098669  1
  Al0+  Al82  1  0.07204495  0.18138019  0.32105359  1
  Al0+  Al83  1  0.81999374  0.57247525  0.34914399  1
  Al0+  Al84  1  0.06972543  0.68005751  0.98631549  1
  Al0+  Al85  1  0.06914061  0.67639586  0.31752992  1
  Al0+  Al86  1  0.81893528  0.57161377  0.01505298  1
  Al0+  Al87  1  0.92789051  0.82375751  0.65302005  1
  Al0+  Al88  1  0.57092610  0.67751826  0.32139860  1
  Al0+  Al89  1  0.17975862  0.92809041  0.34743362  1
  Al0+  Al90  1  0.81996739  0.57249022  0.68423260  1
  Al0+  Al91  1  0.67841405  0.42787899  0.68132516  1
  Al0+  Al92  1  0.57279273  0.67865826  0.98525600  1
  Al0+  Al93  1  0.92994600  0.31874981  0.65151134  1
  Al0+  Al94  1  0.57094046  0.18180514  0.65128881  1
  Al0+  Al95  1  0.17896949  0.42937998  0.34695947  1
  Si0+  Si96  1  0.32264022  0.06959885  0.68255062  1
  Si0+  Si97  1  0.17949161  0.92815388  0.01491490  1
  Si0+  Si98  1  0.57230264  0.18027587  0.31593577  1
  Si0+  Si99  1  0.67454947  0.92921657  0.68393169  1
  Si0+  Si100  1  0.82179136  0.07310638  0.01600603  1
  Si0+  Si101  1  0.18064900  0.92706583  0.68214599  1
  Si0+  Si102  1  0.67865643  0.93196149  0.01431482  1
  Si0+  Si103  1  0.32256273  0.57207158  0.34948287  1
  Si0+  Si104  1  0.42918396  0.82311957  0.98415703  1
  Si0+  Si105  1  0.56943797  0.17914162  0.98495693  1
  Si0+  Si106  1  0.82326086  0.07185158  0.34835764  1
  Si0+  Si107  1  0.92764529  0.82579818  0.98374439  1
  Si0+  Si108  1  0.32474588  0.57335705  0.01704413  1
  Si0+  Si109  1  0.92713943  0.32148235  0.31544117  1
  Si0+  Si110  1  0.42700082  0.32052950  0.98432692  1
  Si0+  Si111  1  0.32233443  0.07309751  0.35208632  1
  Si0+  Si112  1  0.07551359  0.17673341  0.65269805  1
  Si0+  Si113  1  0.57201966  0.67541401  0.65114970  1
  Si0+  Si114  1  0.67602521  0.42644053  0.01393606  1
  Si0+  Si115  1  0.42549436  0.32176366  0.64980380  1
  Si0+  Si116  1  0.07456745  0.17671995  0.98258382  1
  Si0+  Si117  1  0.42767961  0.31995847  0.31761974  1
  Si0+  Si118  1  0.32214360  0.06958981  0.01580562  1
  Si0+  Si119  1  0.32117394  0.57366150  0.68446806  1
  O2-  O120  1  0.25001918  0.00024748  0.05714173  1
  O2-  O121  1  0.25759547  0.00035362  0.39500065  1
  O2-  O122  1  0.25209319  -0.00165653  0.72526535  1
  O2-  O123  1  0.25364535  0.50709214  0.06117630  1
  O2-  O124  1  0.24869108  0.50866329  0.39337459  1
  O2-  O125  1  0.25113272  0.50597870  0.72821608  1
  O2-  O126  1  0.75472222  -0.00194032  0.05680671  1
  O2-  O127  1  0.75732767  0.00106854  0.39254586  1
  O2-  O128  1  0.74962044  -0.00850025  0.72827914  1
  O2-  O129  1  0.74033328  0.49823622  0.05843706  1
  O2-  O130  1  0.74535315  0.50108092  0.39601275  1
  O2-  O131  1  0.74559927  0.50195382  0.73434450  1
  O2-  O132  1  0.00004251  0.25660722  0.27190761  1
  O2-  O133  1  0.00759162  0.24501485  0.60814389  1
  O2-  O134  1  0.00626158  0.24467806  0.93844913  1
  O2-  O135  1  -0.00319460  0.74847222  0.26742258  1
  O2-  O136  1  -0.00461366  0.74849322  0.60294588  1
  O2-  O137  1  -0.00434942  0.75620369  0.94087094  1
  O2-  O138  1  0.50350099  0.25379349  0.27424023  1
  O2-  O139  1  0.50074464  0.26101255  0.60486798  1
  O2-  O140  1  0.50307831  0.25439305  0.94271935  1
  O2-  O141  1  0.50123241  0.75152032  0.26868116  1
  O2-  O142  1  0.50627738  0.74698290  0.60749802  1
  O2-  O143  1  0.49541121  0.75236241  0.94030531  1
  O2-  O144  1  0.07459930  0.17476912  0.08800296  1
  O2-  O145  1  0.07107886  0.18183381  0.43401980  1
  O2-  O146  1  0.07624096  0.17648691  0.75866142  1
  O2-  O147  1  0.07025150  0.68151754  0.09882577  1
  O2-  O148  1  0.06905711  0.67675994  0.43051865  1
  O2-  O149  1  0.06968734  0.67908288  0.76529459  1
  O2-  O150  1  0.56739955  0.17704994  0.09004560  1
  O2-  O151  1  0.57172987  0.17928116  0.42051659  1
  O2-  O152  1  0.56690500  0.17956735  0.76525528  1
  O2-  O153  1  0.57293923  0.67942598  0.09788015  1
  O2-  O154  1  0.56766513  0.67771773  0.43466209  1
  O2-  O155  1  0.56885406  0.67726995  0.75734549  1
  O2-  O156  1  0.18234895  0.42774981  0.23356912  1
  O2-  O157  1  0.18278716  0.42508733  0.56816175  1
  O2-  O158  1  0.18184484  0.42999735  0.90158842  1
  O2-  O159  1  0.18134131  0.93206797  0.23361659  1
  O2-  O160  1  0.18088961  0.92904406  0.57759580  1
  O2-  O161  1  0.18083589  0.93031579  0.90956557  1
  O2-  O162  1  0.67880223  0.42659282  0.23154924  1
  O2-  O163  1  0.68130064  0.42964027  0.56823071  1
  O2-  O164  1  0.67740168  0.42340985  0.90882674  1
  O2-  O165  1  0.67867601  0.93403211  0.23291608  1
  O2-  O166  1  0.67045665  0.93400500  0.57889487  1
  O2-  O167  1  0.67343880  0.93604578  0.90962290  1
  O2-  O168  1  0.42566106  0.31749789  0.08945467  1
  O2-  O169  1  0.42335203  0.31581191  0.42213631  1
  O2-  O170  1  0.42288957  0.31572073  0.75571653  1
  O2-  O171  1  0.42971060  0.82690902  0.08883427  1
  O2-  O172  1  0.43031623  0.82180457  0.43025866  1
  O2-  O173  1  0.43271918  0.82085796  0.76708966  1
  O2-  O174  1  0.93127909  0.31557165  0.09942504  1
  O2-  O175  1  0.92498505  0.31820870  0.42067533  1
  O2-  O176  1  0.93112136  0.31855388  0.76506591  1
  O2-  O177  1  0.92807613  0.82982596  0.08883305  1
  O2-  O178  1  0.93088704  0.82501415  0.43198475  1
  O2-  O179  1  0.93571942  0.82776854  0.76698230  1
  O2-  O180  1  0.32095351  0.07573511  0.24581696  1
  O2-  O181  1  0.32305432  0.07246954  0.57824058  1
  O2-  O182  1  0.32463369  0.06916163  0.91067512  1
  O2-  O183  1  0.32703369  0.56685596  0.24381231  1
  O2-  O184  1  0.32333663  0.57303395  0.57922577  1
  O2-  O185  1  0.32740573  0.57103366  0.91157101  1
  O2-  O186  1  0.81919851  0.07376092  0.24196734  1
  O2-  O187  1  0.82023090  0.06923111  0.56677125  1
  O2-  O188  1  0.82022661  0.07443381  0.91111839  1
  O2-  O189  1  0.82066249  0.56957820  0.23494136  1
  O2-  O190  1  0.82013246  0.57241326  0.57135378  1
  O2-  O191  1  0.82017948  0.57060770  0.90242109  1
  O2-  O192  1  0.04127531  0.08691708  0.26270973  1
  O2-  O193  1  0.05039529  0.08245010  0.60910023  1
  O2-  O194  1  0.04963276  0.08239780  0.93701686  1
  O2-  O195  1  0.03891311  0.57731821  0.26575614  1
  O2-  O196  1  0.04202438  0.57838372  0.60013204  1
  O2-  O197  1  0.03666322  0.58362436  0.93429169  1
  O2-  O198  1  0.54022349  0.09097888  0.26574971  1
  O2-  O199  1  0.53404653  0.08832932  0.59600426  1
  O2-  O200  1  0.53553511  0.08972028  0.93631779  1
  O2-  O201  1  0.54047656  0.57948387  0.26704913  1
  O2-  O202  1  0.54276011  0.58241287  0.60692058  1
  O2-  O203  1  0.54266356  0.58233152  0.92971593  1
  O2-  O204  1  0.16960070  0.20895349  0.26615385  1
  O2-  O205  1  0.17011137  0.20030619  0.60825490  1
  O2-  O206  1  0.16997318  0.19956052  0.93858496  1
  O2-  O207  1  0.16830571  0.70323500  0.26529213  1
  O2-  O208  1  0.16775061  0.70464848  0.60028517  1
  O2-  O209  1  0.16777212  0.70845727  0.93239883  1
  O2-  O210  1  0.66407150  0.20452756  0.26597994  1
  O2-  O211  1  0.66738555  0.20604403  0.59587318  1
  O2-  O212  1  0.66255430  0.20186316  0.93820118  1
  O2-  O213  1  0.66832146  0.70861491  0.26813624  1
  O2-  O214  1  0.66702123  0.69789419  0.60909186  1
  O2-  O215  1  0.66667759  0.71483815  0.92919879  1
  O2-  O216  1  0.08329192  0.46034705  0.06800894  1
  O2-  O217  1  0.08118695  0.45341905  0.39986051  1
  O2-  O218  1  0.08263529  0.45801766  0.73424539  1
  O2-  O219  1  0.08790685  0.95606990  0.06267430  1
  O2-  O220  1  0.08508189  0.96564314  0.40045175  1
  O2-  O221  1  0.09131513  0.95628618  0.73342281  1
  O2-  O222  1  0.57902589  0.44686487  0.05571491  1
  O2-  O223  1  0.57493054  0.44557600  0.39645773  1
  O2-  O224  1  0.57519388  0.44646869  0.73057191  1
  O2-  O225  1  0.58953610  0.96626962  0.06368326  1
  O2-  O226  1  0.58355260  0.96689996  0.39968501  1
  O2-  O227  1  0.58394719  0.96444346  0.73163676  1
  O2-  O228  1  0.21215467  0.33303866  0.06645752  1
  O2-  O229  1  0.21622152  0.33462224  0.40026285  1
  O2-  O230  1  0.21367661  0.33289103  0.73701029  1
  O2-  O231  1  0.20834352  0.83660580  0.06142710  1
  O2-  O232  1  0.20902513  0.83082942  0.40031318  1
  O2-  O233  1  0.21136486  0.83582235  0.72937312  1
  O2-  O234  1  0.70233352  0.33226134  0.06006393  1
  O2-  O235  1  0.70619330  0.32792848  0.39568574  1
  O2-  O236  1  0.70728958  0.32798032  0.73110483  1
  O2-  O237  1  0.70315604  0.83909824  0.06006232  1
  O2-  O238  1  0.70193225  0.83387781  0.40296565  1
  O2-  O239  1  0.69154839  0.83367775  0.72880384  1
  O2-  O240  1  0.45004395  0.41207136  0.26870860  1
  O2-  O241  1  0.44001316  0.41837665  0.60736114  1
  O2-  O242  1  0.44683338  0.41329683  0.93624496  1
  O2-  O243  1  0.45293699  0.92448262  0.26681049  1
  O2-  O244  1  0.45747411  0.91717925  0.59893973  1
  O2-  O245  1  0.45835015  0.91648485  0.93726619  1
  O2-  O246  1  0.95138719  0.41551393  0.27144541  1
  O2-  O247  1  0.96036523  0.41387349  0.59678166  1
  O2-  O248  1  0.96195990  0.41485456  0.93299717  1
  O2-  O249  1  0.95812712  0.92052980  0.26474027  1
  O2-  O250  1  0.95947536  0.92190355  0.60147427  1
  O2-  O251  1  0.95541259  0.92010152  0.93849767  1
  O2-  O252  1  0.33969145  0.28539223  0.26633273  1
  O2-  O253  1  0.33562975  0.28571840  0.60263635  1
  O2-  O254  1  0.33796553  0.28539256  0.93547217  1
  O2-  O255  1  0.33081304  0.79472286  0.26266286  1
  O2-  O256  1  0.33488280  0.78963063  0.59905574  1
  O2-  O257  1  0.33512972  0.80106425  0.93717617  1
  O2-  O258  1  0.83625829  0.29043270  0.26597109  1
  O2-  O259  1  0.83630587  0.28256197  0.59715729  1
  O2-  O260  1  0.83421140  0.28523446  0.93259464  1
  O2-  O261  1  0.82701668  0.80029106  0.26895186  1
  O2-  O262  1  0.82449456  0.80504970  0.60779942  1
  O2-  O263  1  0.83317189  0.80472260  0.93826117  1
  O2-  O264  1  0.41341016  0.04192280  0.06530144  1
  O2-  O265  1  0.41782105  0.05354431  0.39578080  1
  O2-  O266  1  0.41385401  0.04017789  0.73128618  1
  O2-  O267  1  0.41734030  0.54330012  0.06360794  1
  O2-  O268  1  0.41257348  0.54004082  0.39896012  1
  O2-  O269  1  0.41331155  0.54581468  0.73357409  1
  O2-  O270  1  0.91594248  0.05064414  0.06192690  1
  O2-  O271  1  0.91819092  0.05194904  0.39191328  1
  O2-  O272  1  0.91868122  0.04240333  0.73823307  1
  O2-  O273  1  0.91329315  0.53577356  0.06960299  1
  O2-  O274  1  0.91591789  0.53986808  0.40376204  1
  O2-  O275  1  0.91736515  0.53758683  0.73562224  1
  O2-  O276  1  0.29695400  0.16162428  0.06421793  1
  O2-  O277  1  0.29283327  0.16445224  0.39981648  1
  O2-  O278  1  0.29545947  0.15977599  0.73449712  1
  O2-  O279  1  0.30316932  0.66913428  0.05981875  1
  O2-  O280  1  0.30296056  0.66795495  0.39163481  1
  O2-  O281  1  0.29799297  0.66773659  0.73125563  1
  O2-  O282  1  0.78865578  0.16226742  0.06542845  1
  O2-  O283  1  0.79308549  0.16410641  0.39374250  1
  O2-  O284  1  0.78511718  0.16246021  0.73536718  1
  O2-  O285  1  0.79108755  0.67088736  0.06544971  1
  O2-  O286  1  0.79428836  0.67076592  0.40170027  1
  O2-  O287  1  0.79488729  0.67215960  0.73868171  1
