# generated using pymatgen
data_Ca2Al2SiO7
_symmetry_space_group_name_H-M   'P 1'
_cell_length_a   15.45310440
_cell_length_b   15.45312014
_cell_length_c   15.27922548
_cell_angle_alpha   89.99540595
_cell_angle_beta   90.00684345
_cell_angle_gamma   90.00622518
_symmetry_Int_Tables_number   1
_chemical_formula_structural   Ca2Al2SiO7
_chemical_formula_sum   'Ca48 Al48 Si24 O168'
_cell_volume   3648.65879685
_cell_formula_units_Z   24
loop_
 _symmetry_equiv_pos_site_id
 _symmetry_equiv_pos_as_xyz
  1  'x, y, z'
loop_
 _atom_type_symbol
 _atom_type_oxidation_number
  Ca2+  2.0
  Al0+  0.0
  Si0+  0.0
  O2-  -2.0
loop_
 _atom_site_type_symbol
 _atom_site_label
 _atom_site_symmetry_multiplicity
 _atom_site_fract_x
 _atom_site_fract_y
 _atom_site_fract_z
 _atom_site_occupancy
  Ca2+  Ca0  1  0.17566460  0.08514079  0.17263558  1
  Ca2+  Ca1  1  0.16703175  0.07441434  0.50270853  1
  Ca2+  Ca2  1  0.16676731  0.07787721  0.84032658  1
  Ca2+  Ca3  1  0.17236855  0.58826455  0.17150506  1
  Ca2+  Ca4  1  0.17899187  0.58251496  0.51027398  1
  Ca2+  Ca5  1  0.16594142  0.57974628  0.83481151  1
  Ca2+  Ca6  1  0.65963993  0.06909437  0.16950752  1
  Ca2+  Ca7  1  0.67150147  0.07685937  0.50590977  1
  Ca2+  Ca8  1  0.67079564  0.08466130  0.84007128  1
  Ca2+  Ca9  1  0.65806267  0.57394955  0.17191307  1
  Ca2+  Ca10  1  0.66673216  0.57986503  0.50434010  1
  Ca2+  Ca11  1  0.67215772  0.58637912  0.83791559  1
  Ca2+  Ca12  1  0.07632405  0.32954748  0.16067132  1
  Ca2+  Ca13  1  0.07139715  0.34251069  0.49791152  1
  Ca2+  Ca14  1  0.08190263  0.32707387  0.82469913  1
  Ca2+  Ca15  1  0.08115845  0.83397083  0.16559396  1
  Ca2+  Ca16  1  0.07501983  0.84290381  0.49599501  1
  Ca2+  Ca17  1  0.08059344  0.82958930  0.82571796  1
  Ca2+  Ca18  1  0.58498902  0.32995768  0.15979591  1
  Ca2+  Ca19  1  0.59010961  0.32596445  0.49656691  1
  Ca2+  Ca20  1  0.58978335  0.32332068  0.83040021  1
  Ca2+  Ca21  1  0.59032989  0.82384445  0.16180218  1
  Ca2+  Ca22  1  0.58865104  0.81867771  0.49315321  1
  Ca2+  Ca23  1  0.58611068  0.82618257  0.82947712  1
  Ca2+  Ca24  1  0.33222642  0.42351767  0.17463841  1
  Ca2+  Ca25  1  0.32869936  0.42792439  0.50607558  1
  Ca2+  Ca26  1  0.33221996  0.42017726  0.83003251  1
  Ca2+  Ca27  1  0.32963808  0.92980930  0.17573187  1
  Ca2+  Ca28  1  0.32142481  0.91724074  0.50237915  1
  Ca2+  Ca29  1  0.32892922  0.92028634  0.83687385  1
  Ca2+  Ca30  1  0.82174540  0.41444150  0.17190527  1
  Ca2+  Ca31  1  0.83336951  0.42006255  0.50618760  1
  Ca2+  Ca32  1  0.83114999  0.42078745  0.83411599  1
  Ca2+  Ca33  1  0.82393030  0.91273547  0.17165040  1
  Ca2+  Ca34  1  0.83302129  0.91642319  0.50655305  1
  Ca2+  Ca35  1  0.83011757  0.92008812  0.83307305  1
  Ca2+  Ca36  1  0.41783069  0.16285434  0.15785838  1
  Ca2+  Ca37  1  0.42015546  0.16463226  0.49778079  1
  Ca2+  Ca38  1  0.42833568  0.15996051  0.83125010  1
  Ca2+  Ca39  1  0.42525186  0.66549963  0.16455400  1
  Ca2+  Ca40  1  0.42354660  0.65862097  0.49523069  1
  Ca2+  Ca41  1  0.42914583  0.66230456  0.82697510  1
  Ca2+  Ca42  1  0.92156699  0.17150381  0.16413081  1
  Ca2+  Ca43  1  0.91121874  0.17726783  0.49740626  1
  Ca2+  Ca44  1  0.91747916  0.17147713  0.82457190  1
  Ca2+  Ca45  1  0.92175883  0.67439356  0.16362606  1
  Ca2+  Ca46  1  0.91124263  0.67826041  0.49708868  1
  Ca2+  Ca47  1  0.91804934  0.67172009  0.82514548  1
  Al0+  Al48  1  -0.00081120  0.00136637  -0.00267999  1
  Al0+  Al49  1  -0.00068430  0.00206750  0.32910539  1
  Al0+  Al50  1  -0.00082388  0.00030836  0.67237846  1
  Al0+  Al51  1  0.00003336  0.50222788  -0.00186692  1
  Al0+  Al52  1  -0.00209163  0.50075329  0.32533943  1
  Al0+  Al53  1  -0.00033303  0.49994436  0.67079129  1
  Al0+  Al54  1  0.49915475  0.00013970  0.00368229  1
  Al0+  Al55  1  0.50092022  -0.00225979  0.34320716  1
  Al0+  Al56  1  0.49957072  -0.00282282  0.66017313  1
  Al0+  Al57  1  0.49987137  0.50075266  -0.00100074  1
  Al0+  Al58  1  0.50038847  0.49645126  0.33789566  1
  Al0+  Al59  1  0.49967432  0.49699175  0.66717915  1
  Al0+  Al60  1  0.24823722  0.25150765  -0.00072094  1
  Al0+  Al61  1  0.25088833  0.25127493  0.33835277  1
  Al0+  Al62  1  0.25217645  0.24910599  0.66863481  1
  Al0+  Al63  1  0.24891414  0.75004053  -0.00335598  1
  Al0+  Al64  1  0.25175151  0.75143070  0.34110131  1
  Al0+  Al65  1  0.25215522  0.75074149  0.67660833  1
  Al0+  Al66  1  0.74959635  0.25160351  0.00121468  1
  Al0+  Al67  1  0.74891886  0.24964663  0.32970118  1
  Al0+  Al68  1  0.75157914  0.24784687  0.66166548  1
  Al0+  Al69  1  0.75132115  0.75061476  -0.00005450  1
  Al0+  Al70  1  0.75058004  0.74793323  0.32614076  1
  Al0+  Al71  1  0.75001552  0.74835453  0.66267709  1
  Al0+  Al72  1  0.57193485  0.17778989  0.65191817  1
  Al0+  Al73  1  0.93117733  0.32167754  0.65333570  1
  Al0+  Al74  1  0.57019296  0.67820166  0.65253254  1
  Al0+  Al75  1  0.57078529  0.67869674  0.98605118  1
  Al0+  Al76  1  0.67971760  0.42754101  0.34762556  1
  Al0+  Al77  1  0.67934827  0.43035230  0.01265605  1
  Al0+  Al78  1  0.32347503  0.57122291  0.68507698  1
  Al0+  Al79  1  0.17803645  0.93098965  0.68293692  1
  Al0+  Al80  1  0.67998448  0.92949821  0.01229727  1
  Al0+  Al81  1  0.81902973  0.07146768  0.67953493  1
  Al0+  Al82  1  0.56939182  0.17850877  0.98857795  1
  Al0+  Al83  1  0.56917640  0.67697311  0.31868292  1
  Al0+  Al84  1  0.31902912  0.07095477  0.01193302  1
  Al0+  Al85  1  0.68095680  0.92512775  0.34794917  1
  Al0+  Al86  1  0.07142818  0.18034585  0.98621572  1
  Al0+  Al87  1  0.17725351  0.93033194  0.34753123  1
  Al0+  Al88  1  0.93107059  0.82105575  0.65361945  1
  Al0+  Al89  1  0.92727563  0.32296075  0.31737349  1
  Al0+  Al90  1  0.81937943  0.57238402  0.67881327  1
  Al0+  Al91  1  0.92943306  0.82311182  0.31870060  1
  Al0+  Al92  1  0.17793788  0.42878777  0.68179007  1
  Al0+  Al93  1  0.32050782  0.57041352  0.34538901  1
  Al0+  Al94  1  0.07187922  0.67984826  0.98548066  1
  Al0+  Al95  1  0.32249098  0.07400942  0.35103126  1
  Si0+  Si96  1  0.92739968  0.32187042  0.98225797  1
  Si0+  Si97  1  0.42622533  0.82124897  0.64854083  1
  Si0+  Si98  1  0.82296264  0.07380076  0.01777983  1
  Si0+  Si99  1  0.42663878  0.32351362  0.98350735  1
  Si0+  Si100  1  0.67938007  0.42622225  0.68253022  1
  Si0+  Si101  1  0.42825119  0.82231908  0.98476481  1
  Si0+  Si102  1  0.56971334  0.17672651  0.31772123  1
  Si0+  Si103  1  0.32048153  0.57123272  0.01549224  1
  Si0+  Si104  1  0.17540508  0.42898230  0.34783576  1
  Si0+  Si105  1  0.67787603  0.92700293  0.68174891  1
  Si0+  Si106  1  0.42759883  0.32021990  0.64815359  1
  Si0+  Si107  1  0.42739161  0.82200427  0.31756566  1
  Si0+  Si108  1  0.92781232  0.82243400  0.98152991  1
  Si0+  Si109  1  0.17772895  0.42991818  0.01606094  1
  Si0+  Si110  1  0.07341516  0.67832815  0.65108872  1
  Si0+  Si111  1  0.82284390  0.57053631  0.34804318  1
  Si0+  Si112  1  0.32404375  0.07140834  0.68464569  1
  Si0+  Si113  1  0.17653511  0.92705642  0.01702819  1
  Si0+  Si114  1  0.07258772  0.18030133  0.31731070  1
  Si0+  Si115  1  0.07374837  0.17764351  0.64999891  1
  Si0+  Si116  1  0.82338777  0.57291519  0.01826392  1
  Si0+  Si117  1  0.42906742  0.31920623  0.31940084  1
  Si0+  Si118  1  0.82074377  0.07139482  0.34791189  1
  Si0+  Si119  1  0.07449489  0.67942644  0.31910359  1
  O2-  O120  1  0.24342153  -0.00221658  0.06010070  1
  O2-  O121  1  0.24910062  0.00225117  0.39837048  1
  O2-  O122  1  0.25288192  0.00597356  0.72938742  1
  O2-  O123  1  0.24869169  0.50101735  0.05849793  1
  O2-  O124  1  0.24038113  0.50111507  0.39108921  1
  O2-  O125  1  0.24860641  0.50125447  0.73416669  1
  O2-  O126  1  0.75384713  0.00493822  0.06072096  1
  O2-  O127  1  0.75656492  -0.00077873  0.39331619  1
  O2-  O128  1  0.74227581  -0.00096629  0.72684738  1
  O2-  O129  1  0.75275545  0.50564504  0.06140063  1
  O2-  O130  1  0.75536692  0.50123981  0.39299066  1
  O2-  O131  1  0.74417566  0.49841831  0.72662860  1
  O2-  O132  1  0.00510175  0.25037731  0.27267690  1
  O2-  O133  1  0.00858178  0.24962159  0.60549905  1
  O2-  O134  1  -0.00454362  0.25276030  0.93839654  1
  O2-  O135  1  0.00714331  0.74962577  0.27448441  1
  O2-  O136  1  0.00659303  0.74758169  0.60533223  1
  O2-  O137  1  -0.00166061  0.75513115  0.93862735  1
  O2-  O138  1  0.49513671  0.24438206  0.27592106  1
  O2-  O139  1  0.49693390  0.25190513  0.60411276  1
  O2-  O140  1  0.49551048  0.25391328  0.94082943  1
  O2-  O141  1  0.49611017  0.75383813  0.27200957  1
  O2-  O142  1  0.49382967  0.75095433  0.60523802  1
  O2-  O143  1  0.49699341  0.75409896  0.93951712  1
  O2-  O144  1  0.07184471  0.18406167  0.09964940  1
  O2-  O145  1  0.07171944  0.17963440  0.42266491  1
  O2-  O146  1  0.07162237  0.17860966  0.75592198  1
  O2-  O147  1  0.07285954  0.68122305  0.09907610  1
  O2-  O148  1  0.07338607  0.67623671  0.42419333  1
  O2-  O149  1  0.07023599  0.67980882  0.75697770  1
  O2-  O150  1  0.56675440  0.17838386  0.10184103  1
  O2-  O151  1  0.57144357  0.17956143  0.42279624  1
  O2-  O152  1  0.57121166  0.17900707  0.76547086  1
  O2-  O153  1  0.56690258  0.67687951  0.09918780  1
  O2-  O154  1  0.56817366  0.67649535  0.43171213  1
  O2-  O155  1  0.57120832  0.68173443  0.76598516  1
  O2-  O156  1  0.17829151  0.42726791  0.24171103  1
  O2-  O157  1  0.17864233  0.43194124  0.56776711  1
  O2-  O158  1  0.17761680  0.42972692  0.91146786  1
  O2-  O159  1  0.17934762  0.93128962  0.23353489  1
  O2-  O160  1  0.17774785  0.93314290  0.56998038  1
  O2-  O161  1  0.17799561  0.92748735  0.91145981  1
  O2-  O162  1  0.67883184  0.42787109  0.23425468  1
  O2-  O163  1  0.68158756  0.42605283  0.57670613  1
  O2-  O164  1  0.68189863  0.42883537  0.89970642  1
  O2-  O165  1  0.68087512  0.92733624  0.23444497  1
  O2-  O166  1  0.68156489  0.92703688  0.57608999  1
  O2-  O167  1  0.68134119  0.92996970  0.89914273  1
  O2-  O168  1  0.42618858  0.32443650  0.08957663  1
  O2-  O169  1  0.43062124  0.32000909  0.42414459  1
  O2-  O170  1  0.42766699  0.31998726  0.75390412  1
  O2-  O171  1  0.42679976  0.82020075  0.09037119  1
  O2-  O172  1  0.42724803  0.82014783  0.42291835  1
  O2-  O173  1  0.42897214  0.82458937  0.75446029  1
  O2-  O174  1  0.92881813  0.32113490  0.08819648  1
  O2-  O175  1  0.92807843  0.32275042  0.43042793  1
  O2-  O176  1  0.92997078  0.31877337  0.76649339  1
  O2-  O177  1  0.92801301  0.82151712  0.08737743  1
  O2-  O178  1  0.92922288  0.82185876  0.43181015  1
  O2-  O179  1  0.93077811  0.81919637  0.76677334  1
  O2-  O180  1  0.32140493  0.07435237  0.23691116  1
  O2-  O181  1  0.32331937  0.07045986  0.57922275  1
  O2-  O182  1  0.31989380  0.06769902  0.89903093  1
  O2-  O183  1  0.31983125  0.56759753  0.23151371  1
  O2-  O184  1  0.32269533  0.56884164  0.57126554  1
  O2-  O185  1  0.32119994  0.56887555  0.91098109  1
  O2-  O186  1  0.81866970  0.07224416  0.24204237  1
  O2-  O187  1  0.81856030  0.07157390  0.56629879  1
  O2-  O188  1  0.82216888  0.07445467  0.91213970  1
  O2-  O189  1  0.82353778  0.56913001  0.24224009  1
  O2-  O190  1  0.81835065  0.57244490  0.56564883  1
  O2-  O191  1  0.82325371  0.57253153  0.91251436  1
  O2-  O192  1  0.04568061  0.08867726  0.26772905  1
  O2-  O193  1  0.04334383  0.08520669  0.60569108  1
  O2-  O194  1  0.04349231  0.08263063  0.93274738  1
  O2-  O195  1  0.04799579  0.58737808  0.26881818  1
  O2-  O196  1  0.04861612  0.58426720  0.60698958  1
  O2-  O197  1  0.04142261  0.58307591  0.93126713  1
  O2-  O198  1  0.54384198  0.08236098  0.27433014  1
  O2-  O199  1  0.54262649  0.08086442  0.59716620  1
  O2-  O200  1  0.53791499  0.08240347  0.93391039  1
  O2-  O201  1  0.53475485  0.57972229  0.26706998  1
  O2-  O202  1  0.54205011  0.57925795  0.60145738  1
  O2-  O203  1  0.53901041  0.58288731  0.93124428  1
  O2-  O204  1  0.16731981  0.20663188  0.27268432  1
  O2-  O205  1  0.16966386  0.19812060  0.60651463  1
  O2-  O206  1  0.16666727  0.21255483  0.93044873  1
  O2-  O207  1  0.16901081  0.70483733  0.27374041  1
  O2-  O208  1  0.16960192  0.70289106  0.61050086  1
  O2-  O209  1  0.16837578  0.70798246  0.92954985  1
  O2-  O210  1  0.65966019  0.20716152  0.26862054  1
  O2-  O211  1  0.66652461  0.20996847  0.59519280  1
  O2-  O212  1  0.66689713  0.20930501  0.93573956  1
  O2-  O213  1  0.66552072  0.70546097  0.26304315  1
  O2-  O214  1  0.66513504  0.71038803  0.59647063  1
  O2-  O215  1  0.66881143  0.70847337  0.93456337  1
  O2-  O216  1  0.08565663  0.45824620  0.06348536  1
  O2-  O217  1  0.07961612  0.45222885  0.38973750  1
  O2-  O218  1  0.08029777  0.45476957  0.73730887  1
  O2-  O219  1  0.08123941  0.95099018  0.06034913  1
  O2-  O220  1  0.07841689  0.96090582  0.39878569  1
  O2-  O221  1  0.08304446  0.96150760  0.73971828  1
  O2-  O222  1  0.58153816  0.45973944  0.06655584  1
  O2-  O223  1  0.58446116  0.45702920  0.40372763  1
  O2-  O224  1  0.58385573  0.44532824  0.72629761  1
  O2-  O225  1  0.58392184  0.95924244  0.06822012  1
  O2-  O226  1  0.58585092  0.95466479  0.40435280  1
  O2-  O227  1  0.58164217  0.94799960  0.72399888  1
  O2-  O228  1  0.20585900  0.33886125  0.06468650  1
  O2-  O229  1  0.20294774  0.33758509  0.39620706  1
  O2-  O230  1  0.20827367  0.32986215  0.73422765  1
  O2-  O231  1  0.20357450  0.83336169  0.06225648  1
  O2-  O232  1  0.20449713  0.83300496  0.40309012  1
  O2-  O233  1  0.20892144  0.83538334  0.73881937  1
  O2-  O234  1  0.71013276  0.33407928  0.06879140  1
  O2-  O235  1  0.71014548  0.33008793  0.39982012  1
  O2-  O236  1  0.71011673  0.33391483  0.72773631  1
  O2-  O237  1  0.71232230  0.83325356  0.06733174  1
  O2-  O238  1  0.71183837  0.82730505  0.39875254  1
  O2-  O239  1  0.70783880  0.83499816  0.72776018  1
  O2-  O240  1  0.46073325  0.40898337  0.26999908  1
  O2-  O241  1  0.45239531  0.41395151  0.60230416  1
  O2-  O242  1  0.45337643  0.41607193  0.93644151  1
  O2-  O243  1  0.45369685  0.91704636  0.27428887  1
  O2-  O244  1  0.45037434  0.91372924  0.59948064  1
  O2-  O245  1  0.45442844  0.91539033  0.93840171  1
  O2-  O246  1  0.95546668  0.41863563  0.25938432  1
  O2-  O247  1  0.96010882  0.41928648  0.59934130  1
  O2-  O248  1  0.95315451  0.41629828  0.93876862  1
  O2-  O249  1  0.95708229  0.91975479  0.26230766  1
  O2-  O250  1  0.96088233  0.91893897  0.60155499  1
  O2-  O251  1  0.95013012  0.91733179  0.93689806  1
  O2-  O252  1  0.33478505  0.29753634  0.27240492  1
  O2-  O253  1  0.33417306  0.29428572  0.60102589  1
  O2-  O254  1  0.33301279  0.29931123  0.93753983  1
  O2-  O255  1  0.33335781  0.79682073  0.27136150  1
  O2-  O256  1  0.33113327  0.79623287  0.60541531  1
  O2-  O257  1  0.33486237  0.79724894  0.93763440  1
  O2-  O258  1  0.83246623  0.28735195  0.26185650  1
  O2-  O259  1  0.83668800  0.28780929  0.59719945  1
  O2-  O260  1  0.83383759  0.29677757  0.93662171  1
  O2-  O261  1  0.83602549  0.78757921  0.26098264  1
  O2-  O262  1  0.83541908  0.78867854  0.59860852  1
  O2-  O263  1  0.83548540  0.79453866  0.93468120  1
  O2-  O264  1  0.41405476  0.03954512  0.06882007  1
  O2-  O265  1  0.41964775  0.04517064  0.40518802  1
  O2-  O266  1  0.41762820  0.04090145  0.72890913  1
  O2-  O267  1  0.41164546  0.54210100  0.06341656  1
  O2-  O268  1  0.41299964  0.53195821  0.40124435  1
  O2-  O269  1  0.42052863  0.53663912  0.73845935  1
  O2-  O270  1  0.91694697  0.04757236  0.06359705  1
  O2-  O271  1  0.91628380  0.05197116  0.39141631  1
  O2-  O272  1  0.91381408  0.04073371  0.73659231  1
  O2-  O273  1  0.91695727  0.54622789  0.06462927  1
  O2-  O274  1  0.91732050  0.54627764  0.39314643  1
  O2-  O275  1  0.91511971  0.54258524  0.73468900  1
  O2-  O276  1  0.28975889  0.16888408  0.06542892  1
  O2-  O277  1  0.29568996  0.17258743  0.40491359  1
  O2-  O278  1  0.30457072  0.16658817  0.72928023  1
  O2-  O279  1  0.29212922  0.66376572  0.06168471  1
  O2-  O280  1  0.29701382  0.66710809  0.40157068  1
  O2-  O281  1  0.30073855  0.66990186  0.73896374  1
  O2-  O282  1  0.79896204  0.16777607  0.06338179  1
  O2-  O283  1  0.78991389  0.16343529  0.39382498  1
  O2-  O284  1  0.78825211  0.16772257  0.73452501  1
  O2-  O285  1  0.80014494  0.66736533  0.06315631  1
  O2-  O286  1  0.79568346  0.66412795  0.39188318  1
  O2-  O287  1  0.78729946  0.66784074  0.73505717  1
