# generated using pymatgen
data_Ca2Al2SiO7
_symmetry_space_group_name_H-M   'P 1'
_cell_length_a   15.45096142
_cell_length_b   15.45132197
_cell_length_c   15.27881337
_cell_angle_alpha   89.99198062
_cell_angle_beta   89.99202316
_cell_angle_gamma   89.99921843
_symmetry_Int_Tables_number   1
_chemical_formula_structural   Ca2Al2SiO7
_chemical_formula_sum   'Ca48 Al48 Si24 O168'
_cell_volume   3647.62990824
_cell_formula_units_Z   24
loop_
 _symmetry_equiv_pos_site_id
 _symmetry_equiv_pos_as_xyz
  1  'x, y, z'
loop_
 _atom_type_symbol
 _atom_type_oxidation_number
  Ca2+  2.0
  Al0+  0.0
  Si0+  0.0
  O2-  -2.0
loop_
 _atom_site_type_symbol
 _atom_site_label
 _atom_site_symmetry_multiplicity
 _atom_site_fract_x
 _atom_site_fract_y
 _atom_site_fract_z
 _atom_site_occupancy
  Ca2+  Ca0  1  0.17277777  0.07298519  0.17205703  1
  Ca2+  Ca1  1  0.17766698  0.09208756  0.50610778  1
  Ca2+  Ca2  1  0.16940594  0.08049748  0.83527300  1
  Ca2+  Ca3  1  0.17966314  0.59214773  0.16666112  1
  Ca2+  Ca4  1  0.17437572  0.57723833  0.50495001  1
  Ca2+  Ca5  1  0.16763611  0.57794540  0.84143100  1
  Ca2+  Ca6  1  0.66808375  0.08592578  0.16451695  1
  Ca2+  Ca7  1  0.66258033  0.07319493  0.51031637  1
  Ca2+  Ca8  1  0.66468194  0.08180020  0.83792965  1
  Ca2+  Ca9  1  0.67001490  0.58671065  0.17514056  1
  Ca2+  Ca10  1  0.67208603  0.58091340  0.50001371  1
  Ca2+  Ca11  1  0.67914949  0.58562813  0.83925386  1
  Ca2+  Ca12  1  0.08118798  0.33193795  0.16462114  1
  Ca2+  Ca13  1  0.08456416  0.33453384  0.50702060  1
  Ca2+  Ca14  1  0.07848680  0.33052948  0.81989166  1
  Ca2+  Ca15  1  0.08125079  0.82851665  0.15929220  1
  Ca2+  Ca16  1  0.06701642  0.83580129  0.49604660  1
  Ca2+  Ca17  1  0.08099196  0.82888367  0.83164228  1
  Ca2+  Ca18  1  0.58025389  0.33508849  0.16442133  1
  Ca2+  Ca19  1  0.57382533  0.33458101  0.49484606  1
  Ca2+  Ca20  1  0.57846725  0.32057386  0.82559260  1
  Ca2+  Ca21  1  0.57544157  0.81891415  0.15994878  1
  Ca2+  Ca22  1  0.58662014  0.82712924  0.49539155  1
  Ca2+  Ca23  1  0.58384215  0.83088833  0.83317876  1
  Ca2+  Ca24  1  0.33985601  0.42792573  0.17234017  1
  Ca2+  Ca25  1  0.33407642  0.41499212  0.50440649  1
  Ca2+  Ca26  1  0.32977384  0.41617413  0.83220333  1
  Ca2+  Ca27  1  0.33117822  0.91440695  0.16744267  1
  Ca2+  Ca28  1  0.33748034  0.93299027  0.50675718  1
  Ca2+  Ca29  1  0.33088651  0.92042552  0.84054187  1
  Ca2+  Ca30  1  0.82365784  0.43089779  0.17420956  1
  Ca2+  Ca31  1  0.83200749  0.42710912  0.50609242  1
  Ca2+  Ca32  1  0.83939876  0.42582777  0.83748802  1
  Ca2+  Ca33  1  0.83565375  0.92054232  0.16892919  1
  Ca2+  Ca34  1  0.82798137  0.90899585  0.50834217  1
  Ca2+  Ca35  1  0.83001171  0.92037359  0.83406487  1
  Ca2+  Ca36  1  0.41955562  0.17143193  0.16432765  1
  Ca2+  Ca37  1  0.41330215  0.17477693  0.49863152  1
  Ca2+  Ca38  1  0.42498188  0.16710766  0.82222928  1
  Ca2+  Ca39  1  0.42472618  0.66185778  0.15670441  1
  Ca2+  Ca40  1  0.42492765  0.66261817  0.48961121  1
  Ca2+  Ca41  1  0.41644716  0.66989062  0.83730099  1
  Ca2+  Ca42  1  0.91319378  0.16869438  0.15909848  1
  Ca2+  Ca43  1  0.92234481  0.17114098  0.50006234  1
  Ca2+  Ca44  1  0.92164668  0.17133427  0.82389609  1
  Ca2+  Ca45  1  0.91647708  0.66897485  0.16166368  1
  Ca2+  Ca46  1  0.90623622  0.67394111  0.49675511  1
  Ca2+  Ca47  1  0.91984202  0.66458659  0.82719954  1
  Al0+  Al48  1  0.00031937  0.00060555  0.00876559  1
  Al0+  Al49  1  -0.00033377  -0.00009997  0.32881551  1
  Al0+  Al50  1  0.00047186  -0.00133778  0.65719207  1
  Al0+  Al51  1  -0.00088575  0.50032701  0.00317032  1
  Al0+  Al52  1  0.00043447  0.50046606  0.33554797  1
  Al0+  Al53  1  0.00293802  0.50023778  0.66956045  1
  Al0+  Al54  1  0.49981633  0.00027713  -0.00463520  1
  Al0+  Al55  1  0.50004683  0.00034647  0.33611866  1
  Al0+  Al56  1  0.50016741  -0.00204994  0.67306326  1
  Al0+  Al57  1  0.49986413  0.49869644  -0.00469849  1
  Al0+  Al58  1  0.50037669  0.49843543  0.33281403  1
  Al0+  Al59  1  0.50200847  0.50040551  0.66547452  1
  Al0+  Al60  1  0.24863488  0.24922627  0.00136366  1
  Al0+  Al61  1  0.25054420  0.24923488  0.32906510  1
  Al0+  Al62  1  0.25098522  0.25101206  0.67061367  1
  Al0+  Al63  1  0.24781488  0.74943407  -0.00098286  1
  Al0+  Al64  1  0.24749339  0.75079720  0.34222856  1
  Al0+  Al65  1  0.25129372  0.75125206  0.66425072  1
  Al0+  Al66  1  0.74940083  0.25062815  -0.00024823  1
  Al0+  Al67  1  0.75041884  0.24976560  0.33748777  1
  Al0+  Al68  1  0.75009967  0.24976365  0.65658817  1
  Al0+  Al69  1  0.74952812  0.75222163  0.00134298  1
  Al0+  Al70  1  0.75005778  0.75247319  0.32504970  1
  Al0+  Al71  1  0.75008061  0.74983845  0.67362347  1
  Al0+  Al72  1  0.81948254  0.07118962  0.01167775  1
  Al0+  Al73  1  0.82092568  0.57348666  0.34841699  1
  Al0+  Al74  1  0.57321609  0.67681280  0.98249474  1
  Al0+  Al75  1  0.42919740  0.31923321  0.31769486  1
  Al0+  Al76  1  0.32017929  0.06986700  0.34630466  1
  Al0+  Al77  1  0.32112456  0.57117990  0.34633077  1
  Al0+  Al78  1  0.18217090  0.43135416  0.68031806  1
  Al0+  Al79  1  0.67827913  0.42762410  0.34954556  1
  Al0+  Al80  1  0.31978817  0.56835127  0.01139434  1
  Al0+  Al81  1  0.43014730  0.32126350  0.65179205  1
  Al0+  Al82  1  0.92851551  0.32459935  0.65092768  1
  Al0+  Al83  1  0.56835568  0.68004540  0.32099251  1
  Al0+  Al84  1  0.57099644  0.18096930  0.98708142  1
  Al0+  Al85  1  0.42745948  0.81992194  0.98530559  1
  Al0+  Al86  1  0.82111182  0.57246588  0.01497331  1
  Al0+  Al87  1  0.57109030  0.17531239  0.64982041  1
  Al0+  Al88  1  0.81924571  0.56924354  0.68098338  1
  Al0+  Al89  1  0.07140878  0.17827784  0.65234216  1
  Al0+  Al90  1  0.92918565  0.82057820  0.31679910  1
  Al0+  Al91  1  0.06884264  0.67918150  0.98680163  1
  Al0+  Al92  1  0.31928672  0.07065215  0.68214814  1
  Al0+  Al93  1  0.17978087  0.92931868  0.01305037  1
  Al0+  Al94  1  0.67992706  0.92903848  0.68152085  1
  Al0+  Al95  1  0.92947939  0.81747085  0.65550764  1
  Si0+  Si96  1  0.07040140  0.18016588  0.31556983  1
  Si0+  Si97  1  0.67897081  0.42800070  0.01437291  1
  Si0+  Si98  1  0.92869763  0.82502263  0.98328941  1
  Si0+  Si99  1  0.92768124  0.32162057  0.31712867  1
  Si0+  Si100  1  0.68103232  0.93144630  0.34584143  1
  Si0+  Si101  1  0.82339190  0.07195098  0.34954326  1
  Si0+  Si102  1  0.82373532  0.07307242  0.67948021  1
  Si0+  Si103  1  0.17654922  0.42560632  0.01827717  1
  Si0+  Si104  1  0.42605459  0.82412734  0.32006389  1
  Si0+  Si105  1  0.17781136  0.42635678  0.34918204  1
  Si0+  Si106  1  0.32547102  0.57514836  0.68412883  1
  Si0+  Si107  1  0.57114316  0.68119024  0.65237530  1
  Si0+  Si108  1  0.32380447  0.07268568  0.01732393  1
  Si0+  Si109  1  0.17582238  0.92708307  0.68201250  1
  Si0+  Si110  1  0.93020970  0.31992357  0.98745790  1
  Si0+  Si111  1  0.07482942  0.67701919  0.64905574  1
  Si0+  Si112  1  0.57357232  0.17525263  0.31659392  1
  Si0+  Si113  1  0.17547125  0.92821214  0.35302124  1
  Si0+  Si114  1  0.67565776  0.92869878  0.01930446  1
  Si0+  Si115  1  0.07350619  0.67677193  0.31735595  1
  Si0+  Si116  1  0.67686405  0.42571223  0.68381393  1
  Si0+  Si117  1  0.42525348  0.32194941  0.98204382  1
  Si0+  Si118  1  0.42749697  0.82071156  0.65088008  1
  Si0+  Si119  1  0.07077422  0.17745954  0.98718268  1
  O2-  O120  1  0.25613447  0.00248649  0.06069313  1
  O2-  O121  1  0.24740744  -0.00580933  0.39555946  1
  O2-  O122  1  0.24374198  -0.00419640  0.72707082  1
  O2-  O123  1  0.24766057  0.49218137  0.06121461  1
  O2-  O124  1  0.24563495  0.49684461  0.39175195  1
  O2-  O125  1  0.25556491  0.50719327  0.72710146  1
  O2-  O126  1  0.74591047  -0.00306481  0.06210431  1
  O2-  O127  1  0.75065811  0.00269135  0.39051793  1
  O2-  O128  1  0.75162810  0.00874290  0.72482268  1
  O2-  O129  1  0.74042505  0.50307264  0.05942618  1
  O2-  O130  1  0.75123138  0.49954996  0.39847479  1
  O2-  O131  1  0.74939861  0.49003810  0.72877548  1
  O2-  O132  1  -0.00179519  0.25028549  0.27322795  1
  O2-  O133  1  -0.00165893  0.24934324  0.60165563  1
  O2-  O134  1  0.00265410  0.25059477  0.94494574  1
  O2-  O135  1  0.00360103  0.74438788  0.27294036  1
  O2-  O136  1  0.00474717  0.74474472  0.60573207  1
  O2-  O137  1  -0.00860052  0.75090416  0.93928288  1
  O2-  O138  1  0.50630374  0.24558488  0.27266505  1
  O2-  O139  1  0.50236241  0.25022036  0.59992392  1
  O2-  O140  1  0.49211395  0.25064134  0.94005976  1
  O2-  O141  1  0.48793891  0.74977908  0.27567694  1
  O2-  O142  1  0.49558394  0.74696552  0.60893471  1
  O2-  O143  1  0.50151936  0.75027966  0.93387725  1
  O2-  O144  1  0.06995736  0.17911195  0.09269120  1
  O2-  O145  1  0.07072299  0.17999132  0.42025887  1
  O2-  O146  1  0.06867804  0.17755114  0.76657392  1
  O2-  O147  1  0.06963771  0.68113064  0.10002566  1
  O2-  O148  1  0.07503219  0.67816084  0.42288535  1
  O2-  O149  1  0.07543523  0.67841061  0.75483757  1
  O2-  O150  1  0.57119980  0.18344487  0.10061375  1
  O2-  O151  1  0.57211185  0.17134785  0.42150649  1
  O2-  O152  1  0.56944000  0.17664609  0.76380625  1
  O2-  O153  1  0.57146202  0.67759951  0.09638358  1
  O2-  O154  1  0.57003617  0.68394746  0.43468490  1
  O2-  O155  1  0.57132277  0.68291216  0.75721918  1
  O2-  O156  1  0.17686227  0.42513195  0.24338112  1
  O2-  O157  1  0.18303111  0.43349032  0.56693254  1
  O2-  O158  1  0.17512687  0.42445673  0.91295256  1
  O2-  O159  1  0.17490313  0.92900099  0.24714730  1
  O2-  O160  1  0.17772686  0.92614325  0.57644970  1
  O2-  O161  1  0.17727836  0.93311497  0.89998016  1
  O2-  O162  1  0.68094364  0.42635527  0.23541892  1
  O2-  O163  1  0.67448472  0.43128336  0.57852655  1
  O2-  O164  1  0.68437701  0.42461060  0.90895310  1
  O2-  O165  1  0.68104936  0.93398201  0.24095463  1
  O2-  O166  1  0.68151807  0.92541853  0.56761019  1
  O2-  O167  1  0.67691300  0.92939075  0.91375205  1
  O2-  O168  1  0.42523737  0.32233138  0.08788177  1
  O2-  O169  1  0.42661440  0.31735945  0.43025465  1
  O2-  O170  1  0.43145101  0.32025562  0.76567352  1
  O2-  O171  1  0.42875591  0.81900259  0.09953776  1
  O2-  O172  1  0.43168948  0.82701051  0.42579995  1
  O2-  O173  1  0.42514166  0.81970570  0.75563575  1
  O2-  O174  1  0.93088022  0.31774482  0.09302381  1
  O2-  O175  1  0.92916625  0.32036269  0.42166471  1
  O2-  O176  1  0.93142007  0.32351060  0.76537413  1
  O2-  O177  1  0.93261521  0.82606671  0.08910938  1
  O2-  O178  1  0.92788426  0.82147859  0.43013542  1
  O2-  O179  1  0.93076619  0.81795455  0.76850331  1
  O2-  O180  1  0.31824853  0.06852039  0.23300570  1
  O2-  O181  1  0.31849361  0.06973862  0.56867152  1
  O2-  O182  1  0.32106079  0.07447162  0.91198742  1
  O2-  O183  1  0.32046545  0.57138165  0.23300741  1
  O2-  O184  1  0.32499464  0.57609147  0.57831049  1
  O2-  O185  1  0.31661857  0.56706061  0.89841318  1
  O2-  O186  1  0.82327321  0.07241353  0.24411916  1
  O2-  O187  1  0.82460495  0.06838821  0.57360185  1
  O2-  O188  1  0.82157664  0.07136008  0.89885523  1
  O2-  O189  1  0.82000009  0.57154373  0.23464232  1
  O2-  O190  1  0.81495485  0.57310571  0.56813332  1
  O2-  O191  1  0.82452854  0.56813027  0.90181418  1
  O2-  O192  1  0.04244707  0.08833895  0.26781220  1
  O2-  O193  1  0.04659397  0.08106198  0.59463323  1
  O2-  O194  1  0.04039986  0.08631273  0.94123602  1
  O2-  O195  1  0.05162303  0.58194778  0.27193504  1
  O2-  O196  1  0.05090840  0.58328072  0.60427673  1
  O2-  O197  1  0.04023616  0.58076040  0.93417166  1
  O2-  O198  1  0.54550489  0.08242259  0.26898250  1
  O2-  O199  1  0.53954643  0.07594138  0.60036352  1
  O2-  O200  1  0.54544167  0.08317333  0.93366802  1
  O2-  O201  1  0.54227608  0.58261476  0.26760314  1
  O2-  O202  1  0.54808499  0.58805842  0.60540188  1
  O2-  O203  1  0.54582397  0.57841627  0.92917410  1
  O2-  O204  1  0.16056853  0.20908220  0.26554602  1
  O2-  O205  1  0.16843047  0.21224289  0.60079928  1
  O2-  O206  1  0.16401810  0.20127769  0.94056378  1
  O2-  O207  1  0.16732916  0.70616326  0.27211107  1
  O2-  O208  1  0.16843345  0.70284002  0.60206934  1
  O2-  O209  1  0.16316166  0.71169746  0.93067197  1
  O2-  O210  1  0.66916809  0.19922584  0.27286210  1
  O2-  O211  1  0.67124215  0.19523048  0.59732141  1
  O2-  O212  1  0.66652319  0.21390512  0.93166895  1
  O2-  O213  1  0.66127427  0.71655492  0.26377140  1
  O2-  O214  1  0.66096970  0.71540709  0.60574793  1
  O2-  O215  1  0.67216961  0.70803176  0.93124438  1
  O2-  O216  1  0.08394711  0.45256102  0.06566952  1
  O2-  O217  1  0.08432970  0.45048287  0.39615908  1
  O2-  O218  1  0.08611203  0.46026566  0.73695657  1
  O2-  O219  1  0.08643649  0.96288119  0.07258491  1
  O2-  O220  1  0.08238786  0.95944381  0.39715595  1
  O2-  O221  1  0.08148629  0.95250672  0.72641251  1
  O2-  O222  1  0.58223662  0.44641406  0.05661202  1
  O2-  O223  1  0.58065547  0.45713838  0.40210727  1
  O2-  O224  1  0.58478229  0.45494962  0.73165698  1
  O2-  O225  1  0.58221277  0.95615109  0.06472135  1
  O2-  O226  1  0.58906650  0.95603069  0.39524937  1
  O2-  O227  1  0.58366300  0.95538429  0.73782045  1
  O2-  O228  1  0.19924037  0.33078353  0.06471543  1
  O2-  O229  1  0.20577303  0.33327290  0.39422439  1
  O2-  O230  1  0.21157646  0.33593858  0.73730798  1
  O2-  O231  1  0.20951800  0.83330233  0.06846366  1
  O2-  O232  1  0.19387951  0.83408440  0.40027993  1
  O2-  O233  1  0.20261810  0.83316324  0.72763023  1
  O2-  O234  1  0.71075244  0.33793520  0.06433013  1
  O2-  O235  1  0.70520972  0.32871897  0.40266023  1
  O2-  O236  1  0.69830727  0.32870313  0.72434937  1
  O2-  O237  1  0.70082631  0.83527766  0.06587745  1
  O2-  O238  1  0.71114203  0.84003647  0.39234130  1
  O2-  O239  1  0.71578449  0.83648297  0.73952833  1
  O2-  O240  1  0.46085363  0.41536921  0.26340934  1
  O2-  O241  1  0.45677144  0.42126233  0.59927328  1
  O2-  O242  1  0.45136958  0.41385763  0.93393802  1
  O2-  O243  1  0.45706749  0.91516280  0.27135646  1
  O2-  O244  1  0.45995727  0.91139947  0.60478835  1
  O2-  O245  1  0.45340761  0.91908861  0.93239748  1
  O2-  O246  1  0.95645255  0.41369931  0.26999162  1
  O2-  O247  1  0.96346528  0.42111970  0.59770068  1
  O2-  O248  1  0.95772326  0.41181546  0.94080953  1
  O2-  O249  1  0.96048037  0.91758728  0.26231466  1
  O2-  O250  1  0.95712542  0.91282136  0.59662742  1
  O2-  O251  1  0.96051394  0.91752696  0.93877011  1
  O2-  O252  1  0.33363591  0.28734378  0.26117796  1
  O2-  O253  1  0.33165657  0.29191235  0.60088620  1
  O2-  O254  1  0.32976769  0.29805648  0.93838650  1
  O2-  O255  1  0.32823859  0.80521483  0.28074246  1
  O2-  O256  1  0.33509463  0.79859871  0.60108181  1
  O2-  O257  1  0.33034650  0.79004152  0.93109349  1
  O2-  O258  1  0.83611129  0.29187519  0.26982698  1
  O2-  O259  1  0.83037891  0.30111556  0.59574406  1
  O2-  O260  1  0.83958492  0.29137907  0.93944753  1
  O2-  O261  1  0.83380903  0.79330788  0.25914554  1
  O2-  O262  1  0.83279275  0.78388033  0.60209628  1
  O2-  O263  1  0.83195761  0.80713807  0.94219849  1
  O2-  O264  1  0.41784590  0.04794758  0.06244653  1
  O2-  O265  1  0.41700954  0.04090936  0.40154005  1
  O2-  O266  1  0.41415799  0.03665373  0.73690641  1
  O2-  O267  1  0.41814129  0.53902406  0.06395541  1
  O2-  O268  1  0.41673634  0.53954422  0.40011424  1
  O2-  O269  1  0.41913253  0.54896910  0.72954101  1
  O2-  O270  1  0.91450257  0.04205024  0.07101089  1
  O2-  O271  1  0.91557493  0.04273470  0.39487181  1
  O2-  O272  1  0.91691546  0.04315429  0.72450581  1
  O2-  O273  1  0.91556760  0.53687140  0.07084587  1
  O2-  O274  1  0.92076359  0.54733743  0.39994737  1
  O2-  O275  1  0.91820504  0.54286794  0.73266999  1
  O2-  O276  1  0.29573797  0.16589352  0.06412215  1
  O2-  O277  1  0.28520212  0.16602608  0.39844974  1
  O2-  O278  1  0.28952773  0.16606271  0.73766671  1
  O2-  O279  1  0.28676451  0.66396878  0.06556967  1
  O2-  O280  1  0.29332456  0.66757105  0.40380900  1
  O2-  O281  1  0.29998283  0.66984740  0.72824784  1
  O2-  O282  1  0.78766272  0.16725513  0.06812417  1
  O2-  O283  1  0.79987200  0.16420069  0.39711697  1
  O2-  O284  1  0.80422976  0.16971248  0.72169388  1
  O2-  O285  1  0.79641799  0.67195023  0.06611804  1
  O2-  O286  1  0.78898457  0.67311669  0.39673017  1
  O2-  O287  1  0.78451145  0.66272497  0.73826823  1
