# generated using pymatgen
data_Ca2Al2SiO7
_symmetry_space_group_name_H-M   'P 1'
_cell_length_a   15.46062221
_cell_length_b   15.46063940
_cell_length_c   15.28625674
_cell_angle_alpha   90.00770722
_cell_angle_beta   90.00733953
_cell_angle_gamma   89.99351424
_symmetry_Int_Tables_number   1
_chemical_formula_structural   Ca2Al2SiO7
_chemical_formula_sum   'Ca48 Al48 Si24 O168'
_cell_volume   3653.89075180
_cell_formula_units_Z   24
loop_
 _symmetry_equiv_pos_site_id
 _symmetry_equiv_pos_as_xyz
  1  'x, y, z'
loop_
 _atom_type_symbol
 _atom_type_oxidation_number
  Ca2+  2.0
  Al0+  0.0
  Si0+  0.0
  O2-  -2.0
loop_
 _atom_site_type_symbol
 _atom_site_label
 _atom_site_symmetry_multiplicity
 _atom_site_fract_x
 _atom_site_fract_y
 _atom_site_fract_z
 _atom_site_occupancy
  Ca2+  Ca0  1  0.17219901  0.07992629  0.18115267  1
  Ca2+  Ca1  1  0.16861740  0.08670874  0.49907885  1
  Ca2+  Ca2  1  0.16640726  0.08724516  0.83380726  1
  Ca2+  Ca3  1  0.17135411  0.58058220  0.17343288  1
  Ca2+  Ca4  1  0.17205870  0.57736858  0.51286449  1
  Ca2+  Ca5  1  0.16739107  0.58269990  0.82597320  1
  Ca2+  Ca6  1  0.66155862  0.07268902  0.17486019  1
  Ca2+  Ca7  1  0.66203501  0.08026677  0.50873908  1
  Ca2+  Ca8  1  0.66751310  0.07714058  0.82917000  1
  Ca2+  Ca9  1  0.67173477  0.57986390  0.18122174  1
  Ca2+  Ca10  1  0.66574428  0.57275754  0.49834368  1
  Ca2+  Ca11  1  0.66409523  0.57538647  0.83222587  1
  Ca2+  Ca12  1  0.07969510  0.32796695  0.17038345  1
  Ca2+  Ca13  1  0.07603292  0.32767576  0.49616427  1
  Ca2+  Ca14  1  0.07625501  0.32866449  0.81830294  1
  Ca2+  Ca15  1  0.07675282  0.83734693  0.16457342  1
  Ca2+  Ca16  1  0.08671548  0.82747660  0.49549614  1
  Ca2+  Ca17  1  0.07456397  0.83006060  0.82503244  1
  Ca2+  Ca18  1  0.57594528  0.33370451  0.16911972  1
  Ca2+  Ca19  1  0.58644465  0.32546066  0.49121418  1
  Ca2+  Ca20  1  0.58013515  0.32974356  0.82323737  1
  Ca2+  Ca21  1  0.58733588  0.83415132  0.16864444  1
  Ca2+  Ca22  1  0.57567354  0.83628071  0.49173446  1
  Ca2+  Ca23  1  0.58100952  0.83781259  0.82569916  1
  Ca2+  Ca24  1  0.33798968  0.41169295  0.17331029  1
  Ca2+  Ca25  1  0.33205775  0.42136656  0.50882165  1
  Ca2+  Ca26  1  0.33000557  0.41787349  0.83391622  1
  Ca2+  Ca27  1  0.32777077  0.92400321  0.18209005  1
  Ca2+  Ca28  1  0.33592680  0.91778616  0.49986954  1
  Ca2+  Ca29  1  0.33427985  0.91705898  0.83248010  1
  Ca2+  Ca30  1  0.82906631  0.42429131  0.18145668  1
  Ca2+  Ca31  1  0.82746545  0.41057204  0.50322695  1
  Ca2+  Ca32  1  0.82844776  0.41000619  0.82869768  1
  Ca2+  Ca33  1  0.82444433  0.91366326  0.17355352  1
  Ca2+  Ca34  1  0.81865389  0.92582182  0.50670138  1
  Ca2+  Ca35  1  0.82594523  0.91958836  0.83741876  1
  Ca2+  Ca36  1  0.41900481  0.17152478  0.17264252  1
  Ca2+  Ca37  1  0.42712399  0.16966105  0.49063101  1
  Ca2+  Ca38  1  0.42427290  0.17168807  0.82768281  1
  Ca2+  Ca39  1  0.42542714  0.67114793  0.17147538  1
  Ca2+  Ca40  1  0.41992414  0.67502377  0.49500746  1
  Ca2+  Ca41  1  0.41591221  0.67437893  0.82252746  1
  Ca2+  Ca42  1  0.91874602  0.16775908  0.17079320  1
  Ca2+  Ca43  1  0.91997514  0.17338536  0.49768036  1
  Ca2+  Ca44  1  0.92077541  0.16927016  0.81813447  1
  Ca2+  Ca45  1  0.91178553  0.67211529  0.16476624  1
  Ca2+  Ca46  1  0.92110568  0.66061808  0.49643137  1
  Ca2+  Ca47  1  0.92034750  0.67349253  0.82831847  1
  Al0+  Al48  1  -0.00075452  -0.00031098  -0.00459152  1
  Al0+  Al49  1  0.00030174  -0.00229968  0.33431721  1
  Al0+  Al50  1  -0.00016737  -0.00004473  0.66586625  1
  Al0+  Al51  1  0.00176703  0.49887284  0.00057966  1
  Al0+  Al52  1  0.00163550  0.50083005  0.33076776  1
  Al0+  Al53  1  -0.00029361  0.50084732  0.66507968  1
  Al0+  Al54  1  0.49985446  0.00031684  0.00429612  1
  Al0+  Al55  1  0.49684322  0.00127347  0.33216184  1
  Al0+  Al56  1  0.49765729  0.00046582  0.66493774  1
  Al0+  Al57  1  0.49877014  0.50055111  -0.00379831  1
  Al0+  Al58  1  0.50145458  0.50218130  0.33010588  1
  Al0+  Al59  1  0.50011746  0.50326957  0.67625071  1
  Al0+  Al60  1  0.25050754  0.25118044  -0.00328864  1
  Al0+  Al61  1  0.24951057  0.24894249  0.33070334  1
  Al0+  Al62  1  0.24954379  0.24995873  0.66924201  1
  Al0+  Al63  1  0.25130400  0.74797528  0.00177845  1
  Al0+  Al64  1  0.24999730  0.74950259  0.33104638  1
  Al0+  Al65  1  0.24948211  0.75103190  0.66430185  1
  Al0+  Al66  1  0.75010535  0.24834602  0.00164265  1
  Al0+  Al67  1  0.75081145  0.24944248  0.32483885  1
  Al0+  Al68  1  0.74964734  0.24854386  0.66915324  1
  Al0+  Al69  1  0.75030999  0.74926446  -0.00275113  1
  Al0+  Al70  1  0.75148675  0.74972111  0.34070445  1
  Al0+  Al71  1  0.74807210  0.74843859  0.67007034  1
  Al0+  Al72  1  0.17733921  0.92699056  0.34927683  1
  Al0+  Al73  1  0.68037509  0.92909441  0.01511906  1
  Al0+  Al74  1  0.06853548  0.68160853  0.65310218  1
  Al0+  Al75  1  0.82148866  0.07019881  0.68086492  1
  Al0+  Al76  1  0.92770728  0.32092364  0.65207606  1
  Al0+  Al77  1  0.17847014  0.42803368  0.68139417  1
  Al0+  Al78  1  0.42998814  0.32101941  0.98332058  1
  Al0+  Al79  1  0.67596515  0.92836371  0.68153182  1
  Al0+  Al80  1  0.57313252  0.17719971  0.31773845  1
  Al0+  Al81  1  0.42813738  0.82157245  0.31652022  1
  Al0+  Al82  1  0.07016512  0.17742696  0.31794329  1
  Al0+  Al83  1  0.57321677  0.68115576  0.31992568  1
  Al0+  Al84  1  0.92886414  0.32261616  0.31643628  1
  Al0+  Al85  1  0.31971326  0.07246983  0.35016752  1
  Al0+  Al86  1  0.32066013  0.57314624  0.68206704  1
  Al0+  Al87  1  0.07401246  0.17637077  0.65054764  1
  Al0+  Al88  1  0.42923294  0.32301429  0.32219387  1
  Al0+  Al89  1  0.82343154  0.57178435  0.34898102  1
  Al0+  Al90  1  0.67843869  0.93061780  0.34750341  1
  Al0+  Al91  1  0.67877463  0.42769941  0.34651765  1
  Al0+  Al92  1  0.67981794  0.42834479  0.68030112  1
  Al0+  Al93  1  0.92910652  0.81986268  0.98613996  1
  Al0+  Al94  1  0.56881353  0.18102638  0.65501623  1
  Al0+  Al95  1  0.42996793  0.82066727  0.65342013  1
  Si0+  Si96  1  0.42857808  0.82136759  0.98574645  1
  Si0+  Si97  1  0.57204114  0.17620016  0.98214640  1
  Si0+  Si98  1  0.42848510  0.32476909  0.65283656  1
  Si0+  Si99  1  0.17836778  0.92819570  0.01258160  1
  Si0+  Si100  1  0.82346835  0.57232674  0.68558549  1
  Si0+  Si101  1  0.18014940  0.42890023  0.01663409  1
  Si0+  Si102  1  0.67768979  0.42839658  0.01486902  1
  Si0+  Si103  1  0.32073303  0.07123913  0.68323016  1
  Si0+  Si104  1  0.17907293  0.92841009  0.68239224  1
  Si0+  Si105  1  0.32142307  0.57082140  0.34684889  1
  Si0+  Si106  1  0.07001548  0.18018882  0.98487170  1
  Si0+  Si107  1  0.82108137  0.56877618  0.01318502  1
  Si0+  Si108  1  0.82306910  0.07199569  0.34825962  1
  Si0+  Si109  1  0.07435112  0.67644564  0.98314169  1
  Si0+  Si110  1  0.92483104  0.82243943  0.64856638  1
  Si0+  Si111  1  0.82468128  0.07214209  0.01820612  1
  Si0+  Si112  1  0.57092638  0.67974236  0.98351143  1
  Si0+  Si113  1  0.32215343  0.57160594  0.01788286  1
  Si0+  Si114  1  0.31910578  0.07157351  0.01470610  1
  Si0+  Si115  1  0.57335053  0.67572093  0.65025063  1
  Si0+  Si116  1  0.92977412  0.81938739  0.32071066  1
  Si0+  Si117  1  0.07241706  0.67811169  0.31706092  1
  Si0+  Si118  1  0.17967365  0.42919006  0.34665846  1
  Si0+  Si119  1  0.92877019  0.32229777  0.98494387  1
  O2-  O120  1  0.24879859  -0.00112928  0.05543733  1
  O2-  O121  1  0.24889617  -0.00131784  0.39952879  1
  O2-  O122  1  0.24637782  0.00281856  0.72581134  1
  O2-  O123  1  0.25139360  0.49974668  0.05961457  1
  O2-  O124  1  0.25362682  0.49693469  0.38799332  1
  O2-  O125  1  0.25157577  0.49850620  0.73347524  1
  O2-  O126  1  0.75495922  0.00427948  0.06179069  1
  O2-  O127  1  0.74739959  0.01119217  0.39212864  1
  O2-  O128  1  0.75187400  -0.00394760  0.73215809  1
  O2-  O129  1  0.75220432  0.49627711  0.05584313  1
  O2-  O130  1  0.75430813  0.49620519  0.39655559  1
  O2-  O131  1  0.75419310  0.50345658  0.72912825  1
  O2-  O132  1  -0.00133263  0.24854640  0.26542232  1
  O2-  O133  1  0.00176310  0.24975158  0.60441971  1
  O2-  O134  1  -0.00360223  0.24819780  0.94296943  1
  O2-  O135  1  0.00090969  0.74891646  0.27615055  1
  O2-  O136  1  -0.00764716  0.75293675  0.60395178  1
  O2-  O137  1  0.00668420  0.74696426  0.94070801  1
  O2-  O138  1  0.50227153  0.25253910  0.27034827  1
  O2-  O139  1  0.49846471  0.25929179  0.60824518  1
  O2-  O140  1  0.50708289  0.24861789  0.93772914  1
  O2-  O141  1  0.50474135  0.75467998  0.26591888  1
  O2-  O142  1  0.50735095  0.74810507  0.60903567  1
  O2-  O143  1  0.50053112  0.75215261  0.94228582  1
  O2-  O144  1  0.07137411  0.18038708  0.08957972  1
  O2-  O145  1  0.06939524  0.17968638  0.43055409  1
  O2-  O146  1  0.07305745  0.17783770  0.76556436  1
  O2-  O147  1  0.07546939  0.67523636  0.08880205  1
  O2-  O148  1  0.07407956  0.67718482  0.42171766  1
  O2-  O149  1  0.06782061  0.68534688  0.76698173  1
  O2-  O150  1  0.57027989  0.17501931  0.08720324  1
  O2-  O151  1  0.57171911  0.17790563  0.43124902  1
  O2-  O152  1  0.56565885  0.18075316  0.76889049  1
  O2-  O153  1  0.57121815  0.67838116  0.08821782  1
  O2-  O154  1  0.56907341  0.67909308  0.43289147  1
  O2-  O155  1  0.57166998  0.67510694  0.75682584  1
  O2-  O156  1  0.17923881  0.43278797  0.24056271  1
  O2-  O157  1  0.18066259  0.42972695  0.56778879  1
  O2-  O158  1  0.17885911  0.42939832  0.91223049  1
  O2-  O159  1  0.17720425  0.92762300  0.23430148  1
  O2-  O160  1  0.18071486  0.92508017  0.57809637  1
  O2-  O161  1  0.17948245  0.92802410  0.90743366  1
  O2-  O162  1  0.67871337  0.43281272  0.23184513  1
  O2-  O163  1  0.67802271  0.42906796  0.56813131  1
  O2-  O164  1  0.67838026  0.42959804  0.90965445  1
  O2-  O165  1  0.68392869  0.92842471  0.23372916  1
  O2-  O166  1  0.67504751  0.93096875  0.56847971  1
  O2-  O167  1  0.67943055  0.92993034  0.90247823  1
  O2-  O168  1  0.42941370  0.32098252  0.09581720  1
  O2-  O169  1  0.42824666  0.32429907  0.43542273  1
  O2-  O170  1  0.42950091  0.32100064  0.75917149  1
  O2-  O171  1  0.42608708  0.81937130  0.09004465  1
  O2-  O172  1  0.42609516  0.81709940  0.42971839  1
  O2-  O173  1  0.42967721  0.82059429  0.76793931  1
  O2-  O174  1  0.93154550  0.32507743  0.08945513  1
  O2-  O175  1  0.93153260  0.32438233  0.42914634  1
  O2-  O176  1  0.92933007  0.31885933  0.76711529  1
  O2-  O177  1  0.93007753  0.81774763  0.09945484  1
  O2-  O178  1  0.93154634  0.81813836  0.42524466  1
  O2-  O179  1  0.92799417  0.82085958  0.75494242  1
  O2-  O180  1  0.31665192  0.07190160  0.23526868  1
  O2-  O181  1  0.32236324  0.07088097  0.57903925  1
  O2-  O182  1  0.31858438  0.07068710  0.90920608  1
  O2-  O183  1  0.31817727  0.57171859  0.24092681  1
  O2-  O184  1  0.31948405  0.57244441  0.56842780  1
  O2-  O185  1  0.32096784  0.57502307  0.91347080  1
  O2-  O186  1  0.82609619  0.06550699  0.24205732  1
  O2-  O187  1  0.82028622  0.06978559  0.56760419  1
  O2-  O188  1  0.82680587  0.07222108  0.91309449  1
  O2-  O189  1  0.82266590  0.57264353  0.23399448  1
  O2-  O190  1  0.82396176  0.57387887  0.58075993  1
  O2-  O191  1  0.82139312  0.56837161  0.90832122  1
  O2-  O192  1  0.04193536  0.07802370  0.26497126  1
  O2-  O193  1  0.04823055  0.07698352  0.59974761  1
  O2-  O194  1  0.04667025  0.08713491  0.93738146  1
  O2-  O195  1  0.04561853  0.58776077  0.26595721  1
  O2-  O196  1  0.04185413  0.58441649  0.59963310  1
  O2-  O197  1  0.04614038  0.58333794  0.93723940  1
  O2-  O198  1  0.53851277  0.08172015  0.26221309  1
  O2-  O199  1  0.53385305  0.08665454  0.60137962  1
  O2-  O200  1  0.54045253  0.08390047  0.93616017  1
  O2-  O201  1  0.54070861  0.58564664  0.26242585  1
  O2-  O202  1  0.54318817  0.58317078  0.60542798  1
  O2-  O203  1  0.54069723  0.58900028  0.93504133  1
  O2-  O204  1  0.16704340  0.20815805  0.26258062  1
  O2-  O205  1  0.17327151  0.20443316  0.60032956  1
  O2-  O206  1  0.16092181  0.21022168  0.93688443  1
  O2-  O207  1  0.16269451  0.70633693  0.26648862  1
  O2-  O208  1  0.16388705  0.71394755  0.59893415  1
  O2-  O209  1  0.16870434  0.70115114  0.93804349  1
  O2-  O210  1  0.67113290  0.19936981  0.26102610  1
  O2-  O211  1  0.66633655  0.20703355  0.60356986  1
  O2-  O212  1  0.66825297  0.19797432  0.93923569  1
  O2-  O213  1  0.67331529  0.70774077  0.26836281  1
  O2-  O214  1  0.66882916  0.69535903  0.60707901  1
  O2-  O215  1  0.66259777  0.70532528  0.93509775  1
  O2-  O216  1  0.08852232  0.45768470  0.06503185  1
  O2-  O217  1  0.08990393  0.46156096  0.39350921  1
  O2-  O218  1  0.08078373  0.46014255  0.73518165  1
  O2-  O219  1  0.08560940  0.95536521  0.05848873  1
  O2-  O220  1  0.07859004  0.95208092  0.40196584  1
  O2-  O221  1  0.08614107  0.95274334  0.73002588  1
  O2-  O222  1  0.58616238  0.46037360  0.05980308  1
  O2-  O223  1  0.58145459  0.46053561  0.39884550  1
  O2-  O224  1  0.58520882  0.46096672  0.73928642  1
  O2-  O225  1  0.58261930  0.95831453  0.06863157  1
  O2-  O226  1  0.57909758  0.95540409  0.39635463  1
  O2-  O227  1  0.57875079  0.96195749  0.73553098  1
  O2-  O228  1  0.20863729  0.33664184  0.06318077  1
  O2-  O229  1  0.20241584  0.33613024  0.39132479  1
  O2-  O230  1  0.20561579  0.32984480  0.73726952  1
  O2-  O231  1  0.20417652  0.83529008  0.05941579  1
  O2-  O232  1  0.20617026  0.82747937  0.39963095  1
  O2-  O233  1  0.21079846  0.83920301  0.73288958  1
  O2-  O234  1  0.70083823  0.33442150  0.05985917  1
  O2-  O235  1  0.70416291  0.32658519  0.39402419  1
  O2-  O236  1  0.71085884  0.33360872  0.73823756  1
  O2-  O237  1  0.71224334  0.83096991  0.06621612  1
  O2-  O238  1  0.71302896  0.83661834  0.40275491  1
  O2-  O239  1  0.69993826  0.82791563  0.73391167  1
  O2-  O240  1  0.45604099  0.42056371  0.26512967  1
  O2-  O241  1  0.45018537  0.42131046  0.61308131  1
  O2-  O242  1  0.45743550  0.41911646  0.92993545  1
  O2-  O243  1  0.45061020  0.92105090  0.26472057  1
  O2-  O244  1  0.45728764  0.91719362  0.59956828  1
  O2-  O245  1  0.45422689  0.91471825  0.93997265  1
  O2-  O246  1  0.96298499  0.41979592  0.26152034  1
  O2-  O247  1  0.95272529  0.42032383  0.60177042  1
  O2-  O248  1  0.95939027  0.41325599  0.93707141  1
  O2-  O249  1  0.95725552  0.90979745  0.27019891  1
  O2-  O250  1  0.95170817  0.91539202  0.60411459  1
  O2-  O251  1  0.95902724  0.91616021  0.93042414  1
  O2-  O252  1  0.33197108  0.29322575  0.26597528  1
  O2-  O253  1  0.33459675  0.29881250  0.60977868  1
  O2-  O254  1  0.33319927  0.28877888  0.92952868  1
  O2-  O255  1  0.33132252  0.78722341  0.26167358  1
  O2-  O256  1  0.33437778  0.78910462  0.59988386  1
  O2-  O257  1  0.33657997  0.79182063  0.93813376  1
  O2-  O258  1  0.83160009  0.29717544  0.25968120  1
  O2-  O259  1  0.83018877  0.29072051  0.60076893  1
  O2-  O260  1  0.83442586  0.29802375  0.94054661  1
  O2-  O261  1  0.83897653  0.78949518  0.27241521  1
  O2-  O262  1  0.82988347  0.79769374  0.60618404  1
  O2-  O263  1  0.83462499  0.78572236  0.92997523  1
  O2-  O264  1  0.41069560  0.04476337  0.06211530  1
  O2-  O265  1  0.41797848  0.04513814  0.40188420  1
  O2-  O266  1  0.40945429  0.03844630  0.73412486  1
  O2-  O267  1  0.41464863  0.54343770  0.06368942  1
  O2-  O268  1  0.41393426  0.54711188  0.39290896  1
  O2-  O269  1  0.41835700  0.54986921  0.73934357  1
  O2-  O270  1  0.91875617  0.04525811  0.06353807  1
  O2-  O271  1  0.91308821  0.03923155  0.39609748  1
  O2-  O272  1  0.92101276  0.04308266  0.73486966  1
  O2-  O273  1  0.91443303  0.54404823  0.06032285  1
  O2-  O274  1  0.92434865  0.54691312  0.39794236  1
  O2-  O275  1  0.91645394  0.54727744  0.73344935  1
  O2-  O276  1  0.28888769  0.16326241  0.06056606  1
  O2-  O277  1  0.28992912  0.17063590  0.40227779  1
  O2-  O278  1  0.29539392  0.16293618  0.73317465  1
  O2-  O279  1  0.29323705  0.66271652  0.06736689  1
  O2-  O280  1  0.28956208  0.66096919  0.39362335  1
  O2-  O281  1  0.28587520  0.67002745  0.73651628  1
  O2-  O282  1  0.80109232  0.16687611  0.06395454  1
  O2-  O283  1  0.80658874  0.16954689  0.38711767  1
  O2-  O284  1  0.79144762  0.16654189  0.73760482  1
  O2-  O285  1  0.79160055  0.66035628  0.05985645  1
  O2-  O286  1  0.79593895  0.66792254  0.40519125  1
  O2-  O287  1  0.79702326  0.66541515  0.73387683  1
