# generated using pymatgen
data_Ca2Al2SiO7
_symmetry_space_group_name_H-M   'P 1'
_cell_length_a   15.46409457
_cell_length_b   15.46588254
_cell_length_c   15.28762132
_cell_angle_alpha   89.99017525
_cell_angle_beta   89.99197759
_cell_angle_gamma   89.99284889
_symmetry_Int_Tables_number   1
_chemical_formula_structural   Ca2Al2SiO7
_chemical_formula_sum   'Ca48 Al48 Si24 O168'
_cell_volume   3656.27713758
_cell_formula_units_Z   24
loop_
 _symmetry_equiv_pos_site_id
 _symmetry_equiv_pos_as_xyz
  1  'x, y, z'
loop_
 _atom_type_symbol
 _atom_type_oxidation_number
  Ca2+  2.0
  Al0+  0.0
  Si0+  0.0
  O2-  -2.0
loop_
 _atom_site_type_symbol
 _atom_site_label
 _atom_site_symmetry_multiplicity
 _atom_site_fract_x
 _atom_site_fract_y
 _atom_site_fract_z
 _atom_site_occupancy
  Ca2+  Ca0  1  0.17686578  0.08732676  0.17334489  1
  Ca2+  Ca1  1  0.17765414  0.09617458  0.50158105  1
  Ca2+  Ca2  1  0.17991026  0.08685120  0.83927819  1
  Ca2+  Ca3  1  0.17269100  0.58707667  0.16955953  1
  Ca2+  Ca4  1  0.17108645  0.58028736  0.50581173  1
  Ca2+  Ca5  1  0.16788536  0.58311380  0.83436968  1
  Ca2+  Ca6  1  0.66180299  0.08951635  0.16915790  1
  Ca2+  Ca7  1  0.67039640  0.08259297  0.50820190  1
  Ca2+  Ca8  1  0.67085750  0.08351546  0.83396553  1
  Ca2+  Ca9  1  0.67102021  0.57355505  0.17550677  1
  Ca2+  Ca10  1  0.66947285  0.56702852  0.50511434  1
  Ca2+  Ca11  1  0.66770572  0.57496838  0.83517706  1
  Ca2+  Ca12  1  0.07510033  0.33247712  0.16556824  1
  Ca2+  Ca13  1  0.07309991  0.33538275  0.49576795  1
  Ca2+  Ca14  1  0.07328350  0.34056976  0.82629767  1
  Ca2+  Ca15  1  0.08389147  0.82165998  0.15942822  1
  Ca2+  Ca16  1  0.09080273  0.82128297  0.49641604  1
  Ca2+  Ca17  1  0.08886334  0.82070883  0.83098678  1
  Ca2+  Ca18  1  0.57271640  0.32771503  0.16643319  1
  Ca2+  Ca19  1  0.57994275  0.33125765  0.49068800  1
  Ca2+  Ca20  1  0.57622749  0.33195541  0.83316232  1
  Ca2+  Ca21  1  0.57540924  0.82904263  0.15880807  1
  Ca2+  Ca22  1  0.58444858  0.83342266  0.49947956  1
  Ca2+  Ca23  1  0.57854132  0.83485516  0.83075295  1
  Ca2+  Ca24  1  0.34277693  0.42535465  0.17232294  1
  Ca2+  Ca25  1  0.32899119  0.42487740  0.50738055  1
  Ca2+  Ca26  1  0.32660773  0.42530665  0.84012001  1
  Ca2+  Ca27  1  0.33958906  0.92803109  0.16756944  1
  Ca2+  Ca28  1  0.33313839  0.93226941  0.50321679  1
  Ca2+  Ca29  1  0.33695969  0.92573941  0.83876912  1
  Ca2+  Ca30  1  0.82906078  0.40603179  0.17133254  1
  Ca2+  Ca31  1  0.82349986  0.40185299  0.50402013  1
  Ca2+  Ca32  1  0.82951641  0.40591375  0.83520338  1
  Ca2+  Ca33  1  0.83389909  0.91454974  0.16967163  1
  Ca2+  Ca34  1  0.82565325  0.92619270  0.51177681  1
  Ca2+  Ca35  1  0.83130180  0.91647432  0.83737455  1
  Ca2+  Ca36  1  0.42300739  0.17043711  0.15940556  1
  Ca2+  Ca37  1  0.41988130  0.17262393  0.48862458  1
  Ca2+  Ca38  1  0.41901233  0.16275186  0.83167900  1
  Ca2+  Ca39  1  0.41007761  0.67036044  0.15863541  1
  Ca2+  Ca40  1  0.41151854  0.66370914  0.49593377  1
  Ca2+  Ca41  1  0.40475254  0.67037494  0.83145529  1
  Ca2+  Ca42  1  0.92162775  0.17581554  0.16521896  1
  Ca2+  Ca43  1  0.91881928  0.17370146  0.49448444  1
  Ca2+  Ca44  1  0.91450763  0.17513355  0.82714797  1
  Ca2+  Ca45  1  0.93054048  0.66884398  0.15768873  1
  Ca2+  Ca46  1  0.93082728  0.66394082  0.49594147  1
  Ca2+  Ca47  1  0.92921588  0.66870859  0.82897608  1
  Al0+  Al48  1  -0.00098909  0.00010561  -0.00089086  1
  Al0+  Al49  1  -0.00005158  -0.00131630  0.33214600  1
  Al0+  Al50  1  0.00137312  0.00013362  0.66961204  1
  Al0+  Al51  1  -0.00081003  0.49996810  -0.00683939  1
  Al0+  Al52  1  0.00031581  0.50302039  0.32377474  1
  Al0+  Al53  1  -0.00130510  0.50036309  0.65849143  1
  Al0+  Al54  1  0.50196962  -0.00217959  -0.00316628  1
  Al0+  Al55  1  0.49980607  -0.00118615  0.33524424  1
  Al0+  Al56  1  0.50029119  -0.00096944  0.67173817  1
  Al0+  Al57  1  0.50122919  0.49770521  0.00161082  1
  Al0+  Al58  1  0.50323147  0.50107976  0.33874611  1
  Al0+  Al59  1  0.50120087  0.50183185  0.67422446  1
  Al0+  Al60  1  0.24990989  0.25243354  0.00350234  1
  Al0+  Al61  1  0.24875787  0.25423334  0.33095312  1
  Al0+  Al62  1  0.24998506  0.25340928  0.67588390  1
  Al0+  Al63  1  0.25058733  0.75019450  -0.00473355  1
  Al0+  Al64  1  0.25057571  0.75152525  0.33277641  1
  Al0+  Al65  1  0.25130059  0.75285428  0.66230962  1
  Al0+  Al66  1  0.74953403  0.24691538  -0.00506794  1
  Al0+  Al67  1  0.74851353  0.24765790  0.33094900  1
  Al0+  Al68  1  0.74797955  0.24818287  0.67189063  1
  Al0+  Al69  1  0.75030531  0.74905068  -0.00101536  1
  Al0+  Al70  1  0.74960465  0.74909077  0.33589637  1
  Al0+  Al71  1  0.74805975  0.74911540  0.66868925  1
  Al0+  Al72  1  0.67943171  0.42771906  0.68258974  1
  Al0+  Al73  1  0.42704777  0.32335146  0.98343398  1
  Al0+  Al74  1  0.32067496  0.07338010  0.34575824  1
  Al0+  Al75  1  0.07110775  0.68109070  0.64916381  1
  Al0+  Al76  1  0.82254304  0.07075000  0.68256379  1
  Al0+  Al77  1  0.17605210  0.43049816  0.68084997  1
  Al0+  Al78  1  0.07298029  0.17682784  0.31911838  1
  Al0+  Al79  1  0.07166330  0.67984775  0.98218528  1
  Al0+  Al80  1  0.93036364  0.31828162  0.98485412  1
  Al0+  Al81  1  0.42819447  0.32517581  0.32208569  1
  Al0+  Al82  1  0.92776294  0.31805034  0.65195299  1
  Al0+  Al83  1  0.07245292  0.68092995  0.31791600  1
  Al0+  Al84  1  0.68261753  0.42799297  0.34612010  1
  Al0+  Al85  1  0.92802415  0.32028231  0.31853468  1
  Al0+  Al86  1  0.56901337  0.17840530  0.98206229  1
  Al0+  Al87  1  0.32035840  0.57149968  0.34640097  1
  Al0+  Al88  1  0.56872510  0.17664986  0.32068225  1
  Al0+  Al89  1  0.31969273  0.57001240  0.01444738  1
  Al0+  Al90  1  0.32221487  0.07109829  0.01535992  1
  Al0+  Al91  1  0.92709294  0.82268708  0.98453979  1
  Al0+  Al92  1  0.67924142  0.92730326  0.68374013  1
  Al0+  Al93  1  0.32052240  0.57286617  0.68193125  1
  Al0+  Al94  1  0.43058780  0.81891933  0.98610269  1
  Al0+  Al95  1  0.31999024  0.07235509  0.68010813  1
  Si0+  Si96  1  0.56740612  0.17901369  0.65217456  1
  Si0+  Si97  1  0.43105391  0.82173767  0.64888547  1
  Si0+  Si98  1  0.17404662  0.42964226  0.34851832  1
  Si0+  Si99  1  0.17766508  0.92883621  0.01621810  1
  Si0+  Si100  1  0.82079142  0.57083680  0.01430336  1
  Si0+  Si101  1  0.82120130  0.06910481  0.34671876  1
  Si0+  Si102  1  0.82320547  0.57371800  0.34938624  1
  Si0+  Si103  1  0.68060643  0.92726822  0.01734158  1
  Si0+  Si104  1  0.92568915  0.82127167  0.31878976  1
  Si0+  Si105  1  0.82187958  0.57176592  0.68239850  1
  Si0+  Si106  1  0.07531028  0.17717898  0.65260342  1
  Si0+  Si107  1  0.57201297  0.67730313  0.65025204  1
  Si0+  Si108  1  0.17903294  0.92725964  0.68247334  1
  Si0+  Si109  1  0.43074485  0.82009557  0.31947340  1
  Si0+  Si110  1  0.17428351  0.42913391  0.01872306  1
  Si0+  Si111  1  0.68100705  0.42658838  0.01681484  1
  Si0+  Si112  1  0.67845975  0.92659428  0.34783683  1
  Si0+  Si113  1  0.42855687  0.32347217  0.65353068  1
  Si0+  Si114  1  0.17797762  0.92901477  0.34904706  1
  Si0+  Si115  1  0.07358642  0.17708409  0.98364567  1
  Si0+  Si116  1  0.92574070  0.82300395  0.64924420  1
  Si0+  Si117  1  0.57319487  0.67609787  0.98420255  1
  Si0+  Si118  1  0.57276541  0.67922603  0.32009860  1
  Si0+  Si119  1  0.82085719  0.07111091  0.01780221  1
  O2-  O120  1  0.24419633  -0.00101105  0.06166987  1
  O2-  O121  1  0.24096493  0.00339033  0.39298501  1
  O2-  O122  1  0.24153316  0.00136903  0.72626784  1
  O2-  O123  1  0.24681170  0.49434889  0.06258330  1
  O2-  O124  1  0.24688582  0.49517548  0.39164677  1
  O2-  O125  1  0.24808958  0.50198300  0.73160380  1
  O2-  O126  1  0.75222671  -0.00276497  0.06038604  1
  O2-  O127  1  0.74971188  -0.00223143  0.38820472  1
  O2-  O128  1  0.75464966  -0.00486379  0.73370231  1
  O2-  O129  1  0.75189398  0.49855014  0.05812649  1
  O2-  O130  1  0.76074649  0.49946585  0.39346438  1
  O2-  O131  1  0.75665441  0.50057641  0.72841157  1
  O2-  O132  1  0.00203450  0.24999654  0.26919968  1
  O2-  O133  1  0.00348923  0.24265973  0.60808867  1
  O2-  O134  1  0.00709053  0.24657361  0.93779161  1
  O2-  O135  1  -0.00506803  0.75422644  0.27394949  1
  O2-  O136  1  -0.00432710  0.75680736  0.60329359  1
  O2-  O137  1  0.00028802  0.75355628  0.93342329  1
  O2-  O138  1  0.49346475  0.24623231  0.27269430  1
  O2-  O139  1  0.49709778  0.25034225  0.61001870  1
  O2-  O140  1  0.49407260  0.24720020  0.93189512  1
  O2-  O141  1  0.49970942  0.74714872  0.27709820  1
  O2-  O142  1  0.50035717  0.74818358  0.60763749  1
  O2-  O143  1  0.50121516  0.74043702  0.93899394  1
  O2-  O144  1  0.07038940  0.17617121  0.08916028  1
  O2-  O145  1  0.06956443  0.17585476  0.43290118  1
  O2-  O146  1  0.07566676  0.17798806  0.75816180  1
  O2-  O147  1  0.07100185  0.68142663  0.09595555  1
  O2-  O148  1  0.07272726  0.68288665  0.43102993  1
  O2-  O149  1  0.07095479  0.68300115  0.76173775  1
  O2-  O150  1  0.57014360  0.17994363  0.09575416  1
  O2-  O151  1  0.57015484  0.17569403  0.43472109  1
  O2-  O152  1  0.56631137  0.17813698  0.75700541  1
  O2-  O153  1  0.57554071  0.67958371  0.09024869  1
  O2-  O154  1  0.57488717  0.68198562  0.42506857  1
  O2-  O155  1  0.57378770  0.67727665  0.75518913  1
  O2-  O156  1  0.17072620  0.43256704  0.24313972  1
  O2-  O157  1  0.17781075  0.42989176  0.56691882  1
  O2-  O158  1  0.17187989  0.43165100  0.91319835  1
  O2-  O159  1  0.18068301  0.92630263  0.24369393  1
  O2-  O160  1  0.18306305  0.92431768  0.57683300  1
  O2-  O161  1  0.17905080  0.93026731  0.91046226  1
  O2-  O162  1  0.68269621  0.43138308  0.23283725  1
  O2-  O163  1  0.67856769  0.42803471  0.56935374  1
  O2-  O164  1  0.68158948  0.42815949  0.91153845  1
  O2-  O165  1  0.67869591  0.92222800  0.24294055  1
  O2-  O166  1  0.67814097  0.92977693  0.56929247  1
  O2-  O167  1  0.68122687  0.92587976  0.91276481  1
  O2-  O168  1  0.43267511  0.32598046  0.09690238  1
  O2-  O169  1  0.43185798  0.32506248  0.43639431  1
  O2-  O170  1  0.43086048  0.32253340  0.75829890  1
  O2-  O171  1  0.43381242  0.81933311  0.09983033  1
  O2-  O172  1  0.43322606  0.82182705  0.42465453  1
  O2-  O173  1  0.43161074  0.82218946  0.75387028  1
  O2-  O174  1  0.92881259  0.31631990  0.09779523  1
  O2-  O175  1  0.92646694  0.31694785  0.43202097  1
  O2-  O176  1  0.92843952  0.31701127  0.76505984  1
  O2-  O177  1  0.92626138  0.81867325  0.09868688  1
  O2-  O178  1  0.92322542  0.82016171  0.42421045  1
  O2-  O179  1  0.92526825  0.81979471  0.75446628  1
  O2-  O180  1  0.32445146  0.06716371  0.23312564  1
  O2-  O181  1  0.32191102  0.07152373  0.56667200  1
  O2-  O182  1  0.32166062  0.06704880  0.90211213  1
  O2-  O183  1  0.32000641  0.57426782  0.23336662  1
  O2-  O184  1  0.32077208  0.57079373  0.56794183  1
  O2-  O185  1  0.31767325  0.57053768  0.90186259  1
  O2-  O186  1  0.82127762  0.06698014  0.24157167  1
  O2-  O187  1  0.81833897  0.07069677  0.56817185  1
  O2-  O188  1  0.81922849  0.07165021  0.91310195  1
  O2-  O189  1  0.81761763  0.57961914  0.24392038  1
  O2-  O190  1  0.81801535  0.57403631  0.57678648  1
  O2-  O191  1  0.81775987  0.57169597  0.90930063  1
  O2-  O192  1  0.04450709  0.07793333  0.26599125  1
  O2-  O193  1  0.05596704  0.08115157  0.60807965  1
  O2-  O194  1  0.04804910  0.08354377  0.93790945  1
  O2-  O195  1  0.04352200  0.58640146  0.26010890  1
  O2-  O196  1  0.03890453  0.58592545  0.59337517  1
  O2-  O197  1  0.03979845  0.58331206  0.92878304  1
  O2-  O198  1  0.54416798  0.07691488  0.26755802  1
  O2-  O199  1  0.54036940  0.08613827  0.60613731  1
  O2-  O200  1  0.54543159  0.07853621  0.93050882  1
  O2-  O201  1  0.54875818  0.58693222  0.27335827  1
  O2-  O202  1  0.54365094  0.58531022  0.60311951  1
  O2-  O203  1  0.55321209  0.58088322  0.94077555  1
  O2-  O204  1  0.17083110  0.20420697  0.26518228  1
  O2-  O205  1  0.16845615  0.20725983  0.60730899  1
  O2-  O206  1  0.16839888  0.20055130  0.94026784  1
  O2-  O207  1  0.16764695  0.71637113  0.26382914  1
  O2-  O208  1  0.16743198  0.71514609  0.59527570  1
  O2-  O209  1  0.16859122  0.70985705  0.92828788  1
  O2-  O210  1  0.66591479  0.20533738  0.26646733  1
  O2-  O211  1  0.66002421  0.20661569  0.60700874  1
  O2-  O212  1  0.66647190  0.20893266  0.92904333  1
  O2-  O213  1  0.66337372  0.70941733  0.27075593  1
  O2-  O214  1  0.66317258  0.70604532  0.60123070  1
  O2-  O215  1  0.66454671  0.70573699  0.93632972  1
  O2-  O216  1  0.08113064  0.45917218  0.06414425  1
  O2-  O217  1  0.08130389  0.46046872  0.39447593  1
  O2-  O218  1  0.07661535  0.46028736  0.73075008  1
  O2-  O219  1  0.08247089  0.95041106  0.06175629  1
  O2-  O220  1  0.08176143  0.94565573  0.39393388  1
  O2-  O221  1  0.08297882  0.94304687  0.72664355  1
  O2-  O222  1  0.58971427  0.45446999  0.06452564  1
  O2-  O223  1  0.58931947  0.46365729  0.40366879  1
  O2-  O224  1  0.58603839  0.46328038  0.73926800  1
  O2-  O225  1  0.58907519  0.95584174  0.06463324  1
  O2-  O226  1  0.58740025  0.95360621  0.39684576  1
  O2-  O227  1  0.58249192  0.95829528  0.73727131  1
  O2-  O228  1  0.19406259  0.33387520  0.06361237  1
  O2-  O229  1  0.19333541  0.33456863  0.39384507  1
  O2-  O230  1  0.20230575  0.33397014  0.73825767  1
  O2-  O231  1  0.20622640  0.83557206  0.06093429  1
  O2-  O232  1  0.21201012  0.83901673  0.39788719  1
  O2-  O233  1  0.21279265  0.83736682  0.73052603  1
  O2-  O234  1  0.71221604  0.33488317  0.06168013  1
  O2-  O235  1  0.71027521  0.33015248  0.40009643  1
  O2-  O236  1  0.70792778  0.33203124  0.73799626  1
  O2-  O237  1  0.70718070  0.83474936  0.06575394  1
  O2-  O238  1  0.70601337  0.83553148  0.39815973  1
  O2-  O239  1  0.70188370  0.82706059  0.73553001  1
  O2-  O240  1  0.46612043  0.42077608  0.26833521  1
  O2-  O241  1  0.45935438  0.41555202  0.60847420  1
  O2-  O242  1  0.46208299  0.41981203  0.92975432  1
  O2-  O243  1  0.46213859  0.90997289  0.27081219  1
  O2-  O244  1  0.46323418  0.91264433  0.60129403  1
  O2-  O245  1  0.46630633  0.91223930  0.93007438  1
  O2-  O246  1  0.95104875  0.41987545  0.26540331  1
  O2-  O247  1  0.95423119  0.41506381  0.59664476  1
  O2-  O248  1  0.95527697  0.41602827  0.93098710  1
  O2-  O249  1  0.94866172  0.91505236  0.27245328  1
  O2-  O250  1  0.94885059  0.91860151  0.60557920  1
  O2-  O251  1  0.94970386  0.92313314  0.93385086  1
  O2-  O252  1  0.32722593  0.30930293  0.27145406  1
  O2-  O253  1  0.33478147  0.29822489  0.60922374  1
  O2-  O254  1  0.32494763  0.30285307  0.93578659  1
  O2-  O255  1  0.33917356  0.79465828  0.27172292  1
  O2-  O256  1  0.33959127  0.79708478  0.59966536  1
  O2-  O257  1  0.33421324  0.79315088  0.93041275  1
  O2-  O258  1  0.83167594  0.28684649  0.26458358  1
  O2-  O259  1  0.83000389  0.28443342  0.60101127  1
  O2-  O260  1  0.83524651  0.28393942  0.93086832  1
  O2-  O261  1  0.83186858  0.79525638  0.27216008  1
  O2-  O262  1  0.83134994  0.79663819  0.60405091  1
  O2-  O263  1  0.82907663  0.79224245  0.93208712  1
  O2-  O264  1  0.41857120  0.03388869  0.06643859  1
  O2-  O265  1  0.41505012  0.03555778  0.40155476  1
  O2-  O266  1  0.41370371  0.03502554  0.73464244  1
  O2-  O267  1  0.41943930  0.54332565  0.06639691  1
  O2-  O268  1  0.41849910  0.54545860  0.40022934  1
  O2-  O269  1  0.41917385  0.54843745  0.73508244  1
  O2-  O270  1  0.91385156  0.04632639  0.06487970  1
  O2-  O271  1  0.91263432  0.04200461  0.39557736  1
  O2-  O272  1  0.92320955  0.04934467  0.73415734  1
  O2-  O273  1  0.91378023  0.54455358  0.05965214  1
  O2-  O274  1  0.91993571  0.55421112  0.38993897  1
  O2-  O275  1  0.91671577  0.54897399  0.72501570  1
  O2-  O276  1  0.29531103  0.16950048  0.06762375  1
  O2-  O277  1  0.29407699  0.17215098  0.39825547  1
  O2-  O278  1  0.29415183  0.16836835  0.73668088  1
  O2-  O279  1  0.28952759  0.66882498  0.06573917  1
  O2-  O280  1  0.29013483  0.66908773  0.39982482  1
  O2-  O281  1  0.29302314  0.67343139  0.73005542  1
  O2-  O282  1  0.78820675  0.16152837  0.06523710  1
  O2-  O283  1  0.79182039  0.15982731  0.39435367  1
  O2-  O284  1  0.78718338  0.16512670  0.73832278  1
  O2-  O285  1  0.79142296  0.66176976  0.06341612  1
  O2-  O286  1  0.79196159  0.66429176  0.39951291  1
  O2-  O287  1  0.79317839  0.66367637  0.73015105  1
