# generated using pymatgen
data_Ca2Al2SiO7
_symmetry_space_group_name_H-M   'P 1'
_cell_length_a   15.46118101
_cell_length_b   15.45964834
_cell_length_c   15.28546922
_cell_angle_alpha   89.99532497
_cell_angle_beta   89.99318604
_cell_angle_gamma   90.01954990
_symmetry_Int_Tables_number   1
_chemical_formula_structural   Ca2Al2SiO7
_chemical_formula_sum   'Ca48 Al48 Si24 O168'
_cell_volume   3653.60018492
_cell_formula_units_Z   24
loop_
 _symmetry_equiv_pos_site_id
 _symmetry_equiv_pos_as_xyz
  1  'x, y, z'
loop_
 _atom_type_symbol
 _atom_type_oxidation_number
  Ca2+  2.0
  Al0+  0.0
  Si0+  0.0
  O2-  -2.0
loop_
 _atom_site_type_symbol
 _atom_site_label
 _atom_site_symmetry_multiplicity
 _atom_site_fract_x
 _atom_site_fract_y
 _atom_site_fract_z
 _atom_site_occupancy
  Ca2+  Ca0  1  0.17377693  0.09382642  0.17253411  1
  Ca2+  Ca1  1  0.17406474  0.08234481  0.50552174  1
  Ca2+  Ca2  1  0.17288754  0.08587231  0.83644941  1
  Ca2+  Ca3  1  0.15165940  0.57171503  0.16978999  1
  Ca2+  Ca4  1  0.16678553  0.57522975  0.50591788  1
  Ca2+  Ca5  1  0.16329320  0.57229590  0.83780753  1
  Ca2+  Ca6  1  0.68347229  0.08825698  0.17053412  1
  Ca2+  Ca7  1  0.67832054  0.07652413  0.50699982  1
  Ca2+  Ca8  1  0.67940465  0.08183469  0.83348588  1
  Ca2+  Ca9  1  0.67047403  0.58148305  0.16637984  1
  Ca2+  Ca10  1  0.66442486  0.58606234  0.50259293  1
  Ca2+  Ca11  1  0.67667682  0.57431682  0.84241296  1
  Ca2+  Ca12  1  0.08344232  0.32554510  0.15868127  1
  Ca2+  Ca13  1  0.08352929  0.33136021  0.49705252  1
  Ca2+  Ca14  1  0.07826910  0.33208659  0.83228343  1
  Ca2+  Ca15  1  0.08894556  0.81811537  0.16245642  1
  Ca2+  Ca16  1  0.08477159  0.83215911  0.49818160  1
  Ca2+  Ca17  1  0.08135796  0.82915268  0.82712476  1
  Ca2+  Ca18  1  0.58040133  0.33477886  0.16018316  1
  Ca2+  Ca19  1  0.57225816  0.33229545  0.49931059  1
  Ca2+  Ca20  1  0.57854837  0.33335886  0.82614373  1
  Ca2+  Ca21  1  0.57840696  0.83408856  0.16854423  1
  Ca2+  Ca22  1  0.57856392  0.83182248  0.49203270  1
  Ca2+  Ca23  1  0.58608304  0.83393849  0.82653928  1
  Ca2+  Ca24  1  0.31578447  0.41546652  0.17149218  1
  Ca2+  Ca25  1  0.32063248  0.41968253  0.50957600  1
  Ca2+  Ca26  1  0.32226481  0.41468469  0.83182264  1
  Ca2+  Ca27  1  0.33355802  0.92655105  0.17245750  1
  Ca2+  Ca28  1  0.33091620  0.92408333  0.50680640  1
  Ca2+  Ca29  1  0.32705193  0.92620489  0.83498137  1
  Ca2+  Ca30  1  0.83631032  0.41707647  0.16180632  1
  Ca2+  Ca31  1  0.83437463  0.41773615  0.50576132  1
  Ca2+  Ca32  1  0.83387007  0.41510255  0.84550042  1
  Ca2+  Ca33  1  0.84058669  0.93018763  0.16950988  1
  Ca2+  Ca34  1  0.83423119  0.92578481  0.51044014  1
  Ca2+  Ca35  1  0.83717747  0.92434056  0.83199356  1
  Ca2+  Ca36  1  0.41462961  0.16286053  0.16103501  1
  Ca2+  Ca37  1  0.40697096  0.16847387  0.49824257  1
  Ca2+  Ca38  1  0.41291839  0.16863371  0.82716791  1
  Ca2+  Ca39  1  0.41824456  0.67318985  0.16584953  1
  Ca2+  Ca40  1  0.41901747  0.67216389  0.49127463  1
  Ca2+  Ca41  1  0.41826589  0.66261238  0.82599061  1
  Ca2+  Ca42  1  0.92735236  0.16677195  0.15738039  1
  Ca2+  Ca43  1  0.92031094  0.16766583  0.49558074  1
  Ca2+  Ca44  1  0.91355696  0.17427839  0.82840568  1
  Ca2+  Ca45  1  0.92510783  0.66382953  0.15993257  1
  Ca2+  Ca46  1  0.92255589  0.67735702  0.49569317  1
  Ca2+  Ca47  1  0.92089451  0.66698011  0.82973051  1
  Al0+  Al48  1  0.00281712  -0.00336261  0.00061537  1
  Al0+  Al49  1  0.00249246  0.00224552  0.33365528  1
  Al0+  Al50  1  0.00063875  -0.00032962  0.66968389  1
  Al0+  Al51  1  -0.00036242  0.49963845  0.00011272  1
  Al0+  Al52  1  -0.00413831  0.50037149  0.33663407  1
  Al0+  Al53  1  0.00006379  0.49888122  0.66456466  1
  Al0+  Al54  1  0.49866157  0.00011362  0.00194537  1
  Al0+  Al55  1  0.50121553  0.00223573  0.33274462  1
  Al0+  Al56  1  0.50272942  -0.00116867  0.67244653  1
  Al0+  Al57  1  0.49944679  0.50132942  0.00273027  1
  Al0+  Al58  1  0.49986553  0.50009017  0.32820174  1
  Al0+  Al59  1  0.49994080  0.49844634  0.66403552  1
  Al0+  Al60  1  0.25080732  0.25090238  0.00316486  1
  Al0+  Al61  1  0.24802586  0.25191941  0.33858006  1
  Al0+  Al62  1  0.24982035  0.25201511  0.66903370  1
  Al0+  Al63  1  0.25136837  0.75086204  -0.00650759  1
  Al0+  Al64  1  0.25047622  0.74979724  0.32305189  1
  Al0+  Al65  1  0.25307594  0.74969776  0.67194552  1
  Al0+  Al66  1  0.74802895  0.24796131  0.00479552  1
  Al0+  Al67  1  0.74789648  0.25206996  0.33899163  1
  Al0+  Al68  1  0.74909519  0.24993128  0.66268895  1
  Al0+  Al69  1  0.74817169  0.74965778  0.00439624  1
  Al0+  Al70  1  0.74924650  0.74999026  0.32781902  1
  Al0+  Al71  1  0.75160999  0.74938547  0.66492793  1
  Al0+  Al72  1  0.32116953  0.07160206  0.68177578  1
  Al0+  Al73  1  0.82140690  0.57134930  0.01537865  1
  Al0+  Al74  1  0.92881107  0.31714601  0.98675006  1
  Al0+  Al75  1  0.57236814  0.67737882  0.31544203  1
  Al0+  Al76  1  0.92992702  0.82108281  0.65370938  1
  Al0+  Al77  1  0.17673870  0.43108048  0.34831186  1
  Al0+  Al78  1  0.82249973  0.06928781  0.01367614  1
  Al0+  Al79  1  0.06921555  0.67832472  0.32106518  1
  Al0+  Al80  1  0.68051489  0.92620230  0.68023102  1
  Al0+  Al81  1  0.92742008  0.32144828  0.65203334  1
  Al0+  Al82  1  0.07059871  0.18119308  0.32146953  1
  Al0+  Al83  1  0.42859153  0.31964846  0.65275040  1
  Al0+  Al84  1  0.67690552  0.42743485  0.01477008  1
  Al0+  Al85  1  0.17631800  0.42977203  0.68366609  1
  Al0+  Al86  1  0.32329465  0.57067038  0.67960741  1
  Al0+  Al87  1  0.17795356  0.92714270  0.68149886  1
  Al0+  Al88  1  0.32135179  0.07067704  0.34751318  1
  Al0+  Al89  1  0.42893568  0.82382950  0.31768852  1
  Al0+  Al90  1  0.82214523  0.07315405  0.68158019  1
  Al0+  Al91  1  0.07447690  0.17664508  0.98394116  1
  Al0+  Al92  1  0.07027454  0.67823440  0.98426155  1
  Al0+  Al93  1  0.82373623  0.07189333  0.34815325  1
  Al0+  Al94  1  0.31853012  0.06988364  0.01489312  1
  Al0+  Al95  1  0.18008560  0.43113992  0.01428004  1
  Si0+  Si96  1  0.57063132  0.67885774  0.98266834  1
  Si0+  Si97  1  0.67652540  0.92795336  0.01867519  1
  Si0+  Si98  1  0.07208071  0.17841665  0.65053269  1
  Si0+  Si99  1  0.43114561  0.82221363  0.98112509  1
  Si0+  Si100  1  0.92566447  0.82156607  0.98376048  1
  Si0+  Si101  1  0.92451408  0.32205518  0.31700771  1
  Si0+  Si102  1  0.32285184  0.57219969  0.34676418  1
  Si0+  Si103  1  0.81878155  0.57202947  0.35034589  1
  Si0+  Si104  1  0.57019454  0.17800806  0.98542686  1
  Si0+  Si105  1  0.82050519  0.57044631  0.67879500  1
  Si0+  Si106  1  0.42821719  0.32000756  0.31762995  1
  Si0+  Si107  1  0.57177936  0.17635775  0.64885665  1
  Si0+  Si108  1  0.68003121  0.92862464  0.34838415  1
  Si0+  Si109  1  0.17945831  0.92465198  0.34779070  1
  Si0+  Si110  1  0.17878218  0.92484275  0.01833491  1
  Si0+  Si111  1  0.07380231  0.67831133  0.65041156  1
  Si0+  Si112  1  0.57166857  0.18091169  0.31828594  1
  Si0+  Si113  1  0.42953259  0.32199743  0.98610414  1
  Si0+  Si114  1  0.67579476  0.42983562  0.35115935  1
  Si0+  Si115  1  0.92837656  0.82388768  0.31664628  1
  Si0+  Si116  1  0.57118768  0.67874693  0.65294404  1
  Si0+  Si117  1  0.67885529  0.42954041  0.67852781  1
  Si0+  Si118  1  0.42995819  0.82212830  0.65314120  1
  Si0+  Si119  1  0.32257908  0.57480259  0.01766836  1
  O2-  O120  1  0.24148000  -0.00128895  0.06300495  1
  O2-  O121  1  0.24878881  -0.00703459  0.39164753  1
  O2-  O122  1  0.24777553  0.00133478  0.73178211  1
  O2-  O123  1  0.25220004  0.50870420  0.06221776  1
  O2-  O124  1  0.25102664  0.50815527  0.39194729  1
  O2-  O125  1  0.24827749  0.50351568  0.73117064  1
  O2-  O126  1  0.74869434  -0.00671830  0.06179564  1
  O2-  O127  1  0.75201464  -0.00697066  0.39286515  1
  O2-  O128  1  0.75188982  -0.00165283  0.73013330  1
  O2-  O129  1  0.75017738  0.49783342  0.06532557  1
  O2-  O130  1  0.74580516  0.50242161  0.39260909  1
  O2-  O131  1  0.75427366  0.49500077  0.72084464  1
  O2-  O132  1  -0.00743093  0.25258834  0.27464013  1
  O2-  O133  1  0.00151743  0.24585554  0.60641594  1
  O2-  O134  1  -0.00200795  0.24408783  0.93420562  1
  O2-  O135  1  -0.00305316  0.75511036  0.27283508  1
  O2-  O136  1  0.00789127  0.74987404  0.60614445  1
  O2-  O137  1  -0.00626606  0.75209919  0.93972821  1
  O2-  O138  1  0.49842308  0.24874117  0.27431735  1
  O2-  O139  1  0.49878976  0.24081521  0.60441905  1
  O2-  O140  1  0.50181316  0.25191607  0.94400863  1
  O2-  O141  1  0.50008240  0.75020457  0.26714919  1
  O2-  O142  1  0.50025857  0.74987125  0.61115026  1
  O2-  O143  1  0.50096454  0.74977541  0.93864449  1
  O2-  O144  1  0.07465344  0.18095709  0.09793542  1
  O2-  O145  1  0.07142238  0.18198502  0.43448351  1
  O2-  O146  1  0.07279525  0.18020330  0.75589730  1
  O2-  O147  1  0.06917107  0.67962466  0.09777542  1
  O2-  O148  1  0.06747692  0.67906945  0.43420029  1
  O2-  O149  1  0.07009640  0.67685704  0.75584515  1
  O2-  O150  1  0.56866884  0.17719134  0.09098352  1
  O2-  O151  1  0.57281107  0.18307628  0.42306801  1
  O2-  O152  1  0.57445175  0.18033339  0.75454626  1
  O2-  O153  1  0.56900506  0.67907015  0.08740932  1
  O2-  O154  1  0.57142248  0.67741557  0.42964608  1
  O2-  O155  1  0.57157813  0.67766671  0.75812205  1
  O2-  O156  1  0.17803177  0.43030043  0.23512358  1
  O2-  O157  1  0.17676948  0.43171886  0.56965671  1
  O2-  O158  1  0.18228607  0.43027223  0.90173848  1
  O2-  O159  1  0.17992376  0.92402123  0.24227698  1
  O2-  O160  1  0.18174812  0.92553984  0.56739470  1
  O2-  O161  1  0.18282088  0.92173274  0.91311568  1
  O2-  O162  1  0.67505502  0.42752666  0.24658772  1
  O2-  O163  1  0.67690170  0.43335398  0.57316250  1
  O2-  O164  1  0.67406304  0.43037168  0.90073933  1
  O2-  O165  1  0.67968134  0.93129310  0.24265294  1
  O2-  O166  1  0.68024269  0.92599496  0.56642019  1
  O2-  O167  1  0.67482875  0.92828367  0.91332229  1
  O2-  O168  1  0.43033507  0.32051762  0.09167231  1
  O2-  O169  1  0.43070558  0.32057127  0.42262305  1
  O2-  O170  1  0.43370189  0.32149128  0.76597134  1
  O2-  O171  1  0.43264451  0.82234850  0.08613590  1
  O2-  O172  1  0.43076040  0.82309295  0.43170176  1
  O2-  O173  1  0.43254699  0.82164773  0.75830828  1
  O2-  O174  1  0.92965791  0.31656670  0.10066793  1
  O2-  O175  1  0.92394926  0.32217246  0.42280035  1
  O2-  O176  1  0.92388125  0.32246439  0.76445128  1
  O2-  O177  1  0.92652759  0.82162208  0.08962332  1
  O2-  O178  1  0.92715551  0.82161991  0.42230545  1
  O2-  O179  1  0.92672994  0.81481942  0.76646411  1
  O2-  O180  1  0.32072423  0.07150338  0.23435821  1
  O2-  O181  1  0.32052898  0.06911490  0.56791666  1
  O2-  O182  1  0.32216413  0.06790375  0.90237988  1
  O2-  O183  1  0.32546181  0.56815957  0.24129811  1
  O2-  O184  1  0.32422999  0.57059507  0.56562281  1
  O2-  O185  1  0.32539782  0.57232512  0.91230923  1
  O2-  O186  1  0.82149540  0.07220274  0.23487132  1
  O2-  O187  1  0.81951011  0.07243719  0.56771182  1
  O2-  O188  1  0.81859295  0.07025793  0.90115729  1
  O2-  O189  1  0.82016298  0.57043680  0.24573431  1
  O2-  O190  1  0.81696334  0.57173549  0.57339423  1
  O2-  O191  1  0.81794627  0.57253814  0.90125739  1
  O2-  O192  1  0.04587412  0.08290121  0.26697700  1
  O2-  O193  1  0.04919540  0.08369520  0.60555492  1
  O2-  O194  1  0.05437849  0.07402444  0.93684482  1
  O2-  O195  1  0.03179630  0.58323242  0.26776909  1
  O2-  O196  1  0.04443884  0.58635189  0.60322077  1
  O2-  O197  1  0.03863727  0.58247932  0.93035321  1
  O2-  O198  1  0.54809308  0.08872371  0.27031800  1
  O2-  O199  1  0.55089788  0.08044669  0.60562522  1
  O2-  O200  1  0.53952942  0.08718361  0.93789961  1
  O2-  O201  1  0.54450230  0.57902832  0.26156207  1
  O2-  O202  1  0.54365774  0.58768191  0.60362192  1
  O2-  O203  1  0.54227137  0.58662701  0.93557674  1
  O2-  O204  1  0.16649700  0.21620395  0.26780691  1
  O2-  O205  1  0.16509619  0.20660613  0.60438887  1
  O2-  O206  1  0.17209099  0.21031717  0.93240255  1
  O2-  O207  1  0.16560969  0.70330907  0.26364678  1
  O2-  O208  1  0.16925445  0.70167072  0.60711466  1
  O2-  O209  1  0.16744417  0.70842200  0.93066301  1
  O2-  O210  1  0.66230937  0.21359102  0.27044633  1
  O2-  O211  1  0.66217122  0.20723077  0.59892449  1
  O2-  O212  1  0.66200303  0.20400280  0.93804513  1
  O2-  O213  1  0.67037368  0.70537698  0.26084949  1
  O2-  O214  1  0.66235971  0.70596445  0.60377298  1
  O2-  O215  1  0.66349143  0.70591423  0.93664645  1
  O2-  O216  1  0.08341400  0.46044639  0.06805649  1
  O2-  O217  1  0.07934682  0.46008301  0.40160611  1
  O2-  O218  1  0.07756977  0.45834570  0.73566391  1
  O2-  O219  1  0.08280473  0.94032027  0.06259292  1
  O2-  O220  1  0.08593148  0.95022350  0.39363535  1
  O2-  O221  1  0.07903466  0.95009061  0.73470085  1
  O2-  O222  1  0.57978144  0.45953841  0.06970550  1
  O2-  O223  1  0.58325871  0.45794593  0.39782491  1
  O2-  O224  1  0.58955906  0.46125512  0.72761942  1
  O2-  O225  1  0.58450273  0.95779163  0.06551528  1
  O2-  O226  1  0.58784406  0.95805382  0.39491755  1
  O2-  O227  1  0.58362503  0.95327757  0.73655384  1
  O2-  O228  1  0.21535035  0.33663977  0.06982357  1
  O2-  O229  1  0.21198125  0.33742627  0.40426303  1
  O2-  O230  1  0.20788477  0.33305816  0.73615572  1
  O2-  O231  1  0.21251892  0.83311374  0.06454512  1
  O2-  O232  1  0.20416584  0.83002295  0.39258327  1
  O2-  O233  1  0.20812996  0.83026669  0.73653103  1
  O2-  O234  1  0.70031046  0.32880459  0.06925003  1
  O2-  O235  1  0.70346113  0.33941136  0.40138549  1
  O2-  O236  1  0.70001375  0.33564230  0.72322640  1
  O2-  O237  1  0.69681442  0.83310885  0.06435446  1
  O2-  O238  1  0.69999647  0.83214347  0.39117876  1
  O2-  O239  1  0.70882847  0.82781790  0.73407208  1
  O2-  O240  1  0.45714770  0.41074724  0.26887558  1
  O2-  O241  1  0.46570443  0.41371468  0.59595043  1
  O2-  O242  1  0.45622581  0.41476913  0.93987735  1
  O2-  O243  1  0.46173498  0.92127044  0.26348446  1
  O2-  O244  1  0.45950101  0.91352478  0.60571404  1
  O2-  O245  1  0.46164766  0.91355661  0.93434884  1
  O2-  O246  1  0.94931307  0.41654160  0.27321360  1
  O2-  O247  1  0.95733080  0.41841809  0.59631367  1
  O2-  O248  1  0.95597358  0.41660352  0.93583430  1
  O2-  O249  1  0.95430191  0.91744704  0.27140529  1
  O2-  O250  1  0.95647999  0.91917250  0.60033752  1
  O2-  O251  1  0.95276486  0.91407946  0.93687480  1
  O2-  O252  1  0.33619540  0.29202401  0.27190793  1
  O2-  O253  1  0.33097871  0.29316298  0.59846185  1
  O2-  O254  1  0.33925295  0.29196771  0.93868408  1
  O2-  O255  1  0.33230938  0.79688990  0.26010467  1
  O2-  O256  1  0.33793788  0.79574866  0.60566797  1
  O2-  O257  1  0.33955996  0.79598191  0.93321185  1
  O2-  O258  1  0.82910640  0.29902257  0.27336055  1
  O2-  O259  1  0.82997955  0.29386729  0.59617714  1
  O2-  O260  1  0.82726411  0.29198292  0.93691020  1
  O2-  O261  1  0.83487296  0.79925276  0.27001788  1
  O2-  O262  1  0.83534434  0.78541900  0.59665162  1
  O2-  O263  1  0.83026998  0.79757242  0.94029314  1
  O2-  O264  1  0.41509995  0.03621285  0.06892279  1
  O2-  O265  1  0.42024171  0.04483282  0.39976811  1
  O2-  O266  1  0.41997877  0.04404334  0.73396166  1
  O2-  O267  1  0.41562894  0.54861895  0.06464036  1
  O2-  O268  1  0.41620878  0.54433418  0.39287193  1
  O2-  O269  1  0.42082355  0.53830973  0.73353898  1
  O2-  O270  1  0.91973627  0.03826045  0.06729069  1
  O2-  O271  1  0.92113855  0.04386443  0.40140328  1
  O2-  O272  1  0.92027341  0.04757748  0.73394117  1
  O2-  O273  1  0.91876293  0.54270131  0.06930932  1
  O2-  O274  1  0.90810593  0.54262790  0.40136144  1
  O2-  O275  1  0.91368274  0.54763689  0.72403572  1
  O2-  O276  1  0.29330979  0.16771805  0.06902546  1
  O2-  O277  1  0.28836402  0.16625500  0.40174899  1
  O2-  O278  1  0.29551427  0.17067026  0.73340389  1
  O2-  O279  1  0.30027670  0.67063035  0.05996433  1
  O2-  O280  1  0.30158119  0.66879992  0.38801191  1
  O2-  O281  1  0.30374885  0.67012498  0.73324618  1
  O2-  O282  1  0.78788134  0.16332671  0.07011277  1
  O2-  O283  1  0.78784634  0.16728472  0.40158640  1
  O2-  O284  1  0.78711277  0.17044257  0.73322050  1
  O2-  O285  1  0.79058692  0.66863151  0.07030841  1
  O2-  O286  1  0.79180743  0.66546440  0.39589252  1
  O2-  O287  1  0.78834164  0.65936088  0.72803833  1
