# generated using pymatgen
data_Ca2Al2SiO7
_symmetry_space_group_name_H-M   'P 1'
_cell_length_a   15.46364083
_cell_length_b   15.46478247
_cell_length_c   15.28754951
_cell_angle_alpha   90.00685769
_cell_angle_beta   89.99195378
_cell_angle_gamma   90.01993648
_symmetry_Int_Tables_number   1
_chemical_formula_structural   Ca2Al2SiO7
_chemical_formula_sum   'Ca48 Al48 Si24 O168'
_cell_volume   3655.89245855
_cell_formula_units_Z   24
loop_
 _symmetry_equiv_pos_site_id
 _symmetry_equiv_pos_as_xyz
  1  'x, y, z'
loop_
 _atom_type_symbol
 _atom_type_oxidation_number
  Ca2+  2.0
  Al0+  0.0
  Si0+  0.0
  O2-  -2.0
loop_
 _atom_site_type_symbol
 _atom_site_label
 _atom_site_symmetry_multiplicity
 _atom_site_fract_x
 _atom_site_fract_y
 _atom_site_fract_z
 _atom_site_occupancy
  Ca2+  Ca0  1  0.16215651  0.07049893  0.16993729  1
  Ca2+  Ca1  1  0.16065630  0.07792831  0.50337588  1
  Ca2+  Ca2  1  0.16302942  0.07717800  0.83628157  1
  Ca2+  Ca3  1  0.18119060  0.58225755  0.17692853  1
  Ca2+  Ca4  1  0.17033989  0.57346973  0.50981632  1
  Ca2+  Ca5  1  0.17635402  0.59431941  0.83113478  1
  Ca2+  Ca6  1  0.66945264  0.07253514  0.17410170  1
  Ca2+  Ca7  1  0.67153028  0.07567398  0.51093428  1
  Ca2+  Ca8  1  0.66881187  0.07926789  0.82686483  1
  Ca2+  Ca9  1  0.67693053  0.59210163  0.16860505  1
  Ca2+  Ca10  1  0.67988386  0.57706323  0.50638516  1
  Ca2+  Ca11  1  0.67721269  0.59138489  0.83362089  1
  Ca2+  Ca12  1  0.08052360  0.34110880  0.17135486  1
  Ca2+  Ca13  1  0.08815094  0.33072721  0.49485048  1
  Ca2+  Ca14  1  0.08681027  0.32542140  0.82268981  1
  Ca2+  Ca15  1  0.07432307  0.83855359  0.16254247  1
  Ca2+  Ca16  1  0.07198057  0.82656428  0.49716962  1
  Ca2+  Ca17  1  0.07392243  0.82952212  0.82413393  1
  Ca2+  Ca18  1  0.57475674  0.33877243  0.16510495  1
  Ca2+  Ca19  1  0.58651088  0.33079039  0.49639943  1
  Ca2+  Ca20  1  0.58624264  0.32937173  0.82237844  1
  Ca2+  Ca21  1  0.58318962  0.82654873  0.16210119  1
  Ca2+  Ca22  1  0.57925636  0.84093405  0.49814809  1
  Ca2+  Ca23  1  0.57701819  0.82835080  0.82479118  1
  Ca2+  Ca24  1  0.33084891  0.42493147  0.17623477  1
  Ca2+  Ca25  1  0.32834363  0.42348853  0.50371427  1
  Ca2+  Ca26  1  0.32796152  0.42714052  0.83314907  1
  Ca2+  Ca27  1  0.31710067  0.91333770  0.17198668  1
  Ca2+  Ca28  1  0.32665792  0.91172360  0.50555179  1
  Ca2+  Ca29  1  0.32685498  0.91178043  0.83528997  1
  Ca2+  Ca30  1  0.83772690  0.43085903  0.17420897  1
  Ca2+  Ca31  1  0.83684072  0.42519871  0.50700691  1
  Ca2+  Ca32  1  0.83063970  0.43026863  0.83243032  1
  Ca2+  Ca33  1  0.82997046  0.91014933  0.17524077  1
  Ca2+  Ca34  1  0.82552436  0.91419276  0.50764172  1
  Ca2+  Ca35  1  0.83844307  0.91636240  0.83196619  1
  Ca2+  Ca36  1  0.41319258  0.17432678  0.16727517  1
  Ca2+  Ca37  1  0.42433216  0.17426647  0.49544181  1
  Ca2+  Ca38  1  0.42371753  0.16955687  0.82130953  1
  Ca2+  Ca39  1  0.42320698  0.65758477  0.16036925  1
  Ca2+  Ca40  1  0.41451183  0.66379424  0.50046356  1
  Ca2+  Ca41  1  0.41812228  0.66566333  0.82734231  1
  Ca2+  Ca42  1  0.91499798  0.17674740  0.16621212  1
  Ca2+  Ca43  1  0.91655673  0.17247172  0.49973191  1
  Ca2+  Ca44  1  0.92107449  0.16701111  0.82133714  1
  Ca2+  Ca45  1  0.91164942  0.67586090  0.16175528  1
  Ca2+  Ca46  1  0.91279219  0.66996606  0.49601117  1
  Ca2+  Ca47  1  0.91674238  0.67402768  0.82521147  1
  Al0+  Al48  1  -0.00168428  0.00240771  0.00124297  1
  Al0+  Al49  1  -0.00047268  -0.00004640  0.33331548  1
  Al0+  Al50  1  -0.00117223  0.00026242  0.66131335  1
  Al0+  Al51  1  -0.00075971  0.50078325  0.00252608  1
  Al0+  Al52  1  0.00307806  0.50042475  0.33507859  1
  Al0+  Al53  1  0.00078492  0.49841542  0.67420666  1
  Al0+  Al54  1  0.49965834  0.00178179  0.00188016  1
  Al0+  Al55  1  0.49974578  -0.00135631  0.33245613  1
  Al0+  Al56  1  0.49978005  0.00091541  0.66207874  1
  Al0+  Al57  1  0.50024200  0.49876733  -0.00381303  1
  Al0+  Al58  1  0.50219705  0.49943066  0.33178418  1
  Al0+  Al59  1  0.49804182  0.50005718  0.67239766  1
  Al0+  Al60  1  0.25012377  0.25057354  -0.00027772  1
  Al0+  Al61  1  0.25241268  0.24881802  0.32848578  1
  Al0+  Al62  1  0.25067021  0.24886450  0.66482029  1
  Al0+  Al63  1  0.24916702  0.75057732  0.01109909  1
  Al0+  Al64  1  0.25075407  0.75158472  0.34099726  1
  Al0+  Al65  1  0.24910791  0.74980618  0.66231673  1
  Al0+  Al66  1  0.74903075  0.25000286  0.00054752  1
  Al0+  Al67  1  0.75163875  0.24866214  0.32455990  1
  Al0+  Al68  1  0.75086542  0.24756414  0.66923049  1
  Al0+  Al69  1  0.74855495  0.75088099  -0.00543551  1
  Al0+  Al70  1  0.74898424  0.75037431  0.33806851  1
  Al0+  Al71  1  0.74619748  0.75013069  0.66983364  1
  Al0+  Al72  1  0.32105513  0.56961317  0.01459057  1
  Al0+  Al73  1  0.92987386  0.32300906  0.32010210  1
  Al0+  Al74  1  0.07274681  0.17860058  0.65266995  1
  Al0+  Al75  1  0.57237396  0.18059136  0.65226286  1
  Al0+  Al76  1  0.82141306  0.57075235  0.34556985  1
  Al0+  Al77  1  0.18033192  0.42844047  0.34805969  1
  Al0+  Al78  1  0.67896025  0.42759173  0.67954173  1
  Al0+  Al79  1  0.82214612  0.57271113  0.68250206  1
  Al0+  Al80  1  0.31909316  0.57288275  0.68322776  1
  Al0+  Al81  1  0.42946244  0.82032182  0.65339693  1
  Al0+  Al82  1  0.17798968  0.93079101  0.01224599  1
  Al0+  Al83  1  0.07078276  0.67666710  0.65206500  1
  Al0+  Al84  1  0.67557725  0.92889703  0.68343898  1
  Al0+  Al85  1  0.67946264  0.92943281  0.34626448  1
  Al0+  Al86  1  0.92637473  0.81936286  0.65039777  1
  Al0+  Al87  1  0.32549363  0.57136161  0.34992816  1
  Al0+  Al88  1  0.43115524  0.32077937  0.31912991  1
  Al0+  Al89  1  0.17676293  0.93003425  0.35050591  1
  Al0+  Al90  1  0.56940553  0.67942980  0.98533813  1
  Al0+  Al91  1  0.82219833  0.06857562  0.68120779  1
  Al0+  Al92  1  0.92965988  0.82180809  0.98607609  1
  Al0+  Al93  1  0.81971022  0.57228541  0.01500620  1
  Al0+  Al94  1  0.92877693  0.81875071  0.31961888  1
  Al0+  Al95  1  0.17854522  0.42582879  0.68274271  1
  Si0+  Si96  1  0.92778554  0.32290939  0.98443136  1
  Si0+  Si97  1  0.42903783  0.31984935  0.98246909  1
  Si0+  Si98  1  0.42710143  0.82287511  0.31670464  1
  Si0+  Si99  1  0.32328252  0.07394989  0.01651009  1
  Si0+  Si100  1  0.06907424  0.18087850  0.98623609  1
  Si0+  Si101  1  0.57239368  0.17562229  0.31370536  1
  Si0+  Si102  1  0.42823056  0.32269493  0.65010680  1
  Si0+  Si103  1  0.67930125  0.42573523  0.01767363  1
  Si0+  Si104  1  0.17848075  0.42438349  0.01801453  1
  Si0+  Si105  1  0.07285911  0.17758779  0.31421028  1
  Si0+  Si106  1  0.67829055  0.93039801  0.01455373  1
  Si0+  Si107  1  0.92880825  0.32097866  0.65292588  1
  Si0+  Si108  1  0.82172272  0.07432654  0.34858422  1
  Si0+  Si109  1  0.32108743  0.07044614  0.67948869  1
  Si0+  Si110  1  0.17872514  0.93003874  0.68017114  1
  Si0+  Si111  1  0.82063042  0.07279600  0.01668614  1
  Si0+  Si112  1  0.32207097  0.07109902  0.34986535  1
  Si0+  Si113  1  0.57090246  0.67578437  0.64851414  1
  Si0+  Si114  1  0.67968027  0.42619107  0.34570421  1
  Si0+  Si115  1  0.56963957  0.68056321  0.31973669  1
  Si0+  Si116  1  0.07375572  0.67805497  0.98671382  1
  Si0+  Si117  1  0.42595034  0.82309219  0.98692777  1
  Si0+  Si118  1  0.07406815  0.67858773  0.31654070  1
  Si0+  Si119  1  0.57130965  0.17768196  0.98412409  1
  O2-  O120  1  0.25552350  0.00380960  0.05918342  1
  O2-  O121  1  0.25290520  0.00441838  0.39567349  1
  O2-  O122  1  0.24975583  0.00082937  0.72330795  1
  O2-  O123  1  0.24461376  0.49621910  0.06033237  1
  O2-  O124  1  0.25047612  0.50178928  0.39764300  1
  O2-  O125  1  0.24562774  0.50207133  0.73338963  1
  O2-  O126  1  0.75071243  -0.00000288  0.05757340  1
  O2-  O127  1  0.75297755  0.00553854  0.39087958  1
  O2-  O128  1  0.75286084  -0.00484761  0.73397931  1
  O2-  O129  1  0.74631616  0.49565493  0.06207995  1
  O2-  O130  1  0.75315907  0.48883669  0.38942402  1
  O2-  O131  1  0.74700357  0.50220560  0.73118312  1
  O2-  O132  1  0.00516238  0.24843354  0.27128940  1
  O2-  O133  1  0.00137692  0.25675569  0.60786098  1
  O2-  O134  1  0.00168118  0.25443114  0.94322025  1
  O2-  O135  1  0.00475693  0.74626898  0.27053044  1
  O2-  O136  1  -0.00642268  0.74257143  0.60103540  1
  O2-  O137  1  0.00440366  0.74600909  0.94236734  1
  O2-  O138  1  0.50584825  0.24638918  0.26918963  1
  O2-  O139  1  0.50231362  0.25953308  0.60615626  1
  O2-  O140  1  0.49998958  0.24810229  0.94169404  1
  O2-  O141  1  0.49560754  0.74877380  0.27602121  1
  O2-  O142  1  0.50401508  0.74642041  0.60454714  1
  O2-  O143  1  0.49198110  0.75316948  0.94163935  1
  O2-  O144  1  0.06720986  0.17946295  0.09115834  1
  O2-  O145  1  0.07315220  0.17685399  0.41940842  1
  O2-  O146  1  0.07239636  0.17753099  0.76669794  1
  O2-  O147  1  0.07397407  0.67939298  0.09233555  1
  O2-  O148  1  0.07242761  0.67969478  0.42161644  1
  O2-  O149  1  0.07405590  0.68488159  0.76623186  1
  O2-  O150  1  0.57074649  0.17687110  0.08921206  1
  O2-  O151  1  0.57220567  0.17526545  0.41880358  1
  O2-  O152  1  0.56772996  0.18009910  0.76613079  1
  O2-  O153  1  0.57045598  0.68227036  0.09921951  1
  O2-  O154  1  0.56971305  0.68077151  0.42425507  1
  O2-  O155  1  0.56855059  0.67706234  0.75444204  1
  O2-  O156  1  0.18232711  0.43093137  0.23366003  1
  O2-  O157  1  0.18375937  0.42213357  0.56963920  1
  O2-  O158  1  0.18184702  0.41611477  0.91333400  1
  O2-  O159  1  0.17701389  0.93225569  0.23670050  1
  O2-  O160  1  0.18019127  0.93219906  0.57531223  1
  O2-  O161  1  0.17915859  0.93335682  0.89910680  1
  O2-  O162  1  0.67765397  0.42939509  0.23984031  1
  O2-  O163  1  0.68162886  0.42757176  0.56539669  1
  O2-  O164  1  0.68227347  0.42038204  0.91276842  1
  O2-  O165  1  0.68025585  0.92920004  0.23201164  1
  O2-  O166  1  0.67422610  0.93380231  0.56991927  1
  O2-  O167  1  0.67439545  0.93365726  0.91038162  1
  O2-  O168  1  0.42924034  0.31886526  0.08774291  1
  O2-  O169  1  0.43447248  0.31855281  0.43160744  1
  O2-  O170  1  0.42654419  0.31742221  0.75621379  1
  O2-  O171  1  0.42877875  0.82492053  0.09262738  1
  O2-  O172  1  0.42944363  0.82748371  0.42132036  1
  O2-  O173  1  0.42837111  0.82085839  0.76716512  1
  O2-  O174  1  0.92750570  0.32121559  0.08966705  1
  O2-  O175  1  0.92688231  0.31935046  0.43244722  1
  O2-  O176  1  0.92870420  0.31653076  0.75908900  1
  O2-  O177  1  0.92898542  0.82259371  0.09958047  1
  O2-  O178  1  0.92673479  0.81778922  0.43163943  1
  O2-  O179  1  0.93223179  0.82209223  0.76448353  1
  O2-  O180  1  0.32160016  0.06868952  0.24363700  1
  O2-  O181  1  0.32090622  0.07016884  0.57465227  1
  O2-  O182  1  0.32452995  0.07599174  0.91103789  1
  O2-  O183  1  0.32634408  0.56857690  0.23560420  1
  O2-  O184  1  0.32015717  0.57044274  0.57025964  1
  O2-  O185  1  0.32038869  0.57011324  0.90215729  1
  O2-  O186  1  0.81971414  0.07496495  0.24205975  1
  O2-  O187  1  0.82031836  0.07085973  0.56774670  1
  O2-  O188  1  0.82166542  0.07523668  0.91225596  1
  O2-  O189  1  0.81732349  0.57332883  0.23201456  1
  O2-  O190  1  0.82113681  0.57008016  0.56872462  1
  O2-  O191  1  0.81909150  0.57118718  0.90275217  1
  O2-  O192  1  0.04292564  0.08541538  0.26680935  1
  O2-  O193  1  0.03970377  0.08460994  0.59614497  1
  O2-  O194  1  0.03859397  0.09068670  0.93756229  1
  O2-  O195  1  0.05227487  0.58412712  0.27081864  1
  O2-  O196  1  0.05043778  0.57383492  0.60574211  1
  O2-  O197  1  0.05119387  0.58309643  0.94200632  1
  O2-  O198  1  0.54219097  0.08333485  0.26583603  1
  O2-  O199  1  0.53623556  0.08719093  0.59656776  1
  O2-  O200  1  0.54333433  0.08579504  0.93675081  1
  O2-  O201  1  0.54592611  0.58837121  0.27014414  1
  O2-  O202  1  0.54306967  0.58214746  0.60369580  1
  O2-  O203  1  0.54225881  0.58175723  0.93191933  1
  O2-  O204  1  0.16687897  0.19969433  0.26671179  1
  O2-  O205  1  0.16999238  0.20525177  0.59771999  1
  O2-  O206  1  0.16320920  0.20414621  0.94026544  1
  O2-  O207  1  0.16883095  0.70660717  0.27276003  1
  O2-  O208  1  0.16632799  0.70963180  0.59678087  1
  O2-  O209  1  0.16787407  0.70624372  0.94268685  1
  O2-  O210  1  0.66627032  0.19716158  0.26589903  1
  O2-  O211  1  0.66991098  0.20715205  0.59865200  1
  O2-  O212  1  0.66358762  0.20553056  0.93781142  1
  O2-  O213  1  0.65948500  0.71378078  0.27101253  1
  O2-  O214  1  0.66528943  0.69859025  0.60400686  1
  O2-  O215  1  0.66300133  0.71416647  0.92923983  1
  O2-  O216  1  0.08281508  0.44725568  0.06064274  1
  O2-  O217  1  0.08140950  0.45186017  0.40060599  1
  O2-  O218  1  0.07890635  0.44459978  0.73645668  1
  O2-  O219  1  0.08344082  0.96740295  0.06793472  1
  O2-  O220  1  0.08076535  0.96269506  0.40342806  1
  O2-  O221  1  0.08780204  0.96012324  0.72693199  1
  O2-  O222  1  0.58397762  0.45072901  0.06002146  1
  O2-  O223  1  0.58880474  0.45561658  0.39350657  1
  O2-  O224  1  0.57894256  0.44933896  0.73229474  1
  O2-  O225  1  0.58703488  0.95961197  0.06428627  1
  O2-  O226  1  0.58173158  0.95902231  0.39782069  1
  O2-  O227  1  0.57891324  0.96517322  0.73626072  1
  O2-  O228  1  0.20662270  0.33208649  0.06683510  1
  O2-  O229  1  0.20908657  0.32784431  0.39543695  1
  O2-  O230  1  0.21280804  0.32808735  0.73625888  1
  O2-  O231  1  0.20596454  0.83642110  0.07193280  1
  O2-  O232  1  0.20806571  0.83490581  0.40487714  1
  O2-  O233  1  0.20836027  0.83928419  0.72721684  1
  O2-  O234  1  0.70390241  0.33229484  0.06613084  1
  O2-  O235  1  0.69897659  0.32904393  0.38631027  1
  O2-  O236  1  0.70858500  0.33040634  0.73438879  1
  O2-  O237  1  0.70569353  0.83825120  0.06052755  1
  O2-  O238  1  0.70902545  0.83480423  0.40231754  1
  O2-  O239  1  0.69464162  0.82828153  0.73405275  1
  O2-  O240  1  0.46450894  0.41610344  0.26222988  1
  O2-  O241  1  0.44773455  0.41846716  0.60758769  1
  O2-  O242  1  0.45701430  0.41041363  0.93402494  1
  O2-  O243  1  0.45697218  0.91324892  0.26652641  1
  O2-  O244  1  0.45896078  0.91642852  0.59744443  1
  O2-  O245  1  0.45166101  0.91755379  0.94158587  1
  O2-  O246  1  0.96208267  0.41890694  0.26369400  1
  O2-  O247  1  0.94876613  0.41652612  0.61048220  1
  O2-  O248  1  0.95177274  0.41599937  0.93847976  1
  O2-  O249  1  0.95718211  0.91761264  0.26690231  1
  O2-  O250  1  0.95873294  0.91626477  0.59733313  1
  O2-  O251  1  0.96029841  0.91989105  0.93436021  1
  O2-  O252  1  0.33635050  0.28797143  0.26087569  1
  O2-  O253  1  0.33849918  0.28893616  0.60210553  1
  O2-  O254  1  0.33705362  0.29094179  0.93588490  1
  O2-  O255  1  0.33332803  0.79820789  0.27167567  1
  O2-  O256  1  0.33362990  0.79119135  0.59775896  1
  O2-  O257  1  0.33039745  0.79983053  0.94443748  1
  O2-  O258  1  0.83482974  0.29174702  0.26017291  1
  O2-  O259  1  0.83766645  0.29019965  0.60552523  1
  O2-  O260  1  0.83665596  0.29087565  0.93867715  1
  O2-  O261  1  0.83130872  0.78626984  0.26629608  1
  O2-  O262  1  0.82440246  0.79703179  0.60269467  1
  O2-  O263  1  0.83302942  0.79354507  0.93230864  1
  O2-  O264  1  0.41705835  0.05120827  0.06429107  1
  O2-  O265  1  0.41592347  0.04553920  0.39441175  1
  O2-  O266  1  0.41166864  0.04174287  0.72841292  1
  O2-  O267  1  0.41828693  0.53545121  0.06610473  1
  O2-  O268  1  0.42342381  0.53982599  0.40126808  1
  O2-  O269  1  0.41673524  0.54418222  0.73756100  1
  O2-  O270  1  0.91240336  0.04788938  0.06505607  1
  O2-  O271  1  0.91592271  0.05144517  0.39225824  1
  O2-  O272  1  0.92165634  0.04178713  0.73452170  1
  O2-  O273  1  0.91728805  0.54289930  0.06886989  1
  O2-  O274  1  0.91935410  0.54523050  0.39708237  1
  O2-  O275  1  0.91868744  0.54392440  0.73864496  1
  O2-  O276  1  0.29496604  0.16659236  0.06385531  1
  O2-  O277  1  0.29954572  0.16580304  0.39339348  1
  O2-  O278  1  0.29448764  0.16148077  0.72891692  1
  O2-  O279  1  0.29504199  0.66628360  0.07155044  1
  O2-  O280  1  0.30349464  0.67189608  0.39925687  1
  O2-  O281  1  0.28976329  0.67215489  0.73561730  1
  O2-  O282  1  0.78960577  0.16355673  0.06559601  1
  O2-  O283  1  0.79584698  0.16835360  0.39306732  1
  O2-  O284  1  0.79191340  0.16529100  0.73685497  1
  O2-  O285  1  0.78457314  0.66924627  0.06678263  1
  O2-  O286  1  0.78294752  0.66275022  0.40138847  1
  O2-  O287  1  0.79189286  0.67020366  0.73615108  1
