# generated using pymatgen
data_Ca2Al2SiO7
_symmetry_space_group_name_H-M   'P 1'
_cell_length_a   15.46727579
_cell_length_b   15.46758308
_cell_length_c   15.29171202
_cell_angle_alpha   90.00116870
_cell_angle_beta   90.01373402
_cell_angle_gamma   89.98797330
_symmetry_Int_Tables_number   1
_chemical_formula_structural   Ca2Al2SiO7
_chemical_formula_sum   'Ca48 Al48 Si24 O168'
_cell_volume   3658.40999622
_cell_formula_units_Z   24
loop_
 _symmetry_equiv_pos_site_id
 _symmetry_equiv_pos_as_xyz
  1  'x, y, z'
loop_
 _atom_type_symbol
 _atom_type_oxidation_number
  Ca2+  2.0
  Al0+  0.0
  Si0+  0.0
  O2-  -2.0
loop_
 _atom_site_type_symbol
 _atom_site_label
 _atom_site_symmetry_multiplicity
 _atom_site_fract_x
 _atom_site_fract_y
 _atom_site_fract_z
 _atom_site_occupancy
  Ca2+  Ca0  1  0.17068318  0.07330888  0.17190819  1
  Ca2+  Ca1  1  0.16925106  0.08182336  0.50483815  1
  Ca2+  Ca2  1  0.18222661  0.07817918  0.84146530  1
  Ca2+  Ca3  1  0.16745050  0.58284679  0.17363647  1
  Ca2+  Ca4  1  0.16730067  0.58475582  0.50710483  1
  Ca2+  Ca5  1  0.17185047  0.58715100  0.83126492  1
  Ca2+  Ca6  1  0.66508108  0.07889921  0.17199852  1
  Ca2+  Ca7  1  0.66592403  0.07953052  0.50168851  1
  Ca2+  Ca8  1  0.66473668  0.07585042  0.83961726  1
  Ca2+  Ca9  1  0.66294140  0.57244116  0.16897840  1
  Ca2+  Ca10  1  0.66454165  0.58152185  0.50873983  1
  Ca2+  Ca11  1  0.65571436  0.57699139  0.83660227  1
  Ca2+  Ca12  1  0.07637332  0.32447271  0.16921378  1
  Ca2+  Ca13  1  0.07760663  0.32437362  0.49043985  1
  Ca2+  Ca14  1  0.08019598  0.33132397  0.83037404  1
  Ca2+  Ca15  1  0.09258246  0.83366527  0.16267361  1
  Ca2+  Ca16  1  0.08590559  0.82610893  0.49430170  1
  Ca2+  Ca17  1  0.07660476  0.83585017  0.82534143  1
  Ca2+  Ca18  1  0.58385774  0.32038090  0.15777389  1
  Ca2+  Ca19  1  0.57741428  0.31918977  0.49841145  1
  Ca2+  Ca20  1  0.57769736  0.32133717  0.83166276  1
  Ca2+  Ca21  1  0.58201536  0.83853029  0.15953045  1
  Ca2+  Ca22  1  0.57902879  0.84262360  0.50181607  1
  Ca2+  Ca23  1  0.57716629  0.83780025  0.82463403  1
  Ca2+  Ca24  1  0.33768564  0.41634257  0.16719966  1
  Ca2+  Ca25  1  0.33563713  0.42274505  0.51210091  1
  Ca2+  Ca26  1  0.34933280  0.42219987  0.83392650  1
  Ca2+  Ca27  1  0.33042855  0.92028184  0.16469034  1
  Ca2+  Ca28  1  0.32797000  0.91971335  0.50644739  1
  Ca2+  Ca29  1  0.33893699  0.92462831  0.83773792  1
  Ca2+  Ca30  1  0.82957720  0.41213155  0.16941369  1
  Ca2+  Ca31  1  0.83592942  0.41537400  0.50218538  1
  Ca2+  Ca32  1  0.82342694  0.42209946  0.84122110  1
  Ca2+  Ca33  1  0.82055911  0.92913931  0.17192628  1
  Ca2+  Ca34  1  0.82333371  0.91628110  0.50457938  1
  Ca2+  Ca35  1  0.82228708  0.91657014  0.83820109  1
  Ca2+  Ca36  1  0.42767987  0.16632945  0.15603454  1
  Ca2+  Ca37  1  0.42788120  0.15438516  0.50199138  1
  Ca2+  Ca38  1  0.42472079  0.16461655  0.82650026  1
  Ca2+  Ca39  1  0.41777132  0.67711621  0.15994587  1
  Ca2+  Ca40  1  0.41815592  0.67004001  0.50496679  1
  Ca2+  Ca41  1  0.41957720  0.68067089  0.82443242  1
  Ca2+  Ca42  1  0.91632607  0.15536797  0.16733193  1
  Ca2+  Ca43  1  0.91851770  0.17033955  0.48786066  1
  Ca2+  Ca44  1  0.91473365  0.16173599  0.83406410  1
  Ca2+  Ca45  1  0.92438513  0.66943870  0.16583224  1
  Ca2+  Ca46  1  0.92524125  0.67569162  0.49900723  1
  Ca2+  Ca47  1  0.92341732  0.67655462  0.82218218  1
  Al0+  Al48  1  0.00056147  -0.00203571  0.00450091  1
  Al0+  Al49  1  -0.00102648  -0.00163082  0.33711170  1
  Al0+  Al50  1  -0.00242346  0.00155937  0.66222347  1
  Al0+  Al51  1  0.00227662  0.49937191  -0.00039874  1
  Al0+  Al52  1  0.00065514  0.50089816  0.32602497  1
  Al0+  Al53  1  -0.00055578  0.50006968  0.66575083  1
  Al0+  Al54  1  0.49941318  -0.00043942  -0.00026947  1
  Al0+  Al55  1  0.49806106  -0.00046957  0.33124538  1
  Al0+  Al56  1  0.50024499  -0.00056380  0.66551206  1
  Al0+  Al57  1  0.50101513  0.49967374  0.00528875  1
  Al0+  Al58  1  0.50033894  0.50222365  0.33498414  1
  Al0+  Al59  1  0.49867510  0.49976024  0.66518617  1
  Al0+  Al60  1  0.24880792  0.25358663  0.00094576  1
  Al0+  Al61  1  0.24833866  0.25192835  0.33052095  1
  Al0+  Al62  1  0.24808694  0.25132128  0.66882974  1
  Al0+  Al63  1  0.25275343  0.74712388  -0.00211708  1
  Al0+  Al64  1  0.25121203  0.75011628  0.33304761  1
  Al0+  Al65  1  0.25006072  0.74793146  0.66502744  1
  Al0+  Al66  1  0.75164444  0.25249066  0.00170650  1
  Al0+  Al67  1  0.74664095  0.25116734  0.33083356  1
  Al0+  Al68  1  0.74933018  0.25083714  0.66439951  1
  Al0+  Al69  1  0.75427128  0.74839206  0.00406503  1
  Al0+  Al70  1  0.74975585  0.74715629  0.33555473  1
  Al0+  Al71  1  0.75177483  0.74934812  0.66416473  1
  Al0+  Al72  1  0.57130522  0.67835668  0.65318461  1
  Al0+  Al73  1  0.32097237  0.57050595  0.68188046  1
  Al0+  Al74  1  0.82149394  0.07165090  0.01382133  1
  Al0+  Al75  1  0.67971038  0.43173280  0.01416474  1
  Al0+  Al76  1  0.31946979  0.07110249  0.67929574  1
  Al0+  Al77  1  0.07152929  0.68264689  0.31776398  1
  Al0+  Al78  1  0.67669202  0.92735544  0.35042157  1
  Al0+  Al79  1  0.18077844  0.92747539  0.01233587  1
  Al0+  Al80  1  0.56698783  0.17902021  0.31801902  1
  Al0+  Al81  1  0.42904018  0.82270745  0.65007517  1
  Al0+  Al82  1  0.42738175  0.32032469  0.65199838  1
  Al0+  Al83  1  0.42722351  0.32251038  0.98558494  1
  Al0+  Al84  1  0.32233652  0.07419604  0.01473588  1
  Al0+  Al85  1  0.57239335  0.17828811  0.98427978  1
  Al0+  Al86  1  0.92804509  0.32035560  0.31762961  1
  Al0+  Al87  1  0.43051007  0.81995360  0.98656693  1
  Al0+  Al88  1  0.67763470  0.92765653  0.01344742  1
  Al0+  Al89  1  0.68124909  0.92926507  0.68029456  1
  Al0+  Al90  1  0.57169324  0.17772161  0.65064065  1
  Al0+  Al91  1  0.07175542  0.17486044  0.31724143  1
  Al0+  Al92  1  0.92788874  0.82422323  0.65049724  1
  Al0+  Al93  1  0.81878747  0.07274606  0.34973333  1
  Al0+  Al94  1  0.17988264  0.92811956  0.34771168  1
  Al0+  Al95  1  0.07078105  0.67930722  0.65209702  1
  Si0+  Si96  1  0.67930162  0.42897984  0.68116890  1
  Si0+  Si97  1  0.31993845  0.56864356  0.01612556  1
  Si0+  Si98  1  0.43024988  0.81872178  0.31768941  1
  Si0+  Si99  1  0.17606685  0.92775969  0.68112661  1
  Si0+  Si100  1  0.57454399  0.67827821  0.98741782  1
  Si0+  Si101  1  0.07224739  0.67717031  0.98393061  1
  Si0+  Si102  1  0.07079221  0.17966149  0.65407795  1
  Si0+  Si103  1  0.92524067  0.82115989  0.31446905  1
  Si0+  Si104  1  0.57240383  0.67632930  0.31728143  1
  Si0+  Si105  1  0.32089428  0.57067707  0.34880580  1
  Si0+  Si106  1  0.82250731  0.56993486  0.68101838  1
  Si0+  Si107  1  0.82669112  0.57141188  0.01807304  1
  Si0+  Si108  1  0.92873336  0.32097793  0.65404177  1
  Si0+  Si109  1  0.93032664  0.32290032  0.98334619  1
  Si0+  Si110  1  0.67811530  0.43015530  0.35078032  1
  Si0+  Si111  1  0.07013760  0.17774283  0.98506427  1
  Si0+  Si112  1  0.93081887  0.82041034  0.98623700  1
  Si0+  Si113  1  0.42792124  0.32665402  0.31760289  1
  Si0+  Si114  1  0.32005924  0.07383467  0.34905596  1
  Si0+  Si115  1  0.17461591  0.42917752  0.01814681  1
  Si0+  Si116  1  0.82278588  0.56915793  0.34948550  1
  Si0+  Si117  1  0.17565925  0.42851593  0.68438268  1
  Si0+  Si118  1  0.82290523  0.07552718  0.68265134  1
  Si0+  Si119  1  0.17836003  0.43032148  0.34773847  1
  O2-  O120  1  0.25054708  0.00089596  0.06336957  1
  O2-  O121  1  0.24763202  0.00909776  0.39374809  1
  O2-  O122  1  0.24588708  -0.00541304  0.72553636  1
  O2-  O123  1  0.25007475  0.49653846  0.05855949  1
  O2-  O124  1  0.25261437  0.49697676  0.39045054  1
  O2-  O125  1  0.24653184  0.49485664  0.72891536  1
  O2-  O126  1  0.74423459  0.00507025  0.06280858  1
  O2-  O127  1  0.74932455  -0.00114176  0.40041225  1
  O2-  O128  1  0.75573739  0.00522381  0.72544950  1
  O2-  O129  1  0.75457680  0.50648001  0.06205592  1
  O2-  O130  1  0.75159714  0.49885127  0.39299432  1
  O2-  O131  1  0.74781509  0.50310105  0.72345686  1
  O2-  O132  1  -0.00532328  0.24294104  0.26770634  1
  O2-  O133  1  -0.00228851  0.24876689  0.61253192  1
  O2-  O134  1  -0.00201860  0.24831969  0.94179500  1
  O2-  O135  1  -0.00030204  0.75860041  0.26870605  1
  O2-  O136  1  0.00426412  0.75574233  0.60168357  1
  O2-  O137  1  0.00288949  0.74992036  0.94348235  1
  O2-  O138  1  0.49140458  0.25419968  0.27358655  1
  O2-  O139  1  0.49511729  0.24590216  0.60078478  1
  O2-  O140  1  0.49437298  0.24602649  0.93633164  1
  O2-  O141  1  0.50636641  0.75192396  0.27640126  1
  O2-  O142  1  0.50301970  0.75192946  0.60008428  1
  O2-  O143  1  0.51311026  0.75211035  0.94272608  1
  O2-  O144  1  0.06941725  0.17924684  0.08960173  1
  O2-  O145  1  0.07529351  0.18200665  0.43125620  1
  O2-  O146  1  0.06995595  0.18059466  0.75949088  1
  O2-  O147  1  0.07148272  0.67508639  0.08908047  1
  O2-  O148  1  0.07076473  0.68055061  0.43018959  1
  O2-  O149  1  0.06716035  0.67688035  0.76615119  1
  O2-  O150  1  0.57281114  0.18162123  0.09804803  1
  O2-  O151  1  0.56639501  0.17940627  0.43096891  1
  O2-  O152  1  0.57581863  0.17996250  0.76361407  1
  O2-  O153  1  0.57035877  0.67603921  0.09346270  1
  O2-  O154  1  0.56978590  0.66919338  0.42147845  1
  O2-  O155  1  0.56882109  0.67704841  0.76701122  1
  O2-  O156  1  0.17876032  0.43240146  0.24246069  1
  O2-  O157  1  0.17204885  0.42985410  0.57886139  1
  O2-  O158  1  0.16478231  0.43237822  0.91377622  1
  O2-  O159  1  0.18719238  0.92454709  0.23496499  1
  O2-  O160  1  0.17617892  0.93046133  0.57543555  1
  O2-  O161  1  0.17767413  0.92928657  0.89878995  1
  O2-  O162  1  0.67611812  0.43403568  0.24574294  1
  O2-  O163  1  0.68309620  0.42820722  0.57596126  1
  O2-  O164  1  0.68155722  0.43486318  0.90076694  1
  O2-  O165  1  0.67668636  0.92643707  0.23697595  1
  O2-  O166  1  0.68235565  0.93032451  0.56750280  1
  O2-  O167  1  0.68197042  0.92317294  0.90004214  1
  O2-  O168  1  0.43104371  0.32488971  0.09951312  1
  O2-  O169  1  0.43117308  0.33290526  0.42255367  1
  O2-  O170  1  0.43263170  0.32105452  0.76509332  1
  O2-  O171  1  0.42650623  0.81423375  0.10010504  1
  O2-  O172  1  0.42797267  0.81645366  0.42238252  1
  O2-  O173  1  0.42963147  0.82188689  0.76359361  1
  O2-  O174  1  0.93400996  0.32894762  0.08744664  1
  O2-  O175  1  0.93314271  0.32383412  0.43186966  1
  O2-  O176  1  0.92918830  0.32293375  0.75936245  1
  O2-  O177  1  0.93077791  0.81722998  0.09094305  1
  O2-  O178  1  0.92398482  0.81483440  0.41965656  1
  O2-  O179  1  0.92933749  0.82169830  0.76496205  1
  O2-  O180  1  0.32093588  0.07185275  0.24370925  1
  O2-  O181  1  0.31505861  0.07090660  0.56592599  1
  O2-  O182  1  0.31996026  0.07357064  0.90098813  1
  O2-  O183  1  0.32063209  0.57024808  0.24327979  1
  O2-  O184  1  0.31977605  0.56801593  0.56839519  1
  O2-  O185  1  0.31886720  0.56920516  0.91148333  1
  O2-  O186  1  0.81517147  0.07116090  0.23633121  1
  O2-  O187  1  0.82368783  0.07953776  0.57772403  1
  O2-  O188  1  0.82475201  0.06687633  0.90000553  1
  O2-  O189  1  0.82158056  0.56903763  0.24424300  1
  O2-  O190  1  0.82568092  0.56464662  0.57604870  1
  O2-  O191  1  0.83066048  0.56914790  0.91251500  1
  O2-  O192  1  0.04846160  0.07417000  0.26683761  1
  O2-  O193  1  0.04634139  0.08837146  0.60484044  1
  O2-  O194  1  0.04213165  0.08589600  0.93794388  1
  O2-  O195  1  0.03871444  0.58720080  0.26207769  1
  O2-  O196  1  0.03739557  0.58178862  0.59900610  1
  O2-  O197  1  0.04190285  0.58627054  0.93620549  1
  O2-  O198  1  0.53603467  0.08250291  0.26402514  1
  O2-  O199  1  0.54319581  0.08029785  0.59719392  1
  O2-  O200  1  0.54797074  0.07855933  0.93374793  1
  O2-  O201  1  0.53858566  0.58714462  0.26684294  1
  O2-  O202  1  0.54031625  0.58139652  0.59819646  1
  O2-  O203  1  0.54198079  0.58673985  0.94203417  1
  O2-  O204  1  0.16810597  0.21018439  0.26271067  1
  O2-  O205  1  0.16035755  0.21010754  0.60493039  1
  O2-  O206  1  0.16054886  0.20953188  0.93734441  1
  O2-  O207  1  0.16945525  0.71028628  0.26382566  1
  O2-  O208  1  0.17019173  0.70061764  0.59986520  1
  O2-  O209  1  0.16494749  0.70115280  0.93764465  1
  O2-  O210  1  0.66232093  0.21303909  0.26501314  1
  O2-  O211  1  0.66833618  0.21259751  0.59674332  1
  O2-  O212  1  0.67032563  0.21289239  0.93309923  1
  O2-  O213  1  0.66657370  0.69676923  0.27150380  1
  O2-  O214  1  0.67213485  0.69786120  0.60232066  1
  O2-  O215  1  0.67239763  0.69210270  0.94591383  1
  O2-  O216  1  0.08632004  0.46305390  0.06929408  1
  O2-  O217  1  0.08738722  0.46242045  0.39404974  1
  O2-  O218  1  0.08294765  0.45736229  0.73253671  1
  O2-  O219  1  0.08307063  0.95366711  0.06735003  1
  O2-  O220  1  0.08032203  0.94842602  0.39969048  1
  O2-  O221  1  0.08179825  0.95535360  0.72549676  1
  O2-  O222  1  0.58550039  0.46393481  0.07284240  1
  O2-  O223  1  0.58777666  0.46298204  0.39841755  1
  O2-  O224  1  0.58780254  0.45663704  0.72783893  1
  O2-  O225  1  0.57814139  0.95028606  0.06539928  1
  O2-  O226  1  0.57695528  0.95692298  0.40008847  1
  O2-  O227  1  0.58374990  0.95857585  0.73223102  1
  O2-  O228  1  0.19801456  0.33688886  0.06574913  1
  O2-  O229  1  0.20076321  0.33705498  0.39491161  1
  O2-  O230  1  0.19658636  0.33451813  0.73125042  1
  O2-  O231  1  0.21024750  0.82798395  0.06371178  1
  O2-  O232  1  0.21713936  0.83322655  0.40227207  1
  O2-  O233  1  0.19719119  0.83235635  0.72432665  1
  O2-  O234  1  0.71354903  0.33715026  0.06904093  1
  O2-  O235  1  0.70307862  0.33828875  0.39779726  1
  O2-  O236  1  0.71167946  0.33914951  0.72969066  1
  O2-  O237  1  0.70946989  0.82940777  0.06740766  1
  O2-  O238  1  0.70315936  0.82630464  0.40018303  1
  O2-  O239  1  0.71231761  0.83143387  0.73274184  1
  O2-  O240  1  0.45683983  0.41940563  0.27005390  1
  O2-  O241  1  0.45884731  0.41730800  0.59851519  1
  O2-  O242  1  0.46281109  0.42055739  0.93506541  1
  O2-  O243  1  0.45305805  0.91133204  0.27042114  1
  O2-  O244  1  0.45613783  0.91996152  0.59528458  1
  O2-  O245  1  0.45356297  0.91798142  0.93390242  1
  O2-  O246  1  0.96260074  0.41602378  0.26198073  1
  O2-  O247  1  0.95776296  0.41158037  0.60521657  1
  O2-  O248  1  0.96329299  0.41290386  0.93369203  1
  O2-  O249  1  0.94449207  0.91729615  0.27340881  1
  O2-  O250  1  0.94927598  0.92388896  0.59758964  1
  O2-  O251  1  0.95862421  0.91154409  0.93808708  1
  O2-  O252  1  0.33153246  0.30784195  0.27487777  1
  O2-  O253  1  0.32503975  0.30081410  0.60299281  1
  O2-  O254  1  0.32364318  0.30895372  0.93713053  1
  O2-  O255  1  0.34183087  0.78325509  0.26873901  1
  O2-  O256  1  0.33109403  0.79131042  0.59833439  1
  O2-  O257  1  0.33728262  0.78068291  0.93102615  1
  O2-  O258  1  0.82677940  0.30171926  0.26813836  1
  O2-  O259  1  0.83729797  0.29659595  0.60493569  1
  O2-  O260  1  0.83788689  0.30022222  0.93556020  1
  O2-  O261  1  0.83428938  0.78673345  0.26746159  1
  O2-  O262  1  0.83362924  0.78805882  0.59556122  1
  O2-  O263  1  0.83983599  0.79002456  0.93776659  1
  O2-  O264  1  0.41947918  0.04436015  0.06794671  1
  O2-  O265  1  0.41130360  0.04123017  0.39521118  1
  O2-  O266  1  0.41653016  0.04124074  0.73152415  1
  O2-  O267  1  0.41107114  0.54256920  0.06627513  1
  O2-  O268  1  0.41356262  0.54562420  0.39599864  1
  O2-  O269  1  0.41754052  0.53913347  0.73631448  1
  O2-  O270  1  0.91727927  0.03758060  0.06891185  1
  O2-  O271  1  0.91995136  0.05009662  0.39989763  1
  O2-  O272  1  0.91788046  0.05191134  0.72789699  1
  O2-  O273  1  0.91845320  0.54067075  0.06562199  1
  O2-  O274  1  0.91488250  0.53932825  0.39512819  1
  O2-  O275  1  0.91171441  0.53718100  0.73165172  1
  O2-  O276  1  0.29404066  0.17350055  0.06617717  1
  O2-  O277  1  0.29965064  0.16992732  0.39265517  1
  O2-  O278  1  0.28701219  0.16719053  0.73378590  1
  O2-  O279  1  0.28923304  0.65869064  0.06537978  1
  O2-  O280  1  0.29017605  0.66082870  0.39608150  1
  O2-  O281  1  0.28901855  0.66671890  0.73682115  1
  O2-  O282  1  0.80571150  0.17420783  0.06201910  1
  O2-  O283  1  0.79062188  0.17288163  0.40044992  1
  O2-  O284  1  0.79751314  0.16944659  0.72963877  1
  O2-  O285  1  0.80627484  0.66534724  0.06490760  1
  O2-  O286  1  0.79524398  0.66018432  0.39767371  1
  O2-  O287  1  0.80044382  0.66290028  0.72769007  1
