# generated using pymatgen
data_Ca2Al2SiO7
_symmetry_space_group_name_H-M   'P 1'
_cell_length_a   15.45949591
_cell_length_b   15.46011809
_cell_length_c   15.28412524
_cell_angle_alpha   89.98536547
_cell_angle_beta   89.99660145
_cell_angle_gamma   90.00900926
_symmetry_Int_Tables_number   1
_chemical_formula_structural   Ca2Al2SiO7
_chemical_formula_sum   'Ca48 Al48 Si24 O168'
_cell_volume   3652.99184787
_cell_formula_units_Z   24
loop_
 _symmetry_equiv_pos_site_id
 _symmetry_equiv_pos_as_xyz
  1  'x, y, z'
loop_
 _atom_type_symbol
 _atom_type_oxidation_number
  Ca2+  2.0
  Al0+  0.0
  Si0+  0.0
  O2-  -2.0
loop_
 _atom_site_type_symbol
 _atom_site_label
 _atom_site_symmetry_multiplicity
 _atom_site_fract_x
 _atom_site_fract_y
 _atom_site_fract_z
 _atom_site_occupancy
  Ca2+  Ca0  1  0.17105957  0.09233984  0.17251387  1
  Ca2+  Ca1  1  0.17220757  0.07973447  0.50387406  1
  Ca2+  Ca2  1  0.17537564  0.08029781  0.83746273  1
  Ca2+  Ca3  1  0.16928471  0.57798285  0.17492974  1
  Ca2+  Ca4  1  0.17465996  0.59324532  0.50488013  1
  Ca2+  Ca5  1  0.17021823  0.58271628  0.83423655  1
  Ca2+  Ca6  1  0.67796838  0.07745281  0.17151709  1
  Ca2+  Ca7  1  0.67473995  0.08549238  0.49932237  1
  Ca2+  Ca8  1  0.67253722  0.07457458  0.84491359  1
  Ca2+  Ca9  1  0.66937974  0.57441959  0.17866407  1
  Ca2+  Ca10  1  0.67298071  0.58769800  0.49898617  1
  Ca2+  Ca11  1  0.66935797  0.58397916  0.83440967  1
  Ca2+  Ca12  1  0.08051051  0.32511524  0.16392261  1
  Ca2+  Ca13  1  0.07624935  0.32632635  0.48867153  1
  Ca2+  Ca14  1  0.08924692  0.32959551  0.83551873  1
  Ca2+  Ca15  1  0.07938548  0.82943915  0.17111884  1
  Ca2+  Ca16  1  0.08368557  0.82506457  0.49440486  1
  Ca2+  Ca17  1  0.08281666  0.82993759  0.82436173  1
  Ca2+  Ca18  1  0.57924645  0.34141031  0.16610829  1
  Ca2+  Ca19  1  0.57654886  0.33600775  0.49063949  1
  Ca2+  Ca20  1  0.58582891  0.33206430  0.83269042  1
  Ca2+  Ca21  1  0.58934335  0.82743232  0.16497682  1
  Ca2+  Ca22  1  0.57682964  0.82204762  0.49748228  1
  Ca2+  Ca23  1  0.57861815  0.83152299  0.82392518  1
  Ca2+  Ca24  1  0.32677739  0.41681326  0.17484071  1
  Ca2+  Ca25  1  0.33637219  0.42645038  0.49760938  1
  Ca2+  Ca26  1  0.32834658  0.42542858  0.83665519  1
  Ca2+  Ca27  1  0.33217399  0.93083335  0.17348240  1
  Ca2+  Ca28  1  0.32914380  0.92457419  0.50934771  1
  Ca2+  Ca29  1  0.33193497  0.92091336  0.83313368  1
  Ca2+  Ca30  1  0.82235474  0.41594709  0.17785699  1
  Ca2+  Ca31  1  0.83616870  0.42702810  0.49902494  1
  Ca2+  Ca32  1  0.82781150  0.42504900  0.83773646  1
  Ca2+  Ca33  1  0.83706538  0.92370212  0.17177961  1
  Ca2+  Ca34  1  0.83956503  0.91671538  0.49649933  1
  Ca2+  Ca35  1  0.82584412  0.92072974  0.84252426  1
  Ca2+  Ca36  1  0.40913747  0.17141819  0.16463822  1
  Ca2+  Ca37  1  0.41179604  0.17112286  0.49152904  1
  Ca2+  Ca38  1  0.41248152  0.16388740  0.83016061  1
  Ca2+  Ca39  1  0.42194989  0.66102725  0.16814008  1
  Ca2+  Ca40  1  0.42245676  0.66216339  0.49354033  1
  Ca2+  Ca41  1  0.42280987  0.67428897  0.81827823  1
  Ca2+  Ca42  1  0.92325295  0.16297797  0.16354494  1
  Ca2+  Ca43  1  0.92256264  0.17165443  0.48508647  1
  Ca2+  Ca44  1  0.91987524  0.16469603  0.83370140  1
  Ca2+  Ca45  1  0.91541496  0.66626097  0.17035430  1
  Ca2+  Ca46  1  0.92518438  0.66584519  0.48995555  1
  Ca2+  Ca47  1  0.92131017  0.66649337  0.82310639  1
  Al0+  Al48  1  0.00216224  -0.00124529  -0.00380400  1
  Al0+  Al49  1  0.00089232  -0.00201186  0.33050940  1
  Al0+  Al50  1  0.00095755  0.00100136  0.67057405  1
  Al0+  Al51  1  0.00137957  0.49895557  0.00177181  1
  Al0+  Al52  1  -0.00145274  0.49732823  0.32768692  1
  Al0+  Al53  1  -0.00150073  0.49972089  0.66818756  1
  Al0+  Al54  1  0.49959449  0.00017806  0.00782483  1
  Al0+  Al55  1  0.50006990  -0.00015524  0.33828447  1
  Al0+  Al56  1  0.50234559  0.00148841  0.66482781  1
  Al0+  Al57  1  0.50080661  0.50117789  -0.00160885  1
  Al0+  Al58  1  0.49804461  0.49877657  0.33110738  1
  Al0+  Al59  1  0.50017350  0.49769606  0.66839258  1
  Al0+  Al60  1  0.24892385  0.25212100  0.00015143  1
  Al0+  Al61  1  0.25100859  0.25134567  0.33145327  1
  Al0+  Al62  1  0.24979806  0.24999847  0.66870459  1
  Al0+  Al63  1  0.25152865  0.75175530  -0.00095966  1
  Al0+  Al64  1  0.25074481  0.75097014  0.33074695  1
  Al0+  Al65  1  0.24971026  0.75223123  0.66876806  1
  Al0+  Al66  1  0.74987670  0.25138577  0.00465223  1
  Al0+  Al67  1  0.74750414  0.24763711  0.33877399  1
  Al0+  Al68  1  0.74994011  0.25133335  0.66687291  1
  Al0+  Al69  1  0.75050589  0.74958247  0.00000121  1
  Al0+  Al70  1  0.74901567  0.74940939  0.32874728  1
  Al0+  Al71  1  0.74998266  0.75038158  0.66713220  1
  Al0+  Al72  1  0.67803213  0.92711224  0.01561048  1
  Al0+  Al73  1  0.32030371  0.07268704  0.34800092  1
  Al0+  Al74  1  0.82321537  0.07013970  0.01462206  1
  Al0+  Al75  1  0.82153675  0.57128020  0.34785058  1
  Al0+  Al76  1  0.56871325  0.67954296  0.31826338  1
  Al0+  Al77  1  0.82201958  0.06851796  0.34770732  1
  Al0+  Al78  1  0.07076697  0.17914142  0.31934664  1
  Al0+  Al79  1  0.31857046  0.57131525  0.34514931  1
  Al0+  Al80  1  0.06996766  0.67869965  0.65479821  1
  Al0+  Al81  1  0.17807168  0.92893204  0.68217920  1
  Al0+  Al82  1  0.43107143  0.31946238  0.31912835  1
  Al0+  Al83  1  0.42853971  0.82343531  0.65126924  1
  Al0+  Al84  1  0.92508806  0.32062874  0.31802441  1
  Al0+  Al85  1  0.92869420  0.81978340  0.31792039  1
  Al0+  Al86  1  0.31891914  0.07031981  0.01471868  1
  Al0+  Al87  1  0.07150034  0.17926242  0.98292392  1
  Al0+  Al88  1  0.32239896  0.07241026  0.68194376  1
  Al0+  Al89  1  0.67675325  0.42806442  0.34997802  1
  Al0+  Al90  1  0.67852080  0.43074369  0.01342314  1
  Al0+  Al91  1  0.32201093  0.57088477  0.67935945  1
  Al0+  Al92  1  0.07381887  0.67682006  0.31744397  1
  Al0+  Al93  1  0.57131898  0.67692823  0.65071893  1
  Al0+  Al94  1  0.82087752  0.57161116  0.68001514  1
  Al0+  Al95  1  0.17994223  0.43054617  0.01415461  1
  Si0+  Si96  1  0.07216086  0.67767965  0.98399573  1
  Si0+  Si97  1  0.42787966  0.82417631  0.31525695  1
  Si0+  Si98  1  0.57215773  0.17457308  0.31605801  1
  Si0+  Si99  1  0.17729427  0.42789757  0.34953646  1
  Si0+  Si100  1  0.92733021  0.32014973  0.65252390  1
  Si0+  Si101  1  0.42900707  0.32175634  0.98288843  1
  Si0+  Si102  1  0.92628888  0.32238751  0.98118168  1
  Si0+  Si103  1  0.17878315  0.92779846  0.34951195  1
  Si0+  Si104  1  0.82119709  0.07359221  0.68171838  1
  Si0+  Si105  1  0.57080870  0.17905095  0.98679835  1
  Si0+  Si106  1  0.32193912  0.57386546  0.01544445  1
  Si0+  Si107  1  0.82309932  0.57209350  0.01622211  1
  Si0+  Si108  1  0.42823243  0.31936622  0.65310834  1
  Si0+  Si109  1  0.07045640  0.17956053  0.65253331  1
  Si0+  Si110  1  0.67823010  0.42672181  0.68441841  1
  Si0+  Si111  1  0.67736850  0.92625119  0.35296259  1
  Si0+  Si112  1  0.17788069  0.92550123  0.01846045  1
  Si0+  Si113  1  0.42985593  0.82297366  0.98539330  1
  Si0+  Si114  1  0.68073011  0.93025801  0.67998296  1
  Si0+  Si115  1  0.57341647  0.17953086  0.65263864  1
  Si0+  Si116  1  0.17653985  0.42794076  0.68230120  1
  Si0+  Si117  1  0.92729593  0.82400625  0.65185175  1
  Si0+  Si118  1  0.57083568  0.67907718  0.98372559  1
  Si0+  Si119  1  0.92956588  0.81955696  0.98307596  1
  O2-  O120  1  0.24300738  -0.00247733  0.06218181  1
  O2-  O121  1  0.24716390  -0.00312414  0.39342948  1
  O2-  O122  1  0.25184550  -0.00045894  0.73240724  1
  O2-  O123  1  0.25263160  0.50682992  0.06005865  1
  O2-  O124  1  0.23901850  0.50274968  0.39378784  1
  O2-  O125  1  0.24453563  0.49840801  0.72563169  1
  O2-  O126  1  0.75214160  -0.00280118  0.06422209  1
  O2-  O127  1  0.74740258  -0.00562833  0.39669320  1
  O2-  O128  1  0.75198411  0.00082743  0.72326311  1
  O2-  O129  1  0.75431791  0.50353798  0.05904770  1
  O2-  O130  1  0.75090788  0.49819770  0.39905497  1
  O2-  O131  1  0.74385389  0.49913088  0.72724666  1
  O2-  O132  1  -0.00381190  0.24783363  0.26806401  1
  O2-  O133  1  -0.00124139  0.24948855  0.61086295  1
  O2-  O134  1  -0.00570687  0.25271122  0.93591609  1
  O2-  O135  1  -0.00174529  0.74534212  0.26714100  1
  O2-  O136  1  -0.00419907  0.75462479  0.60966013  1
  O2-  O137  1  0.00034725  0.74796670  0.94118985  1
  O2-  O138  1  0.50433977  0.24379987  0.27130047  1
  O2-  O139  1  0.49871909  0.24720455  0.61208315  1
  O2-  O140  1  0.50016257  0.24978558  0.94154381  1
  O2-  O141  1  0.49563611  0.75529745  0.26955896  1
  O2-  O142  1  0.49459231  0.74515511  0.60215411  1
  O2-  O143  1  0.50072593  0.75151412  0.94267906  1
  O2-  O144  1  0.07223813  0.18169907  0.09522028  1
  O2-  O145  1  0.07040552  0.18097360  0.43384158  1
  O2-  O146  1  0.06987267  0.18103167  0.75777749  1
  O2-  O147  1  0.07281212  0.67827196  0.08846721  1
  O2-  O148  1  0.07569480  0.68100067  0.43107382  1
  O2-  O149  1  0.06669539  0.67800188  0.76884031  1
  O2-  O150  1  0.56985355  0.17955975  0.09117709  1
  O2-  O151  1  0.57035133  0.17433503  0.42233753  1
  O2-  O152  1  0.57719388  0.18099670  0.75809206  1
  O2-  O153  1  0.56937943  0.67712316  0.08843008  1
  O2-  O154  1  0.56779742  0.68052716  0.43114741  1
  O2-  O155  1  0.57197971  0.68043616  0.76534046  1
  O2-  O156  1  0.18223158  0.42614145  0.24380947  1
  O2-  O157  1  0.17613998  0.42405511  0.57733444  1
  O2-  O158  1  0.18259310  0.43230070  0.90039633  1
  O2-  O159  1  0.18084553  0.92686237  0.24362097  1
  O2-  O160  1  0.17384554  0.93376862  0.56901818  1
  O2-  O161  1  0.18042830  0.92267303  0.91292958  1
  O2-  O162  1  0.67618509  0.43164794  0.23603434  1
  O2-  O163  1  0.67949807  0.42060871  0.58001049  1
  O2-  O164  1  0.67824136  0.43248965  0.89970149  1
  O2-  O165  1  0.67599744  0.92854750  0.24743855  1
  O2-  O166  1  0.68134464  0.93155327  0.57535867  1
  O2-  O167  1  0.67866941  0.92859616  0.90102417  1
  O2-  O168  1  0.42933850  0.32295573  0.08755159  1
  O2-  O169  1  0.43061205  0.31853828  0.43281006  1
  O2-  O170  1  0.42891791  0.31954821  0.75867856  1
  O2-  O171  1  0.42841430  0.82124131  0.09011624  1
  O2-  O172  1  0.42913346  0.82431819  0.42058556  1
  O2-  O173  1  0.43432803  0.82441205  0.76582833  1
  O2-  O174  1  0.92608383  0.32304411  0.08583585  1
  O2-  O175  1  0.92923151  0.31934493  0.43273675  1
  O2-  O176  1  0.92440905  0.31801652  0.75777296  1
  O2-  O177  1  0.92896985  0.81933709  0.08739193  1
  O2-  O178  1  0.93204810  0.82078628  0.43187253  1
  O2-  O179  1  0.92660156  0.82374252  0.75809762  1
  O2-  O180  1  0.31900818  0.07178544  0.23465305  1
  O2-  O181  1  0.31878709  0.07546456  0.56884450  1
  O2-  O182  1  0.32050969  0.06791301  0.90162074  1
  O2-  O183  1  0.31910542  0.56767919  0.23164621  1
  O2-  O184  1  0.32307774  0.56690270  0.56667063  1
  O2-  O185  1  0.32164111  0.57317864  0.90949376  1
  O2-  O186  1  0.82120335  0.06692803  0.23496909  1
  O2-  O187  1  0.82063288  0.07542088  0.57708042  1
  O2-  O188  1  0.81951192  0.06851841  0.89979538  1
  O2-  O189  1  0.81762693  0.57105115  0.23394192  1
  O2-  O190  1  0.82377222  0.56967192  0.56806698  1
  O2-  O191  1  0.82205542  0.57249522  0.90987930  1
  O2-  O192  1  0.04711335  0.07992880  0.26711440  1
  O2-  O193  1  0.04273388  0.08740612  0.60660063  1
  O2-  O194  1  0.04410926  0.08104647  0.92876161  1
  O2-  O195  1  0.04914056  0.57761215  0.26516009  1
  O2-  O196  1  0.04033396  0.58132183  0.60201680  1
  O2-  O197  1  0.04561486  0.58513226  0.93678686  1
  O2-  O198  1  0.54683437  0.08056459  0.27104083  1
  O2-  O199  1  0.55140312  0.08742287  0.60424376  1
  O2-  O200  1  0.54236724  0.08641397  0.93998105  1
  O2-  O201  1  0.53443051  0.58457945  0.26330456  1
  O2-  O202  1  0.54741568  0.57577688  0.60230048  1
  O2-  O203  1  0.54213977  0.58814717  0.93417641  1
  O2-  O204  1  0.16729487  0.21238313  0.26598855  1
  O2-  O205  1  0.16243270  0.20796920  0.60610445  1
  O2-  O206  1  0.16694552  0.21558092  0.92830497  1
  O2-  O207  1  0.17051054  0.70932936  0.26179225  1
  O2-  O208  1  0.16714994  0.70832056  0.60295503  1
  O2-  O209  1  0.16478854  0.70653360  0.93736993  1
  O2-  O210  1  0.66640628  0.19800277  0.27187811  1
  O2-  O211  1  0.66364314  0.21073040  0.60320698  1
  O2-  O212  1  0.66260593  0.20746766  0.93803790  1
  O2-  O213  1  0.66438615  0.70937890  0.26244352  1
  O2-  O214  1  0.66889097  0.71043917  0.59941776  1
  O2-  O215  1  0.66398068  0.70493828  0.93694976  1
  O2-  O216  1  0.08259688  0.45747995  0.06772171  1
  O2-  O217  1  0.08065035  0.44443807  0.39116113  1
  O2-  O218  1  0.08348894  0.45186091  0.73061819  1
  O2-  O219  1  0.08260295  0.94737707  0.06069398  1
  O2-  O220  1  0.08537650  0.95219544  0.39518857  1
  O2-  O221  1  0.08034371  0.95917474  0.73841168  1
  O2-  O222  1  0.58150026  0.46204626  0.06590353  1
  O2-  O223  1  0.57886776  0.45939119  0.40142878  1
  O2-  O224  1  0.58396602  0.44815306  0.73113402  1
  O2-  O225  1  0.58172722  0.95567371  0.07080745  1
  O2-  O226  1  0.58491435  0.95348754  0.40070027  1
  O2-  O227  1  0.59011377  0.95989298  0.72880061  1
  O2-  O228  1  0.21303122  0.33572404  0.06817026  1
  O2-  O229  1  0.21086955  0.33788858  0.39796214  1
  O2-  O230  1  0.20604993  0.33605684  0.73081817  1
  O2-  O231  1  0.20695293  0.83315822  0.06557186  1
  O2-  O232  1  0.20590762  0.83488348  0.39566583  1
  O2-  O233  1  0.20372532  0.83103397  0.73769884  1
  O2-  O234  1  0.70423793  0.33359410  0.06706922  1
  O2-  O235  1  0.69769958  0.32764791  0.40186186  1
  O2-  O236  1  0.70903094  0.33489232  0.73377353  1
  O2-  O237  1  0.70526468  0.82769850  0.06614458  1
  O2-  O238  1  0.70335479  0.83263228  0.39729171  1
  O2-  O239  1  0.70723997  0.83910812  0.72959433  1
  O2-  O240  1  0.46110775  0.41439307  0.26193559  1
  O2-  O241  1  0.45731734  0.41022948  0.60536364  1
  O2-  O242  1  0.45841311  0.41345434  0.93444441  1
  O2-  O243  1  0.45554805  0.91811690  0.27027741  1
  O2-  O244  1  0.46233263  0.92022756  0.59756986  1
  O2-  O245  1  0.45861397  0.91519757  0.93904258  1
  O2-  O246  1  0.95092539  0.41780913  0.26244965  1
  O2-  O247  1  0.95576441  0.41173580  0.60627631  1
  O2-  O248  1  0.95507200  0.41609568  0.93480025  1
  O2-  O249  1  0.96154589  0.91574292  0.26223697  1
  O2-  O250  1  0.95250683  0.91872122  0.60734957  1
  O2-  O251  1  0.95662738  0.91078278  0.93360009  1
  O2-  O252  1  0.33521643  0.28886181  0.26371869  1
  O2-  O253  1  0.33622412  0.29294753  0.60551173  1
  O2-  O254  1  0.33787478  0.29391050  0.93467567  1
  O2-  O255  1  0.33461117  0.80050477  0.26820162  1
  O2-  O256  1  0.32717279  0.80358850  0.60318930  1
  O2-  O257  1  0.33785379  0.79580343  0.93662800  1
  O2-  O258  1  0.82489021  0.29281093  0.26956608  1
  O2-  O259  1  0.83615169  0.29200762  0.60427904  1
  O2-  O260  1  0.83191824  0.29723045  0.93473587  1
  O2-  O261  1  0.82976088  0.79634085  0.26377581  1
  O2-  O262  1  0.83368652  0.80045386  0.60628211  1
  O2-  O263  1  0.83707380  0.79217662  0.93477791  1
  O2-  O264  1  0.41451413  0.04074518  0.07034891  1
  O2-  O265  1  0.41785660  0.04445258  0.40152204  1
  O2-  O266  1  0.42349458  0.04759173  0.73198300  1
  O2-  O267  1  0.41559817  0.54644807  0.05925548  1
  O2-  O268  1  0.41243707  0.53392417  0.39904102  1
  O2-  O269  1  0.41693831  0.53651908  0.73629315  1
  O2-  O270  1  0.92249919  0.04102767  0.06381916  1
  O2-  O271  1  0.91889537  0.03732494  0.40155602  1
  O2-  O272  1  0.91312411  0.04801216  0.72969440  1
  O2-  O273  1  0.91712543  0.54838734  0.06047336  1
  O2-  O274  1  0.92163785  0.54315577  0.39833230  1
  O2-  O275  1  0.91530002  0.53694647  0.73743802  1
  O2-  O276  1  0.28992711  0.16846860  0.06500343  1
  O2-  O277  1  0.28908877  0.16936405  0.40109509  1
  O2-  O278  1  0.29177709  0.17023191  0.73630916  1
  O2-  O279  1  0.29907161  0.66826490  0.06040530  1
  O2-  O280  1  0.29481610  0.67030973  0.39754523  1
  O2-  O281  1  0.29463917  0.66797856  0.73360857  1
  O2-  O282  1  0.79534662  0.16859159  0.06545363  1
  O2-  O283  1  0.78974892  0.16331888  0.40467042  1
  O2-  O284  1  0.79062804  0.16426689  0.73030294  1
  O2-  O285  1  0.79795892  0.66584069  0.06055769  1
  O2-  O286  1  0.79199591  0.67038131  0.39867548  1
  O2-  O287  1  0.79235543  0.66896339  0.73526480  1
