# generated using pymatgen
data_Ca2Al2SiO7
_symmetry_space_group_name_H-M   'P 1'
_cell_length_a   15.46039638
_cell_length_b   15.45967978
_cell_length_c   15.28503511
_cell_angle_alpha   90.00675078
_cell_angle_beta   90.01218136
_cell_angle_gamma   90.01259269
_symmetry_Int_Tables_number   1
_chemical_formula_structural   Ca2Al2SiO7
_chemical_formula_sum   'Ca48 Al48 Si24 O168'
_cell_volume   3653.31849570
_cell_formula_units_Z   24
loop_
 _symmetry_equiv_pos_site_id
 _symmetry_equiv_pos_as_xyz
  1  'x, y, z'
loop_
 _atom_type_symbol
 _atom_type_oxidation_number
  Ca2+  2.0
  Al0+  0.0
  Si0+  0.0
  O2-  -2.0
loop_
 _atom_site_type_symbol
 _atom_site_label
 _atom_site_symmetry_multiplicity
 _atom_site_fract_x
 _atom_site_fract_y
 _atom_site_fract_z
 _atom_site_occupancy
  Ca2+  Ca0  1  0.17625464  0.08044601  0.17360154  1
  Ca2+  Ca1  1  0.17758727  0.07601680  0.50495396  1
  Ca2+  Ca2  1  0.16554518  0.07392965  0.83471500  1
  Ca2+  Ca3  1  0.15831644  0.57642928  0.17066942  1
  Ca2+  Ca4  1  0.16084106  0.57779544  0.50164030  1
  Ca2+  Ca5  1  0.16594533  0.57660773  0.83982358  1
  Ca2+  Ca6  1  0.66533438  0.07549774  0.16496028  1
  Ca2+  Ca7  1  0.66224644  0.07255828  0.50510053  1
  Ca2+  Ca8  1  0.66475460  0.07540460  0.83982751  1
  Ca2+  Ca9  1  0.67502337  0.58161932  0.17539875  1
  Ca2+  Ca10  1  0.66327327  0.57921524  0.49987567  1
  Ca2+  Ca11  1  0.67007117  0.57336825  0.84290482  1
  Ca2+  Ca12  1  0.08528427  0.33660472  0.16077814  1
  Ca2+  Ca13  1  0.08600228  0.33840648  0.49456487  1
  Ca2+  Ca14  1  0.08436988  0.33689478  0.83067421  1
  Ca2+  Ca15  1  0.07542126  0.81717676  0.15588321  1
  Ca2+  Ca16  1  0.07781615  0.83062676  0.49470839  1
  Ca2+  Ca17  1  0.06940384  0.83235761  0.82634443  1
  Ca2+  Ca18  1  0.58139423  0.33147216  0.15350522  1
  Ca2+  Ca19  1  0.59267891  0.32938406  0.49659947  1
  Ca2+  Ca20  1  0.59521159  0.32353045  0.82944839  1
  Ca2+  Ca21  1  0.58633260  0.83522520  0.16809181  1
  Ca2+  Ca22  1  0.57772269  0.83567626  0.49183724  1
  Ca2+  Ca23  1  0.58265297  0.83688402  0.82570613  1
  Ca2+  Ca24  1  0.32492864  0.41191848  0.16935274  1
  Ca2+  Ca25  1  0.32321490  0.42054062  0.50426832  1
  Ca2+  Ca26  1  0.32427554  0.40908766  0.83819310  1
  Ca2+  Ca27  1  0.33900911  0.92408078  0.17546901  1
  Ca2+  Ca28  1  0.33654825  0.91605113  0.50518782  1
  Ca2+  Ca29  1  0.32942018  0.91103615  0.83237463  1
  Ca2+  Ca30  1  0.82243535  0.42642799  0.16988980  1
  Ca2+  Ca31  1  0.82429033  0.42638722  0.49993143  1
  Ca2+  Ca32  1  0.82413561  0.42284685  0.84064877  1
  Ca2+  Ca33  1  0.82552969  0.91435222  0.16465838  1
  Ca2+  Ca34  1  0.82142026  0.91002855  0.50480880  1
  Ca2+  Ca35  1  0.82642387  0.91643728  0.84210034  1
  Ca2+  Ca36  1  0.42217848  0.17146424  0.15882393  1
  Ca2+  Ca37  1  0.42200313  0.16421600  0.49757270  1
  Ca2+  Ca38  1  0.43012844  0.17350613  0.83302939  1
  Ca2+  Ca39  1  0.42345171  0.66992375  0.16759368  1
  Ca2+  Ca40  1  0.42242294  0.67910101  0.49259805  1
  Ca2+  Ca41  1  0.41993130  0.67213395  0.82779758  1
  Ca2+  Ca42  1  0.91580926  0.16694941  0.15954001  1
  Ca2+  Ca43  1  0.91934907  0.17077937  0.49709639  1
  Ca2+  Ca44  1  0.91286140  0.16541712  0.83125916  1
  Ca2+  Ca45  1  0.92037742  0.66047643  0.16036106  1
  Ca2+  Ca46  1  0.91827075  0.66875935  0.49437099  1
  Ca2+  Ca47  1  0.91360054  0.67310882  0.83591375  1
  Al0+  Al48  1  -0.00019628  -0.00137836  0.00119497  1
  Al0+  Al49  1  0.00109989  0.00173186  0.33138161  1
  Al0+  Al50  1  0.00180008  0.00050060  0.66299370  1
  Al0+  Al51  1  0.00088461  0.49789494  0.00110372  1
  Al0+  Al52  1  -0.00283579  0.49927667  0.33748504  1
  Al0+  Al53  1  -0.00013627  0.49980337  0.67069456  1
  Al0+  Al54  1  0.49907566  0.00163532  -0.00138969  1
  Al0+  Al55  1  0.50044979  0.00336112  0.33689595  1
  Al0+  Al56  1  0.50081033  0.00270105  0.66418641  1
  Al0+  Al57  1  0.49396579  0.50135807  -0.00271816  1
  Al0+  Al58  1  0.49724641  0.49985012  0.33383116  1
  Al0+  Al59  1  0.49868810  0.49858185  0.67070227  1
  Al0+  Al60  1  0.25063180  0.24856409  -0.00146999  1
  Al0+  Al61  1  0.25103745  0.24812212  0.34233142  1
  Al0+  Al62  1  0.25158155  0.24960805  0.66993659  1
  Al0+  Al63  1  0.24958457  0.74704052  -0.00356186  1
  Al0+  Al64  1  0.24830693  0.75004130  0.32340746  1
  Al0+  Al65  1  0.25019776  0.74982581  0.66649298  1
  Al0+  Al66  1  0.75154867  0.24747685  0.00187171  1
  Al0+  Al67  1  0.75198893  0.24983262  0.33412298  1
  Al0+  Al68  1  0.75232827  0.25066755  0.66222609  1
  Al0+  Al69  1  0.74957302  0.74989722  0.00327731  1
  Al0+  Al70  1  0.74968681  0.75119125  0.33824250  1
  Al0+  Al71  1  0.75114614  0.74981337  0.66619701  1
  Al0+  Al72  1  0.07094937  0.67535729  0.98191713  1
  Al0+  Al73  1  0.92811010  0.82081171  0.98485754  1
  Al0+  Al74  1  0.82339321  0.07047764  0.01441164  1
  Al0+  Al75  1  0.67932847  0.42859361  0.68063049  1
  Al0+  Al76  1  0.81953594  0.57037994  0.01463070  1
  Al0+  Al77  1  0.57169882  0.67819551  0.31870160  1
  Al0+  Al78  1  0.67529710  0.42769350  0.34734714  1
  Al0+  Al79  1  0.17912876  0.92821389  0.67942322  1
  Al0+  Al80  1  0.17930042  0.42940754  0.68185591  1
  Al0+  Al81  1  0.17997548  0.43073300  0.34713285  1
  Al0+  Al82  1  0.06819222  0.67786804  0.31981831  1
  Al0+  Al83  1  0.67913111  0.92971745  0.67968508  1
  Al0+  Al84  1  0.92827284  0.82236923  0.65109692  1
  Al0+  Al85  1  0.67554527  0.42789140  0.01312856  1
  Al0+  Al86  1  0.57257684  0.18044356  0.98500274  1
  Al0+  Al87  1  0.82005391  0.57200214  0.35002997  1
  Al0+  Al88  1  0.32097709  0.06963507  0.34783133  1
  Al0+  Al89  1  0.42724515  0.32291375  0.98511576  1
  Al0+  Al90  1  0.42989623  0.82022890  0.65391788  1
  Al0+  Al91  1  0.57220337  0.18210118  0.65036937  1
  Al0+  Al92  1  0.68131774  0.93217733  0.34810275  1
  Al0+  Al93  1  0.67585166  0.92868634  0.01505347  1
  Al0+  Al94  1  0.18190315  0.42909635  0.01400831  1
  Al0+  Al95  1  0.42995993  0.82399012  0.31734705  1
  Si0+  Si96  1  0.92711505  0.82460063  0.31622974  1
  Si0+  Si97  1  0.42624064  0.32234849  0.64783226  1
  Si0+  Si98  1  0.57258737  0.67539772  0.65193246  1
  Si0+  Si99  1  0.82580631  0.07352358  0.35163638  1
  Si0+  Si100  1  0.57194630  0.18124959  0.31831103  1
  Si0+  Si101  1  0.93022230  0.31959355  0.31740583  1
  Si0+  Si102  1  0.32191546  0.57629659  0.01912869  1
  Si0+  Si103  1  0.17744527  0.92661372  0.34718825  1
  Si0+  Si104  1  0.82237356  0.57226597  0.68491713  1
  Si0+  Si105  1  0.32286244  0.07177400  0.68686966  1
  Si0+  Si106  1  0.57066730  0.67930949  0.98562096  1
  Si0+  Si107  1  0.82344234  0.07204286  0.68022233  1
  Si0+  Si108  1  0.31840794  0.06818964  0.01345908  1
  Si0+  Si109  1  0.42885489  0.82267546  0.98471864  1
  Si0+  Si110  1  0.93034911  0.31905385  0.98533561  1
  Si0+  Si111  1  0.07078800  0.67782127  0.65011142  1
  Si0+  Si112  1  0.32183602  0.57512825  0.34976160  1
  Si0+  Si113  1  0.93117423  0.32188553  0.65070368  1
  Si0+  Si114  1  0.07361648  0.17923081  0.65070352  1
  Si0+  Si115  1  0.07322513  0.17998567  0.31879185  1
  Si0+  Si116  1  0.42652561  0.32009036  0.32118664  1
  Si0+  Si117  1  0.17838692  0.92634365  0.01449418  1
  Si0+  Si118  1  0.32171921  0.57248141  0.68357369  1
  Si0+  Si119  1  0.07266095  0.17754809  0.98505533  1
  O2-  O120  1  0.25088469  -0.00499780  0.05775268  1
  O2-  O121  1  0.24963250  -0.00920057  0.39274488  1
  O2-  O122  1  0.25460140  0.00130768  0.72914179  1
  O2-  O123  1  0.25453873  0.50481053  0.06139198  1
  O2-  O124  1  0.25136810  0.50795121  0.39442854  1
  O2-  O125  1  0.25449739  0.50248021  0.72848113  1
  O2-  O126  1  0.75010566  -0.00021042  0.06349153  1
  O2-  O127  1  0.75915425  0.00368389  0.39567683  1
  O2-  O128  1  0.75653096  0.00236368  0.72461677  1
  O2-  O129  1  0.74331950  0.50254758  0.06432965  1
  O2-  O130  1  0.74281985  0.50391490  0.39782026  1
  O2-  O131  1  0.74969250  0.50668583  0.72723329  1
  O2-  O132  1  0.00178077  0.24888311  0.27469997  1
  O2-  O133  1  0.00459564  0.25237348  0.60868486  1
  O2-  O134  1  0.00006774  0.24644042  0.94239409  1
  O2-  O135  1  -0.00513022  0.75422887  0.27358843  1
  O2-  O136  1  0.00342358  0.74731432  0.60537077  1
  O2-  O137  1  0.00038894  0.74935913  0.93346896  1
  O2-  O138  1  0.50465658  0.25707572  0.27863001  1
  O2-  O139  1  0.49886751  0.25852988  0.60273096  1
  O2-  O140  1  0.50737190  0.25959856  0.93530542  1
  O2-  O141  1  0.50147478  0.75182256  0.26700230  1
  O2-  O142  1  0.50661112  0.74732464  0.60852435  1
  O2-  O143  1  0.50128389  0.75269521  0.94347398  1
  O2-  O144  1  0.07554523  0.17903744  0.09037745  1
  O2-  O145  1  0.07212984  0.18027290  0.42405131  1
  O2-  O146  1  0.07263816  0.17779765  0.75587709  1
  O2-  O147  1  0.07001914  0.67588268  0.09569507  1
  O2-  O148  1  0.06775679  0.67907957  0.43339007  1
  O2-  O149  1  0.06965220  0.67700326  0.75528789  1
  O2-  O150  1  0.56703743  0.17756742  0.09893727  1
  O2-  O151  1  0.57095159  0.18057781  0.42356365  1
  O2-  O152  1  0.57215397  0.18177086  0.76303193  1
  O2-  O153  1  0.56892170  0.67827166  0.09034383  1
  O2-  O154  1  0.56782348  0.67856264  0.43261557  1
  O2-  O155  1  0.57055578  0.67477537  0.75794709  1
  O2-  O156  1  0.18164018  0.42705324  0.23435870  1
  O2-  O157  1  0.17936953  0.43054872  0.56861786  1
  O2-  O158  1  0.18273990  0.42779195  0.90090509  1
  O2-  O159  1  0.17591313  0.93215065  0.24152344  1
  O2-  O160  1  0.17975812  0.93113258  0.56626525  1
  O2-  O161  1  0.17900525  0.92943273  0.90919780  1
  O2-  O162  1  0.67835454  0.42392501  0.23433686  1
  O2-  O163  1  0.68240656  0.42901401  0.56775473  1
  O2-  O164  1  0.68165088  0.42869488  0.89924404  1
  O2-  O165  1  0.68025181  0.93522494  0.23543367  1
  O2-  O166  1  0.67852799  0.93161028  0.56661665  1
  O2-  O167  1  0.67383268  0.93045410  0.90125399  1
  O2-  O168  1  0.42242336  0.31581189  0.09906146  1
  O2-  O169  1  0.42275015  0.31633861  0.42615265  1
  O2-  O170  1  0.42247629  0.31831493  0.75292179  1
  O2-  O171  1  0.42738136  0.82390057  0.08946225  1
  O2-  O172  1  0.43061163  0.82328700  0.43106032  1
  O2-  O173  1  0.42969136  0.81760979  0.76758684  1
  O2-  O174  1  0.93323138  0.31832495  0.09053291  1
  O2-  O175  1  0.93150444  0.31733308  0.42295589  1
  O2-  O176  1  0.93091738  0.32038967  0.75582410  1
  O2-  O177  1  0.93215169  0.82259158  0.09835269  1
  O2-  O178  1  0.93077920  0.82678708  0.42213046  1
  O2-  O179  1  0.92848809  0.82345077  0.76370625  1
  O2-  O180  1  0.31819940  0.07224825  0.23426211  1
  O2-  O181  1  0.32046666  0.07334110  0.58105438  1
  O2-  O182  1  0.31626127  0.06704489  0.90853363  1
  O2-  O183  1  0.32304084  0.57237808  0.24442165  1
  O2-  O184  1  0.32069729  0.57225771  0.57799006  1
  O2-  O185  1  0.32097714  0.58102690  0.91354081  1
  O2-  O186  1  0.82683141  0.07537340  0.24643425  1
  O2-  O187  1  0.82334109  0.07315750  0.57443585  1
  O2-  O188  1  0.82552746  0.06983363  0.90071140  1
  O2-  O189  1  0.82274440  0.56693612  0.23690317  1
  O2-  O190  1  0.82582861  0.56977243  0.57953169  1
  O2-  O191  1  0.81804660  0.56852000  0.90059664  1
  O2-  O192  1  0.04828943  0.08781134  0.26992547  1
  O2-  O193  1  0.04499871  0.08944018  0.59980639  1
  O2-  O194  1  0.04632966  0.08532550  0.93777715  1
  O2-  O195  1  0.03569084  0.58054600  0.26775408  1
  O2-  O196  1  0.04288367  0.58370084  0.60492999  1
  O2-  O197  1  0.04219829  0.57654185  0.93007576  1
  O2-  O198  1  0.53795590  0.09202873  0.27078914  1
  O2-  O199  1  0.53715983  0.08705973  0.59577630  1
  O2-  O200  1  0.53506747  0.08478646  0.93075019  1
  O2-  O201  1  0.54148478  0.57944389  0.26597520  1
  O2-  O202  1  0.54351607  0.58245105  0.60582641  1
  O2-  O203  1  0.54007661  0.58919074  0.93560045  1
  O2-  O204  1  0.16524668  0.20932894  0.27270828  1
  O2-  O205  1  0.16623278  0.20629734  0.60423870  1
  O2-  O206  1  0.16237904  0.20692098  0.93487932  1
  O2-  O207  1  0.16457697  0.70374786  0.26271109  1
  O2-  O208  1  0.16508431  0.70140675  0.60489510  1
  O2-  O209  1  0.17061768  0.70220599  0.93028188  1
  O2-  O210  1  0.66617088  0.20287291  0.27294286  1
  O2-  O211  1  0.66927877  0.21102371  0.59517263  1
  O2-  O212  1  0.67348928  0.20115932  0.93317728  1
  O2-  O213  1  0.67144504  0.70632769  0.26875801  1
  O2-  O214  1  0.66751431  0.69657098  0.60773020  1
  O2-  O215  1  0.66276044  0.70453421  0.93818059  1
  O2-  O216  1  0.08441652  0.45626683  0.06729487  1
  O2-  O217  1  0.08290196  0.45843802  0.40127292  1
  O2-  O218  1  0.08237076  0.45823574  0.73582791  1
  O2-  O219  1  0.08869113  0.95672144  0.06316934  1
  O2-  O220  1  0.08551310  0.95747077  0.39452853  1
  O2-  O221  1  0.08401338  0.96443761  0.73363588  1
  O2-  O222  1  0.57290656  0.44978809  0.05887585  1
  O2-  O223  1  0.57472883  0.44927058  0.39947601  1
  O2-  O224  1  0.58010099  0.45130592  0.73303906  1
  O2-  O225  1  0.57795294  0.96046127  0.06811691  1
  O2-  O226  1  0.58631022  0.96757892  0.40218775  1
  O2-  O227  1  0.58296521  0.96330468  0.73268594  1
  O2-  O228  1  0.21236206  0.33108673  0.06683555  1
  O2-  O229  1  0.21203985  0.33538233  0.40323749  1
  O2-  O230  1  0.20818111  0.33141530  0.73452429  1
  O2-  O231  1  0.20439355  0.83323113  0.05905865  1
  O2-  O232  1  0.19767241  0.83082467  0.38972593  1
  O2-  O233  1  0.20828915  0.83174729  0.73406840  1
  O2-  O234  1  0.70631817  0.33002341  0.06445800  1
  O2-  O235  1  0.71180942  0.33098377  0.40066190  1
  O2-  O236  1  0.71747371  0.33303443  0.73201040  1
  O2-  O237  1  0.70302950  0.83071269  0.06820815  1
  O2-  O238  1  0.70731355  0.83519778  0.40316409  1
  O2-  O239  1  0.70590228  0.83107461  0.73145004  1
  O2-  O240  1  0.44313713  0.41466056  0.27551433  1
  O2-  O241  1  0.44579436  0.41887678  0.60571117  1
  O2-  O242  1  0.43851063  0.42539577  0.93448923  1
  O2-  O243  1  0.45997115  0.92350997  0.26658551  1
  O2-  O244  1  0.45677972  0.91840569  0.60176243  1
  O2-  O245  1  0.45368200  0.91458885  0.93627872  1
  O2-  O246  1  0.95893268  0.41074972  0.27100199  1
  O2-  O247  1  0.95948403  0.41383370  0.60375463  1
  O2-  O248  1  0.96082929  0.40874529  0.93597443  1
  O2-  O249  1  0.95335643  0.91854851  0.27030665  1
  O2-  O250  1  0.96037054  0.91859135  0.59619475  1
  O2-  O251  1  0.95911405  0.91936807  0.93211664  1
  O2-  O252  1  0.33726123  0.28339603  0.27338317  1
  O2-  O253  1  0.33362125  0.29180915  0.60096380  1
  O2-  O254  1  0.33302178  0.28252602  0.92936000  1
  O2-  O255  1  0.33084928  0.79927882  0.26349975  1
  O2-  O256  1  0.33313848  0.78933428  0.59932243  1
  O2-  O257  1  0.33744386  0.79307582  0.93679301  1
  O2-  O258  1  0.83927326  0.29031744  0.26920156  1
  O2-  O259  1  0.84228434  0.29132651  0.59944332  1
  O2-  O260  1  0.83911810  0.29171935  0.93688408  1
  O2-  O261  1  0.83232177  0.80133078  0.27380393  1
  O2-  O262  1  0.83201727  0.79029367  0.59667554  1
  O2-  O263  1  0.82856925  0.79312260  0.93319620  1
  O2-  O264  1  0.41019300  0.04259059  0.06142457  1
  O2-  O265  1  0.41699062  0.04312667  0.40394693  1
  O2-  O266  1  0.41622157  0.04617339  0.73175264  1
  O2-  O267  1  0.41568714  0.55264034  0.06492789  1
  O2-  O268  1  0.41334572  0.54764298  0.39875974  1
  O2-  O269  1  0.41512574  0.54910030  0.73123604  1
  O2-  O270  1  0.92222783  0.04399973  0.06946178  1
  O2-  O271  1  0.92136163  0.05168328  0.39657380  1
  O2-  O272  1  0.91860230  0.05052124  0.72441841  1
  O2-  O273  1  0.91672031  0.53624898  0.06598678  1
  O2-  O274  1  0.91455530  0.53539557  0.40650341  1
  O2-  O275  1  0.91363961  0.54154306  0.73259840  1
  O2-  O276  1  0.28681047  0.15825314  0.06187542  1
  O2-  O277  1  0.28500938  0.16167795  0.40743902  1
  O2-  O278  1  0.29426878  0.16408042  0.73329703  1
  O2-  O279  1  0.29531865  0.66895931  0.06710950  1
  O2-  O280  1  0.29639119  0.67018511  0.39280846  1
  O2-  O281  1  0.29474416  0.66500709  0.73095714  1
  O2-  O282  1  0.79792373  0.16873465  0.06901631  1
  O2-  O283  1  0.79948539  0.16671138  0.39812036  1
  O2-  O284  1  0.79817036  0.16605530  0.72523392  1
  O2-  O285  1  0.79615499  0.66918571  0.06757906  1
  O2-  O286  1  0.79837425  0.67147862  0.40298132  1
  O2-  O287  1  0.80017276  0.66684849  0.72933142  1
