# generated using pymatgen
data_Ca2Al2SiO7
_symmetry_space_group_name_H-M   'P 1'
_cell_length_a   15.46029566
_cell_length_b   15.45961605
_cell_length_c   15.28532740
_cell_angle_alpha   90.00845173
_cell_angle_beta   90.00026162
_cell_angle_gamma   89.98699744
_symmetry_Int_Tables_number   1
_chemical_formula_structural   Ca2Al2SiO7
_chemical_formula_sum   'Ca48 Al48 Si24 O168'
_cell_volume   3653.34956112
_cell_formula_units_Z   24
loop_
 _symmetry_equiv_pos_site_id
 _symmetry_equiv_pos_as_xyz
  1  'x, y, z'
loop_
 _atom_type_symbol
 _atom_type_oxidation_number
  Ca2+  2.0
  Al0+  0.0
  Si0+  0.0
  O2-  -2.0
loop_
 _atom_site_type_symbol
 _atom_site_label
 _atom_site_symmetry_multiplicity
 _atom_site_fract_x
 _atom_site_fract_y
 _atom_site_fract_z
 _atom_site_occupancy
  Ca2+  Ca0  1  0.17150946  0.08125158  0.16969465  1
  Ca2+  Ca1  1  0.17055981  0.07592828  0.50678179  1
  Ca2+  Ca2  1  0.16663834  0.07614817  0.83433360  1
  Ca2+  Ca3  1  0.16584632  0.58235153  0.17178141  1
  Ca2+  Ca4  1  0.16522319  0.58170261  0.50498195  1
  Ca2+  Ca5  1  0.16725016  0.57141325  0.83801986  1
  Ca2+  Ca6  1  0.67292166  0.07955174  0.17241133  1
  Ca2+  Ca7  1  0.67240792  0.08132638  0.50606165  1
  Ca2+  Ca8  1  0.67300485  0.07463890  0.83650918  1
  Ca2+  Ca9  1  0.66769065  0.57912570  0.17347139  1
  Ca2+  Ca10  1  0.67641113  0.58418156  0.50421973  1
  Ca2+  Ca11  1  0.66831622  0.59415269  0.83389615  1
  Ca2+  Ca12  1  0.07606888  0.33515241  0.16454247  1
  Ca2+  Ca13  1  0.07733765  0.33420710  0.49576999  1
  Ca2+  Ca14  1  0.08670063  0.33411840  0.82933203  1
  Ca2+  Ca15  1  0.07041030  0.82793698  0.16689189  1
  Ca2+  Ca16  1  0.07221873  0.83166931  0.49358399  1
  Ca2+  Ca17  1  0.07030830  0.83950813  0.82714865  1
  Ca2+  Ca18  1  0.57997671  0.33308119  0.16551523  1
  Ca2+  Ca19  1  0.58910808  0.32154565  0.49074069  1
  Ca2+  Ca20  1  0.57813360  0.32704086  0.82660829  1
  Ca2+  Ca21  1  0.57777502  0.83163454  0.15723452  1
  Ca2+  Ca22  1  0.58606549  0.83030045  0.49937932  1
  Ca2+  Ca23  1  0.59137641  0.82880213  0.82991750  1
  Ca2+  Ca24  1  0.33188951  0.40989071  0.16938084  1
  Ca2+  Ca25  1  0.32807078  0.41369915  0.50375256  1
  Ca2+  Ca26  1  0.32480520  0.41167871  0.84082856  1
  Ca2+  Ca27  1  0.33645198  0.90925889  0.17355638  1
  Ca2+  Ca28  1  0.32613464  0.90969047  0.50467805  1
  Ca2+  Ca29  1  0.32772090  0.91067420  0.83756015  1
  Ca2+  Ca30  1  0.82620434  0.42266768  0.18149327  1
  Ca2+  Ca31  1  0.83400264  0.42669855  0.49809640  1
  Ca2+  Ca32  1  0.83212491  0.42755271  0.83471648  1
  Ca2+  Ca33  1  0.83375386  0.92148138  0.16863320  1
  Ca2+  Ca34  1  0.83468093  0.92483213  0.50896727  1
  Ca2+  Ca35  1  0.82504060  0.91832501  0.83863154  1
  Ca2+  Ca36  1  0.42571238  0.17563727  0.16603954  1
  Ca2+  Ca37  1  0.43130721  0.16976802  0.49255396  1
  Ca2+  Ca38  1  0.42305836  0.17014464  0.82858204  1
  Ca2+  Ca39  1  0.42411654  0.67582107  0.16008379  1
  Ca2+  Ca40  1  0.42358167  0.67102290  0.49607853  1
  Ca2+  Ca41  1  0.43053498  0.67020690  0.83271269  1
  Ca2+  Ca42  1  0.90585268  0.16960505  0.16756141  1
  Ca2+  Ca43  1  0.91035614  0.16994863  0.49215900  1
  Ca2+  Ca44  1  0.91014033  0.16411816  0.82983949  1
  Ca2+  Ca45  1  0.91125292  0.67553963  0.16604918  1
  Ca2+  Ca46  1  0.91435231  0.67585416  0.49413610  1
  Ca2+  Ca47  1  0.90912608  0.68105618  0.82684062  1
  Al0+  Al48  1  0.00198339  0.00142633  0.00136726  1
  Al0+  Al49  1  0.00156005  -0.00122874  0.33294894  1
  Al0+  Al50  1  0.00243443  0.00258340  0.66911390  1
  Al0+  Al51  1  0.00019418  0.49847882  0.00411360  1
  Al0+  Al52  1  0.00079680  0.49838994  0.33020131  1
  Al0+  Al53  1  0.00017829  0.50017673  0.67607338  1
  Al0+  Al54  1  0.49881191  0.00107519  -0.00056556  1
  Al0+  Al55  1  0.50021571  0.00149699  0.32690322  1
  Al0+  Al56  1  0.49980856  0.00139461  0.66559725  1
  Al0+  Al57  1  0.49827197  0.50042796  -0.00885758  1
  Al0+  Al58  1  0.49700665  0.49864164  0.33595366  1
  Al0+  Al59  1  0.49903786  0.50170315  0.66129837  1
  Al0+  Al60  1  0.24802992  0.24897171  0.00133514  1
  Al0+  Al61  1  0.25144028  0.24816458  0.33300079  1
  Al0+  Al62  1  0.24857507  0.24984393  0.66937306  1
  Al0+  Al63  1  0.24986689  0.74689400  -0.00240070  1
  Al0+  Al64  1  0.24932605  0.74755777  0.32780603  1
  Al0+  Al65  1  0.24938997  0.74780088  0.67461626  1
  Al0+  Al66  1  0.75067479  0.25158237  0.00077730  1
  Al0+  Al67  1  0.75098331  0.24832359  0.33164641  1
  Al0+  Al68  1  0.74968050  0.25251507  0.66634117  1
  Al0+  Al69  1  0.75094487  0.75177711  -0.00144652  1
  Al0+  Al70  1  0.74966823  0.75075051  0.33242768  1
  Al0+  Al71  1  0.75025790  0.75101685  0.66295415  1
  Al0+  Al72  1  0.67855445  0.92922865  0.68020602  1
  Al0+  Al73  1  0.57155212  0.67994115  0.64953704  1
  Al0+  Al74  1  0.17966430  0.92774126  0.68008320  1
  Al0+  Al75  1  0.82169633  0.07445174  0.68076921  1
  Al0+  Al76  1  0.93062702  0.82267548  0.65293086  1
  Al0+  Al77  1  0.82166795  0.06813806  0.34758776  1
  Al0+  Al78  1  0.93214902  0.82142774  0.98484746  1
  Al0+  Al79  1  0.57194549  0.68041776  0.98538555  1
  Al0+  Al80  1  0.42741080  0.32200220  0.31943722  1
  Al0+  Al81  1  0.82218481  0.07194975  0.01717230  1
  Al0+  Al82  1  0.92673163  0.82285322  0.31800909  1
  Al0+  Al83  1  0.93052520  0.31924384  0.32087870  1
  Al0+  Al84  1  0.67639975  0.42870329  0.34785040  1
  Al0+  Al85  1  0.42824507  0.31919707  0.98486649  1
  Al0+  Al86  1  0.07063615  0.67758564  0.31967602  1
  Al0+  Al87  1  0.81966149  0.57086797  0.68067282  1
  Al0+  Al88  1  0.57363873  0.17918905  0.31611351  1
  Al0+  Al89  1  0.57149669  0.17960726  0.65300531  1
  Al0+  Al90  1  0.18077664  0.42971416  0.68001096  1
  Al0+  Al91  1  0.17938909  0.42788758  0.01779582  1
  Al0+  Al92  1  0.67826261  0.92828077  0.01668038  1
  Al0+  Al93  1  0.42989818  0.81948881  0.32242333  1
  Al0+  Al94  1  0.82196747  0.57265852  0.34783359  1
  Al0+  Al95  1  0.42700816  0.82394531  0.98351807  1
  Si0+  Si96  1  0.57400195  0.17921540  0.98174416  1
  Si0+  Si97  1  0.67640240  0.42883194  0.68296979  1
  Si0+  Si98  1  0.07067825  0.18051639  0.98445101  1
  Si0+  Si99  1  0.32176869  0.07104457  0.34807014  1
  Si0+  Si100  1  0.93016605  0.32294222  0.65344006  1
  Si0+  Si101  1  0.67741974  0.42964614  0.01207731  1
  Si0+  Si102  1  0.31935984  0.57231898  0.34857496  1
  Si0+  Si103  1  0.17952487  0.42711248  0.34830124  1
  Si0+  Si104  1  0.57215709  0.67699062  0.31840580  1
  Si0+  Si105  1  0.18147815  0.92741891  0.34682645  1
  Si0+  Si106  1  0.32475431  0.57249825  0.68576530  1
  Si0+  Si107  1  0.18006466  0.92733429  0.01666360  1
  Si0+  Si108  1  0.07237773  0.18010057  0.65171988  1
  Si0+  Si109  1  0.07389145  0.17661873  0.31728317  1
  Si0+  Si110  1  0.32213604  0.57002456  0.01803073  1
  Si0+  Si111  1  0.42515653  0.82158464  0.65132592  1
  Si0+  Si112  1  0.32021541  0.07111550  0.01536113  1
  Si0+  Si113  1  0.67484656  0.92837106  0.34937414  1
  Si0+  Si114  1  0.92800661  0.32220139  0.98399120  1
  Si0+  Si115  1  0.42590385  0.32112665  0.64992518  1
  Si0+  Si116  1  0.82034234  0.57103505  0.01476320  1
  Si0+  Si117  1  0.07176519  0.67652741  0.65383499  1
  Si0+  Si118  1  0.07124296  0.67493763  0.98159482  1
  Si0+  Si119  1  0.32154112  0.07164791  0.68308795  1
  O2-  O120  1  0.25711466  -0.00749419  0.05846129  1
  O2-  O121  1  0.25283657  -0.00217476  0.39011251  1
  O2-  O122  1  0.25694507  -0.00051978  0.72811766  1
  O2-  O123  1  0.25348893  0.50250601  0.06475567  1
  O2-  O124  1  0.24988503  0.49877963  0.39029660  1
  O2-  O125  1  0.25764594  0.50094529  0.72816975  1
  O2-  O126  1  0.74960484  0.00080933  0.06695377  1
  O2-  O127  1  0.74812290  -0.00764055  0.39341470  1
  O2-  O128  1  0.75151571  0.00086119  0.73002127  1
  O2-  O129  1  0.74771658  0.50094356  0.05476036  1
  O2-  O130  1  0.74708264  0.50273629  0.39734555  1
  O2-  O131  1  0.74172353  0.49973166  0.72899012  1
  O2-  O132  1  0.00362923  0.24321386  0.27281529  1
  O2-  O133  1  -0.00195060  0.24825057  0.61135205  1
  O2-  O134  1  -0.00250433  0.24945375  0.94218432  1
  O2-  O135  1  -0.00535538  0.74531390  0.26986323  1
  O2-  O136  1  0.00691767  0.74767970  0.60863050  1
  O2-  O137  1  0.00559765  0.74556948  0.93666217  1
  O2-  O138  1  0.50388352  0.25545762  0.26908844  1
  O2-  O139  1  0.49796565  0.25635760  0.60642326  1
  O2-  O140  1  0.50397457  0.24677555  0.93714994  1
  O2-  O141  1  0.50707853  0.74892825  0.27448611  1
  O2-  O142  1  0.49569683  0.75561147  0.60588982  1
  O2-  O143  1  0.50359930  0.75654505  0.93494411  1
  O2-  O144  1  0.07435724  0.18141214  0.08935939  1
  O2-  O145  1  0.07691196  0.17819971  0.42309362  1
  O2-  O146  1  0.07655122  0.18197709  0.75686204  1
  O2-  O147  1  0.06983314  0.67498197  0.08711611  1
  O2-  O148  1  0.07514993  0.68128618  0.43348390  1
  O2-  O149  1  0.06990204  0.67579491  0.75938776  1
  O2-  O150  1  0.57392942  0.18199743  0.08700793  1
  O2-  O151  1  0.57034897  0.17762015  0.42994158  1
  O2-  O152  1  0.56819727  0.18229303  0.76634371  1
  O2-  O153  1  0.56897982  0.67655955  0.09912366  1
  O2-  O154  1  0.56979372  0.67752014  0.42406375  1
  O2-  O155  1  0.56990429  0.67942914  0.76216159  1
  O2-  O156  1  0.18104102  0.42570144  0.24343483  1
  O2-  O157  1  0.18041950  0.42988400  0.56665833  1
  O2-  O158  1  0.18018037  0.42811171  0.90449316  1
  O2-  O159  1  0.18291480  0.92926113  0.24157680  1
  O2-  O160  1  0.18106890  0.92926486  0.56652018  1
  O2-  O161  1  0.17839880  0.93151685  0.91144863  1
  O2-  O162  1  0.67683884  0.43204551  0.23326678  1
  O2-  O163  1  0.67966394  0.42737825  0.57784151  1
  O2-  O164  1  0.68058352  0.42726213  0.90688770  1
  O2-  O165  1  0.67198907  0.93035759  0.24402445  1
  O2-  O166  1  0.67839070  0.93037247  0.56648066  1
  O2-  O167  1  0.68047598  0.92875927  0.90319333  1
  O2-  O168  1  0.42932963  0.31771799  0.09748955  1
  O2-  O169  1  0.42038781  0.31598892  0.43269861  1
  O2-  O170  1  0.42428468  0.31820017  0.75582037  1
  O2-  O171  1  0.42556403  0.81893455  0.09726548  1
  O2-  O172  1  0.42596709  0.81655280  0.43548864  1
  O2-  O173  1  0.42291412  0.81909813  0.75639929  1
  O2-  O174  1  0.92868742  0.32349223  0.08881271  1
  O2-  O175  1  0.93450145  0.32062420  0.43440979  1
  O2-  O176  1  0.93227057  0.32377794  0.75894882  1
  O2-  O177  1  0.93350755  0.82024920  0.09768589  1
  O2-  O178  1  0.93142428  0.82619351  0.43152715  1
  O2-  O179  1  0.93142928  0.82200710  0.76624134  1
  O2-  O180  1  0.31814743  0.07217122  0.24292369  1
  O2-  O181  1  0.31761700  0.07375678  0.57741030  1
  O2-  O182  1  0.31481668  0.07434056  0.91021726  1
  O2-  O183  1  0.31800012  0.57442241  0.24384608  1
  O2-  O184  1  0.32281237  0.57459256  0.57986776  1
  O2-  O185  1  0.32013282  0.56815941  0.91241636  1
  O2-  O186  1  0.82160772  0.06713223  0.23480903  1
  O2-  O187  1  0.82138342  0.07459828  0.56717242  1
  O2-  O188  1  0.82142850  0.07274965  0.90373987  1
  O2-  O189  1  0.82044320  0.57041921  0.23361185  1
  O2-  O190  1  0.82262960  0.56806008  0.56814772  1
  O2-  O191  1  0.82177185  0.56917702  0.90938082  1
  O2-  O192  1  0.05230811  0.08247564  0.27131414  1
  O2-  O193  1  0.04984422  0.08763985  0.60380943  1
  O2-  O194  1  0.04589271  0.08815767  0.93662285  1
  O2-  O195  1  0.05026869  0.57773002  0.26691919  1
  O2-  O196  1  0.04414044  0.58292457  0.60857654  1
  O2-  O197  1  0.04373555  0.58079757  0.93705123  1
  O2-  O198  1  0.53850174  0.08435477  0.26024921  1
  O2-  O199  1  0.53918021  0.08398608  0.59773242  1
  O2-  O200  1  0.54734789  0.08558981  0.93722017  1
  O2-  O201  1  0.54183451  0.58454457  0.27340179  1
  O2-  O202  1  0.54049965  0.58329433  0.59460577  1
  O2-  O203  1  0.54050076  0.58420761  0.92815663  1
  O2-  O204  1  0.16606555  0.20449812  0.26951335  1
  O2-  O205  1  0.16273322  0.21088264  0.60216879  1
  O2-  O206  1  0.16040316  0.21101422  0.93443119  1
  O2-  O207  1  0.16580726  0.71034730  0.26185631  1
  O2-  O208  1  0.16799102  0.69754897  0.61093051  1
  O2-  O209  1  0.16646853  0.69591648  0.93754170  1
  O2-  O210  1  0.67143222  0.20491992  0.26262313  1
  O2-  O211  1  0.66788605  0.21192104  0.59907042  1
  O2-  O212  1  0.66678730  0.20798658  0.93549410  1
  O2-  O213  1  0.66667603  0.69709265  0.27298506  1
  O2-  O214  1  0.66690886  0.71103007  0.59425294  1
  O2-  O215  1  0.67094100  0.70601078  0.93245840  1
  O2-  O216  1  0.08191496  0.45765815  0.07095806  1
  O2-  O217  1  0.08777644  0.45373531  0.39571344  1
  O2-  O218  1  0.08655501  0.46061460  0.73872551  1
  O2-  O219  1  0.09201721  0.96293698  0.06582871  1
  O2-  O220  1  0.09080215  0.95644581  0.39511434  1
  O2-  O221  1  0.08705206  0.96554533  0.73697956  1
  O2-  O222  1  0.58431761  0.45698669  0.05656770  1
  O2-  O223  1  0.57612985  0.45062720  0.40079665  1
  O2-  O224  1  0.58010442  0.45058796  0.72523664  1
  O2-  O225  1  0.57718762  0.95460582  0.06625859  1
  O2-  O226  1  0.58213454  0.95809454  0.39576427  1
  O2-  O227  1  0.57875331  0.95603155  0.73203556  1
  O2-  O228  1  0.20970156  0.33073982  0.07058122  1
  O2-  O229  1  0.20781435  0.33519620  0.39621152  1
  O2-  O230  1  0.20924113  0.33248377  0.73544715  1
  O2-  O231  1  0.20175299  0.83249159  0.06051907  1
  O2-  O232  1  0.21067329  0.83587320  0.39364586  1
  O2-  O233  1  0.20531559  0.83128985  0.73713849  1
  O2-  O234  1  0.70603187  0.33900102  0.06091023  1
  O2-  O235  1  0.70920466  0.33092065  0.39851807  1
  O2-  O236  1  0.70533121  0.33738342  0.73158680  1
  O2-  O237  1  0.70732278  0.82946760  0.06892762  1
  O2-  O238  1  0.69485607  0.83227328  0.39216264  1
  O2-  O239  1  0.70809327  0.83100063  0.73191558  1
  O2-  O240  1  0.44772938  0.42282667  0.26794331  1
  O2-  O241  1  0.44436452  0.41695390  0.60649333  1
  O2-  O242  1  0.45496112  0.41547682  0.92878841  1
  O2-  O243  1  0.45352805  0.91710881  0.26781171  1
  O2-  O244  1  0.44461121  0.91731901  0.60746414  1
  O2-  O245  1  0.44461770  0.92612490  0.93406992  1
  O2-  O246  1  0.96309911  0.41342824  0.26369227  1
  O2-  O247  1  0.96438807  0.41317711  0.60708565  1
  O2-  O248  1  0.95892515  0.41339457  0.93648802  1
  O2-  O249  1  0.96438920  0.91785502  0.26347271  1
  O2-  O250  1  0.96445109  0.91965892  0.60127345  1
  O2-  O251  1  0.96692055  0.91792090  0.93302002  1
  O2-  O252  1  0.33123221  0.28703304  0.26442483  1
  O2-  O253  1  0.33294673  0.29154103  0.60434555  1
  O2-  O254  1  0.33137138  0.28476331  0.93275704  1
  O2-  O255  1  0.33551468  0.78619731  0.26567868  1
  O2-  O256  1  0.33149077  0.79157739  0.60607144  1
  O2-  O257  1  0.32899556  0.79094749  0.93092483  1
  O2-  O258  1  0.83502260  0.29022599  0.26501591  1
  O2-  O259  1  0.83752250  0.30000280  0.60653502  1
  O2-  O260  1  0.83586182  0.29722297  0.93558763  1
  O2-  O261  1  0.82721740  0.79856361  0.26528768  1
  O2-  O262  1  0.83568706  0.79105723  0.59824581  1
  O2-  O263  1  0.83570391  0.79002869  0.93213356  1
  O2-  O264  1  0.41460757  0.05386380  0.06109645  1
  O2-  O265  1  0.41447434  0.04533970  0.39389819  1
  O2-  O266  1  0.41584059  0.05120818  0.72859490  1
  O2-  O267  1  0.41633306  0.54339227  0.06187160  1
  O2-  O268  1  0.41050657  0.54670919  0.39830842  1
  O2-  O269  1  0.41908340  0.54775382  0.73035054  1
  O2-  O270  1  0.92255806  0.04579826  0.06786977  1
  O2-  O271  1  0.92120647  0.04207981  0.39999183  1
  O2-  O272  1  0.92261150  0.05216933  0.73120082  1
  O2-  O273  1  0.91116035  0.54105171  0.06224855  1
  O2-  O274  1  0.92040427  0.53979218  0.39894838  1
  O2-  O275  1  0.91314091  0.53665195  0.73913335  1
  O2-  O276  1  0.28232706  0.15824004  0.06536155  1
  O2-  O277  1  0.29031181  0.16051945  0.39824699  1
  O2-  O278  1  0.29027072  0.16287275  0.73142944  1
  O2-  O279  1  0.29598471  0.66413950  0.06369086  1
  O2-  O280  1  0.28765385  0.66234287  0.39800879  1
  O2-  O281  1  0.29733635  0.66344421  0.73574650  1
  O2-  O282  1  0.79455945  0.17266675  0.06722561  1
  O2-  O283  1  0.79258539  0.16590875  0.39943902  1
  O2-  O284  1  0.79341121  0.17340181  0.73381949  1
  O2-  O285  1  0.79425972  0.66307285  0.06123464  1
  O2-  O286  1  0.79639601  0.67246664  0.39990429  1
  O2-  O287  1  0.78912824  0.66773929  0.73303980  1
