# generated using pymatgen
data_Ca2Al2SiO7
_symmetry_space_group_name_H-M   'P 1'
_cell_length_a   15.45349279
_cell_length_b   15.45236687
_cell_length_c   15.28023863
_cell_angle_alpha   89.99966225
_cell_angle_beta   89.99995600
_cell_angle_gamma   89.99074321
_symmetry_Int_Tables_number   1
_chemical_formula_structural   Ca2Al2SiO7
_chemical_formula_sum   'Ca48 Al48 Si24 O168'
_cell_volume   3648.81458519
_cell_formula_units_Z   24
loop_
 _symmetry_equiv_pos_site_id
 _symmetry_equiv_pos_as_xyz
  1  'x, y, z'
loop_
 _atom_type_symbol
 _atom_type_oxidation_number
  Ca2+  2.0
  Al0+  0.0
  Si0+  0.0
  O2-  -2.0
loop_
 _atom_site_type_symbol
 _atom_site_label
 _atom_site_symmetry_multiplicity
 _atom_site_fract_x
 _atom_site_fract_y
 _atom_site_fract_z
 _atom_site_occupancy
  Ca2+  Ca0  1  0.15956537  0.07196708  0.17297514  1
  Ca2+  Ca1  1  0.16656568  0.08339990  0.50455963  1
  Ca2+  Ca2  1  0.16744545  0.08020574  0.83620169  1
  Ca2+  Ca3  1  0.16109143  0.57573100  0.16630375  1
  Ca2+  Ca4  1  0.16403627  0.58222822  0.50460967  1
  Ca2+  Ca5  1  0.15968685  0.58078645  0.84300426  1
  Ca2+  Ca6  1  0.67064912  0.08359098  0.16733167  1
  Ca2+  Ca7  1  0.67237135  0.08637563  0.50802981  1
  Ca2+  Ca8  1  0.68010725  0.07572250  0.84121761  1
  Ca2+  Ca9  1  0.67470805  0.58478081  0.17588151  1
  Ca2+  Ca10  1  0.66798803  0.58188028  0.49515586  1
  Ca2+  Ca11  1  0.67577653  0.58430338  0.84261972  1
  Ca2+  Ca12  1  0.08134721  0.32716524  0.15799077  1
  Ca2+  Ca13  1  0.07891543  0.32000667  0.49934344  1
  Ca2+  Ca14  1  0.07044831  0.33290306  0.82880403  1
  Ca2+  Ca15  1  0.08042929  0.83156361  0.16275000  1
  Ca2+  Ca16  1  0.07155857  0.83798217  0.49601655  1
  Ca2+  Ca17  1  0.08412138  0.82390676  0.82805841  1
  Ca2+  Ca18  1  0.57724153  0.33754388  0.16577371  1
  Ca2+  Ca19  1  0.57955463  0.32746544  0.48623657  1
  Ca2+  Ca20  1  0.57643692  0.33404131  0.83302852  1
  Ca2+  Ca21  1  0.59031485  0.82304486  0.16051104  1
  Ca2+  Ca22  1  0.57600224  0.83225389  0.49432187  1
  Ca2+  Ca23  1  0.58549372  0.83289648  0.83337042  1
  Ca2+  Ca24  1  0.33312968  0.41038153  0.16760653  1
  Ca2+  Ca25  1  0.33540616  0.41602210  0.50176679  1
  Ca2+  Ca26  1  0.32295510  0.41688236  0.84257850  1
  Ca2+  Ca27  1  0.31785066  0.91198764  0.17106779  1
  Ca2+  Ca28  1  0.32873567  0.92201784  0.50857342  1
  Ca2+  Ca29  1  0.33089995  0.92015655  0.83732221  1
  Ca2+  Ca30  1  0.83526254  0.43028958  0.17198103  1
  Ca2+  Ca31  1  0.83021912  0.41680793  0.50142892  1
  Ca2+  Ca32  1  0.83992771  0.42009384  0.84289752  1
  Ca2+  Ca33  1  0.83182491  0.91854750  0.16843473  1
  Ca2+  Ca34  1  0.83653082  0.91798078  0.50529443  1
  Ca2+  Ca35  1  0.83896179  0.92697089  0.83864297  1
  Ca2+  Ca36  1  0.42200483  0.17610107  0.16523275  1
  Ca2+  Ca37  1  0.42111678  0.16943204  0.49090364  1
  Ca2+  Ca38  1  0.41298614  0.16788117  0.83086887  1
  Ca2+  Ca39  1  0.43310823  0.66100469  0.16177113  1
  Ca2+  Ca40  1  0.42058206  0.67400779  0.49556952  1
  Ca2+  Ca41  1  0.42413774  0.67498134  0.82994238  1
  Ca2+  Ca42  1  0.91873454  0.17158946  0.16154723  1
  Ca2+  Ca43  1  0.92484078  0.16238205  0.49786290  1
  Ca2+  Ca44  1  0.91534756  0.17280980  0.82606555  1
  Ca2+  Ca45  1  0.91268408  0.67022577  0.16067077  1
  Ca2+  Ca46  1  0.91689027  0.67707144  0.49692375  1
  Ca2+  Ca47  1  0.92589755  0.66943409  0.82945420  1
  Al0+  Al48  1  0.00142512  0.00065075  0.00797246  1
  Al0+  Al49  1  -0.00087419  -0.00170192  0.32923807  1
  Al0+  Al50  1  0.00064167  -0.00068727  0.66648654  1
  Al0+  Al51  1  0.00066698  0.49908328  0.00305885  1
  Al0+  Al52  1  0.00131942  0.50133090  0.34243992  1
  Al0+  Al53  1  -0.00151391  0.49882785  0.65788058  1
  Al0+  Al54  1  0.50084361  0.00023877  0.00514827  1
  Al0+  Al55  1  0.49835203  0.00105055  0.32728185  1
  Al0+  Al56  1  0.49876480  -0.00022553  0.66832669  1
  Al0+  Al57  1  0.49983273  0.50030511  -0.01250530  1
  Al0+  Al58  1  0.49940549  0.50109762  0.33130769  1
  Al0+  Al59  1  0.49955364  0.49989683  0.66891479  1
  Al0+  Al60  1  0.25071812  0.24996021  -0.00001484  1
  Al0+  Al61  1  0.24911085  0.24825919  0.32595353  1
  Al0+  Al62  1  0.24923655  0.25110577  0.66860132  1
  Al0+  Al63  1  0.25226501  0.74933228  0.00132841  1
  Al0+  Al64  1  0.24654434  0.74957036  0.34003292  1
  Al0+  Al65  1  0.25349760  0.74859425  0.65972964  1
  Al0+  Al66  1  0.74881690  0.25038321  -0.00023998  1
  Al0+  Al67  1  0.75071362  0.25076505  0.33304082  1
  Al0+  Al68  1  0.74752917  0.25063935  0.66906379  1
  Al0+  Al69  1  0.75130212  0.75095389  -0.00023445  1
  Al0+  Al70  1  0.75055061  0.75230712  0.33222061  1
  Al0+  Al71  1  0.74986372  0.74653663  0.66455058  1
  Al0+  Al72  1  0.57483968  0.17712206  0.31746867  1
  Al0+  Al73  1  0.18125034  0.92759947  0.01301164  1
  Al0+  Al74  1  0.92887727  0.82106926  0.65369426  1
  Al0+  Al75  1  0.67948135  0.92894655  0.01581040  1
  Al0+  Al76  1  0.82222403  0.07385824  0.01720465  1
  Al0+  Al77  1  0.92938037  0.31990022  0.98953267  1
  Al0+  Al78  1  0.07112386  0.67971155  0.98988135  1
  Al0+  Al79  1  0.17733286  0.92890059  0.35043162  1
  Al0+  Al80  1  0.43130591  0.82230783  0.65334664  1
  Al0+  Al81  1  0.42901905  0.32165574  0.31855217  1
  Al0+  Al82  1  0.42880296  0.31967578  0.98256403  1
  Al0+  Al83  1  0.82226548  0.57435127  0.35184568  1
  Al0+  Al84  1  0.07264659  0.67756483  0.65081628  1
  Al0+  Al85  1  0.56868342  0.68249270  0.32087990  1
  Al0+  Al86  1  0.06908724  0.17916221  0.31806852  1
  Al0+  Al87  1  0.82191730  0.07031340  0.67913144  1
  Al0+  Al88  1  0.07172959  0.17917166  0.65388591  1
  Al0+  Al89  1  0.82137077  0.56920912  0.01145170  1
  Al0+  Al90  1  0.17939959  0.42957382  0.01295950  1
  Al0+  Al91  1  0.32118741  0.07213774  0.67999497  1
  Al0+  Al92  1  0.57387519  0.68020282  0.98476203  1
  Al0+  Al93  1  0.92471287  0.32079622  0.64989272  1
  Al0+  Al94  1  0.92972896  0.81941104  0.31722893  1
  Al0+  Al95  1  0.67850816  0.42973144  0.34747666  1
  Si0+  Si96  1  0.67674497  0.42874183  0.68368150  1
  Si0+  Si97  1  0.92886774  0.32424012  0.31715070  1
  Si0+  Si98  1  0.82065905  0.56938568  0.68245132  1
  Si0+  Si99  1  0.17923874  0.43124590  0.68079951  1
  Si0+  Si100  1  0.67478486  0.42903021  0.01445812  1
  Si0+  Si101  1  0.42810095  0.82270848  0.98524400  1
  Si0+  Si102  1  0.32396369  0.57126255  0.01534122  1
  Si0+  Si103  1  0.92928326  0.82359144  0.98370081  1
  Si0+  Si104  1  0.42857045  0.32146226  0.65271221  1
  Si0+  Si105  1  0.32289653  0.07333442  0.01934023  1
  Si0+  Si106  1  0.81974887  0.07055164  0.34839611  1
  Si0+  Si107  1  0.07301918  0.67639960  0.31620605  1
  Si0+  Si108  1  0.32104637  0.56999215  0.34867769  1
  Si0+  Si109  1  0.17963422  0.42588695  0.34993024  1
  Si0+  Si110  1  0.67733639  0.92632080  0.68118608  1
  Si0+  Si111  1  0.57190730  0.67592221  0.64868262  1
  Si0+  Si112  1  0.57169394  0.17598845  0.98055704  1
  Si0+  Si113  1  0.17913948  0.92659694  0.68282714  1
  Si0+  Si114  1  0.42437774  0.82281292  0.31625500  1
  Si0+  Si115  1  0.32071525  0.07142961  0.34881768  1
  Si0+  Si116  1  0.56904825  0.17985206  0.65464031  1
  Si0+  Si117  1  0.67703455  0.92966084  0.34841336  1
  Si0+  Si118  1  0.07168601  0.17575885  0.98365279  1
  Si0+  Si119  1  0.32275996  0.57185816  0.68265384  1
  O2-  O120  1  0.25426038  0.00380022  0.06165750  1
  O2-  O121  1  0.25455073  0.00191509  0.39560149  1
  O2-  O122  1  0.24658343  -0.00284143  0.72677333  1
  O2-  O123  1  0.25553894  0.50295903  0.06055892  1
  O2-  O124  1  0.25047014  0.49808936  0.39138803  1
  O2-  O125  1  0.24689279  0.50573117  0.72384582  1
  O2-  O126  1  0.75043257  0.00120619  0.06702397  1
  O2-  O127  1  0.74337997  0.00478152  0.39098393  1
  O2-  O128  1  0.75061636  -0.00922448  0.72398189  1
  O2-  O129  1  0.74445232  0.49632545  0.05787977  1
  O2-  O130  1  0.75176173  0.49916511  0.40040382  1
  O2-  O131  1  0.75033987  0.49742910  0.72518231  1
  O2-  O132  1  -0.00242698  0.25681875  0.27181644  1
  O2-  O133  1  -0.00496515  0.24571946  0.60239965  1
  O2-  O134  1  0.00075276  0.24253972  0.94082713  1
  O2-  O135  1  0.00193088  0.74144837  0.27192714  1
  O2-  O136  1  0.00283737  0.75190490  0.60177314  1
  O2-  O137  1  -0.00041734  0.75591191  0.94091478  1
  O2-  O138  1  0.50412076  0.25198524  0.26992174  1
  O2-  O139  1  0.49807389  0.24992388  0.61062424  1
  O2-  O140  1  0.50222275  0.24390938  0.93519248  1
  O2-  O141  1  0.49432777  0.75641435  0.27162917  1
  O2-  O142  1  0.50623499  0.74806298  0.60601750  1
  O2-  O143  1  0.50016854  0.75748792  0.94048585  1
  O2-  O144  1  0.07160744  0.17752071  0.08944785  1
  O2-  O145  1  0.06943115  0.17987750  0.43129124  1
  O2-  O146  1  0.07361053  0.18291600  0.76734820  1
  O2-  O147  1  0.06992352  0.67957097  0.10273650  1
  O2-  O148  1  0.07467062  0.67811959  0.42169559  1
  O2-  O149  1  0.07116086  0.67656363  0.76484877  1
  O2-  O150  1  0.57071770  0.17686817  0.08579218  1
  O2-  O151  1  0.57197620  0.17595428  0.43212558  1
  O2-  O152  1  0.56816906  0.18192147  0.75951114  1
  O2-  O153  1  0.57162031  0.67828900  0.09778825  1
  O2-  O154  1  0.56509659  0.68427092  0.43437104  1
  O2-  O155  1  0.57115443  0.67454690  0.75423849  1
  O2-  O156  1  0.17833392  0.42707580  0.24491658  1
  O2-  O157  1  0.18420916  0.42974268  0.57548856  1
  O2-  O158  1  0.17893451  0.43166764  0.89942912  1
  O2-  O159  1  0.17925136  0.92836511  0.23715892  1
  O2-  O160  1  0.18093137  0.92819219  0.57722844  1
  O2-  O161  1  0.18343893  0.92688568  0.89967582  1
  O2-  O162  1  0.67767605  0.43310013  0.23402337  1
  O2-  O163  1  0.67213074  0.42959289  0.57907445  1
  O2-  O164  1  0.67517025  0.43089832  0.90810178  1
  O2-  O165  1  0.67972325  0.92774476  0.24383335  1
  O2-  O166  1  0.67386207  0.92943314  0.57534385  1
  O2-  O167  1  0.67994206  0.93053059  0.90159574  1
  O2-  O168  1  0.43057562  0.32011526  0.09519666  1
  O2-  O169  1  0.42822422  0.31955042  0.43307978  1
  O2-  O170  1  0.42942023  0.32241146  0.75762303  1
  O2-  O171  1  0.42578892  0.81892450  0.09060391  1
  O2-  O172  1  0.42672985  0.82256601  0.42227762  1
  O2-  O173  1  0.43174796  0.82052312  0.76650580  1
  O2-  O174  1  0.93340707  0.32153248  0.10251606  1
  O2-  O175  1  0.92967790  0.32129330  0.42280186  1
  O2-  O176  1  0.92740321  0.32336254  0.76371150  1
  O2-  O177  1  0.92887364  0.82199585  0.08933842  1
  O2-  O178  1  0.93012785  0.82147859  0.43041745  1
  O2-  O179  1  0.92901589  0.81942746  0.76731868  1
  O2-  O180  1  0.31934583  0.07051529  0.24347987  1
  O2-  O181  1  0.32341340  0.07212179  0.56700474  1
  O2-  O182  1  0.32249133  0.07249239  0.91323999  1
  O2-  O183  1  0.32112302  0.57113056  0.24380446  1
  O2-  O184  1  0.32743955  0.56770591  0.57748497  1
  O2-  O185  1  0.32248324  0.57111995  0.90937496  1
  O2-  O186  1  0.81998207  0.06899837  0.24364114  1
  O2-  O187  1  0.81789854  0.07119418  0.56570835  1
  O2-  O188  1  0.82185554  0.07267560  0.90311676  1
  O2-  O189  1  0.82178843  0.57365753  0.23800965  1
  O2-  O190  1  0.81727286  0.57088436  0.57779410  1
  O2-  O191  1  0.82181841  0.56784224  0.89771341  1
  O2-  O192  1  0.03509287  0.08443726  0.26382275  1
  O2-  O193  1  0.04908820  0.07929136  0.60214044  1
  O2-  O194  1  0.04890890  0.08078696  0.93939583  1
  O2-  O195  1  0.05171623  0.57958151  0.27488822  1
  O2-  O196  1  0.04305037  0.58104549  0.59535793  1
  O2-  O197  1  0.03837920  0.58399376  0.93558809  1
  O2-  O198  1  0.54425953  0.08023668  0.26202359  1
  O2-  O199  1  0.54308899  0.08776383  0.60733904  1
  O2-  O200  1  0.54559154  0.08167036  0.93570709  1
  O2-  O201  1  0.53717681  0.58677778  0.26653181  1
  O2-  O202  1  0.54011272  0.58367859  0.60291051  1
  O2-  O203  1  0.54109248  0.58657271  0.92602548  1
  O2-  O204  1  0.16522769  0.20694646  0.26247606  1
  O2-  O205  1  0.16837951  0.21383090  0.59907201  1
  O2-  O206  1  0.16581325  0.20168576  0.93943043  1
  O2-  O207  1  0.16674334  0.70373999  0.27116915  1
  O2-  O208  1  0.17330167  0.69851023  0.59921590  1
  O2-  O209  1  0.16962221  0.70652430  0.93623876  1
  O2-  O210  1  0.67357670  0.20369130  0.26505841  1
  O2-  O211  1  0.65971917  0.20846777  0.60618410  1
  O2-  O212  1  0.66487814  0.20283565  0.93425790  1
  O2-  O213  1  0.66483712  0.71356250  0.26778087  1
  O2-  O214  1  0.66625850  0.69675471  0.60324824  1
  O2-  O215  1  0.66960094  0.71166112  0.92896865  1
  O2-  O216  1  0.08604876  0.46239977  0.07105435  1
  O2-  O217  1  0.08932135  0.45288363  0.40091440  1
  O2-  O218  1  0.08493518  0.45647546  0.72435656  1
  O2-  O219  1  0.08568674  0.95656070  0.06965018  1
  O2-  O220  1  0.08102538  0.96394216  0.40193345  1
  O2-  O221  1  0.08536899  0.94938045  0.72907514  1
  O2-  O222  1  0.58040300  0.45668485  0.05709338  1
  O2-  O223  1  0.57971790  0.45983454  0.40108351  1
  O2-  O224  1  0.58570991  0.45943995  0.73304310  1
  O2-  O225  1  0.58005441  0.95329820  0.06962147  1
  O2-  O226  1  0.58176119  0.95285601  0.39254952  1
  O2-  O227  1  0.58622933  0.95626172  0.72989647  1
  O2-  O228  1  0.21009184  0.33265569  0.06654796  1
  O2-  O229  1  0.20992658  0.33407163  0.39598619  1
  O2-  O230  1  0.21045936  0.34167127  0.73028077  1
  O2-  O231  1  0.21416204  0.83211080  0.06933727  1
  O2-  O232  1  0.20512762  0.83184562  0.40555614  1
  O2-  O233  1  0.20890454  0.83238650  0.72591442  1
  O2-  O234  1  0.69535494  0.33388668  0.05806947  1
  O2-  O235  1  0.70496396  0.32989089  0.40079783  1
  O2-  O236  1  0.69977300  0.33622958  0.73184542  1
  O2-  O237  1  0.70910254  0.83095568  0.06832274  1
  O2-  O238  1  0.70784768  0.84019556  0.39827003  1
  O2-  O239  1  0.69737631  0.82983075  0.72409048  1
  O2-  O240  1  0.45367028  0.42065455  0.26568633  1
  O2-  O241  1  0.45752307  0.41355225  0.60594632  1
  O2-  O242  1  0.45871282  0.41475211  0.92428122  1
  O2-  O243  1  0.44520943  0.91692533  0.27016915  1
  O2-  O244  1  0.46123082  0.91858399  0.59771874  1
  O2-  O245  1  0.45042214  0.91832235  0.94142073  1
  O2-  O246  1  0.95545600  0.41973233  0.27595071  1
  O2-  O247  1  0.95572863  0.41647717  0.59410727  1
  O2-  O248  1  0.96524574  0.41439162  0.93408962  1
  O2-  O249  1  0.96315347  0.91385611  0.26174169  1
  O2-  O250  1  0.95481420  0.91959600  0.59975945  1
  O2-  O251  1  0.95569000  0.91845136  0.94094975  1
  O2-  O252  1  0.33257087  0.29109903  0.26321406  1
  O2-  O253  1  0.33659899  0.29581686  0.60582965  1
  O2-  O254  1  0.33138770  0.28910683  0.92896219  1
  O2-  O255  1  0.33024097  0.79337294  0.27412893  1
  O2-  O256  1  0.33720245  0.79057814  0.59543375  1
  O2-  O257  1  0.33721701  0.79308971  0.93569252  1
  O2-  O258  1  0.83516916  0.29983467  0.27196086  1
  O2-  O259  1  0.82418758  0.29597461  0.59986548  1
  O2-  O260  1  0.83070969  0.29574593  0.93539537  1
  O2-  O261  1  0.83253466  0.79174237  0.26362174  1
  O2-  O262  1  0.83023884  0.79139539  0.60018602  1
  O2-  O263  1  0.83664366  0.79784677  0.93686751  1
  O2-  O264  1  0.41685052  0.05003623  0.06520340  1
  O2-  O265  1  0.41618366  0.04793416  0.39350098  1
  O2-  O266  1  0.41692944  0.04043242  0.73639851  1
  O2-  O267  1  0.41798975  0.54183765  0.05836193  1
  O2-  O268  1  0.41175314  0.54242488  0.39856408  1
  O2-  O269  1  0.41263360  0.53999592  0.73264924  1
  O2-  O270  1  0.92029316  0.04719655  0.07102572  1
  O2-  O271  1  0.90965660  0.03609744  0.39496703  1
  O2-  O272  1  0.91936132  0.04336031  0.73383986  1
  O2-  O273  1  0.91506418  0.53628804  0.06890130  1
  O2-  O274  1  0.92134277  0.54898948  0.40574846  1
  O2-  O275  1  0.91415179  0.54155882  0.72636217  1
  O2-  O276  1  0.29743141  0.16691911  0.06453524  1
  O2-  O277  1  0.29359345  0.16545703  0.39378381  1
  O2-  O278  1  0.29119398  0.16895281  0.73533853  1
  O2-  O279  1  0.30198429  0.66461418  0.06254499  1
  O2-  O280  1  0.29248860  0.66078325  0.39897282  1
  O2-  O281  1  0.30113238  0.66613721  0.72766698  1
  O2-  O282  1  0.79163836  0.17219613  0.06976564  1
  O2-  O283  1  0.79823455  0.16424617  0.39518398  1
  O2-  O284  1  0.78658345  0.16581672  0.73363205  1
  O2-  O285  1  0.79264125  0.66659320  0.06364782  1
  O2-  O286  1  0.78811190  0.67183282  0.40397948  1
  O2-  O287  1  0.79207928  0.66099695  0.73093363  1
