# generated using pymatgen
data_Ca2Al2SiO7
_symmetry_space_group_name_H-M   'P 1'
_cell_length_a   15.45264643
_cell_length_b   15.45300225
_cell_length_c   15.28003999
_cell_angle_alpha   89.99535239
_cell_angle_beta   90.00455851
_cell_angle_gamma   89.99813363
_symmetry_Int_Tables_number   1
_chemical_formula_structural   Ca2Al2SiO7
_chemical_formula_sum   'Ca48 Al48 Si24 O168'
_cell_volume   3648.71736198
_cell_formula_units_Z   24
loop_
 _symmetry_equiv_pos_site_id
 _symmetry_equiv_pos_as_xyz
  1  'x, y, z'
loop_
 _atom_type_symbol
 _atom_type_oxidation_number
  Ca2+  2.0
  Al0+  0.0
  Si0+  0.0
  O2-  -2.0
loop_
 _atom_site_type_symbol
 _atom_site_label
 _atom_site_symmetry_multiplicity
 _atom_site_fract_x
 _atom_site_fract_y
 _atom_site_fract_z
 _atom_site_occupancy
  Ca2+  Ca0  1  0.17843792  0.09367237  0.16834022  1
  Ca2+  Ca1  1  0.17336953  0.08447331  0.49960323  1
  Ca2+  Ca2  1  0.17073194  0.08747669  0.84515735  1
  Ca2+  Ca3  1  0.16838000  0.57469076  0.17246600  1
  Ca2+  Ca4  1  0.16070384  0.57424084  0.50422387  1
  Ca2+  Ca5  1  0.15832283  0.57465860  0.83834147  1
  Ca2+  Ca6  1  0.66990089  0.08687522  0.17477816  1
  Ca2+  Ca7  1  0.67842178  0.08298079  0.50379629  1
  Ca2+  Ca8  1  0.67078804  0.08175757  0.83584302  1
  Ca2+  Ca9  1  0.65774275  0.57219278  0.17144222  1
  Ca2+  Ca10  1  0.67200532  0.57921260  0.50192229  1
  Ca2+  Ca11  1  0.67506477  0.58143944  0.84215715  1
  Ca2+  Ca12  1  0.08113466  0.33565879  0.16246139  1
  Ca2+  Ca13  1  0.07236229  0.34169780  0.49788692  1
  Ca2+  Ca14  1  0.08476779  0.33188604  0.82797321  1
  Ca2+  Ca15  1  0.07267707  0.83059255  0.15856969  1
  Ca2+  Ca16  1  0.07672110  0.82605734  0.49277818  1
  Ca2+  Ca17  1  0.07975527  0.82134580  0.83077541  1
  Ca2+  Ca18  1  0.58201577  0.32566003  0.15844941  1
  Ca2+  Ca19  1  0.58608511  0.32727010  0.48830425  1
  Ca2+  Ca20  1  0.58092738  0.33398030  0.83767491  1
  Ca2+  Ca21  1  0.58517331  0.81768464  0.16227613  1
  Ca2+  Ca22  1  0.58920318  0.82832995  0.49527242  1
  Ca2+  Ca23  1  0.58648185  0.83166069  0.83195510  1
  Ca2+  Ca24  1  0.32264559  0.41387605  0.17184905  1
  Ca2+  Ca25  1  0.32120065  0.42219055  0.49971140  1
  Ca2+  Ca26  1  0.32223472  0.41209518  0.84237975  1
  Ca2+  Ca27  1  0.33552655  0.92954409  0.17026167  1
  Ca2+  Ca28  1  0.33670251  0.92284678  0.50025490  1
  Ca2+  Ca29  1  0.33084510  0.92481960  0.84088038  1
  Ca2+  Ca30  1  0.82171446  0.41155067  0.17283914  1
  Ca2+  Ca31  1  0.83114610  0.41437881  0.50465671  1
  Ca2+  Ca32  1  0.83434262  0.42133561  0.83512038  1
  Ca2+  Ca33  1  0.83898249  0.92070047  0.17293455  1
  Ca2+  Ca34  1  0.83341675  0.92704363  0.50451800  1
  Ca2+  Ca35  1  0.83285752  0.91856778  0.83474098  1
  Ca2+  Ca36  1  0.42431175  0.16805929  0.15751802  1
  Ca2+  Ca37  1  0.42501126  0.16705445  0.49077116  1
  Ca2+  Ca38  1  0.41714831  0.17111913  0.83751903  1
  Ca2+  Ca39  1  0.42500226  0.65503784  0.16605213  1
  Ca2+  Ca40  1  0.42168510  0.66640069  0.49014661  1
  Ca2+  Ca41  1  0.42590284  0.66159739  0.83260659  1
  Ca2+  Ca42  1  0.92052948  0.17140297  0.16458035  1
  Ca2+  Ca43  1  0.90903820  0.17497178  0.49378673  1
  Ca2+  Ca44  1  0.92038680  0.17321577  0.82836548  1
  Ca2+  Ca45  1  0.91918442  0.68005777  0.15900621  1
  Ca2+  Ca46  1  0.91711522  0.66728820  0.49748111  1
  Ca2+  Ca47  1  0.92475636  0.66337442  0.82996233  1
  Al0+  Al48  1  -0.00047870  0.00100940  -0.00825734  1
  Al0+  Al49  1  0.00094181  0.00094490  0.33454661  1
  Al0+  Al50  1  0.00208650  -0.00026459  0.67003386  1
  Al0+  Al51  1  -0.00177030  0.50227972  0.00427677  1
  Al0+  Al52  1  -0.00225723  0.50008947  0.33017886  1
  Al0+  Al53  1  -0.00071396  0.49867931  0.66687150  1
  Al0+  Al54  1  0.50234098  -0.00048592  0.00087902  1
  Al0+  Al55  1  0.50077364  -0.00145603  0.33412318  1
  Al0+  Al56  1  0.50005513  -0.00050444  0.66988176  1
  Al0+  Al57  1  0.50017160  0.49904585  -0.00688995  1
  Al0+  Al58  1  0.49814594  0.49814122  0.33939576  1
  Al0+  Al59  1  0.49824693  0.49955723  0.66391256  1
  Al0+  Al60  1  0.25023265  0.25085276  0.00171640  1
  Al0+  Al61  1  0.24932932  0.25002779  0.34582106  1
  Al0+  Al62  1  0.25094034  0.25060066  0.66741178  1
  Al0+  Al63  1  0.24947847  0.75050653  -0.00195818  1
  Al0+  Al64  1  0.25117647  0.75117742  0.33482318  1
  Al0+  Al65  1  0.25217053  0.74982426  0.66147114  1
  Al0+  Al66  1  0.74990986  0.24944411  -0.00116088  1
  Al0+  Al67  1  0.75034058  0.24951847  0.33275705  1
  Al0+  Al68  1  0.74935193  0.24883107  0.66856611  1
  Al0+  Al69  1  0.74969332  0.75231524  -0.00698226  1
  Al0+  Al70  1  0.74955268  0.74875832  0.32380455  1
  Al0+  Al71  1  0.75054162  0.74963666  0.67371014  1
  Al0+  Al72  1  0.81989156  0.56915576  0.67970480  1
  Al0+  Al73  1  0.32090383  0.57226173  0.34826950  1
  Al0+  Al74  1  0.57356321  0.17677367  0.98329813  1
  Al0+  Al75  1  0.92837013  0.82299983  0.98116991  1
  Al0+  Al76  1  0.82170254  0.07026638  0.34485886  1
  Al0+  Al77  1  0.18033382  0.43150177  0.68210865  1
  Al0+  Al78  1  0.56917684  0.67762421  0.32098885  1
  Al0+  Al79  1  0.93003298  0.82215696  0.32131104  1
  Al0+  Al80  1  0.67964556  0.42840489  0.34639324  1
  Al0+  Al81  1  0.82306710  0.07311084  0.68411159  1
  Al0+  Al82  1  0.07173934  0.67776744  0.98584528  1
  Al0+  Al83  1  0.07040580  0.67884930  0.65108315  1
  Al0+  Al84  1  0.07102564  0.18259219  0.98861779  1
  Al0+  Al85  1  0.92892585  0.32153330  0.31892679  1
  Al0+  Al86  1  0.57075597  0.17860264  0.32106314  1
  Al0+  Al87  1  0.42867178  0.32030993  0.98615909  1
  Al0+  Al88  1  0.56906594  0.67800286  0.98474043  1
  Al0+  Al89  1  0.67973286  0.42993383  0.01297391  1
  Al0+  Al90  1  0.32308197  0.07040179  0.34812930  1
  Al0+  Al91  1  0.32082259  0.07011115  0.01353070  1
  Al0+  Al92  1  0.17523240  0.42950509  0.35065895  1
  Al0+  Al93  1  0.67906616  0.92956083  0.68222256  1
  Al0+  Al94  1  0.92953527  0.31823943  0.65395320  1
  Al0+  Al95  1  0.17771502  0.42999221  0.01416947  1
  Si0+  Si96  1  0.07363738  0.17861394  0.31891801  1
  Si0+  Si97  1  0.32024799  0.07003642  0.68290711  1
  Si0+  Si98  1  0.82018513  0.57404105  0.34710328  1
  Si0+  Si99  1  0.92669853  0.32276281  0.98424045  1
  Si0+  Si100  1  0.42635734  0.32010090  0.31947368  1
  Si0+  Si101  1  0.56854635  0.17893282  0.65140995  1
  Si0+  Si102  1  0.42851971  0.82362484  0.98376837  1
  Si0+  Si103  1  0.57235726  0.67880850  0.65133249  1
  Si0+  Si104  1  0.17792431  0.92808983  0.35001688  1
  Si0+  Si105  1  0.82207209  0.07049294  0.01554651  1
  Si0+  Si106  1  0.82091290  0.57445080  0.01877393  1
  Si0+  Si107  1  0.42637336  0.82293593  0.31570900  1
  Si0+  Si108  1  0.07486101  0.17586770  0.64895527  1
  Si0+  Si109  1  0.43040308  0.82201827  0.65084021  1
  Si0+  Si110  1  0.32343795  0.57381846  0.68443333  1
  Si0+  Si111  1  0.67464676  0.42694180  0.68337444  1
  Si0+  Si112  1  0.67963970  0.92847872  0.01769467  1
  Si0+  Si113  1  0.17655934  0.92753354  0.01551502  1
  Si0+  Si114  1  0.92756153  0.82258233  0.64893069  1
  Si0+  Si115  1  0.07328943  0.67802987  0.31664794  1
  Si0+  Si116  1  0.18022232  0.92650012  0.68117861  1
  Si0+  Si117  1  0.42692769  0.32124417  0.64895631  1
  Si0+  Si118  1  0.32275926  0.57355516  0.01407199  1
  Si0+  Si119  1  0.67930999  0.92497466  0.34678067  1
  O2-  O120  1  0.24552195  -0.00441715  0.06043334  1
  O2-  O121  1  0.24864043  -0.00500200  0.39495518  1
  O2-  O122  1  0.24594299  0.00224581  0.72446075  1
  O2-  O123  1  0.25149283  0.50747558  0.05782557  1
  O2-  O124  1  0.24450946  0.50562250  0.39913261  1
  O2-  O125  1  0.25497662  0.50609990  0.72953907  1
  O2-  O126  1  0.75077886  -0.00017622  0.05877417  1
  O2-  O127  1  0.74726346  -0.00566995  0.39065626  1
  O2-  O128  1  0.75212779  -0.00034391  0.73378126  1
  O2-  O129  1  0.75253268  0.50526304  0.06237006  1
  O2-  O130  1  0.75424957  0.50336098  0.39273330  1
  O2-  O131  1  0.74285493  0.49639619  0.72639433  1
  O2-  O132  1  0.00701666  0.24905560  0.27456076  1
  O2-  O133  1  0.00200999  0.24066080  0.60616766  1
  O2-  O134  1  -0.00102676  0.25824943  0.93981139  1
  O2-  O135  1  0.00529537  0.74815633  0.27411361  1
  O2-  O136  1  -0.00344846  0.75461947  0.60396800  1
  O2-  O137  1  -0.00063334  0.74860180  0.93412223  1
  O2-  O138  1  0.49380709  0.25082169  0.27469916  1
  O2-  O139  1  0.50152310  0.25327127  0.60785141  1
  O2-  O140  1  0.50146108  0.24929939  0.93422073  1
  O2-  O141  1  0.49244815  0.75079978  0.27354857  1
  O2-  O142  1  0.50108040  0.75009316  0.60941874  1
  O2-  O143  1  0.49340935  0.75214371  0.93789041  1
  O2-  O144  1  0.07003100  0.18195123  0.10175795  1
  O2-  O145  1  0.07261246  0.17631434  0.42465232  1
  O2-  O146  1  0.07833362  0.17814991  0.75460242  1
  O2-  O147  1  0.07109361  0.68040602  0.09959539  1
  O2-  O148  1  0.07144997  0.67919880  0.42265806  1
  O2-  O149  1  0.07034157  0.68053494  0.76376247  1
  O2-  O150  1  0.57334373  0.17675019  0.09693513  1
  O2-  O151  1  0.57048089  0.17960040  0.43499402  1
  O2-  O152  1  0.56588384  0.17791707  0.75620580  1
  O2-  O153  1  0.56759948  0.67758708  0.09785922  1
  O2-  O154  1  0.57117264  0.68163136  0.43458324  1
  O2-  O155  1  0.56962303  0.67837423  0.75630280  1
  O2-  O156  1  0.17719058  0.42817182  0.23703956  1
  O2-  O157  1  0.18096659  0.43230257  0.56944009  1
  O2-  O158  1  0.17873306  0.42926433  0.90080938  1
  O2-  O159  1  0.17780626  0.92832883  0.24471126  1
  O2-  O160  1  0.18311850  0.92675552  0.57600002  1
  O2-  O161  1  0.17976989  0.92799950  0.90945399  1
  O2-  O162  1  0.67862687  0.42865729  0.23338226  1
  O2-  O163  1  0.67380685  0.42745357  0.57754116  1
  O2-  O164  1  0.68231513  0.43218531  0.89948369  1
  O2-  O165  1  0.67960191  0.92441487  0.24119947  1
  O2-  O166  1  0.67782861  0.93053221  0.56831155  1
  O2-  O167  1  0.67864242  0.92903087  0.91263283  1
  O2-  O168  1  0.42847211  0.31883037  0.09978361  1
  O2-  O169  1  0.42908569  0.31751663  0.42576265  1
  O2-  O170  1  0.42484244  0.31986002  0.75374122  1
  O2-  O171  1  0.43145026  0.82603960  0.08907565  1
  O2-  O172  1  0.42845710  0.82502247  0.42179097  1
  O2-  O173  1  0.42888985  0.82313742  0.75574373  1
  O2-  O174  1  0.92492251  0.31894325  0.08986553  1
  O2-  O175  1  0.92764276  0.32009376  0.43223549  1
  O2-  O176  1  0.93237498  0.31858870  0.76714332  1
  O2-  O177  1  0.92977549  0.82388311  0.09529162  1
  O2-  O178  1  0.93062427  0.82145517  0.43460137  1
  O2-  O179  1  0.92988399  0.82210782  0.75411931  1
  O2-  O180  1  0.32256571  0.07051432  0.23530885  1
  O2-  O181  1  0.32222982  0.06770900  0.57770970  1
  O2-  O182  1  0.31871224  0.06784526  0.89977972  1
  O2-  O183  1  0.32093167  0.56931056  0.23459017  1
  O2-  O184  1  0.32545220  0.57288659  0.57912886  1
  O2-  O185  1  0.32303801  0.57306908  0.90821528  1
  O2-  O186  1  0.82186369  0.06924683  0.23159135  1
  O2-  O187  1  0.82023992  0.07321730  0.57021260  1
  O2-  O188  1  0.82098001  0.07004866  0.91058693  1
  O2-  O189  1  0.81795716  0.57516566  0.24177941  1
  O2-  O190  1  0.81685433  0.57058074  0.56629038  1
  O2-  O191  1  0.82120179  0.57213296  0.91273769  1
  O2-  O192  1  0.04815886  0.08563162  0.27199632  1
  O2-  O193  1  0.05525510  0.07948523  0.60566460  1
  O2-  O194  1  0.04206573  0.08701685  0.93141798  1
  O2-  O195  1  0.04740500  0.58511801  0.27054334  1
  O2-  O196  1  0.03620541  0.58347430  0.59783349  1
  O2-  O197  1  0.04045669  0.57961084  0.93318688  1
  O2-  O198  1  0.54346580  0.08027246  0.26890942  1
  O2-  O199  1  0.53620967  0.08789555  0.60463380  1
  O2-  O200  1  0.54420174  0.07829311  0.93113138  1
  O2-  O201  1  0.53656718  0.58024289  0.26912049  1
  O2-  O202  1  0.54475478  0.58649971  0.60392252  1
  O2-  O203  1  0.53953898  0.58373616  0.92616542  1
  O2-  O204  1  0.16916291  0.20371426  0.27659709  1
  O2-  O205  1  0.16806332  0.20424122  0.60248883  1
  O2-  O206  1  0.16724284  0.21100372  0.93311233  1
  O2-  O207  1  0.16791942  0.70279226  0.27273498  1
  O2-  O208  1  0.16804068  0.70918393  0.59753732  1
  O2-  O209  1  0.17055175  0.70484287  0.93173001  1
  O2-  O210  1  0.66572331  0.21091423  0.26636079  1
  O2-  O211  1  0.66205309  0.20349331  0.60601386  1
  O2-  O212  1  0.67120122  0.20644197  0.92957380  1
  O2-  O213  1  0.66313914  0.70828907  0.26213352  1
  O2-  O214  1  0.66452945  0.70754308  0.60561169  1
  O2-  O215  1  0.66431952  0.71121675  0.93029985  1
  O2-  O216  1  0.08048141  0.45827322  0.06875586  1
  O2-  O217  1  0.07553062  0.45856680  0.40156402  1
  O2-  O218  1  0.08379890  0.46145816  0.73514493  1
  O2-  O219  1  0.08219250  0.95441493  0.05860366  1
  O2-  O220  1  0.08644726  0.95637757  0.39920448  1
  O2-  O221  1  0.08710216  0.94762621  0.72836548  1
  O2-  O222  1  0.58134509  0.46012777  0.06362832  1
  O2-  O223  1  0.58375896  0.45694280  0.40272720  1
  O2-  O224  1  0.58006870  0.45247697  0.72778562  1
  O2-  O225  1  0.58780807  0.95431642  0.06552426  1
  O2-  O226  1  0.58527549  0.94761358  0.39328892  1
  O2-  O227  1  0.58065799  0.95877250  0.73654768  1
  O2-  O228  1  0.21118543  0.33490794  0.06893436  1
  O2-  O229  1  0.20484342  0.33332140  0.40756801  1
  O2-  O230  1  0.21244634  0.33340775  0.73362463  1
  O2-  O231  1  0.20087724  0.83379587  0.06203044  1
  O2-  O232  1  0.20211583  0.83459761  0.39753236  1
  O2-  O233  1  0.21409011  0.83656628  0.72874844  1
  O2-  O234  1  0.71027149  0.33233561  0.06581763  1
  O2-  O235  1  0.71258709  0.33329161  0.40178515  1
  O2-  O236  1  0.69944954  0.33335490  0.72866199  1
  O2-  O237  1  0.70790010  0.83576530  0.06337140  1
  O2-  O238  1  0.70628583  0.83147092  0.39258646  1
  O2-  O239  1  0.70435982  0.83117649  0.73672498  1
  O2-  O240  1  0.45076176  0.41413204  0.27570933  1
  O2-  O241  1  0.45105164  0.41468801  0.60234581  1
  O2-  O242  1  0.45562387  0.41695132  0.92849596  1
  O2-  O243  1  0.45508940  0.91509102  0.26874623  1
  O2-  O244  1  0.45928930  0.91380861  0.60269030  1
  O2-  O245  1  0.45866092  0.91468964  0.93470023  1
  O2-  O246  1  0.95431663  0.41897819  0.26350663  1
  O2-  O247  1  0.96176030  0.41380372  0.59923661  1
  O2-  O248  1  0.94744161  0.41900292  0.94284322  1
  O2-  O249  1  0.96210452  0.91843030  0.26666722  1
  O2-  O250  1  0.95432183  0.91727071  0.60466794  1
  O2-  O251  1  0.95793015  0.91958928  0.92571048  1
  O2-  O252  1  0.33106402  0.29452209  0.27773803  1
  O2-  O253  1  0.33696631  0.28914284  0.60027714  1
  O2-  O254  1  0.33237420  0.28756209  0.93102687  1
  O2-  O255  1  0.33126836  0.80315789  0.27035519  1
  O2-  O256  1  0.33964315  0.79583590  0.60023777  1
  O2-  O257  1  0.33320084  0.80350092  0.93865416  1
  O2-  O258  1  0.83458820  0.28601565  0.26405392  1
  O2-  O259  1  0.83060153  0.29065260  0.60102052  1
  O2-  O260  1  0.83585619  0.29303373  0.93557125  1
  O2-  O261  1  0.83515460  0.79220705  0.26360828  1
  O2-  O262  1  0.83285529  0.79590886  0.60590970  1
  O2-  O263  1  0.82986438  0.79710997  0.92819897  1
  O2-  O264  1  0.41765210  0.03792019  0.06649804  1
  O2-  O265  1  0.41868117  0.03679361  0.40426370  1
  O2-  O266  1  0.41003491  0.03817322  0.73118980  1
  O2-  O267  1  0.41613325  0.54512450  0.05841699  1
  O2-  O268  1  0.41630225  0.54034465  0.40610232  1
  O2-  O269  1  0.41764676  0.54680367  0.72966840  1
  O2-  O270  1  0.91469614  0.04176366  0.06088679  1
  O2-  O271  1  0.91805262  0.04151489  0.40084695  1
  O2-  O272  1  0.92356975  0.04786973  0.73484322  1
  O2-  O273  1  0.91419616  0.55162461  0.06604425  1
  O2-  O274  1  0.91498889  0.55187198  0.39158176  1
  O2-  O275  1  0.91441222  0.53524895  0.73521197  1
  O2-  O276  1  0.28921358  0.16547408  0.06815951  1
  O2-  O277  1  0.29240411  0.16410047  0.40769759  1
  O2-  O278  1  0.29538050  0.16306429  0.72863185  1
  O2-  O279  1  0.30266481  0.66904072  0.05942196  1
  O2-  O280  1  0.30154153  0.67420752  0.39938679  1
  O2-  O281  1  0.30139032  0.66943147  0.72771023  1
  O2-  O282  1  0.79510683  0.16279244  0.06208524  1
  O2-  O283  1  0.78718930  0.16459223  0.40036443  1
  O2-  O284  1  0.79133339  0.17011680  0.73815694  1
  O2-  O285  1  0.79401752  0.66963231  0.06042798  1
  O2-  O286  1  0.79128244  0.66670944  0.39405387  1
  O2-  O287  1  0.79151853  0.66479560  0.73651287  1
