# generated using pymatgen
data_Ca2Al2SiO7
_symmetry_space_group_name_H-M   'P 1'
_cell_length_a   15.46571932
_cell_length_b   15.46487841
_cell_length_c   15.29021660
_cell_angle_alpha   89.97825857
_cell_angle_beta   89.99888316
_cell_angle_gamma   89.99902495
_symmetry_Int_Tables_number   1
_chemical_formula_structural   Ca2Al2SiO7
_chemical_formula_sum   'Ca48 Al48 Si24 O168'
_cell_volume   3657.04445825
_cell_formula_units_Z   24
loop_
 _symmetry_equiv_pos_site_id
 _symmetry_equiv_pos_as_xyz
  1  'x, y, z'
loop_
 _atom_type_symbol
 _atom_type_oxidation_number
  Ca2+  2.0
  Al0+  0.0
  Si0+  0.0
  O2-  -2.0
loop_
 _atom_site_type_symbol
 _atom_site_label
 _atom_site_symmetry_multiplicity
 _atom_site_fract_x
 _atom_site_fract_y
 _atom_site_fract_z
 _atom_site_occupancy
  Ca2+  Ca0  1  0.16851681  0.07972873  0.17669029  1
  Ca2+  Ca1  1  0.17074296  0.07649083  0.49894323  1
  Ca2+  Ca2  1  0.17628144  0.08571377  0.84052927  1
  Ca2+  Ca3  1  0.17222311  0.58624846  0.17507433  1
  Ca2+  Ca4  1  0.16722523  0.58317119  0.50836969  1
  Ca2+  Ca5  1  0.17229928  0.58891551  0.83537514  1
  Ca2+  Ca6  1  0.67258563  0.07750137  0.17143189  1
  Ca2+  Ca7  1  0.67522675  0.07942734  0.50889767  1
  Ca2+  Ca8  1  0.67514288  0.08134125  0.83267958  1
  Ca2+  Ca9  1  0.66413163  0.59217633  0.17087781  1
  Ca2+  Ca10  1  0.67341501  0.58311749  0.50700777  1
  Ca2+  Ca11  1  0.66901504  0.58286306  0.83567004  1
  Ca2+  Ca12  1  0.09920506  0.32267346  0.16806088  1
  Ca2+  Ca13  1  0.08787620  0.33338869  0.49699984  1
  Ca2+  Ca14  1  0.08502747  0.32876355  0.82479919  1
  Ca2+  Ca15  1  0.08227336  0.82958261  0.16660151  1
  Ca2+  Ca16  1  0.08185776  0.82234068  0.49220717  1
  Ca2+  Ca17  1  0.08443298  0.82177920  0.83280752  1
  Ca2+  Ca18  1  0.57795132  0.33061382  0.16278374  1
  Ca2+  Ca19  1  0.58337843  0.33418354  0.49820255  1
  Ca2+  Ca20  1  0.58237937  0.33338876  0.82583772  1
  Ca2+  Ca21  1  0.57427203  0.82222894  0.16772272  1
  Ca2+  Ca22  1  0.56940490  0.82951821  0.49373340  1
  Ca2+  Ca23  1  0.57487257  0.82666062  0.82941346  1
  Ca2+  Ca24  1  0.32660609  0.42939722  0.17281864  1
  Ca2+  Ca25  1  0.32053102  0.43130248  0.50085268  1
  Ca2+  Ca26  1  0.32657326  0.42824816  0.83326347  1
  Ca2+  Ca27  1  0.32910613  0.92717511  0.17714764  1
  Ca2+  Ca28  1  0.33210824  0.91652772  0.50296576  1
  Ca2+  Ca29  1  0.33607597  0.92334909  0.83468775  1
  Ca2+  Ca30  1  0.82889466  0.41892557  0.16953862  1
  Ca2+  Ca31  1  0.82888555  0.42077772  0.51271493  1
  Ca2+  Ca32  1  0.83501243  0.41989091  0.82573027  1
  Ca2+  Ca33  1  0.83747428  0.90627131  0.17232213  1
  Ca2+  Ca34  1  0.83689957  0.91925455  0.50385082  1
  Ca2+  Ca35  1  0.84005994  0.91941131  0.83818456  1
  Ca2+  Ca36  1  0.40587132  0.16754984  0.16331262  1
  Ca2+  Ca37  1  0.40955777  0.16478557  0.49692969  1
  Ca2+  Ca38  1  0.41401374  0.16409268  0.82594784  1
  Ca2+  Ca39  1  0.41961388  0.66197947  0.16301350  1
  Ca2+  Ca40  1  0.41481343  0.67220909  0.49336106  1
  Ca2+  Ca41  1  0.41582545  0.66490501  0.82576460  1
  Ca2+  Ca42  1  0.93441234  0.16764627  0.16310393  1
  Ca2+  Ca43  1  0.91963852  0.17373502  0.49640303  1
  Ca2+  Ca44  1  0.92342117  0.17118200  0.82537004  1
  Ca2+  Ca45  1  0.93203308  0.67567903  0.16293061  1
  Ca2+  Ca46  1  0.92718843  0.66342858  0.49572714  1
  Ca2+  Ca47  1  0.92758135  0.66420754  0.82710431  1
  Al0+  Al48  1  0.00164305  0.00355568  -0.00740472  1
  Al0+  Al49  1  0.00061657  0.00319408  0.33160922  1
  Al0+  Al50  1  0.00184431  -0.00088696  0.67147755  1
  Al0+  Al51  1  -0.00258277  0.49857798  -0.00017610  1
  Al0+  Al52  1  -0.00376932  0.49896576  0.33072115  1
  Al0+  Al53  1  -0.00214648  0.49637440  0.66589806  1
  Al0+  Al54  1  0.50345038  0.00063128  0.00473856  1
  Al0+  Al55  1  0.50394670  -0.00011353  0.33248299  1
  Al0+  Al56  1  0.50097832  -0.00074295  0.66635798  1
  Al0+  Al57  1  0.49962655  0.49843037  -0.00051243  1
  Al0+  Al58  1  0.49935927  0.49653001  0.33319282  1
  Al0+  Al59  1  0.49922576  0.49751538  0.67057962  1
  Al0+  Al60  1  0.25160043  0.25241856  -0.00298754  1
  Al0+  Al61  1  0.25132489  0.25243108  0.33701075  1
  Al0+  Al62  1  0.25207438  0.24929333  0.67115965  1
  Al0+  Al63  1  0.25016937  0.75333041  0.00163603  1
  Al0+  Al64  1  0.25074366  0.75423841  0.33220183  1
  Al0+  Al65  1  0.25001976  0.75140663  0.66280203  1
  Al0+  Al66  1  0.74901395  0.24890676  0.00178789  1
  Al0+  Al67  1  0.75008980  0.24969770  0.33094649  1
  Al0+  Al68  1  0.75131391  0.24783734  0.67074932  1
  Al0+  Al69  1  0.74724344  0.75054522  -0.00631280  1
  Al0+  Al70  1  0.74751498  0.74988595  0.33027689  1
  Al0+  Al71  1  0.74928220  0.75010955  0.67111409  1
  Al0+  Al72  1  0.42709662  0.82402010  0.31723666  1
  Al0+  Al73  1  0.32022060  0.57223313  0.01356483  1
  Al0+  Al74  1  0.07281506  0.67630995  0.31963260  1
  Al0+  Al75  1  0.32231073  0.07180113  0.01361219  1
  Al0+  Al76  1  0.31895608  0.57364184  0.68062823  1
  Al0+  Al77  1  0.32298140  0.07115911  0.34892090  1
  Al0+  Al78  1  0.43032978  0.82110375  0.65334943  1
  Al0+  Al79  1  0.06881325  0.67885442  0.65339047  1
  Al0+  Al80  1  0.56771840  0.67765387  0.98390397  1
  Al0+  Al81  1  0.17648455  0.43128651  0.34710855  1
  Al0+  Al82  1  0.07277489  0.18290306  0.98478924  1
  Al0+  Al83  1  0.92887666  0.82105420  0.98406844  1
  Al0+  Al84  1  0.67833286  0.42799397  0.68149156  1
  Al0+  Al85  1  0.17644623  0.92919696  0.34882097  1
  Al0+  Al86  1  0.56730711  0.67690203  0.32054925  1
  Al0+  Al87  1  0.07126309  0.18306684  0.32245519  1
  Al0+  Al88  1  0.82115612  0.57235172  0.68184303  1
  Al0+  Al89  1  0.32176866  0.57370505  0.34678397  1
  Al0+  Al90  1  0.17750779  0.42847892  0.68160359  1
  Al0+  Al91  1  0.07302566  0.67737758  0.98455683  1
  Al0+  Al92  1  0.92950873  0.31783739  0.65260847  1
  Al0+  Al93  1  0.82281967  0.06901079  0.68033982  1
  Al0+  Al94  1  0.32099861  0.06841753  0.68051189  1
  Al0+  Al95  1  0.92916842  0.82147396  0.32211531  1
  Si0+  Si96  1  0.67860206  0.42851424  0.01660503  1
  Si0+  Si97  1  0.07527198  0.17686694  0.64913086  1
  Si0+  Si98  1  0.42919305  0.82466909  0.98425332  1
  Si0+  Si99  1  0.82172559  0.07087946  0.01629518  1
  Si0+  Si100  1  0.81752733  0.57119547  0.34591765  1
  Si0+  Si101  1  0.43077250  0.31791540  0.31807701  1
  Si0+  Si102  1  0.57197371  0.67529493  0.65103097  1
  Si0+  Si103  1  0.67916292  0.42576677  0.34706500  1
  Si0+  Si104  1  0.43128471  0.31952805  0.98336609  1
  Si0+  Si105  1  0.42845396  0.32103917  0.65011148  1
  Si0+  Si106  1  0.17619972  0.42889293  0.01560611  1
  Si0+  Si107  1  0.57267772  0.17785912  0.98409386  1
  Si0+  Si108  1  0.82085411  0.07256272  0.34734212  1
  Si0+  Si109  1  0.57085491  0.17931936  0.65190611  1
  Si0+  Si110  1  0.68079315  0.92807319  0.01719707  1
  Si0+  Si111  1  0.17701054  0.93130241  0.01693363  1
  Si0+  Si112  1  0.57481289  0.17854018  0.31778940  1
  Si0+  Si113  1  0.92388828  0.32205926  0.31485967  1
  Si0+  Si114  1  0.68115104  0.92819376  0.34888728  1
  Si0+  Si115  1  0.92318903  0.32075935  0.98246884  1
  Si0+  Si116  1  0.81943502  0.57255321  0.01650494  1
  Si0+  Si117  1  0.92629449  0.82358872  0.65130913  1
  Si0+  Si118  1  0.17775911  0.92695696  0.68552471  1
  Si0+  Si119  1  0.67788039  0.92859026  0.68419400  1
  O2-  O120  1  0.24757119  -0.00124966  0.06051363  1
  O2-  O121  1  0.25412854  -0.00359481  0.39830610  1
  O2-  O122  1  0.24489246  -0.00236840  0.72967256  1
  O2-  O123  1  0.23857271  0.50384807  0.05846638  1
  O2-  O124  1  0.23958261  0.51207097  0.39549946  1
  O2-  O125  1  0.24496843  0.50425673  0.73199912  1
  O2-  O126  1  0.75669420  -0.00513754  0.05957988  1
  O2-  O127  1  0.75301175  -0.00104844  0.39017942  1
  O2-  O128  1  0.75268431  -0.00947126  0.72883214  1
  O2-  O129  1  0.74846583  0.50019144  0.05914487  1
  O2-  O130  1  0.74825249  0.49799786  0.38795271  1
  O2-  O131  1  0.74585756  0.50323382  0.73262402  1
  O2-  O132  1  -0.00113737  0.25955485  0.27273356  1
  O2-  O133  1  0.00557510  0.24487123  0.60562471  1
  O2-  O134  1  -0.00244626  0.25786198  0.93985535  1
  O2-  O135  1  0.00343409  0.75264160  0.27177135  1
  O2-  O136  1  -0.00866505  0.75214558  0.60779428  1
  O2-  O137  1  -0.00146200  0.74731102  0.93427674  1
  O2-  O138  1  0.49946575  0.24410576  0.27501458  1
  O2-  O139  1  0.50077196  0.25009076  0.60845476  1
  O2-  O140  1  0.49959377  0.24540018  0.94118198  1
  O2-  O141  1  0.49125768  0.74355649  0.26865524  1
  O2-  O142  1  0.50248385  0.74287477  0.60782722  1
  O2-  O143  1  0.49010280  0.74956971  0.93853766  1
  O2-  O144  1  0.07212139  0.18331694  0.09815179  1
  O2-  O145  1  0.06746913  0.18296452  0.43515347  1
  O2-  O146  1  0.07472305  0.17869860  0.75504466  1
  O2-  O147  1  0.07203240  0.67766696  0.09781024  1
  O2-  O148  1  0.06649257  0.67376047  0.43307258  1
  O2-  O149  1  0.06952626  0.68145248  0.76645890  1
  O2-  O150  1  0.57683472  0.18054424  0.08922431  1
  O2-  O151  1  0.58165012  0.18208937  0.42246166  1
  O2-  O152  1  0.56982663  0.17887499  0.75738141  1
  O2-  O153  1  0.56850293  0.67864629  0.09683488  1
  O2-  O154  1  0.57254221  0.67923729  0.43381041  1
  O2-  O155  1  0.57122108  0.67695703  0.75685307  1
  O2-  O156  1  0.18369807  0.42693403  0.23331291  1
  O2-  O157  1  0.18106998  0.42784527  0.56835183  1
  O2-  O158  1  0.17944391  0.42496529  0.91044651  1
  O2-  O159  1  0.17283118  0.93548773  0.23508590  1
  O2-  O160  1  0.17620416  0.92856764  0.58030610  1
  O2-  O161  1  0.17796877  0.93251598  0.91117330  1
  O2-  O162  1  0.68097183  0.42102867  0.24172727  1
  O2-  O163  1  0.67941989  0.42651177  0.56751148  1
  O2-  O164  1  0.67857847  0.42536346  0.91223910  1
  O2-  O165  1  0.68176893  0.92998090  0.24355076  1
  O2-  O166  1  0.67657231  0.93247777  0.57852491  1
  O2-  O167  1  0.67747880  0.93236031  0.91227605  1
  O2-  O168  1  0.43394112  0.31873326  0.08876976  1
  O2-  O169  1  0.43465151  0.31811152  0.42294054  1
  O2-  O170  1  0.43003832  0.31924020  0.75553297  1
  O2-  O171  1  0.43436015  0.82781873  0.08917124  1
  O2-  O172  1  0.43508284  0.82838700  0.43048000  1
  O2-  O173  1  0.43428432  0.82410754  0.76677268  1
  O2-  O174  1  0.91581369  0.31686067  0.08791007  1
  O2-  O175  1  0.91424273  0.31747929  0.41949792  1
  O2-  O176  1  0.92777558  0.31380227  0.76580865  1
  O2-  O177  1  0.92905078  0.81920864  0.09755548  1
  O2-  O178  1  0.92570150  0.81935364  0.43551454  1
  O2-  O179  1  0.92826284  0.82481100  0.75667644  1
  O2-  O180  1  0.32019087  0.07277272  0.23501277  1
  O2-  O181  1  0.32233567  0.06787839  0.56818110  1
  O2-  O182  1  0.32372328  0.06978400  0.90050973  1
  O2-  O183  1  0.32620585  0.56553075  0.23308632  1
  O2-  O184  1  0.32027176  0.57273698  0.56748394  1
  O2-  O185  1  0.32336973  0.56809193  0.90086322  1
  O2-  O186  1  0.81669599  0.07591348  0.24216535  1
  O2-  O187  1  0.81921663  0.06967698  0.56684748  1
  O2-  O188  1  0.81690548  0.07281919  0.91140651  1
  O2-  O189  1  0.81489825  0.56977238  0.24054586  1
  O2-  O190  1  0.81860095  0.57114651  0.56769882  1
  O2-  O191  1  0.81851901  0.57078591  0.91184251  1
  O2-  O192  1  0.03694655  0.08926690  0.26518051  1
  O2-  O193  1  0.04924569  0.08179236  0.60703166  1
  O2-  O194  1  0.04188954  0.08807155  0.92845390  1
  O2-  O195  1  0.03970203  0.57945304  0.26453669  1
  O2-  O196  1  0.03828775  0.58170767  0.60133383  1
  O2-  O197  1  0.04493729  0.57698260  0.93463088  1
  O2-  O198  1  0.55457516  0.08529358  0.27080780  1
  O2-  O199  1  0.54373799  0.08802000  0.60365046  1
  O2-  O200  1  0.54835081  0.08488632  0.93791255  1
  O2-  O201  1  0.54720120  0.57563401  0.26791517  1
  O2-  O202  1  0.54993632  0.57992266  0.60746169  1
  O2-  O203  1  0.54245448  0.57868028  0.93201652  1
  O2-  O204  1  0.16838110  0.21370143  0.26828601  1
  O2-  O205  1  0.16900732  0.20369036  0.60475318  1
  O2-  O206  1  0.16904243  0.21353105  0.92977155  1
  O2-  O207  1  0.17206334  0.70174876  0.26866820  1
  O2-  O208  1  0.16421684  0.71174605  0.59941149  1
  O2-  O209  1  0.17127655  0.70977806  0.93237415  1
  O2-  O210  1  0.66307550  0.21204618  0.26528803  1
  O2-  O211  1  0.66274050  0.20685652  0.60493728  1
  O2-  O212  1  0.66328741  0.20894056  0.93571051  1
  O2-  O213  1  0.66303603  0.71224908  0.26491698  1
  O2-  O214  1  0.66651135  0.70206052  0.60704831  1
  O2-  O215  1  0.66249838  0.71150659  0.92890425  1
  O2-  O216  1  0.07905401  0.44267303  0.05934349  1
  O2-  O217  1  0.07223339  0.44465745  0.39364031  1
  O2-  O218  1  0.07671432  0.44724431  0.73180767  1
  O2-  O219  1  0.08373289  0.96111606  0.06116735  1
  O2-  O220  1  0.07988403  0.96431619  0.40313638  1
  O2-  O221  1  0.08427522  0.94959595  0.73321922  1
  O2-  O222  1  0.58682670  0.45451838  0.06479704  1
  O2-  O223  1  0.58664188  0.44911777  0.39374806  1
  O2-  O224  1  0.57926287  0.45063137  0.73545673  1
  O2-  O225  1  0.59275956  0.96270980  0.06789739  1
  O2-  O226  1  0.59156275  0.95956697  0.39775840  1
  O2-  O227  1  0.58877054  0.96358196  0.73331262  1
  O2-  O228  1  0.21251727  0.33854607  0.06269829  1
  O2-  O229  1  0.21481924  0.33722623  0.40230632  1
  O2-  O230  1  0.21214580  0.33222639  0.73607842  1
  O2-  O231  1  0.19995174  0.83734553  0.06274583  1
  O2-  O232  1  0.19907939  0.82957848  0.40089468  1
  O2-  O233  1  0.20783970  0.83532337  0.73194846  1
  O2-  O234  1  0.70733816  0.33642252  0.06515365  1
  O2-  O235  1  0.70872044  0.33462199  0.39543291  1
  O2-  O236  1  0.70903639  0.33066280  0.73590987  1
  O2-  O237  1  0.70438598  0.83475794  0.06332396  1
  O2-  O238  1  0.70776718  0.83692136  0.39730162  1
  O2-  O239  1  0.69486956  0.83319383  0.72936242  1
  O2-  O240  1  0.46302330  0.40679089  0.26735521  1
  O2-  O241  1  0.45737130  0.41217468  0.60224797  1
  O2-  O242  1  0.46425433  0.40864051  0.93500303  1
  O2-  O243  1  0.46716909  0.91923167  0.26259181  1
  O2-  O244  1  0.46705845  0.91578051  0.59850790  1
  O2-  O245  1  0.46490127  0.91581585  0.93759587  1
  O2-  O246  1  0.94097751  0.41726888  0.26963659  1
  O2-  O247  1  0.95389954  0.41476983  0.59732504  1
  O2-  O248  1  0.94191519  0.41700817  0.94052370  1
  O2-  O249  1  0.95108183  0.92199910  0.26982394  1
  O2-  O250  1  0.95368673  0.91754907  0.60605598  1
  O2-  O251  1  0.95622064  0.92030703  0.93206571  1
  O2-  O252  1  0.33962868  0.29140875  0.26949308  1
  O2-  O253  1  0.33802728  0.28963122  0.60312837  1
  O2-  O254  1  0.33983438  0.29487621  0.93492610  1
  O2-  O255  1  0.32580100  0.81024425  0.26686988  1
  O2-  O256  1  0.33342584  0.79551803  0.59912914  1
  O2-  O257  1  0.33275082  0.80869783  0.94177897  1
  O2-  O258  1  0.83364906  0.28917910  0.26394326  1
  O2-  O259  1  0.83285062  0.28331268  0.59926379  1
  O2-  O260  1  0.83201130  0.28827745  0.93486425  1
  O2-  O261  1  0.83164699  0.79072607  0.26756031  1
  O2-  O262  1  0.82937156  0.80422901  0.60899614  1
  O2-  O263  1  0.82857725  0.79827779  0.93248082  1
  O2-  O264  1  0.42084142  0.04529731  0.06700593  1
  O2-  O265  1  0.42597551  0.05012367  0.39643264  1
  O2-  O266  1  0.41862981  0.03821813  0.73409807  1
  O2-  O267  1  0.41518548  0.53264056  0.06666884  1
  O2-  O268  1  0.41680178  0.53310209  0.40041721  1
  O2-  O269  1  0.41660039  0.54113601  0.73324299  1
  O2-  O270  1  0.91658319  0.04983202  0.05968548  1
  O2-  O271  1  0.91273962  0.04956802  0.39463071  1
  O2-  O272  1  0.91989478  0.04377145  0.73612827  1
  O2-  O273  1  0.91089859  0.54406566  0.06486875  1
  O2-  O274  1  0.90927151  0.54460349  0.39293046  1
  O2-  O275  1  0.91617551  0.53681901  0.73610224  1
  O2-  O276  1  0.29350818  0.17091010  0.06369836  1
  O2-  O277  1  0.29342224  0.16913853  0.40127494  1
  O2-  O278  1  0.29420902  0.16561025  0.73524758  1
  O2-  O279  1  0.29848268  0.67213764  0.06483997  1
  O2-  O280  1  0.30862657  0.67701205  0.39221686  1
  O2-  O281  1  0.29362471  0.67292889  0.73310327  1
  O2-  O282  1  0.78628416  0.15983678  0.06516415  1
  O2-  O283  1  0.78717373  0.16264936  0.39535571  1
  O2-  O284  1  0.78545985  0.16145936  0.73753907  1
  O2-  O285  1  0.78758442  0.66402036  0.06160663  1
  O2-  O286  1  0.78654068  0.66129403  0.39412904  1
  O2-  O287  1  0.79705046  0.67156922  0.73600213  1
