# generated using pymatgen
data_Ca2Al2SiO7
_symmetry_space_group_name_H-M   'P 1'
_cell_length_a   15.45457849
_cell_length_b   15.45491797
_cell_length_c   15.28125421
_cell_angle_alpha   90.00352048
_cell_angle_beta   89.99176823
_cell_angle_gamma   90.02029707
_symmetry_Int_Tables_number   1
_chemical_formula_structural   Ca2Al2SiO7
_chemical_formula_sum   'Ca48 Al48 Si24 O168'
_cell_volume   3649.91572330
_cell_formula_units_Z   24
loop_
 _symmetry_equiv_pos_site_id
 _symmetry_equiv_pos_as_xyz
  1  'x, y, z'
loop_
 _atom_type_symbol
 _atom_type_oxidation_number
  Ca2+  2.0
  Al0+  0.0
  Si0+  0.0
  O2-  -2.0
loop_
 _atom_site_type_symbol
 _atom_site_label
 _atom_site_symmetry_multiplicity
 _atom_site_fract_x
 _atom_site_fract_y
 _atom_site_fract_z
 _atom_site_occupancy
  Ca2+  Ca0  1  0.17090133  0.07638073  0.16807074  1
  Ca2+  Ca1  1  0.15731866  0.07776146  0.50230349  1
  Ca2+  Ca2  1  0.17012046  0.08667962  0.83747912  1
  Ca2+  Ca3  1  0.17129102  0.57978528  0.17458302  1
  Ca2+  Ca4  1  0.17275688  0.58326640  0.49863991  1
  Ca2+  Ca5  1  0.17753145  0.57838124  0.84165572  1
  Ca2+  Ca6  1  0.67040972  0.07040052  0.16577214  1
  Ca2+  Ca7  1  0.67426096  0.07702330  0.50364307  1
  Ca2+  Ca8  1  0.68128709  0.07944755  0.84209757  1
  Ca2+  Ca9  1  0.67906799  0.58618575  0.16851355  1
  Ca2+  Ca10  1  0.67121460  0.58279620  0.50088204  1
  Ca2+  Ca11  1  0.67058115  0.57144942  0.83919142  1
  Ca2+  Ca12  1  0.07518412  0.34429968  0.16311439  1
  Ca2+  Ca13  1  0.08128327  0.32870793  0.49110187  1
  Ca2+  Ca14  1  0.08017049  0.33031665  0.83289761  1
  Ca2+  Ca15  1  0.08332782  0.82654119  0.16252824  1
  Ca2+  Ca16  1  0.07727800  0.82889615  0.49299047  1
  Ca2+  Ca17  1  0.06974206  0.83385153  0.82970075  1
  Ca2+  Ca18  1  0.58354517  0.33304451  0.15986872  1
  Ca2+  Ca19  1  0.57856416  0.34255520  0.50049378  1
  Ca2+  Ca20  1  0.58108938  0.34027832  0.82653611  1
  Ca2+  Ca21  1  0.58471763  0.83013053  0.15973840  1
  Ca2+  Ca22  1  0.58213110  0.82609783  0.48871297  1
  Ca2+  Ca23  1  0.57954496  0.83664975  0.83609983  1
  Ca2+  Ca24  1  0.31974998  0.42587222  0.17060560  1
  Ca2+  Ca25  1  0.33319442  0.42703432  0.50504160  1
  Ca2+  Ca26  1  0.33138716  0.42433600  0.84034936  1
  Ca2+  Ca27  1  0.33383208  0.91840412  0.16864164  1
  Ca2+  Ca28  1  0.32295026  0.91304894  0.49930614  1
  Ca2+  Ca29  1  0.33314789  0.92289583  0.84415071  1
  Ca2+  Ca30  1  0.83827084  0.42357641  0.16993125  1
  Ca2+  Ca31  1  0.83326161  0.42114456  0.50002229  1
  Ca2+  Ca32  1  0.82406360  0.41657335  0.84493834  1
  Ca2+  Ca33  1  0.82762023  0.91354190  0.16750280  1
  Ca2+  Ca34  1  0.82938914  0.91644967  0.50661642  1
  Ca2+  Ca35  1  0.83653806  0.92396534  0.84134421  1
  Ca2+  Ca36  1  0.41770343  0.16377190  0.15898054  1
  Ca2+  Ca37  1  0.41734957  0.17703268  0.49749781  1
  Ca2+  Ca38  1  0.41789775  0.17376823  0.82802540  1
  Ca2+  Ca39  1  0.41954761  0.66581205  0.16132813  1
  Ca2+  Ca40  1  0.42162290  0.65897565  0.49198852  1
  Ca2+  Ca41  1  0.41260091  0.66594275  0.83228372  1
  Ca2+  Ca42  1  0.91313924  0.17875034  0.15929185  1
  Ca2+  Ca43  1  0.91694213  0.17127922  0.49882567  1
  Ca2+  Ca44  1  0.91782735  0.16654928  0.82899475  1
  Ca2+  Ca45  1  0.92076295  0.66320735  0.15994613  1
  Ca2+  Ca46  1  0.91913276  0.66959282  0.49007401  1
  Ca2+  Ca47  1  0.90603683  0.67780136  0.83469031  1
  Al0+  Al48  1  0.00121913  0.00042127  0.00090374  1
  Al0+  Al49  1  0.00054314  0.00263878  0.33546224  1
  Al0+  Al50  1  -0.00150309  -0.00092349  0.66168751  1
  Al0+  Al51  1  0.00017863  0.49840353  -0.00420089  1
  Al0+  Al52  1  0.00014951  0.50084824  0.33582979  1
  Al0+  Al53  1  0.00126058  0.50127672  0.66811265  1
  Al0+  Al54  1  0.50050230  -0.00032969  0.00109346  1
  Al0+  Al55  1  0.50118395  0.00149848  0.33974619  1
  Al0+  Al56  1  0.49867149  -0.00017496  0.66306615  1
  Al0+  Al57  1  0.49991670  0.49973223  0.00598933  1
  Al0+  Al58  1  0.50058502  0.50016437  0.32778938  1
  Al0+  Al59  1  0.49964571  0.50112048  0.67044492  1
  Al0+  Al60  1  0.25080420  0.24934515  0.00798211  1
  Al0+  Al61  1  0.25000877  0.24995863  0.33464854  1
  Al0+  Al62  1  0.24973699  0.24960812  0.65588427  1
  Al0+  Al63  1  0.25145575  0.75061808  -0.00346608  1
  Al0+  Al64  1  0.24944766  0.75245464  0.33739840  1
  Al0+  Al65  1  0.24887492  0.75055313  0.67151661  1
  Al0+  Al66  1  0.74992969  0.24796502  0.00204114  1
  Al0+  Al67  1  0.74872871  0.24950863  0.32974434  1
  Al0+  Al68  1  0.74987566  0.24806905  0.67254447  1
  Al0+  Al69  1  0.74912005  0.74788347  -0.00070391  1
  Al0+  Al70  1  0.74794721  0.75000973  0.33770623  1
  Al0+  Al71  1  0.74728011  0.75011912  0.66274302  1
  Al0+  Al72  1  0.07090070  0.68102739  0.32059499  1
  Al0+  Al73  1  0.92898578  0.82029541  0.98828213  1
  Al0+  Al74  1  0.82087262  0.57031531  0.01331138  1
  Al0+  Al75  1  0.92844217  0.32091157  0.98473294  1
  Al0+  Al76  1  0.32144079  0.07048961  0.01106394  1
  Al0+  Al77  1  0.68136097  0.43094286  0.67828220  1
  Al0+  Al78  1  0.82521046  0.07077368  0.01664131  1
  Al0+  Al79  1  0.67990379  0.92897410  0.34851230  1
  Al0+  Al80  1  0.31994195  0.57029020  0.68198016  1
  Al0+  Al81  1  0.32215843  0.57105552  0.34834033  1
  Al0+  Al82  1  0.17849993  0.93052575  0.34682157  1
  Al0+  Al83  1  0.92989825  0.31977135  0.32041914  1
  Al0+  Al84  1  0.42957299  0.82096996  0.98664589  1
  Al0+  Al85  1  0.17893326  0.42824161  0.01372012  1
  Al0+  Al86  1  0.82101868  0.57052887  0.34732574  1
  Al0+  Al87  1  0.92835280  0.81866093  0.65156044  1
  Al0+  Al88  1  0.67971951  0.92871744  0.01292230  1
  Al0+  Al89  1  0.57138409  0.67870194  0.31812924  1
  Al0+  Al90  1  0.82094710  0.06798495  0.67994031  1
  Al0+  Al91  1  0.67809207  0.42681670  0.01627623  1
  Al0+  Al92  1  0.43104268  0.32187756  0.65363357  1
  Al0+  Al93  1  0.06994236  0.18043433  0.65257545  1
  Al0+  Al94  1  0.32091786  0.57394343  0.01633989  1
  Al0+  Al95  1  0.17741748  0.42910434  0.35101074  1
  Si0+  Si96  1  0.42920246  0.32006701  0.98700858  1
  Si0+  Si97  1  0.42863305  0.82361875  0.31840064  1
  Si0+  Si98  1  0.32115466  0.07192697  0.67938995  1
  Si0+  Si99  1  0.57135489  0.67628502  0.98112703  1
  Si0+  Si100  1  0.57341325  0.17678494  0.64969222  1
  Si0+  Si101  1  0.67822291  0.42588093  0.34915273  1
  Si0+  Si102  1  0.32341521  0.07275827  0.35313920  1
  Si0+  Si103  1  0.82405873  0.57418554  0.68242135  1
  Si0+  Si104  1  0.07323915  0.67692221  0.98158840  1
  Si0+  Si105  1  0.17772414  0.92758608  0.01419034  1
  Si0+  Si106  1  0.56738866  0.68016314  0.65204095  1
  Si0+  Si107  1  0.17911763  0.93026411  0.68265942  1
  Si0+  Si108  1  0.92726223  0.82367706  0.31741105  1
  Si0+  Si109  1  0.42639165  0.82341503  0.65071852  1
  Si0+  Si110  1  0.07418420  0.67838496  0.65036859  1
  Si0+  Si111  1  0.82085081  0.07392855  0.35026102  1
  Si0+  Si112  1  0.56958401  0.17805970  0.31747737  1
  Si0+  Si113  1  0.07374473  0.17654785  0.31367598  1
  Si0+  Si114  1  0.42845698  0.32097402  0.31570315  1
  Si0+  Si115  1  0.92550304  0.32333686  0.65145153  1
  Si0+  Si116  1  0.17756127  0.42458984  0.68246810  1
  Si0+  Si117  1  0.57037247  0.17787365  0.98435264  1
  Si0+  Si118  1  0.07359887  0.17806642  0.98508840  1
  Si0+  Si119  1  0.67533132  0.92614686  0.68340057  1
  O2-  O120  1  0.24892759  -0.00584538  0.05736754  1
  O2-  O121  1  0.25186771  0.00627331  0.39604782  1
  O2-  O122  1  0.25127314  0.00098442  0.72369313  1
  O2-  O123  1  0.24600935  0.50460062  0.06404274  1
  O2-  O124  1  0.25153913  0.49908103  0.40084347  1
  O2-  O125  1  0.24395180  0.49568037  0.72631706  1
  O2-  O126  1  0.75564790  -0.00448425  0.06453853  1
  O2-  O127  1  0.75757099  0.00053032  0.39525866  1
  O2-  O128  1  0.74467569  -0.00565333  0.72609891  1
  O2-  O129  1  0.75210082  0.49641151  0.06553796  1
  O2-  O130  1  0.74611761  0.49510769  0.39342161  1
  O2-  O131  1  0.76137082  0.49950003  0.72507310  1
  O2-  O132  1  0.00616973  0.24687618  0.27166295  1
  O2-  O133  1  -0.00248754  0.25816607  0.60692989  1
  O2-  O134  1  0.00331163  0.24464102  0.94012787  1
  O2-  O135  1  -0.00404607  0.75543605  0.27316207  1
  O2-  O136  1  -0.00043288  0.74040628  0.60569957  1
  O2-  O137  1  0.00256320  0.74502482  0.93887176  1
  O2-  O138  1  0.49838871  0.24831830  0.27424291  1
  O2-  O139  1  0.50659850  0.24758858  0.60536465  1
  O2-  O140  1  0.50290180  0.25281266  0.94245366  1
  O2-  O141  1  0.49599024  0.75425544  0.27397485  1
  O2-  O142  1  0.49777594  0.75290168  0.60939474  1
  O2-  O143  1  0.50117027  0.74438006  0.93709625  1
  O2-  O144  1  0.07499480  0.17709914  0.09033511  1
  O2-  O145  1  0.07178430  0.17540713  0.41965913  1
  O2-  O146  1  0.07242343  0.18029299  0.76565806  1
  O2-  O147  1  0.07490943  0.67896703  0.08720085  1
  O2-  O148  1  0.06950799  0.68339898  0.43419450  1
  O2-  O149  1  0.07753878  0.68255657  0.75566883  1
  O2-  O150  1  0.56666465  0.17608869  0.08977551  1
  O2-  O151  1  0.56882956  0.17839063  0.42282853  1
  O2-  O152  1  0.57017152  0.17396410  0.75504730  1
  O2-  O153  1  0.57209171  0.67794535  0.08650531  1
  O2-  O154  1  0.57011032  0.67924676  0.43229291  1
  O2-  O155  1  0.56756763  0.68073915  0.75690869  1
  O2-  O156  1  0.17876326  0.43054916  0.23778853  1
  O2-  O157  1  0.17847768  0.42473287  0.57717306  1
  O2-  O158  1  0.18364488  0.42536721  0.89945758  1
  O2-  O159  1  0.18045541  0.93163146  0.23382336  1
  O2-  O160  1  0.18087054  0.92980503  0.57746976  1
  O2-  O161  1  0.17723176  0.93007997  0.90815137  1
  O2-  O162  1  0.67929226  0.42342741  0.24422350  1
  O2-  O163  1  0.67959454  0.43472088  0.56502730  1
  O2-  O164  1  0.67675590  0.42915397  0.90208428  1
  O2-  O165  1  0.67789544  0.93074032  0.23600095  1
  O2-  O166  1  0.67506704  0.92684171  0.57758666  1
  O2-  O167  1  0.67822380  0.93318811  0.89901664  1
  O2-  O168  1  0.42973763  0.31596331  0.09210175  1
  O2-  O169  1  0.43095204  0.32088788  0.42127867  1
  O2-  O170  1  0.43088491  0.31950830  0.76693887  1
  O2-  O171  1  0.43130415  0.82308452  0.09948238  1
  O2-  O172  1  0.43061312  0.82408604  0.42475607  1
  O2-  O173  1  0.42709480  0.82692875  0.75553508  1
  O2-  O174  1  0.92960615  0.32096878  0.09779984  1
  O2-  O175  1  0.92799167  0.31575370  0.43413429  1
  O2-  O176  1  0.92512853  0.32097618  0.75676918  1
  O2-  O177  1  0.93189844  0.82006300  0.10119229  1
  O2-  O178  1  0.92905305  0.82252696  0.42355027  1
  O2-  O179  1  0.92955218  0.81988538  0.76473824  1
  O2-  O180  1  0.32616607  0.07131610  0.24754631  1
  O2-  O181  1  0.32200374  0.06954228  0.57447189  1
  O2-  O182  1  0.31988561  0.07223381  0.89733867  1
  O2-  O183  1  0.32149160  0.57002615  0.23543020  1
  O2-  O184  1  0.32184085  0.57030049  0.56924720  1
  O2-  O185  1  0.32059087  0.57076621  0.90209055  1
  O2-  O186  1  0.81813909  0.07510270  0.24521170  1
  O2-  O187  1  0.81849794  0.06732989  0.56651998  1
  O2-  O188  1  0.82442493  0.06978888  0.90257805  1
  O2-  O189  1  0.82143912  0.57083466  0.23488288  1
  O2-  O190  1  0.82210265  0.57568248  0.57675041  1
  O2-  O191  1  0.81653021  0.57122090  0.89914981  1
  O2-  O192  1  0.04778800  0.08292377  0.26775439  1
  O2-  O193  1  0.03618068  0.08516454  0.59681757  1
  O2-  O194  1  0.05123155  0.08392413  0.93780773  1
  O2-  O195  1  0.04079629  0.58435931  0.26790639  1
  O2-  O196  1  0.05620896  0.58151809  0.60740950  1
  O2-  O197  1  0.05044651  0.58352580  0.93424048  1
  O2-  O198  1  0.53990319  0.08624004  0.27076092  1
  O2-  O199  1  0.54482508  0.08440567  0.60088557  1
  O2-  O200  1  0.53796615  0.08883429  0.93468256  1
  O2-  O201  1  0.54342801  0.58230557  0.26259967  1
  O2-  O202  1  0.53714178  0.58959415  0.60426738  1
  O2-  O203  1  0.54412399  0.58192679  0.93624907  1
  O2-  O204  1  0.16978920  0.19814914  0.27074462  1
  O2-  O205  1  0.16593399  0.20537619  0.59353473  1
  O2-  O206  1  0.16750126  0.20638666  0.93925615  1
  O2-  O207  1  0.16741184  0.71434020  0.26739392  1
  O2-  O208  1  0.16555935  0.71120874  0.60308161  1
  O2-  O209  1  0.16564580  0.70549117  0.93376345  1
  O2-  O210  1  0.66065480  0.20506573  0.26898277  1
  O2-  O211  1  0.66787049  0.20060821  0.60477635  1
  O2-  O212  1  0.66335292  0.20149785  0.93777315  1
  O2-  O213  1  0.66777591  0.71213564  0.26566977  1
  O2-  O214  1  0.65919564  0.70584095  0.60276490  1
  O2-  O215  1  0.66368797  0.70276059  0.93280405  1
  O2-  O216  1  0.07898963  0.45314954  0.06265697  1
  O2-  O217  1  0.08047511  0.45796345  0.40549915  1
  O2-  O218  1  0.08248365  0.44700770  0.72801307  1
  O2-  O219  1  0.08689007  0.95508603  0.06341359  1
  O2-  O220  1  0.08208110  0.96136947  0.40320628  1
  O2-  O221  1  0.08742773  0.96013496  0.72789282  1
  O2-  O222  1  0.58028826  0.45413784  0.06989629  1
  O2-  O223  1  0.58401286  0.45282971  0.39297051  1
  O2-  O224  1  0.58710794  0.46606830  0.73434883  1
  O2-  O225  1  0.58413984  0.96275954  0.06765498  1
  O2-  O226  1  0.58490936  0.96295227  0.40528561  1
  O2-  O227  1  0.58041026  0.95229026  0.72680971  1
  O2-  O228  1  0.21053647  0.33305815  0.07074750  1
  O2-  O229  1  0.20460201  0.32832429  0.40074323  1
  O2-  O230  1  0.20623059  0.33069303  0.72575141  1
  O2-  O231  1  0.20248177  0.83391394  0.05892465  1
  O2-  O232  1  0.21044737  0.83672625  0.40569453  1
  O2-  O233  1  0.20631991  0.83957100  0.73181682  1
  O2-  O234  1  0.70058553  0.32656588  0.06637263  1
  O2-  O235  1  0.70292272  0.33216145  0.39635042  1
  O2-  O236  1  0.70298236  0.33199630  0.73193590  1
  O2-  O237  1  0.70236686  0.82874864  0.06337058  1
  O2-  O238  1  0.70742369  0.83314037  0.40522294  1
  O2-  O239  1  0.69887858  0.83161126  0.72768147  1
  O2-  O240  1  0.45738156  0.41106004  0.26677846  1
  O2-  O241  1  0.46473031  0.41781688  0.59941312  1
  O2-  O242  1  0.45430571  0.41350565  0.94108421  1
  O2-  O243  1  0.45513265  0.91859451  0.27538045  1
  O2-  O244  1  0.45185980  0.91497327  0.60067262  1
  O2-  O245  1  0.46275817  0.91717502  0.93066752  1
  O2-  O246  1  0.95980531  0.41706864  0.26853519  1
  O2-  O247  1  0.94670987  0.41971502  0.60818722  1
  O2-  O248  1  0.95813927  0.41645937  0.92710178  1
  O2-  O249  1  0.95171915  0.91886485  0.27447265  1
  O2-  O250  1  0.96269709  0.91300665  0.59575163  1
  O2-  O251  1  0.96219335  0.91686628  0.93351404  1
  O2-  O252  1  0.33611465  0.29254905  0.27000916  1
  O2-  O253  1  0.33720608  0.28978517  0.59502053  1
  O2-  O254  1  0.33830966  0.28805065  0.94010960  1
  O2-  O255  1  0.33376861  0.80199238  0.27457184  1
  O2-  O256  1  0.33345963  0.79530396  0.60574537  1
  O2-  O257  1  0.33218543  0.79565796  0.92957011  1
  O2-  O258  1  0.83315328  0.28855970  0.26615870  1
  O2-  O259  1  0.83281079  0.29352473  0.60525166  1
  O2-  O260  1  0.83086637  0.28891393  0.93223139  1
  O2-  O261  1  0.83257252  0.79842314  0.27529243  1
  O2-  O262  1  0.82982925  0.79222788  0.59795610  1
  O2-  O263  1  0.83225780  0.79047543  0.93243882  1
  O2-  O264  1  0.41642824  0.03975252  0.06716740  1
  O2-  O265  1  0.41538379  0.04640107  0.40229161  1
  O2-  O266  1  0.41386689  0.04523713  0.72623803  1
  O2-  O267  1  0.41830895  0.54466761  0.06840994  1
  O2-  O268  1  0.42147764  0.53915908  0.39923367  1
  O2-  O269  1  0.41532972  0.53849537  0.73711265  1
  O2-  O270  1  0.92447781  0.04724983  0.06902208  1
  O2-  O271  1  0.91676774  0.05491429  0.39401657  1
  O2-  O272  1  0.91735985  0.03545688  0.73280593  1
  O2-  O273  1  0.92133484  0.54582938  0.06190413  1
  O2-  O274  1  0.91565217  0.53967414  0.40429810  1
  O2-  O275  1  0.92044478  0.55803078  0.72642174  1
  O2-  O276  1  0.29116320  0.16361714  0.07097685  1
  O2-  O277  1  0.29968927  0.16728098  0.39771397  1
  O2-  O278  1  0.29288908  0.16462147  0.72423355  1
  O2-  O279  1  0.29673706  0.67448129  0.06582962  1
  O2-  O280  1  0.29628772  0.67042964  0.40072798  1
  O2-  O281  1  0.29044229  0.66786287  0.73584733  1
  O2-  O282  1  0.79114196  0.16661246  0.06941605  1
  O2-  O283  1  0.78749860  0.16472826  0.39820847  1
  O2-  O284  1  0.79209633  0.16412082  0.73570669  1
  O2-  O285  1  0.79120589  0.66749533  0.06722411  1
  O2-  O286  1  0.78854615  0.66581799  0.40329785  1
  O2-  O287  1  0.78976461  0.66572491  0.72799454  1
