# generated using pymatgen
data_Ca2Al2SiO7
_symmetry_space_group_name_H-M   'P 1'
_cell_length_a   15.45611917
_cell_length_b   15.45552538
_cell_length_c   15.28188232
_cell_angle_alpha   90.00083543
_cell_angle_beta   90.00951575
_cell_angle_gamma   89.99951806
_symmetry_Int_Tables_number   1
_chemical_formula_structural   Ca2Al2SiO7
_chemical_formula_sum   'Ca48 Al48 Si24 O168'
_cell_volume   3650.57331570
_cell_formula_units_Z   24
loop_
 _symmetry_equiv_pos_site_id
 _symmetry_equiv_pos_as_xyz
  1  'x, y, z'
loop_
 _atom_type_symbol
 _atom_type_oxidation_number
  Ca2+  2.0
  Al0+  0.0
  Si0+  0.0
  O2-  -2.0
loop_
 _atom_site_type_symbol
 _atom_site_label
 _atom_site_symmetry_multiplicity
 _atom_site_fract_x
 _atom_site_fract_y
 _atom_site_fract_z
 _atom_site_occupancy
  Ca2+  Ca0  1  0.17330792  0.07723171  0.17351613  1
  Ca2+  Ca1  1  0.16608833  0.07730813  0.50890347  1
  Ca2+  Ca2  1  0.17756212  0.08092890  0.83188216  1
  Ca2+  Ca3  1  0.16751991  0.57910894  0.17778683  1
  Ca2+  Ca4  1  0.15819577  0.57276078  0.50129820  1
  Ca2+  Ca5  1  0.16460028  0.57684992  0.83444422  1
  Ca2+  Ca6  1  0.66675821  0.08051250  0.17771594  1
  Ca2+  Ca7  1  0.66997577  0.08233239  0.49743898  1
  Ca2+  Ca8  1  0.66546928  0.08133516  0.83931851  1
  Ca2+  Ca9  1  0.67635474  0.58583795  0.17332231  1
  Ca2+  Ca10  1  0.66638921  0.57614777  0.50515571  1
  Ca2+  Ca11  1  0.66411549  0.58607519  0.83732882  1
  Ca2+  Ca12  1  0.08675089  0.32858973  0.16813360  1
  Ca2+  Ca13  1  0.09149345  0.32374236  0.49341262  1
  Ca2+  Ca14  1  0.08453510  0.32780940  0.82465219  1
  Ca2+  Ca15  1  0.07884536  0.83061321  0.16599410  1
  Ca2+  Ca16  1  0.08142700  0.83630094  0.49304169  1
  Ca2+  Ca17  1  0.07239206  0.83916148  0.82591614  1
  Ca2+  Ca18  1  0.58608560  0.32355897  0.16247583  1
  Ca2+  Ca19  1  0.58660501  0.33204434  0.49242792  1
  Ca2+  Ca20  1  0.57945391  0.33141162  0.83045791  1
  Ca2+  Ca21  1  0.58143909  0.83170008  0.15836598  1
  Ca2+  Ca22  1  0.57788386  0.83517786  0.49911652  1
  Ca2+  Ca23  1  0.57476947  0.82278011  0.82850600  1
  Ca2+  Ca24  1  0.33179401  0.41495533  0.16901629  1
  Ca2+  Ca25  1  0.32213518  0.41481432  0.50444356  1
  Ca2+  Ca26  1  0.32873449  0.41136292  0.83563174  1
  Ca2+  Ca27  1  0.33467614  0.92074526  0.17107468  1
  Ca2+  Ca28  1  0.32151770  0.92033450  0.50995128  1
  Ca2+  Ca29  1  0.33977805  0.92252603  0.83576000  1
  Ca2+  Ca30  1  0.82697298  0.42848324  0.17585430  1
  Ca2+  Ca31  1  0.82352220  0.42043915  0.50136918  1
  Ca2+  Ca32  1  0.82469705  0.42498095  0.83898850  1
  Ca2+  Ca33  1  0.82625559  0.91992326  0.17433033  1
  Ca2+  Ca34  1  0.83252061  0.91858803  0.49990942  1
  Ca2+  Ca35  1  0.83648957  0.91200971  0.83740655  1
  Ca2+  Ca36  1  0.42730035  0.16970086  0.15840166  1
  Ca2+  Ca37  1  0.41991071  0.16484516  0.49558565  1
  Ca2+  Ca38  1  0.41486962  0.16480627  0.83466349  1
  Ca2+  Ca39  1  0.42544865  0.67505128  0.15605221  1
  Ca2+  Ca40  1  0.41829627  0.67019918  0.50040669  1
  Ca2+  Ca41  1  0.42400601  0.67568749  0.82668196  1
  Ca2+  Ca42  1  0.92078373  0.16103619  0.16934460  1
  Ca2+  Ca43  1  0.92804637  0.16419765  0.49223238  1
  Ca2+  Ca44  1  0.92658578  0.16797773  0.82410451  1
  Ca2+  Ca45  1  0.91700840  0.66557206  0.16259722  1
  Ca2+  Ca46  1  0.92053104  0.67038923  0.49478341  1
  Ca2+  Ca47  1  0.91042575  0.67722642  0.83117905  1
  Al0+  Al48  1  0.00092076  -0.00098165  -0.00269168  1
  Al0+  Al49  1  0.00024158  0.00026795  0.33273196  1
  Al0+  Al50  1  0.00032883  0.00112140  0.66224935  1
  Al0+  Al51  1  -0.00148449  0.49816251  0.00384444  1
  Al0+  Al52  1  0.00083433  0.50016541  0.33714424  1
  Al0+  Al53  1  -0.00349223  0.50074429  0.67296109  1
  Al0+  Al54  1  0.50014922  0.00109285  -0.00174797  1
  Al0+  Al55  1  0.50031702  0.00164776  0.33329729  1
  Al0+  Al56  1  0.50155095  -0.00012143  0.66651364  1
  Al0+  Al57  1  0.49788984  0.49662563  -0.00515302  1
  Al0+  Al58  1  0.49925416  0.50261618  0.33443385  1
  Al0+  Al59  1  0.49987383  0.49830074  0.66686175  1
  Al0+  Al60  1  0.25101870  0.24645849  0.00264360  1
  Al0+  Al61  1  0.25083615  0.25074588  0.33032878  1
  Al0+  Al62  1  0.25080622  0.24904022  0.67026059  1
  Al0+  Al63  1  0.24750202  0.74793529  -0.00322841  1
  Al0+  Al64  1  0.24926666  0.75139320  0.33177221  1
  Al0+  Al65  1  0.24804258  0.74868550  0.66785791  1
  Al0+  Al66  1  0.75263457  0.25004995  -0.00347486  1
  Al0+  Al67  1  0.75150059  0.25038774  0.33561696  1
  Al0+  Al68  1  0.75020247  0.25171998  0.67211596  1
  Al0+  Al69  1  0.75189803  0.75023835  -0.00227349  1
  Al0+  Al70  1  0.74907973  0.75154132  0.34196212  1
  Al0+  Al71  1  0.75049126  0.75046201  0.65705959  1
  Al0+  Al72  1  0.42627539  0.82195169  0.98584331  1
  Al0+  Al73  1  0.57395120  0.17923634  0.98383516  1
  Al0+  Al74  1  0.32313595  0.06950960  0.68207870  1
  Al0+  Al75  1  0.93170777  0.81979640  0.98856839  1
  Al0+  Al76  1  0.93061930  0.82164498  0.64976119  1
  Al0+  Al77  1  0.42731864  0.31925214  0.98382407  1
  Al0+  Al78  1  0.82197317  0.07142204  0.34794673  1
  Al0+  Al79  1  0.18143702  0.42894033  0.34570775  1
  Al0+  Al80  1  0.67608434  0.92896846  0.34912164  1
  Al0+  Al81  1  0.07224096  0.17770737  0.31766811  1
  Al0+  Al82  1  0.67748409  0.42990058  0.34649194  1
  Al0+  Al83  1  0.57164759  0.18053938  0.32155299  1
  Al0+  Al84  1  0.42725813  0.82282324  0.64972206  1
  Al0+  Al85  1  0.67784745  0.42869667  0.68325322  1
  Al0+  Al86  1  0.81852453  0.57164411  0.01396983  1
  Al0+  Al87  1  0.07117253  0.18300598  0.65296252  1
  Al0+  Al88  1  0.82256314  0.57281972  0.35083640  1
  Al0+  Al89  1  0.57236949  0.67868704  0.98726784  1
  Al0+  Al90  1  0.17641732  0.92689026  0.68251054  1
  Al0+  Al91  1  0.32129299  0.06849927  0.01674902  1
  Al0+  Al92  1  0.07020947  0.67852453  0.32032352  1
  Al0+  Al93  1  0.56980418  0.67762741  0.64851742  1
  Al0+  Al94  1  0.18038248  0.92919557  0.34495342  1
  Al0+  Al95  1  0.17815601  0.42924419  0.68090110  1
  Si0+  Si96  1  0.68119715  0.93108658  0.01159191  1
  Si0+  Si97  1  0.57397023  0.17929750  0.65121937  1
  Si0+  Si98  1  0.32170783  0.07223635  0.34887031  1
  Si0+  Si99  1  0.07159652  0.67364250  0.98320697  1
  Si0+  Si100  1  0.57133449  0.67916092  0.31873262  1
  Si0+  Si101  1  0.17903986  0.42801100  0.01607846  1
  Si0+  Si102  1  0.82423987  0.07267104  0.01309611  1
  Si0+  Si103  1  0.93023311  0.32279246  0.98485481  1
  Si0+  Si104  1  0.82082548  0.07074414  0.68233374  1
  Si0+  Si105  1  0.07022017  0.17928046  0.98505016  1
  Si0+  Si106  1  0.42900442  0.82126106  0.31868089  1
  Si0+  Si107  1  0.67676139  0.42623720  0.01644901  1
  Si0+  Si108  1  0.32064236  0.57145289  0.01391532  1
  Si0+  Si109  1  0.32226032  0.57103834  0.68427941  1
  Si0+  Si110  1  0.81946694  0.57388981  0.68508144  1
  Si0+  Si111  1  0.68048285  0.92865749  0.68275155  1
  Si0+  Si112  1  0.32226784  0.57460403  0.34907690  1
  Si0+  Si113  1  0.92884425  0.32194698  0.31656486  1
  Si0+  Si114  1  0.07146529  0.67495900  0.65124900  1
  Si0+  Si115  1  0.42935315  0.31942025  0.65080917  1
  Si0+  Si116  1  0.92670550  0.82157732  0.31606582  1
  Si0+  Si117  1  0.42784065  0.32429103  0.31756161  1
  Si0+  Si118  1  0.17540982  0.92694000  0.01680764  1
  Si0+  Si119  1  0.92647317  0.32338478  0.65067300  1
  O2-  O120  1  0.24967338  -0.01053400  0.06139401  1
  O2-  O121  1  0.25115928  0.00636590  0.39305483  1
  O2-  O122  1  0.25389619  -0.00625239  0.73170236  1
  O2-  O123  1  0.24903816  0.50079012  0.05699249  1
  O2-  O124  1  0.25488386  0.50436888  0.39294494  1
  O2-  O125  1  0.25063676  0.50505088  0.72914403  1
  O2-  O126  1  0.74906718  0.00563265  0.05367267  1
  O2-  O127  1  0.74986671  -0.00009943  0.39855031  1
  O2-  O128  1  0.75143862  -0.00071875  0.72648510  1
  O2-  O129  1  0.74115231  0.49914591  0.06006854  1
  O2-  O130  1  0.74744623  0.50275367  0.39847824  1
  O2-  O131  1  0.74961203  0.50635032  0.72945142  1
  O2-  O132  1  -0.00283317  0.25271544  0.27090926  1
  O2-  O133  1  -0.00168822  0.25926382  0.60531823  1
  O2-  O134  1  -0.00011085  0.25076435  0.94234026  1
  O2-  O135  1  -0.00680896  0.75032763  0.27220392  1
  O2-  O136  1  0.00854704  0.74858741  0.60677304  1
  O2-  O137  1  0.00583693  0.74533415  0.94012503  1
  O2-  O138  1  0.49983977  0.25822890  0.27517453  1
  O2-  O139  1  0.50159800  0.24925552  0.60937328  1
  O2-  O140  1  0.50203308  0.25061956  0.93270572  1
  O2-  O141  1  0.50199484  0.75186543  0.27649244  1
  O2-  O142  1  0.49767792  0.74977270  0.59837094  1
  O2-  O143  1  0.49686760  0.74742847  0.93792176  1
  O2-  O144  1  0.06866057  0.17964299  0.09015777  1
  O2-  O145  1  0.07345002  0.17992577  0.43047532  1
  O2-  O146  1  0.06884295  0.18410853  0.76688340  1
  O2-  O147  1  0.07153690  0.67158110  0.08878085  1
  O2-  O148  1  0.07050298  0.67930552  0.43317170  1
  O2-  O149  1  0.06728941  0.67143304  0.75708025  1
  O2-  O150  1  0.57557804  0.18015735  0.09749408  1
  O2-  O151  1  0.56818215  0.18039938  0.43498501  1
  O2-  O152  1  0.57581443  0.18040740  0.75613345  1
  O2-  O153  1  0.57279492  0.68262154  0.10153443  1
  O2-  O154  1  0.56743110  0.67632724  0.42323242  1
  O2-  O155  1  0.56912838  0.67970049  0.76238515  1
  O2-  O156  1  0.18375508  0.42925454  0.23201149  1
  O2-  O157  1  0.18017924  0.42895077  0.56801160  1
  O2-  O158  1  0.17791919  0.42840208  0.91086290  1
  O2-  O159  1  0.18359729  0.92837585  0.23148666  1
  O2-  O160  1  0.17556020  0.93141814  0.56873230  1
  O2-  O161  1  0.16994666  0.93197451  0.91191013  1
  O2-  O162  1  0.67825900  0.43116507  0.23260448  1
  O2-  O163  1  0.68048312  0.42630440  0.57044939  1
  O2-  O164  1  0.68090236  0.42462713  0.91085928  1
  O2-  O165  1  0.67579951  0.92855426  0.23464485  1
  O2-  O166  1  0.67987208  0.93190100  0.57796685  1
  O2-  O167  1  0.68435063  0.93086064  0.90630731  1
  O2-  O168  1  0.42642256  0.31835380  0.09753795  1
  O2-  O169  1  0.42491128  0.32301092  0.42330111  1
  O2-  O170  1  0.42881245  0.31908360  0.75566924  1
  O2-  O171  1  0.42871048  0.82047710  0.10028895  1
  O2-  O172  1  0.42785263  0.81991361  0.42335413  1
  O2-  O173  1  0.43183491  0.82226004  0.76322114  1
  O2-  O174  1  0.93097422  0.32422154  0.08963088  1
  O2-  O175  1  0.92982334  0.32106104  0.42209849  1
  O2-  O176  1  0.92709182  0.31977539  0.75697623  1
  O2-  O177  1  0.93173362  0.82125822  0.10131550  1
  O2-  O178  1  0.92971506  0.82246726  0.42149824  1
  O2-  O179  1  0.92877686  0.82015435  0.76346388  1
  O2-  O180  1  0.32212227  0.06974012  0.24308699  1
  O2-  O181  1  0.32158584  0.07203866  0.56826432  1
  O2-  O182  1  0.31782513  0.07088420  0.90413050  1
  O2-  O183  1  0.32227687  0.57445557  0.24306467  1
  O2-  O184  1  0.32333283  0.56792669  0.57856438  1
  O2-  O185  1  0.31794853  0.57178182  0.90913105  1
  O2-  O186  1  0.82099876  0.06852404  0.23344978  1
  O2-  O187  1  0.81881288  0.07220983  0.57774105  1
  O2-  O188  1  0.82698213  0.07152550  0.90778846  1
  O2-  O189  1  0.82062105  0.57235748  0.23657187  1
  O2-  O190  1  0.82163187  0.57092599  0.57993174  1
  O2-  O191  1  0.81958966  0.56959695  0.90105670  1
  O2-  O192  1  0.04009361  0.08202052  0.26186765  1
  O2-  O193  1  0.03752608  0.08799755  0.59900899  1
  O2-  O194  1  0.04063793  0.08874300  0.93686186  1
  O2-  O195  1  0.04287179  0.58042372  0.26653068  1
  O2-  O196  1  0.03918819  0.58274785  0.60470639  1
  O2-  O197  1  0.04318981  0.58044615  0.93727778  1
  O2-  O198  1  0.53903475  0.08470322  0.26594638  1
  O2-  O199  1  0.54844118  0.08687037  0.60481459  1
  O2-  O200  1  0.54564341  0.08102108  0.93145910  1
  O2-  O201  1  0.54272801  0.58826828  0.26920725  1
  O2-  O202  1  0.54015719  0.57822194  0.59750004  1
  O2-  O203  1  0.54774342  0.57884382  0.93649176  1
  O2-  O204  1  0.16812695  0.21087372  0.26251902  1
  O2-  O205  1  0.16828083  0.21315917  0.60023645  1
  O2-  O206  1  0.16165370  0.20827471  0.93910799  1
  O2-  O207  1  0.16653092  0.71043132  0.26440117  1
  O2-  O208  1  0.16784702  0.69045681  0.60812856  1
  O2-  O209  1  0.16574237  0.69418784  0.93661381  1
  O2-  O210  1  0.66970967  0.20751139  0.26800771  1
  O2-  O211  1  0.66583481  0.20958828  0.60529850  1
  O2-  O212  1  0.67359736  0.20501188  0.93036140  1
  O2-  O213  1  0.66477676  0.70665847  0.27466922  1
  O2-  O214  1  0.66760854  0.70553816  0.59538909  1
  O2-  O215  1  0.66841165  0.71063309  0.93231593  1
  O2-  O216  1  0.08696051  0.45402562  0.06381166  1
  O2-  O217  1  0.08536303  0.45710723  0.40057474  1
  O2-  O218  1  0.08065323  0.45727372  0.73625365  1
  O2-  O219  1  0.08455784  0.95972660  0.06561259  1
  O2-  O220  1  0.08282589  0.95664743  0.39659840  1
  O2-  O221  1  0.07928470  0.96284261  0.73473903  1
  O2-  O222  1  0.57985888  0.44382363  0.05792694  1
  O2-  O223  1  0.57810919  0.45613512  0.39941448  1
  O2-  O224  1  0.57981251  0.45581412  0.73593886  1
  O2-  O225  1  0.58881888  0.95531904  0.05906628  1
  O2-  O226  1  0.57913975  0.96093421  0.40324215  1
  O2-  O227  1  0.58945626  0.95715368  0.73084089  1
  O2-  O228  1  0.20826874  0.33664233  0.06321309  1
  O2-  O229  1  0.21415141  0.33285777  0.39989112  1
  O2-  O230  1  0.21226291  0.33467195  0.73658509  1
  O2-  O231  1  0.19302367  0.82920407  0.05787255  1
  O2-  O232  1  0.21185496  0.83359108  0.39990587  1
  O2-  O233  1  0.19434267  0.82478621  0.73241499  1
  O2-  O234  1  0.70951573  0.33397106  0.06215730  1
  O2-  O235  1  0.70733960  0.33257437  0.40015885  1
  O2-  O236  1  0.71193300  0.33381789  0.73995601  1
  O2-  O237  1  0.71252563  0.84094727  0.06001827  1
  O2-  O238  1  0.70148493  0.83195100  0.40501325  1
  O2-  O239  1  0.70981814  0.83581033  0.72670369  1
  O2-  O240  1  0.44890309  0.41979791  0.27248681  1
  O2-  O241  1  0.45520078  0.41124857  0.60314775  1
  O2-  O242  1  0.44907467  0.41843597  0.92927583  1
  O2-  O243  1  0.45617493  0.91360148  0.27185672  1
  O2-  O244  1  0.45929300  0.92072810  0.59714136  1
  O2-  O245  1  0.45710845  0.91897697  0.93369336  1
  O2-  O246  1  0.95666091  0.41506492  0.27056549  1
  O2-  O247  1  0.94663394  0.41951320  0.60896179  1
  O2-  O248  1  0.95981357  0.41325791  0.93542256  1
  O2-  O249  1  0.95437692  0.91416492  0.26906202  1
  O2-  O250  1  0.95829124  0.91877079  0.59597209  1
  O2-  O251  1  0.96115650  0.91622778  0.93167449  1
  O2-  O252  1  0.33660996  0.29591036  0.26813447  1
  O2-  O253  1  0.33799461  0.29012825  0.60346400  1
  O2-  O254  1  0.32902188  0.28720036  0.93149229  1
  O2-  O255  1  0.33868242  0.79212773  0.26914070  1
  O2-  O256  1  0.32667744  0.79518586  0.60015685  1
  O2-  O257  1  0.32681741  0.79591625  0.93385933  1
  O2-  O258  1  0.83582408  0.29645614  0.26916178  1
  O2-  O259  1  0.83384767  0.29355628  0.60546949  1
  O2-  O260  1  0.83906436  0.29633743  0.93556007  1
  O2-  O261  1  0.83064580  0.79851764  0.27358583  1
  O2-  O262  1  0.83556084  0.79082421  0.59388558  1
  O2-  O263  1  0.83648492  0.78929121  0.93176682  1
  O2-  O264  1  0.42001410  0.04171185  0.06955952  1
  O2-  O265  1  0.41422756  0.04550818  0.39530413  1
  O2-  O266  1  0.42327183  0.04492006  0.73466978  1
  O2-  O267  1  0.41264427  0.54300987  0.06138668  1
  O2-  O268  1  0.41551989  0.55089126  0.39615567  1
  O2-  O269  1  0.41389528  0.54112238  0.73129252  1
  O2-  O270  1  0.91436229  0.04081682  0.06166400  1
  O2-  O271  1  0.91990509  0.04241360  0.40087274  1
  O2-  O272  1  0.91293322  0.04321519  0.72902248  1
  O2-  O273  1  0.91474037  0.53762759  0.06823847  1
  O2-  O274  1  0.91955520  0.54196041  0.40411352  1
  O2-  O275  1  0.91174768  0.54800426  0.73444708  1
  O2-  O276  1  0.28637505  0.16361811  0.07202264  1
  O2-  O277  1  0.29942840  0.16739025  0.39216859  1
  O2-  O278  1  0.29037764  0.16616274  0.73653946  1
  O2-  O279  1  0.29373075  0.66333365  0.06288522  1
  O2-  O280  1  0.29504183  0.66695608  0.39560953  1
  O2-  O281  1  0.29938212  0.66524958  0.73015419  1
  O2-  O282  1  0.80215695  0.16650994  0.05919119  1
  O2-  O283  1  0.79667765  0.16973946  0.40166175  1
  O2-  O284  1  0.79357050  0.16217394  0.73171649  1
  O2-  O285  1  0.79091076  0.66914341  0.06820889  1
  O2-  O286  1  0.79746353  0.67112351  0.40378988  1
  O2-  O287  1  0.79315998  0.66889559  0.72797800  1
