# generated using pymatgen
data_Ca2Al2SiO7
_symmetry_space_group_name_H-M   'P 1'
_cell_length_a   15.46212839
_cell_length_b   15.46389399
_cell_length_c   15.28786366
_cell_angle_alpha   90.01601331
_cell_angle_beta   90.00704488
_cell_angle_gamma   90.00836494
_symmetry_Int_Tables_number   1
_chemical_formula_structural   Ca2Al2SiO7
_chemical_formula_sum   'Ca48 Al48 Si24 O168'
_cell_volume   3655.40006307
_cell_formula_units_Z   24
loop_
 _symmetry_equiv_pos_site_id
 _symmetry_equiv_pos_as_xyz
  1  'x, y, z'
loop_
 _atom_type_symbol
 _atom_type_oxidation_number
  Ca2+  2.0
  Al0+  0.0
  Si0+  0.0
  O2-  -2.0
loop_
 _atom_site_type_symbol
 _atom_site_label
 _atom_site_symmetry_multiplicity
 _atom_site_fract_x
 _atom_site_fract_y
 _atom_site_fract_z
 _atom_site_occupancy
  Ca2+  Ca0  1  0.17196025  0.08613147  0.17139902  1
  Ca2+  Ca1  1  0.17222650  0.07564150  0.50352755  1
  Ca2+  Ca2  1  0.16512027  0.07738463  0.83586402  1
  Ca2+  Ca3  1  0.16945622  0.58364886  0.17256813  1
  Ca2+  Ca4  1  0.16914610  0.58481886  0.49598030  1
  Ca2+  Ca5  1  0.17520122  0.57882542  0.84715999  1
  Ca2+  Ca6  1  0.66490915  0.06860271  0.17255779  1
  Ca2+  Ca7  1  0.67356827  0.06805012  0.50612402  1
  Ca2+  Ca8  1  0.66847893  0.07444254  0.83651342  1
  Ca2+  Ca9  1  0.67141669  0.58033664  0.17405020  1
  Ca2+  Ca10  1  0.67022378  0.59643043  0.49941413  1
  Ca2+  Ca11  1  0.66477375  0.58086405  0.83828235  1
  Ca2+  Ca12  1  0.07749341  0.33847466  0.15968571  1
  Ca2+  Ca13  1  0.07846715  0.33274335  0.48828908  1
  Ca2+  Ca14  1  0.08437823  0.32992134  0.83661263  1
  Ca2+  Ca15  1  0.08361001  0.81955431  0.16367827  1
  Ca2+  Ca16  1  0.07680745  0.83105730  0.49078371  1
  Ca2+  Ca17  1  0.08900779  0.82635805  0.82867085  1
  Ca2+  Ca18  1  0.58526485  0.33245645  0.16108510  1
  Ca2+  Ca19  1  0.57634386  0.33035911  0.49854659  1
  Ca2+  Ca20  1  0.57785644  0.33801379  0.82603844  1
  Ca2+  Ca21  1  0.57759673  0.83073436  0.16520419  1
  Ca2+  Ca22  1  0.58160231  0.83074674  0.49118731  1
  Ca2+  Ca23  1  0.57511998  0.83415955  0.82716754  1
  Ca2+  Ca24  1  0.32050544  0.43178878  0.17364460  1
  Ca2+  Ca25  1  0.33168515  0.42260362  0.50010086  1
  Ca2+  Ca26  1  0.33277642  0.42547806  0.84489363  1
  Ca2+  Ca27  1  0.33866249  0.91922132  0.17375730  1
  Ca2+  Ca28  1  0.33273187  0.91236744  0.50125337  1
  Ca2+  Ca29  1  0.33282864  0.90812680  0.83503262  1
  Ca2+  Ca30  1  0.83527151  0.41725956  0.17150735  1
  Ca2+  Ca31  1  0.83722196  0.42311588  0.49682047  1
  Ca2+  Ca32  1  0.82556787  0.41578210  0.84240956  1
  Ca2+  Ca33  1  0.82194698  0.90641793  0.17288160  1
  Ca2+  Ca34  1  0.82282632  0.91012748  0.50542847  1
  Ca2+  Ca35  1  0.82047043  0.91882024  0.83670000  1
  Ca2+  Ca36  1  0.41488855  0.16555581  0.16465567  1
  Ca2+  Ca37  1  0.41059440  0.17031538  0.49547905  1
  Ca2+  Ca38  1  0.41745624  0.17818822  0.82853660  1
  Ca2+  Ca39  1  0.40996668  0.67477392  0.16455950  1
  Ca2+  Ca40  1  0.42773077  0.67738810  0.49247091  1
  Ca2+  Ca41  1  0.42078806  0.67392041  0.82726752  1
  Ca2+  Ca42  1  0.92268188  0.17950749  0.15781533  1
  Ca2+  Ca43  1  0.91326291  0.16998078  0.49445350  1
  Ca2+  Ca44  1  0.91609305  0.16817114  0.83341099  1
  Ca2+  Ca45  1  0.92468813  0.66328512  0.17065263  1
  Ca2+  Ca46  1  0.92155330  0.67120755  0.48504712  1
  Ca2+  Ca47  1  0.92525573  0.66340109  0.83470217  1
  Al0+  Al48  1  -0.00054895  0.00064704  -0.00284502  1
  Al0+  Al49  1  -0.00133470  0.00197649  0.32764697  1
  Al0+  Al50  1  0.00202416  0.00049704  0.67465648  1
  Al0+  Al51  1  -0.00145506  0.49966519  -0.00812903  1
  Al0+  Al52  1  -0.00217169  0.49875142  0.33422233  1
  Al0+  Al53  1  0.00045572  0.49839641  0.66784111  1
  Al0+  Al54  1  0.49990021  -0.00028073  -0.00166757  1
  Al0+  Al55  1  0.50059239  0.00113174  0.34016709  1
  Al0+  Al56  1  0.49889450  0.00297614  0.66794541  1
  Al0+  Al57  1  0.50104223  0.50180494  0.01001870  1
  Al0+  Al58  1  0.49880787  0.49815702  0.33392338  1
  Al0+  Al59  1  0.50030586  0.50068963  0.65714039  1
  Al0+  Al60  1  0.24984418  0.24989521  -0.00161153  1
  Al0+  Al61  1  0.24982265  0.24983274  0.34068422  1
  Al0+  Al62  1  0.24734217  0.24977838  0.66219238  1
  Al0+  Al63  1  0.24993156  0.75216333  -0.00449576  1
  Al0+  Al64  1  0.25080573  0.75034360  0.33161172  1
  Al0+  Al65  1  0.25212886  0.74779252  0.66622566  1
  Al0+  Al66  1  0.75045325  0.24847312  -0.00033077  1
  Al0+  Al67  1  0.74876852  0.24889531  0.32981050  1
  Al0+  Al68  1  0.75078587  0.25171634  0.66874751  1
  Al0+  Al69  1  0.74956728  0.74922541  0.00330262  1
  Al0+  Al70  1  0.74892087  0.74734387  0.33343787  1
  Al0+  Al71  1  0.75310859  0.74930903  0.67309921  1
  Al0+  Al72  1  0.32068059  0.07012632  0.34689495  1
  Al0+  Al73  1  0.07020266  0.68047898  0.98500725  1
  Al0+  Al74  1  0.67827300  0.92971764  0.01571435  1
  Al0+  Al75  1  0.92789145  0.32109506  0.98187750  1
  Al0+  Al76  1  0.17784988  0.43086850  0.34918495  1
  Al0+  Al77  1  0.43085780  0.82282652  0.31811357  1
  Al0+  Al78  1  0.82176544  0.07305183  0.68259853  1
  Al0+  Al79  1  0.07118780  0.67946812  0.31981205  1
  Al0+  Al80  1  0.67752833  0.92716452  0.68368528  1
  Al0+  Al81  1  0.57149491  0.67660145  0.31581956  1
  Al0+  Al82  1  0.42743216  0.32083457  0.65259589  1
  Al0+  Al83  1  0.68148566  0.92843402  0.34706996  1
  Al0+  Al84  1  0.67892955  0.42761097  0.01271093  1
  Al0+  Al85  1  0.32081046  0.57493057  0.01501759  1
  Al0+  Al86  1  0.92865900  0.31916077  0.32028507  1
  Al0+  Al87  1  0.43064125  0.82160064  0.98537322  1
  Al0+  Al88  1  0.42849695  0.82316335  0.65048891  1
  Al0+  Al89  1  0.17866711  0.42805580  0.01323890  1
  Al0+  Al90  1  0.32277830  0.57439166  0.35198017  1
  Al0+  Al91  1  0.81808891  0.56774940  0.34632789  1
  Al0+  Al92  1  0.92662966  0.82359796  0.31960432  1
  Al0+  Al93  1  0.18250200  0.92793633  0.67981872  1
  Al0+  Al94  1  0.07344299  0.17779891  0.98298681  1
  Al0+  Al95  1  0.57374466  0.68022013  0.65268304  1
  Si0+  Si96  1  0.17748828  0.92898559  0.01451362  1
  Si0+  Si97  1  0.57358184  0.17984599  0.65024397  1
  Si0+  Si98  1  0.43145757  0.32196575  0.98887315  1
  Si0+  Si99  1  0.57302194  0.67689583  0.98473481  1
  Si0+  Si100  1  0.92843071  0.32119259  0.65007367  1
  Si0+  Si101  1  0.17540347  0.92814852  0.34665260  1
  Si0+  Si102  1  0.93248562  0.82082472  0.65553001  1
  Si0+  Si103  1  0.32093201  0.07590482  0.68487828  1
  Si0+  Si104  1  0.32124936  0.56740539  0.68097858  1
  Si0+  Si105  1  0.82406019  0.57096863  0.68298459  1
  Si0+  Si106  1  0.42620447  0.32010104  0.31663217  1
  Si0+  Si107  1  0.67936738  0.43103060  0.67883490  1
  Si0+  Si108  1  0.82250987  0.57138392  0.01648496  1
  Si0+  Si109  1  0.07129437  0.67664756  0.65185036  1
  Si0+  Si110  1  0.07417249  0.17821592  0.31770228  1
  Si0+  Si111  1  0.17729714  0.42781835  0.68275107  1
  Si0+  Si112  1  0.67661689  0.42343816  0.35166435  1
  Si0+  Si113  1  0.56919012  0.18033443  0.31884657  1
  Si0+  Si114  1  0.82198780  0.07380647  0.34687479  1
  Si0+  Si115  1  0.06941856  0.17778491  0.64954745  1
  Si0+  Si116  1  0.57045358  0.17814850  0.98567896  1
  Si0+  Si117  1  0.32024729  0.07078272  0.01231682  1
  Si0+  Si118  1  0.82291194  0.07110759  0.01892203  1
  Si0+  Si119  1  0.92571081  0.82212184  0.98174167  1
  O2-  O120  1  0.24738826  0.00202232  0.05480576  1
  O2-  O121  1  0.24548747  -0.00477358  0.39152930  1
  O2-  O122  1  0.25958185  0.00048327  0.72854755  1
  O2-  O123  1  0.24600627  0.50419708  0.06256270  1
  O2-  O124  1  0.24959923  0.50217774  0.40125543  1
  O2-  O125  1  0.25043362  0.49649960  0.72460691  1
  O2-  O126  1  0.75660529  0.00060885  0.06321142  1
  O2-  O127  1  0.76169299  -0.00131185  0.39214237  1
  O2-  O128  1  0.74824062  0.00211233  0.73209601  1
  O2-  O129  1  0.75486453  0.50062969  0.05855176  1
  O2-  O130  1  0.74116144  0.49589005  0.39578601  1
  O2-  O131  1  0.74904848  0.50260887  0.72237413  1
  O2-  O132  1  0.00482948  0.24606599  0.27437616  1
  O2-  O133  1  -0.00206868  0.24874215  0.60811071  1
  O2-  O134  1  0.00073164  0.24925524  0.93213431  1
  O2-  O135  1  0.00193525  0.75471784  0.27038967  1
  O2-  O136  1  0.00171681  0.74927591  0.61106673  1
  O2-  O137  1  -0.00341387  0.75589942  0.93646001  1
  O2-  O138  1  0.49934258  0.25142078  0.27425702  1
  O2-  O139  1  0.49963680  0.24301890  0.60587994  1
  O2-  O140  1  0.50513431  0.25490487  0.94374245  1
  O2-  O141  1  0.49750629  0.74683976  0.26629106  1
  O2-  O142  1  0.50797319  0.75818234  0.60309340  1
  O2-  O143  1  0.50470581  0.74538869  0.94033535  1
  O2-  O144  1  0.07361317  0.17732143  0.09641024  1
  O2-  O145  1  0.07297286  0.17727445  0.42366604  1
  O2-  O146  1  0.07210340  0.17975349  0.75428728  1
  O2-  O147  1  0.07000196  0.68110748  0.09743290  1
  O2-  O148  1  0.06863159  0.68109454  0.43423848  1
  O2-  O149  1  0.06990447  0.67551532  0.75701277  1
  O2-  O150  1  0.56686911  0.17636312  0.09082714  1
  O2-  O151  1  0.56962084  0.18307494  0.42382510  1
  O2-  O152  1  0.57404904  0.18455889  0.75628504  1
  O2-  O153  1  0.57453542  0.67736341  0.08966438  1
  O2-  O154  1  0.57289486  0.68222183  0.42944541  1
  O2-  O155  1  0.56954442  0.67405735  0.76647006  1
  O2-  O156  1  0.17922641  0.42916598  0.23589472  1
  O2-  O157  1  0.17386428  0.42927615  0.57824632  1
  O2-  O158  1  0.18520516  0.42749659  0.89878256  1
  O2-  O159  1  0.17465547  0.93091833  0.24098577  1
  O2-  O160  1  0.17858307  0.93095328  0.56688312  1
  O2-  O161  1  0.17974914  0.92818405  0.90919105  1
  O2-  O162  1  0.67990076  0.41974249  0.24624056  1
  O2-  O163  1  0.68173988  0.42713342  0.57434150  1
  O2-  O164  1  0.67633629  0.43004102  0.89871396  1
  O2-  O165  1  0.67912591  0.93190931  0.23393262  1
  O2-  O166  1  0.68203658  0.92639315  0.57022113  1
  O2-  O167  1  0.67769744  0.93306772  0.90276928  1
  O2-  O168  1  0.43160007  0.31731384  0.09356205  1
  O2-  O169  1  0.42687730  0.31765354  0.42200497  1
  O2-  O170  1  0.43030249  0.32239766  0.76655513  1
  O2-  O171  1  0.43156652  0.82625984  0.09777023  1
  O2-  O172  1  0.43352181  0.82504663  0.43149260  1
  O2-  O173  1  0.42678897  0.81681372  0.76430567  1
  O2-  O174  1  0.92694367  0.31916612  0.09526990  1
  O2-  O175  1  0.92813248  0.31624828  0.43425199  1
  O2-  O176  1  0.92867292  0.32303419  0.75462624  1
  O2-  O177  1  0.92610678  0.82088966  0.08684865  1
  O2-  O178  1  0.92875827  0.82235766  0.43426185  1
  O2-  O179  1  0.93392574  0.81788750  0.76065262  1
  O2-  O180  1  0.32002932  0.07187493  0.23319290  1
  O2-  O181  1  0.31526036  0.08081002  0.57978433  1
  O2-  O182  1  0.32154238  0.07197926  0.90734041  1
  O2-  O183  1  0.32115265  0.57233696  0.23860014  1
  O2-  O184  1  0.31886816  0.56628845  0.57648068  1
  O2-  O185  1  0.32288794  0.57086663  0.90032440  1
  O2-  O186  1  0.81643763  0.07812236  0.24181998  1
  O2-  O187  1  0.82085960  0.07346514  0.56879572  1
  O2-  O188  1  0.81992569  0.07119031  0.91315647  1
  O2-  O189  1  0.81952292  0.56436306  0.23347781  1
  O2-  O190  1  0.82855412  0.56986374  0.57846194  1
  O2-  O191  1  0.82028681  0.57212820  0.91002281  1
  O2-  O192  1  0.05224324  0.08493021  0.26960439  1
  O2-  O193  1  0.04175823  0.08523933  0.60382929  1
  O2-  O194  1  0.04512041  0.07882057  0.92942921  1
  O2-  O195  1  0.03740750  0.58264420  0.26818033  1
  O2-  O196  1  0.04096923  0.58517547  0.60520029  1
  O2-  O197  1  0.03965193  0.58530274  0.92742049  1
  O2-  O198  1  0.53904414  0.08935070  0.27197776  1
  O2-  O199  1  0.55371258  0.08446783  0.60641631  1
  O2-  O200  1  0.53595313  0.09060902  0.93459254  1
  O2-  O201  1  0.54974667  0.57409723  0.26826778  1
  O2-  O202  1  0.54359780  0.58413583  0.59601124  1
  O2-  O203  1  0.54713951  0.58203721  0.94035466  1
  O2-  O204  1  0.16817158  0.20467035  0.27330126  1
  O2-  O205  1  0.16019357  0.20611942  0.60037874  1
  O2-  O206  1  0.17174975  0.20688473  0.92788118  1
  O2-  O207  1  0.16931403  0.70561235  0.26628205  1
  O2-  O208  1  0.16384219  0.70218429  0.60645999  1
  O2-  O209  1  0.16549329  0.71291687  0.92862900  1
  O2-  O210  1  0.65986273  0.20721832  0.26865069  1
  O2-  O211  1  0.66476145  0.21209178  0.60307819  1
  O2-  O212  1  0.66371367  0.19987724  0.93944772  1
  O2-  O213  1  0.66940076  0.70538493  0.26345670  1
  O2-  O214  1  0.67692548  0.70141158  0.60583892  1
  O2-  O215  1  0.66739196  0.70105618  0.93862865  1
  O2-  O216  1  0.07648395  0.45167448  0.05817144  1
  O2-  O217  1  0.07947613  0.45744407  0.40308977  1
  O2-  O218  1  0.08630035  0.45726011  0.73154857  1
  O2-  O219  1  0.08437944  0.95358193  0.06019852  1
  O2-  O220  1  0.08171265  0.95552012  0.39327144  1
  O2-  O221  1  0.08827217  0.96075026  0.73746621  1
  O2-  O222  1  0.58456506  0.45618993  0.07153174  1
  O2-  O223  1  0.58059158  0.44235729  0.39470838  1
  O2-  O224  1  0.58625367  0.45806189  0.72452879  1
  O2-  O225  1  0.58319222  0.96721200  0.06833678  1
  O2-  O226  1  0.58887524  0.96684720  0.40320055  1
  O2-  O227  1  0.57773543  0.95613710  0.73441951  1
  O2-  O228  1  0.20947647  0.33039517  0.06576599  1
  O2-  O229  1  0.20726518  0.33291500  0.40392090  1
  O2-  O230  1  0.20248343  0.33396261  0.72683471  1
  O2-  O231  1  0.20765918  0.83861822  0.06178319  1
  O2-  O232  1  0.19887344  0.83476610  0.39301613  1
  O2-  O233  1  0.21097992  0.82996719  0.73405186  1
  O2-  O234  1  0.70593389  0.32923404  0.06556749  1
  O2-  O235  1  0.70683047  0.33133021  0.39911785  1
  O2-  O236  1  0.70747336  0.34051977  0.72908469  1
  O2-  O237  1  0.70680708  0.83170929  0.06757723  1
  O2-  O238  1  0.70991723  0.83181140  0.40064238  1
  O2-  O239  1  0.71006580  0.83058059  0.73906759  1
  O2-  O240  1  0.45138904  0.41224901  0.27018716  1
  O2-  O241  1  0.46197150  0.41357919  0.59462177  1
  O2-  O242  1  0.45781626  0.41517250  0.94334144  1
  O2-  O243  1  0.46218579  0.92227498  0.26783196  1
  O2-  O244  1  0.44347218  0.92767237  0.60538025  1
  O2-  O245  1  0.46209085  0.91785500  0.92980847  1
  O2-  O246  1  0.95777685  0.41532995  0.26675644  1
  O2-  O247  1  0.95930216  0.41275864  0.60311773  1
  O2-  O248  1  0.95151546  0.41925748  0.92616413  1
  O2-  O249  1  0.94697525  0.92367096  0.26604716  1
  O2-  O250  1  0.96063813  0.91311709  0.61006722  1
  O2-  O251  1  0.94798240  0.91693491  0.93714986  1
  O2-  O252  1  0.33545765  0.28743987  0.27091190  1
  O2-  O253  1  0.33056324  0.29141355  0.59818235  1
  O2-  O254  1  0.34182022  0.29097743  0.93896708  1
  O2-  O255  1  0.33000605  0.80055216  0.26753353  1
  O2-  O256  1  0.33184713  0.78790934  0.59748262  1
  O2-  O257  1  0.33393858  0.79283245  0.93073417  1
  O2-  O258  1  0.83244644  0.28817750  0.26547663  1
  O2-  O259  1  0.83571556  0.29583744  0.60328015  1
  O2-  O260  1  0.82898985  0.28974676  0.92900361  1
  O2-  O261  1  0.83134069  0.78874052  0.26633417  1
  O2-  O262  1  0.83992947  0.79338304  0.61024485  1
  O2-  O263  1  0.83282894  0.79234923  0.93533641  1
  O2-  O264  1  0.41123687  0.04194881  0.06058860  1
  O2-  O265  1  0.41627779  0.04351747  0.40437124  1
  O2-  O266  1  0.41818792  0.06189838  0.72733597  1
  O2-  O267  1  0.41740571  0.54626798  0.06979969  1
  O2-  O268  1  0.42062044  0.54100470  0.40394341  1
  O2-  O269  1  0.41377389  0.53783217  0.72598079  1
  O2-  O270  1  0.91844546  0.04954716  0.06228044  1
  O2-  O271  1  0.91930488  0.05820770  0.38917604  1
  O2-  O272  1  0.91922204  0.04498897  0.73720691  1
  O2-  O273  1  0.91670517  0.54590100  0.05948142  1
  O2-  O274  1  0.91258043  0.53480653  0.40358316  1
  O2-  O275  1  0.91386993  0.53776224  0.73250576  1
  O2-  O276  1  0.29446450  0.16259790  0.06086468  1
  O2-  O277  1  0.28922295  0.16474722  0.40465285  1
  O2-  O278  1  0.28769224  0.16731470  0.73254721  1
  O2-  O279  1  0.29099861  0.67363072  0.06524687  1
  O2-  O280  1  0.29419391  0.67330626  0.40395424  1
  O2-  O281  1  0.29325476  0.65889191  0.72855918  1
  O2-  O282  1  0.79520917  0.16429717  0.06396365  1
  O2-  O283  1  0.78838910  0.16387612  0.39639910  1
  O2-  O284  1  0.79302104  0.17212276  0.73584723  1
  O2-  O285  1  0.79696524  0.66407480  0.06342689  1
  O2-  O286  1  0.79016777  0.66433777  0.40221810  1
  O2-  O287  1  0.80148602  0.66211672  0.73378719  1
