# generated using pymatgen
data_Ca2Al2SiO7
_symmetry_space_group_name_H-M   'P 1'
_cell_length_a   15.46354737
_cell_length_b   15.46293242
_cell_length_c   15.28720627
_cell_angle_alpha   90.00182064
_cell_angle_beta   89.99736407
_cell_angle_gamma   89.98867498
_symmetry_Int_Tables_number   1
_chemical_formula_structural   Ca2Al2SiO7
_chemical_formula_sum   'Ca48 Al48 Si24 O168'
_cell_volume   3655.35114754
_cell_formula_units_Z   24
loop_
 _symmetry_equiv_pos_site_id
 _symmetry_equiv_pos_as_xyz
  1  'x, y, z'
loop_
 _atom_type_symbol
 _atom_type_oxidation_number
  Ca2+  2.0
  Al0+  0.0
  Si0+  0.0
  O2-  -2.0
loop_
 _atom_site_type_symbol
 _atom_site_label
 _atom_site_symmetry_multiplicity
 _atom_site_fract_x
 _atom_site_fract_y
 _atom_site_fract_z
 _atom_site_occupancy
  Ca2+  Ca0  1  0.17585967  0.07802254  0.17176126  1
  Ca2+  Ca1  1  0.16391910  0.08030354  0.50285482  1
  Ca2+  Ca2  1  0.17286369  0.08506303  0.83737480  1
  Ca2+  Ca3  1  0.17503905  0.57615166  0.16983917  1
  Ca2+  Ca4  1  0.17532878  0.57575536  0.50609983  1
  Ca2+  Ca5  1  0.18100410  0.57770750  0.83831941  1
  Ca2+  Ca6  1  0.67134759  0.08473828  0.17769599  1
  Ca2+  Ca7  1  0.66487155  0.08513222  0.50549644  1
  Ca2+  Ca8  1  0.65410232  0.07446451  0.83110800  1
  Ca2+  Ca9  1  0.65569806  0.57398305  0.16869504  1
  Ca2+  Ca10  1  0.66492112  0.58092456  0.50568015  1
  Ca2+  Ca11  1  0.66605041  0.58315569  0.83477107  1
  Ca2+  Ca12  1  0.07935993  0.34557146  0.16536503  1
  Ca2+  Ca13  1  0.07395697  0.33412591  0.49591450  1
  Ca2+  Ca14  1  0.08374784  0.32970612  0.82390633  1
  Ca2+  Ca15  1  0.08456168  0.83779394  0.16720689  1
  Ca2+  Ca16  1  0.07943446  0.83440918  0.49645220  1
  Ca2+  Ca17  1  0.07519662  0.83121550  0.82546026  1
  Ca2+  Ca18  1  0.58439286  0.33335275  0.16850486  1
  Ca2+  Ca19  1  0.57508405  0.33287213  0.49079968  1
  Ca2+  Ca20  1  0.57890066  0.32867312  0.82590506  1
  Ca2+  Ca21  1  0.58087222  0.81895081  0.15881578  1
  Ca2+  Ca22  1  0.58551333  0.82326078  0.50198283  1
  Ca2+  Ca23  1  0.57372703  0.82382077  0.82497055  1
  Ca2+  Ca24  1  0.32663182  0.41790497  0.17207163  1
  Ca2+  Ca25  1  0.33579197  0.41493478  0.50469775  1
  Ca2+  Ca26  1  0.33765592  0.42718948  0.83769378  1
  Ca2+  Ca27  1  0.33634184  0.92042056  0.16877769  1
  Ca2+  Ca28  1  0.32961373  0.91253696  0.50624946  1
  Ca2+  Ca29  1  0.34543052  0.92221693  0.83845619  1
  Ca2+  Ca30  1  0.82048389  0.41401421  0.17482439  1
  Ca2+  Ca31  1  0.82924416  0.41579216  0.50455230  1
  Ca2+  Ca32  1  0.82911506  0.41858321  0.83474849  1
  Ca2+  Ca33  1  0.83128722  0.92679721  0.17599007  1
  Ca2+  Ca34  1  0.82751069  0.92389137  0.50900531  1
  Ca2+  Ca35  1  0.82571558  0.91219482  0.82985244  1
  Ca2+  Ca36  1  0.41608373  0.17012874  0.16691139  1
  Ca2+  Ca37  1  0.42898381  0.17694241  0.49765540  1
  Ca2+  Ca38  1  0.41670534  0.17429081  0.82354429  1
  Ca2+  Ca39  1  0.42469626  0.66808339  0.15849158  1
  Ca2+  Ca40  1  0.42672008  0.66298965  0.49861190  1
  Ca2+  Ca41  1  0.42249309  0.66644804  0.82640745  1
  Ca2+  Ca42  1  0.91313182  0.17270703  0.17011517  1
  Ca2+  Ca43  1  0.91619163  0.17599390  0.49642724  1
  Ca2+  Ca44  1  0.92782660  0.17544513  0.82252516  1
  Ca2+  Ca45  1  0.92100712  0.66618504  0.16356562  1
  Ca2+  Ca46  1  0.90669778  0.67248472  0.50131975  1
  Ca2+  Ca47  1  0.91636845  0.66878544  0.82266524  1
  Al0+  Al48  1  -0.00029113  0.00268420  -0.00105902  1
  Al0+  Al49  1  -0.00036548  0.00142524  0.34025675  1
  Al0+  Al50  1  -0.00067851  -0.00099241  0.66178114  1
  Al0+  Al51  1  -0.00195729  0.50187373  0.00009509  1
  Al0+  Al52  1  0.00137474  0.50214754  0.33267418  1
  Al0+  Al53  1  0.00009364  0.49994845  0.66811690  1
  Al0+  Al54  1  0.50137638  -0.00105243  0.00572173  1
  Al0+  Al55  1  0.50050884  -0.00032836  0.33181338  1
  Al0+  Al56  1  0.49847616  -0.00130682  0.66314722  1
  Al0+  Al57  1  0.50135788  0.49847713  0.00355159  1
  Al0+  Al58  1  0.49976635  0.50029423  0.32873679  1
  Al0+  Al59  1  0.49990713  0.49994523  0.66511080  1
  Al0+  Al60  1  0.24929469  0.24749213  0.00818647  1
  Al0+  Al61  1  0.24906908  0.24866905  0.33505875  1
  Al0+  Al62  1  0.24948866  0.24689940  0.65825712  1
  Al0+  Al63  1  0.24760836  0.75150596  -0.00042493  1
  Al0+  Al64  1  0.24932806  0.75055633  0.33682061  1
  Al0+  Al65  1  0.24869301  0.74882581  0.66983130  1
  Al0+  Al66  1  0.75119105  0.25000017  0.00067250  1
  Al0+  Al67  1  0.75150297  0.25165078  0.33490507  1
  Al0+  Al68  1  0.75278377  0.24811056  0.66459298  1
  Al0+  Al69  1  0.75030034  0.75051745  -0.00198267  1
  Al0+  Al70  1  0.75038276  0.75165880  0.32513605  1
  Al0+  Al71  1  0.74989899  0.75077650  0.66797729  1
  Al0+  Al72  1  0.32260025  0.06952701  0.01357483  1
  Al0+  Al73  1  0.42696490  0.32077148  0.31522428  1
  Al0+  Al74  1  0.57216700  0.17921919  0.31736980  1
  Al0+  Al75  1  0.68077437  0.42749175  0.01306775  1
  Al0+  Al76  1  0.32239769  0.57024848  0.67986063  1
  Al0+  Al77  1  0.32205980  0.57303304  0.01561760  1
  Al0+  Al78  1  0.18126043  0.92960789  0.34805747  1
  Al0+  Al79  1  0.92961092  0.32378508  0.65210396  1
  Al0+  Al80  1  0.92870149  0.81910230  0.65261340  1
  Al0+  Al81  1  0.42636711  0.82101635  0.65116274  1
  Al0+  Al82  1  0.81909998  0.07155474  0.34876906  1
  Al0+  Al83  1  0.57179367  0.68032410  0.31785615  1
  Al0+  Al84  1  0.07208684  0.17791972  0.65050452  1
  Al0+  Al85  1  0.42993903  0.32263498  0.65374362  1
  Al0+  Al86  1  0.67920965  0.43201729  0.34776759  1
  Al0+  Al87  1  0.67815434  0.93064655  0.68044453  1
  Al0+  Al88  1  0.17775913  0.42853117  0.34908555  1
  Al0+  Al89  1  0.57123671  0.67892400  0.65169185  1
  Al0+  Al90  1  0.82040252  0.57027113  0.67912652  1
  Al0+  Al91  1  0.42805540  0.82209952  0.98613992  1
  Al0+  Al92  1  0.93137711  0.32277980  0.31787074  1
  Al0+  Al93  1  0.17815837  0.42857932  0.01356393  1
  Al0+  Al94  1  0.57065365  0.67597597  0.98209239  1
  Al0+  Al95  1  0.57141064  0.17718178  0.65459393  1
  Si0+  Si96  1  0.17928718  0.42601248  0.68135456  1
  Si0+  Si97  1  0.82312575  0.57463596  0.34767103  1
  Si0+  Si98  1  0.07257340  0.68067514  0.31788067  1
  Si0+  Si99  1  0.17375441  0.92949912  0.01465115  1
  Si0+  Si100  1  0.07229687  0.67785923  0.64997449  1
  Si0+  Si101  1  0.07114264  0.17964395  0.98701809  1
  Si0+  Si102  1  0.06957283  0.67819233  0.98413584  1
  Si0+  Si103  1  0.32446263  0.07203813  0.35363981  1
  Si0+  Si104  1  0.93054042  0.82270086  0.31746001  1
  Si0+  Si105  1  0.31891567  0.06880511  0.68014127  1
  Si0+  Si106  1  0.17650576  0.92794158  0.68307431  1
  Si0+  Si107  1  0.82236418  0.07015848  0.01421250  1
  Si0+  Si108  1  0.57335549  0.17893124  0.98673580  1
  Si0+  Si109  1  0.93008412  0.82360692  0.98564381  1
  Si0+  Si110  1  0.82375856  0.07221282  0.68590007  1
  Si0+  Si111  1  0.82143609  0.57436833  0.01701219  1
  Si0+  Si112  1  0.07046950  0.17614491  0.31466446  1
  Si0+  Si113  1  0.42704936  0.31773171  0.98709691  1
  Si0+  Si114  1  0.68048295  0.92882456  0.01641242  1
  Si0+  Si115  1  0.67807734  0.92609427  0.34909455  1
  Si0+  Si116  1  0.92841442  0.32138804  0.98561410  1
  Si0+  Si117  1  0.32125252  0.57114724  0.35028407  1
  Si0+  Si118  1  0.42515449  0.82101521  0.31702894  1
  Si0+  Si119  1  0.67809165  0.42574338  0.68223985  1
  O2-  O120  1  0.24929337  -0.00882678  0.05727061  1
  O2-  O121  1  0.25684902  0.00150825  0.39693231  1
  O2-  O122  1  0.24884415  -0.00260263  0.72498570  1
  O2-  O123  1  0.25082660  0.49935155  0.06464366  1
  O2-  O124  1  0.25648963  0.49886255  0.39492288  1
  O2-  O125  1  0.24995824  0.49211687  0.72571160  1
  O2-  O126  1  0.75137484  0.00018625  0.05784626  1
  O2-  O127  1  0.74115853  -0.00052646  0.39332595  1
  O2-  O128  1  0.75087626  0.00757572  0.73011840  1
  O2-  O129  1  0.75191667  0.50654171  0.05978358  1
  O2-  O130  1  0.75378190  0.50783712  0.39223099  1
  O2-  O131  1  0.74732226  0.49440544  0.72662234  1
  O2-  O132  1  0.00759272  0.24965493  0.26885648  1
  O2-  O133  1  0.00051316  0.25079445  0.60242488  1
  O2-  O134  1  0.00501901  0.25549244  0.94530417  1
  O2-  O135  1  0.00089249  0.75147476  0.27456332  1
  O2-  O136  1  0.00205672  0.74414101  0.60428577  1
  O2-  O137  1  -0.00084599  0.75097939  0.94347048  1
  O2-  O138  1  0.49897835  0.24840059  0.26472607  1
  O2-  O139  1  0.50769723  0.25610785  0.60518939  1
  O2-  O140  1  0.49975419  0.24758556  0.94518824  1
  O2-  O141  1  0.49650201  0.75565029  0.27291308  1
  O2-  O142  1  0.49644347  0.74783049  0.60128346  1
  O2-  O143  1  0.49490203  0.74599582  0.93516477  1
  O2-  O144  1  0.06767837  0.17326675  0.09138669  1
  O2-  O145  1  0.06627628  0.17403650  0.41970196  1
  O2-  O146  1  0.07343282  0.17875178  0.76539387  1
  O2-  O147  1  0.06736277  0.67782186  0.08948162  1
  O2-  O148  1  0.07320961  0.68217902  0.42255865  1
  O2-  O149  1  0.07108698  0.68092144  0.75605007  1
  O2-  O150  1  0.57640426  0.18007220  0.09129618  1
  O2-  O151  1  0.57097039  0.18013377  0.43047588  1
  O2-  O152  1  0.56527448  0.17672566  0.76929686  1
  O2-  O153  1  0.57233108  0.68012679  0.09587614  1
  O2-  O154  1  0.57421582  0.68178891  0.43047132  1
  O2-  O155  1  0.57109157  0.67928114  0.76505975  1
  O2-  O156  1  0.17644588  0.43501280  0.23598675  1
  O2-  O157  1  0.17830931  0.42912642  0.57589347  1
  O2-  O158  1  0.17801434  0.42850247  0.89987286  1
  O2-  O159  1  0.18099192  0.93099246  0.23438242  1
  O2-  O160  1  0.17610786  0.92834009  0.57806797  1
  O2-  O161  1  0.16409522  0.93468234  0.90985002  1
  O2-  O162  1  0.68133735  0.43240993  0.23428492  1
  O2-  O163  1  0.67832020  0.42686084  0.57692655  1
  O2-  O164  1  0.68525217  0.42139133  0.90025229  1
  O2-  O165  1  0.68353360  0.92480334  0.24282615  1
  O2-  O166  1  0.68158613  0.93060833  0.56752785  1
  O2-  O167  1  0.68059540  0.92948488  0.91149428  1
  O2-  O168  1  0.42564776  0.31545161  0.09169663  1
  O2-  O169  1  0.42912835  0.32047712  0.42859133  1
  O2-  O170  1  0.42806585  0.32035428  0.76834113  1
  O2-  O171  1  0.43290049  0.82407537  0.09991691  1
  O2-  O172  1  0.42226913  0.81804126  0.42222751  1
  O2-  O173  1  0.42870046  0.82253596  0.76462052  1
  O2-  O174  1  0.92665113  0.31902139  0.09047788  1
  O2-  O175  1  0.93213194  0.32266338  0.43023820  1
  O2-  O176  1  0.93235845  0.32219968  0.76687159  1
  O2-  O177  1  0.93199531  0.82568745  0.09102050  1
  O2-  O178  1  0.92947354  0.82104288  0.42199837  1
  O2-  O179  1  0.93139082  0.81908358  0.76654427  1
  O2-  O180  1  0.32273521  0.07003425  0.24744720  1
  O2-  O181  1  0.31705400  0.06703984  0.57556147  1
  O2-  O182  1  0.32015602  0.07261379  0.90025925  1
  O2-  O183  1  0.31726738  0.57422839  0.24471665  1
  O2-  O184  1  0.31916957  0.57132495  0.56686599  1
  O2-  O185  1  0.31999741  0.57082673  0.90191255  1
  O2-  O186  1  0.82096173  0.06734187  0.23439692  1
  O2-  O187  1  0.82558619  0.06953124  0.58063494  1
  O2-  O188  1  0.82549886  0.06889296  0.90972316  1
  O2-  O189  1  0.82495281  0.57430274  0.24173336  1
  O2-  O190  1  0.81872721  0.57138432  0.56612681  1
  O2-  O191  1  0.82458720  0.57405758  0.91161702  1
  O2-  O192  1  0.03845910  0.08400589  0.26815076  1
  O2-  O193  1  0.04323263  0.08007342  0.59799221  1
  O2-  O194  1  0.03842286  0.09056887  0.93592883  1
  O2-  O195  1  0.04342461  0.59069054  0.26803956  1
  O2-  O196  1  0.04969688  0.58341413  0.60592226  1
  O2-  O197  1  0.03951859  0.58802682  0.93471144  1
  O2-  O198  1  0.54754712  0.07802674  0.26544609  1
  O2-  O199  1  0.53742208  0.08289857  0.59865259  1
  O2-  O200  1  0.54721988  0.08523447  0.94323720  1
  O2-  O201  1  0.53933316  0.58509251  0.26335845  1
  O2-  O202  1  0.54531919  0.58020246  0.59937884  1
  O2-  O203  1  0.54718593  0.57489243  0.93256233  1
  O2-  O204  1  0.16698950  0.19476739  0.27259750  1
  O2-  O205  1  0.16893716  0.20203639  0.59387536  1
  O2-  O206  1  0.16449360  0.20345396  0.94075260  1
  O2-  O207  1  0.16302581  0.71119527  0.26886419  1
  O2-  O208  1  0.16411642  0.70624214  0.60320008  1
  O2-  O209  1  0.16099683  0.70493998  0.93611277  1
  O2-  O210  1  0.67087710  0.20859826  0.26539652  1
  O2-  O211  1  0.67409390  0.19282098  0.60780532  1
  O2-  O212  1  0.66436356  0.20734521  0.93753674  1
  O2-  O213  1  0.66744801  0.71135855  0.26018183  1
  O2-  O214  1  0.66808733  0.71157160  0.59942251  1
  O2-  O215  1  0.67034393  0.70751438  0.93241893  1
  O2-  O216  1  0.07907512  0.45998922  0.06506816  1
  O2-  O217  1  0.08303384  0.46567594  0.40279118  1
  O2-  O218  1  0.08679190  0.45343050  0.72895793  1
  O2-  O219  1  0.08379346  0.96275061  0.06567614  1
  O2-  O220  1  0.08496606  0.96030569  0.40255297  1
  O2-  O221  1  0.08482668  0.95767379  0.73033375  1
  O2-  O222  1  0.58386950  0.45349273  0.06810461  1
  O2-  O223  1  0.58151383  0.46213483  0.39918421  1
  O2-  O224  1  0.58480858  0.45159303  0.72863930  1
  O2-  O225  1  0.59048023  0.95608911  0.06660448  1
  O2-  O226  1  0.58173157  0.94410429  0.39127407  1
  O2-  O227  1  0.58111351  0.96180985  0.73500049  1
  O2-  O228  1  0.20178257  0.33004544  0.06825862  1
  O2-  O229  1  0.20067797  0.32865780  0.39938445  1
  O2-  O230  1  0.20200751  0.32994151  0.72370235  1
  O2-  O231  1  0.19020608  0.83335760  0.05838495  1
  O2-  O232  1  0.20726124  0.83214937  0.40322054  1
  O2-  O233  1  0.19949688  0.83541391  0.73115852  1
  O2-  O234  1  0.71651330  0.33262668  0.06907032  1
  O2-  O235  1  0.71154863  0.33625887  0.40068791  1
  O2-  O236  1  0.70382675  0.33160854  0.72844028  1
  O2-  O237  1  0.71098782  0.83744800  0.06361725  1
  O2-  O238  1  0.71126142  0.83455714  0.39423944  1
  O2-  O239  1  0.71378338  0.83655342  0.73659483  1
  O2-  O240  1  0.45470172  0.41928953  0.26281473  1
  O2-  O241  1  0.45300165  0.42081158  0.59959137  1
  O2-  O242  1  0.45490920  0.41019092  0.94187114  1
  O2-  O243  1  0.44697153  0.91659687  0.27360722  1
  O2-  O244  1  0.45495084  0.91792440  0.59685061  1
  O2-  O245  1  0.46266698  0.92025980  0.93476662  1
  O2-  O246  1  0.96090001  0.42039218  0.26367219  1
  O2-  O247  1  0.95732928  0.42188113  0.59898765  1
  O2-  O248  1  0.94956477  0.41578560  0.94050399  1
  O2-  O249  1  0.96162547  0.91410438  0.27060687  1
  O2-  O250  1  0.95990700  0.91423678  0.59772309  1
  O2-  O251  1  0.95939427  0.91447764  0.93708752  1
  O2-  O252  1  0.32721398  0.29103091  0.26432497  1
  O2-  O253  1  0.33433405  0.28990324  0.59898663  1
  O2-  O254  1  0.33543974  0.28743362  0.94053443  1
  O2-  O255  1  0.33199676  0.79398528  0.26984534  1
  O2-  O256  1  0.32542931  0.79601851  0.60229769  1
  O2-  O257  1  0.32451931  0.80653186  0.93821930  1
  O2-  O258  1  0.83599198  0.28811756  0.26384300  1
  O2-  O259  1  0.83126709  0.29617975  0.59991633  1
  O2-  O260  1  0.83992089  0.28675408  0.93607847  1
  O2-  O261  1  0.84016419  0.79674440  0.26583251  1
  O2-  O262  1  0.83330135  0.78897204  0.59789869  1
  O2-  O263  1  0.83787899  0.79757033  0.93881895  1
  O2-  O264  1  0.41837570  0.04088340  0.07111680  1
  O2-  O265  1  0.41918195  0.04807124  0.39754173  1
  O2-  O266  1  0.41044403  0.04191538  0.72839532  1
  O2-  O267  1  0.42038607  0.54553694  0.06767181  1
  O2-  O268  1  0.41606953  0.54789380  0.39331793  1
  O2-  O269  1  0.41895817  0.54071849  0.73492967  1
  O2-  O270  1  0.91312602  0.04110380  0.06391356  1
  O2-  O271  1  0.91332560  0.03683464  0.40366749  1
  O2-  O272  1  0.91609622  0.04005414  0.73205610  1
  O2-  O273  1  0.91473719  0.54847757  0.06391873  1
  O2-  O274  1  0.91695890  0.55154820  0.39346350  1
  O2-  O275  1  0.91824267  0.54272351  0.73494983  1
  O2-  O276  1  0.28738709  0.16185301  0.07267792  1
  O2-  O277  1  0.29654774  0.16463217  0.39897471  1
  O2-  O278  1  0.28944634  0.16092275  0.72740837  1
  O2-  O279  1  0.29081980  0.67178938  0.06752034  1
  O2-  O280  1  0.29109405  0.66296423  0.39717805  1
  O2-  O281  1  0.28725972  0.66505924  0.73596771  1
  O2-  O282  1  0.79428010  0.16173861  0.06163319  1
  O2-  O283  1  0.79300713  0.16862039  0.40196427  1
  O2-  O284  1  0.80496410  0.16774315  0.73134095  1
  O2-  O285  1  0.80001508  0.66950982  0.06274341  1
  O2-  O286  1  0.79818240  0.67031722  0.38995489  1
  O2-  O287  1  0.79127276  0.66667916  0.73484315  1
