# generated using pymatgen
data_Ca2Al2SiO7
_symmetry_space_group_name_H-M   'P 1'
_cell_length_a   15.45832778
_cell_length_b   15.45745482
_cell_length_c   15.28343156
_cell_angle_alpha   89.98868512
_cell_angle_beta   89.99133693
_cell_angle_gamma   90.01579249
_symmetry_Int_Tables_number   1
_chemical_formula_structural   Ca2Al2SiO7
_chemical_formula_sum   'Ca48 Al48 Si24 O168'
_cell_volume   3651.92075048
_cell_formula_units_Z   24
loop_
 _symmetry_equiv_pos_site_id
 _symmetry_equiv_pos_as_xyz
  1  'x, y, z'
loop_
 _atom_type_symbol
 _atom_type_oxidation_number
  Ca2+  2.0
  Al0+  0.0
  Si0+  0.0
  O2-  -2.0
loop_
 _atom_site_type_symbol
 _atom_site_label
 _atom_site_symmetry_multiplicity
 _atom_site_fract_x
 _atom_site_fract_y
 _atom_site_fract_z
 _atom_site_occupancy
  Ca2+  Ca0  1  0.17511044  0.07670103  0.17042350  1
  Ca2+  Ca1  1  0.18316701  0.08533573  0.50390888  1
  Ca2+  Ca2  1  0.17696041  0.07707270  0.84151995  1
  Ca2+  Ca3  1  0.16412773  0.58055679  0.17605644  1
  Ca2+  Ca4  1  0.17219807  0.57827487  0.50034432  1
  Ca2+  Ca5  1  0.16781117  0.58377263  0.83398058  1
  Ca2+  Ca6  1  0.67696564  0.08908576  0.17244474  1
  Ca2+  Ca7  1  0.66618880  0.08799537  0.49971755  1
  Ca2+  Ca8  1  0.66872554  0.08225480  0.83870465  1
  Ca2+  Ca9  1  0.66737320  0.58321695  0.16449517  1
  Ca2+  Ca10  1  0.67005161  0.57517371  0.51123357  1
  Ca2+  Ca11  1  0.67599788  0.57692850  0.84266487  1
  Ca2+  Ca12  1  0.07865628  0.33406143  0.16068912  1
  Ca2+  Ca13  1  0.08808036  0.33856433  0.49666073  1
  Ca2+  Ca14  1  0.07760744  0.33669050  0.83143621  1
  Ca2+  Ca15  1  0.08683159  0.82252293  0.16207523  1
  Ca2+  Ca16  1  0.07345891  0.82601609  0.49100150  1
  Ca2+  Ca17  1  0.08065193  0.83107808  0.83087061  1
  Ca2+  Ca18  1  0.57884747  0.33233070  0.16484899  1
  Ca2+  Ca19  1  0.57883038  0.32576970  0.49421800  1
  Ca2+  Ca20  1  0.58841295  0.33009174  0.82768079  1
  Ca2+  Ca21  1  0.57629489  0.82840210  0.16510676  1
  Ca2+  Ca22  1  0.57600912  0.82842104  0.49249580  1
  Ca2+  Ca23  1  0.58829840  0.82422895  0.83253005  1
  Ca2+  Ca24  1  0.32737459  0.42270521  0.17984356  1
  Ca2+  Ca25  1  0.32676820  0.42173614  0.50203290  1
  Ca2+  Ca26  1  0.32820985  0.41973459  0.83186962  1
  Ca2+  Ca27  1  0.33251924  0.92217178  0.17089062  1
  Ca2+  Ca28  1  0.34273430  0.92585141  0.50105570  1
  Ca2+  Ca29  1  0.33070781  0.92857881  0.84127092  1
  Ca2+  Ca30  1  0.83066862  0.41785467  0.16414423  1
  Ca2+  Ca31  1  0.82655401  0.42560523  0.50894866  1
  Ca2+  Ca32  1  0.82480125  0.42251352  0.84091651  1
  Ca2+  Ca33  1  0.83720801  0.92597522  0.17311901  1
  Ca2+  Ca34  1  0.83927911  0.91763506  0.50043885  1
  Ca2+  Ca35  1  0.83706788  0.92151807  0.83790227  1
  Ca2+  Ca36  1  0.41368912  0.16843011  0.16725823  1
  Ca2+  Ca37  1  0.42465100  0.16778757  0.48977003  1
  Ca2+  Ca38  1  0.41944732  0.16481664  0.82483861  1
  Ca2+  Ca39  1  0.41466882  0.67085719  0.16206597  1
  Ca2+  Ca40  1  0.40946556  0.66853520  0.49178923  1
  Ca2+  Ca41  1  0.42079233  0.66372609  0.83066929  1
  Ca2+  Ca42  1  0.91249853  0.16953900  0.15983206  1
  Ca2+  Ca43  1  0.91953291  0.16886030  0.49256484  1
  Ca2+  Ca44  1  0.91005557  0.17362068  0.83322365  1
  Ca2+  Ca45  1  0.92831172  0.66523740  0.15968640  1
  Ca2+  Ca46  1  0.91691434  0.67484647  0.49282827  1
  Ca2+  Ca47  1  0.91833968  0.66445741  0.82836303  1
  Al0+  Al48  1  0.00268068  -0.00056907  0.00746492  1
  Al0+  Al49  1  -0.00041229  0.00181671  0.33501362  1
  Al0+  Al50  1  0.00079407  0.00054998  0.66189274  1
  Al0+  Al51  1  -0.00131839  0.50016332  -0.00700597  1
  Al0+  Al52  1  -0.00207440  0.49988239  0.33482623  1
  Al0+  Al53  1  0.00076663  0.50041855  0.67072987  1
  Al0+  Al54  1  0.50023993  0.00139265  0.00342508  1
  Al0+  Al55  1  0.50348239  -0.00248483  0.32741997  1
  Al0+  Al56  1  0.50298867  -0.00020981  0.66763609  1
  Al0+  Al57  1  0.49990655  0.49896420  -0.00192734  1
  Al0+  Al58  1  0.50007578  0.49815283  0.33429549  1
  Al0+  Al59  1  0.49885650  0.49768115  0.67216256  1
  Al0+  Al60  1  0.25029704  0.25097526  0.00140192  1
  Al0+  Al61  1  0.24986463  0.24891695  0.33664752  1
  Al0+  Al62  1  0.25005737  0.25039317  0.67494053  1
  Al0+  Al63  1  0.24924953  0.75115894  -0.00463201  1
  Al0+  Al64  1  0.24895665  0.75004427  0.32870758  1
  Al0+  Al65  1  0.24910450  0.75059568  0.66830637  1
  Al0+  Al66  1  0.74836047  0.25091630  0.00235551  1
  Al0+  Al67  1  0.75059360  0.24917867  0.33553786  1
  Al0+  Al68  1  0.75077800  0.24932423  0.66350293  1
  Al0+  Al69  1  0.75000931  0.74972628  0.00053574  1
  Al0+  Al70  1  0.74964810  0.75264535  0.32916906  1
  Al0+  Al71  1  0.75001809  0.75185694  0.66465205  1
  Al0+  Al72  1  0.06827878  0.67849084  0.31869307  1
  Al0+  Al73  1  0.57207468  0.17937936  0.31575048  1
  Al0+  Al74  1  0.32255080  0.06826677  0.34753197  1
  Al0+  Al75  1  0.07120474  0.67887959  0.98264447  1
  Al0+  Al76  1  0.32361242  0.06905846  0.67964433  1
  Al0+  Al77  1  0.57063120  0.67871268  0.98573503  1
  Al0+  Al78  1  0.32219896  0.57267784  0.34536287  1
  Al0+  Al79  1  0.82249591  0.57166677  0.01679709  1
  Al0+  Al80  1  0.17996416  0.92712416  0.01606048  1
  Al0+  Al81  1  0.67734471  0.42893008  0.01766124  1
  Al0+  Al82  1  0.17634861  0.42822365  0.34660053  1
  Al0+  Al83  1  0.17848832  0.42846968  0.68469511  1
  Al0+  Al84  1  0.57129831  0.17859756  0.65283221  1
  Al0+  Al85  1  0.92898012  0.82171551  0.65242290  1
  Al0+  Al86  1  0.92767580  0.82344567  0.31523919  1
  Al0+  Al87  1  0.81952813  0.07003603  0.01176048  1
  Al0+  Al88  1  0.42746638  0.32072663  0.31885699  1
  Al0+  Al89  1  0.42860383  0.81977436  0.31986324  1
  Al0+  Al90  1  0.82121168  0.07126222  0.34959518  1
  Al0+  Al91  1  0.81953248  0.57398855  0.68079032  1
  Al0+  Al92  1  0.32087152  0.57413747  0.68326065  1
  Al0+  Al93  1  0.32273582  0.07325713  0.01733620  1
  Al0+  Al94  1  0.67949868  0.42637648  0.68108398  1
  Al0+  Al95  1  0.92821384  0.31855926  0.98581398  1
  Si0+  Si96  1  0.82312318  0.07034175  0.68010934  1
  Si0+  Si97  1  0.07177488  0.17955652  0.65238017  1
  Si0+  Si98  1  0.57002772  0.67811239  0.65335558  1
  Si0+  Si99  1  0.67902277  0.42851350  0.34911566  1
  Si0+  Si100  1  0.81944423  0.57206649  0.34698687  1
  Si0+  Si101  1  0.92876156  0.32058084  0.31997937  1
  Si0+  Si102  1  0.67929659  0.92956671  0.68118286  1
  Si0+  Si103  1  0.07212505  0.17939572  0.31930524  1
  Si0+  Si104  1  0.17787042  0.92746323  0.35142323  1
  Si0+  Si105  1  0.92987563  0.32104157  0.65089774  1
  Si0+  Si106  1  0.42961198  0.82061293  0.65409898  1
  Si0+  Si107  1  0.57291171  0.67544618  0.31841042  1
  Si0+  Si108  1  0.17829692  0.43049566  0.01418089  1
  Si0+  Si109  1  0.42577316  0.32160008  0.65046111  1
  Si0+  Si110  1  0.07278384  0.67716503  0.64819499  1
  Si0+  Si111  1  0.42678048  0.32132915  0.98311041  1
  Si0+  Si112  1  0.67716083  0.92632887  0.01756303  1
  Si0+  Si113  1  0.92866466  0.82404319  0.98414971  1
  Si0+  Si114  1  0.32089805  0.57020022  0.01343356  1
  Si0+  Si115  1  0.67933386  0.92697517  0.35114962  1
  Si0+  Si116  1  0.17640511  0.93002476  0.68121131  1
  Si0+  Si117  1  0.07326704  0.17736721  0.98375813  1
  Si0+  Si118  1  0.42902284  0.82315270  0.98120660  1
  Si0+  Si119  1  0.56996667  0.18004375  0.98497959  1
  O2-  O120  1  0.25206353  -0.00065636  0.06545554  1
  O2-  O121  1  0.24930531  -0.00697920  0.39676560  1
  O2-  O122  1  0.24835029  -0.00500124  0.72588199  1
  O2-  O123  1  0.24798883  0.50207382  0.05655177  1
  O2-  O124  1  0.25051961  0.49953081  0.39413732  1
  O2-  O125  1  0.24868963  0.50264483  0.73403186  1
  O2-  O126  1  0.74765554  -0.00627156  0.06021982  1
  O2-  O127  1  0.74849170  -0.00516116  0.39650575  1
  O2-  O128  1  0.75195376  -0.00028936  0.72227590  1
  O2-  O129  1  0.74875507  0.50168842  0.06772589  1
  O2-  O130  1  0.74559800  0.50441429  0.38999035  1
  O2-  O131  1  0.74843020  0.50118459  0.73074608  1
  O2-  O132  1  0.00158947  0.25141627  0.27805494  1
  O2-  O133  1  0.00315381  0.25242150  0.60844593  1
  O2-  O134  1  0.00186203  0.24250482  0.93799410  1
  O2-  O135  1  -0.00147858  0.75103010  0.26555948  1
  O2-  O136  1  0.00120802  0.74432477  0.60619224  1
  O2-  O137  1  -0.00546861  0.75354854  0.93838333  1
  O2-  O138  1  0.49812182  0.24899789  0.26554328  1
  O2-  O139  1  0.49544212  0.25282860  0.60768136  1
  O2-  O140  1  0.49640576  0.24788154  0.94212479  1
  O2-  O141  1  0.49916672  0.73962777  0.27563251  1
  O2-  O142  1  0.49463156  0.74423991  0.61082658  1
  O2-  O143  1  0.49797054  0.75481531  0.93661919  1
  O2-  O144  1  0.07441113  0.18110760  0.08946463  1
  O2-  O145  1  0.07106679  0.17889604  0.42486415  1
  O2-  O146  1  0.06829186  0.17673753  0.75729147  1
  O2-  O147  1  0.07209819  0.67695517  0.09538712  1
  O2-  O148  1  0.06534897  0.67767880  0.43248975  1
  O2-  O149  1  0.07368483  0.67994353  0.75386520  1
  O2-  O150  1  0.57134523  0.18141176  0.08950429  1
  O2-  O151  1  0.57218880  0.18228912  0.42975198  1
  O2-  O152  1  0.57126464  0.17672626  0.76637872  1
  O2-  O153  1  0.56617171  0.67980117  0.09887549  1
  O2-  O154  1  0.57632105  0.67790124  0.42448701  1
  O2-  O155  1  0.57183762  0.68235933  0.75819453  1
  O2-  O156  1  0.17404420  0.42930460  0.23256638  1
  O2-  O157  1  0.17962155  0.42774060  0.57141894  1
  O2-  O158  1  0.18076233  0.42936547  0.90932989  1
  O2-  O159  1  0.17843707  0.93023074  0.24605566  1
  O2-  O160  1  0.17572354  0.93285003  0.57584735  1
  O2-  O161  1  0.18102036  0.92967469  0.90159524  1
  O2-  O162  1  0.68037531  0.42723202  0.24432054  1
  O2-  O163  1  0.68187053  0.42788082  0.56680342  1
  O2-  O164  1  0.67909763  0.42770394  0.90420598  1
  O2-  O165  1  0.67961652  0.92598577  0.24576386  1
  O2-  O166  1  0.67619958  0.92861227  0.57657142  1
  O2-  O167  1  0.67593070  0.92823481  0.91124329  1
  O2-  O168  1  0.42537894  0.32262190  0.08780880  1
  O2-  O169  1  0.42978008  0.32076099  0.43260533  1
  O2-  O170  1  0.42548093  0.31948852  0.75650870  1
  O2-  O171  1  0.42924582  0.82166431  0.08668107  1
  O2-  O172  1  0.43255957  0.82100132  0.43378514  1
  O2-  O173  1  0.43360387  0.82267360  0.75897889  1
  O2-  O174  1  0.93073870  0.31737952  0.09937901  1
  O2-  O175  1  0.92792172  0.31970057  0.42542708  1
  O2-  O176  1  0.92767917  0.31710091  0.75575561  1
  O2-  O177  1  0.93037322  0.82454337  0.08917400  1
  O2-  O178  1  0.92850422  0.82007262  0.42935827  1
  O2-  O179  1  0.93137598  0.82650826  0.76537546  1
  O2-  O180  1  0.31849974  0.06820236  0.23503296  1
  O2-  O181  1  0.32449024  0.06782501  0.56656690  1
  O2-  O182  1  0.32289976  0.07203212  0.90309731  1
  O2-  O183  1  0.32162517  0.57151788  0.23130260  1
  O2-  O184  1  0.31993841  0.57613711  0.57009981  1
  O2-  O185  1  0.32094318  0.56763917  0.90837310  1
  O2-  O186  1  0.81958857  0.07318491  0.23656599  1
  O2-  O187  1  0.82379658  0.07017030  0.57535273  1
  O2-  O188  1  0.81677055  0.06963481  0.89777396  1
  O2-  O189  1  0.82053042  0.56918529  0.24231105  1
  O2-  O190  1  0.81628027  0.57297505  0.56625863  1
  O2-  O191  1  0.82108309  0.57047576  0.90324545  1
  O2-  O192  1  0.04276826  0.08864164  0.27144418  1
  O2-  O193  1  0.04234906  0.08997208  0.60148993  1
  O2-  O194  1  0.05092643  0.08179969  0.94062855  1
  O2-  O195  1  0.03694343  0.58018148  0.26587545  1
  O2-  O196  1  0.04992122  0.58179525  0.60506864  1
  O2-  O197  1  0.04082823  0.58318880  0.92685368  1
  O2-  O198  1  0.55013502  0.07947712  0.26455406  1
  O2-  O199  1  0.54214305  0.08100864  0.59906020  1
  O2-  O200  1  0.54594114  0.08599173  0.93867558  1
  O2-  O201  1  0.55384825  0.58035090  0.27397848  1
  O2-  O202  1  0.54759316  0.58364116  0.60883897  1
  O2-  O203  1  0.53864881  0.58272181  0.93087506  1
  O2-  O204  1  0.16320757  0.20564132  0.27077070  1
  O2-  O205  1  0.16507804  0.20671295  0.60730950  1
  O2-  O206  1  0.16558271  0.20698223  0.93624506  1
  O2-  O207  1  0.16687787  0.70448066  0.26523507  1
  O2-  O208  1  0.16579180  0.70588035  0.60212525  1
  O2-  O209  1  0.16730716  0.71110773  0.92715354  1
  O2-  O210  1  0.67058401  0.21201428  0.26505467  1
  O2-  O211  1  0.66830896  0.20795673  0.59787961  1
  O2-  O212  1  0.66062713  0.20988329  0.93628840  1
  O2-  O213  1  0.66325567  0.70700073  0.26917096  1
  O2-  O214  1  0.65925752  0.71086849  0.60359058  1
  O2-  O215  1  0.66765873  0.71002205  0.93136484  1
  O2-  O216  1  0.08543058  0.45679416  0.05861755  1
  O2-  O217  1  0.07828588  0.45693449  0.40164470  1
  O2-  O218  1  0.07926963  0.45394405  0.73716012  1
  O2-  O219  1  0.08310677  0.95424054  0.07193185  1
  O2-  O220  1  0.08534184  0.95667586  0.39756739  1
  O2-  O221  1  0.08479686  0.96074230  0.72898896  1
  O2-  O222  1  0.57814773  0.45770564  0.06894231  1
  O2-  O223  1  0.58657249  0.45192627  0.39701487  1
  O2-  O224  1  0.57959578  0.44772169  0.73237880  1
  O2-  O225  1  0.58437258  0.95316050  0.06391801  1
  O2-  O226  1  0.58617334  0.95340725  0.39759181  1
  O2-  O227  1  0.59010922  0.95872295  0.73286387  1
  O2-  O228  1  0.20555877  0.33853331  0.06127137  1
  O2-  O229  1  0.20283069  0.32990877  0.40058125  1
  O2-  O230  1  0.20650456  0.33115619  0.74098929  1
  O2-  O231  1  0.21004158  0.82859728  0.06755891  1
  O2-  O232  1  0.20007100  0.83249301  0.39506884  1
  O2-  O233  1  0.19774102  0.83528735  0.72592466  1
  O2-  O234  1  0.70796852  0.33172856  0.07093290  1
  O2-  O235  1  0.71256089  0.33928417  0.39767092  1
  O2-  O236  1  0.71221741  0.32862674  0.73336868  1
  O2-  O237  1  0.69916547  0.83241252  0.06327032  1
  O2-  O238  1  0.70369721  0.83294937  0.39869168  1
  O2-  O239  1  0.70695843  0.83834826  0.72970979  1
  O2-  O240  1  0.45666117  0.41931316  0.26557110  1
  O2-  O241  1  0.45047102  0.41614539  0.60581380  1
  O2-  O242  1  0.45615636  0.41179681  0.93415557  1
  O2-  O243  1  0.46552606  0.91199318  0.26184159  1
  O2-  O244  1  0.46465684  0.90953274  0.60521763  1
  O2-  O245  1  0.45601282  0.91776352  0.93691710  1
  O2-  O246  1  0.95365940  0.41258877  0.27229298  1
  O2-  O247  1  0.95535332  0.41436772  0.60499889  1
  O2-  O248  1  0.95992546  0.41317634  0.92933937  1
  O2-  O249  1  0.95509641  0.92395103  0.26705614  1
  O2-  O250  1  0.96136987  0.91763573  0.59633481  1
  O2-  O251  1  0.95725879  0.91782614  0.93824668  1
  O2-  O252  1  0.32824232  0.29277361  0.26682755  1
  O2-  O253  1  0.33147748  0.29538437  0.60670241  1
  O2-  O254  1  0.33464889  0.29430529  0.93488105  1
  O2-  O255  1  0.33187763  0.79490342  0.26406897  1
  O2-  O256  1  0.33539923  0.80011572  0.60807360  1
  O2-  O257  1  0.33632052  0.79755396  0.93375829  1
  O2-  O258  1  0.83858119  0.28968919  0.27211535  1
  O2-  O259  1  0.84005975  0.29028797  0.60090934  1
  O2-  O260  1  0.83167549  0.28607749  0.93161608  1
  O2-  O261  1  0.82767400  0.79971929  0.26402268  1
  O2-  O262  1  0.83092860  0.79487615  0.59779312  1
  O2-  O263  1  0.83283756  0.80349217  0.93998072  1
  O2-  O264  1  0.42172016  0.04648983  0.06922147  1
  O2-  O265  1  0.42104926  0.03651669  0.39734905  1
  O2-  O266  1  0.41912415  0.03609543  0.73473884  1
  O2-  O267  1  0.41162316  0.54078328  0.06053526  1
  O2-  O268  1  0.42148562  0.54684637  0.39923931  1
  O2-  O269  1  0.41905151  0.54512578  0.73666736  1
  O2-  O270  1  0.91731665  0.04562570  0.06592136  1
  O2-  O271  1  0.91882595  0.04379987  0.40419169  1
  O2-  O272  1  0.91477594  0.04251902  0.72763689  1
  O2-  O273  1  0.92066951  0.53818514  0.06701262  1
  O2-  O274  1  0.90857131  0.54069810  0.39703966  1
  O2-  O275  1  0.91878861  0.54791166  0.73088589  1
  O2-  O276  1  0.29213178  0.17160797  0.06881550  1
  O2-  O277  1  0.28992869  0.16388119  0.40219610  1
  O2-  O278  1  0.29340401  0.16452966  0.73474586  1
  O2-  O279  1  0.29704657  0.66471168  0.05583337  1
  O2-  O280  1  0.29369468  0.67149243  0.39770840  1
  O2-  O281  1  0.29445383  0.67339688  0.73709939  1
  O2-  O282  1  0.78607697  0.16480259  0.06668383  1
  O2-  O283  1  0.78920590  0.16732688  0.40507423  1
  O2-  O284  1  0.79491217  0.16220068  0.72647217  1
  O2-  O285  1  0.79576249  0.67126665  0.06792121  1
  O2-  O286  1  0.79420243  0.66594564  0.39157135  1
  O2-  O287  1  0.79113304  0.67260487  0.73310951  1
