# generated using pymatgen
data_Ca2Al2SiO7
_symmetry_space_group_name_H-M   'P 1'
_cell_length_a   15.46402659
_cell_length_b   15.46371803
_cell_length_c   15.28884893
_cell_angle_alpha   89.99308314
_cell_angle_beta   90.00132685
_cell_angle_gamma   90.00985386
_symmetry_Int_Tables_number   1
_chemical_formula_structural   Ca2Al2SiO7
_chemical_formula_sum   'Ca48 Al48 Si24 O168'
_cell_volume   3656.04295594
_cell_formula_units_Z   24
loop_
 _symmetry_equiv_pos_site_id
 _symmetry_equiv_pos_as_xyz
  1  'x, y, z'
loop_
 _atom_type_symbol
 _atom_type_oxidation_number
  Ca2+  2.0
  Al0+  0.0
  Si0+  0.0
  O2-  -2.0
loop_
 _atom_site_type_symbol
 _atom_site_label
 _atom_site_symmetry_multiplicity
 _atom_site_fract_x
 _atom_site_fract_y
 _atom_site_fract_z
 _atom_site_occupancy
  Ca2+  Ca0  1  0.16154238  0.08218957  0.17315647  1
  Ca2+  Ca1  1  0.16950110  0.07937224  0.50145986  1
  Ca2+  Ca2  1  0.17318448  0.08684509  0.83522677  1
  Ca2+  Ca3  1  0.17997334  0.57271810  0.17408262  1
  Ca2+  Ca4  1  0.17735107  0.57385535  0.50866392  1
  Ca2+  Ca5  1  0.18038531  0.57051531  0.84034653  1
  Ca2+  Ca6  1  0.67024279  0.07679350  0.17717636  1
  Ca2+  Ca7  1  0.66390570  0.08018879  0.50635524  1
  Ca2+  Ca8  1  0.65689498  0.08386631  0.83770133  1
  Ca2+  Ca9  1  0.66863021  0.59233125  0.16753270  1
  Ca2+  Ca10  1  0.66755972  0.58330803  0.50828704  1
  Ca2+  Ca11  1  0.66800760  0.58788775  0.83671338  1
  Ca2+  Ca12  1  0.09302795  0.32610891  0.16278827  1
  Ca2+  Ca13  1  0.08815255  0.33279582  0.49400090  1
  Ca2+  Ca14  1  0.09180683  0.33512429  0.83137410  1
  Ca2+  Ca15  1  0.07701265  0.83599961  0.16079147  1
  Ca2+  Ca16  1  0.08433102  0.83319650  0.49373009  1
  Ca2+  Ca17  1  0.07423694  0.83129832  0.83186490  1
  Ca2+  Ca18  1  0.57558545  0.32596799  0.15623175  1
  Ca2+  Ca19  1  0.57573753  0.34075384  0.50183541  1
  Ca2+  Ca20  1  0.57410342  0.32937917  0.82476786  1
  Ca2+  Ca21  1  0.58722062  0.82494833  0.16445021  1
  Ca2+  Ca22  1  0.57612288  0.82378365  0.49739769  1
  Ca2+  Ca23  1  0.57645723  0.82016377  0.82692329  1
  Ca2+  Ca24  1  0.33133393  0.42105960  0.16611892  1
  Ca2+  Ca25  1  0.32659986  0.42148278  0.50640259  1
  Ca2+  Ca26  1  0.33611734  0.41959964  0.83770264  1
  Ca2+  Ca27  1  0.32561486  0.92079839  0.17407934  1
  Ca2+  Ca28  1  0.33331011  0.91990061  0.50716919  1
  Ca2+  Ca29  1  0.34486336  0.92268813  0.83073879  1
  Ca2+  Ca30  1  0.83183850  0.42257202  0.16661592  1
  Ca2+  Ca31  1  0.82443832  0.42189277  0.51256034  1
  Ca2+  Ca32  1  0.82486419  0.42806825  0.83367259  1
  Ca2+  Ca33  1  0.82923419  0.92106063  0.17420853  1
  Ca2+  Ca34  1  0.82639279  0.92294993  0.49670441  1
  Ca2+  Ca35  1  0.83123819  0.91658767  0.83936970  1
  Ca2+  Ca36  1  0.42025208  0.17448553  0.15534348  1
  Ca2+  Ca37  1  0.41566158  0.17034904  0.50530446  1
  Ca2+  Ca38  1  0.42025742  0.17814173  0.82575787  1
  Ca2+  Ca39  1  0.42403354  0.65874580  0.16298319  1
  Ca2+  Ca40  1  0.42412163  0.65473875  0.49796417  1
  Ca2+  Ca41  1  0.42067359  0.66386238  0.82481703  1
  Ca2+  Ca42  1  0.92647240  0.16324911  0.16389257  1
  Ca2+  Ca43  1  0.92167857  0.16864703  0.49053535  1
  Ca2+  Ca44  1  0.92542762  0.17005587  0.83181083  1
  Ca2+  Ca45  1  0.91646651  0.67408942  0.15622678  1
  Ca2+  Ca46  1  0.91721412  0.66354989  0.49782914  1
  Ca2+  Ca47  1  0.91017726  0.66632249  0.83015921  1
  Al0+  Al48  1  -0.00110863  0.00033800  -0.00935925  1
  Al0+  Al49  1  -0.00031628  0.00094723  0.33757565  1
  Al0+  Al50  1  -0.00134179  -0.00028788  0.66574189  1
  Al0+  Al51  1  -0.00027200  0.49952468  0.00886602  1
  Al0+  Al52  1  0.00030394  0.50010041  0.33337563  1
  Al0+  Al53  1  -0.00113166  0.50026321  0.67339901  1
  Al0+  Al54  1  0.50010261  -0.00270052  0.00184882  1
  Al0+  Al55  1  0.49975927  -0.00201827  0.33685356  1
  Al0+  Al56  1  0.49957081  -0.00148559  0.66416038  1
  Al0+  Al57  1  0.50143914  0.49874476  -0.00294580  1
  Al0+  Al58  1  0.50198300  0.50022657  0.32861942  1
  Al0+  Al59  1  0.49966902  0.49755280  0.66404834  1
  Al0+  Al60  1  0.25100655  0.24817526  -0.00394663  1
  Al0+  Al61  1  0.24993298  0.25029231  0.33098044  1
  Al0+  Al62  1  0.25071244  0.24550694  0.66773358  1
  Al0+  Al63  1  0.24914768  0.75102756  0.00354980  1
  Al0+  Al64  1  0.25183272  0.75066311  0.33963815  1
  Al0+  Al65  1  0.24541898  0.75017450  0.66813886  1
  Al0+  Al66  1  0.75436368  0.24937598  -0.00174309  1
  Al0+  Al67  1  0.75125185  0.25224686  0.33455453  1
  Al0+  Al68  1  0.75347963  0.24980530  0.66844934  1
  Al0+  Al69  1  0.74936138  0.75219680  -0.00358007  1
  Al0+  Al70  1  0.74930715  0.75187145  0.33456107  1
  Al0+  Al71  1  0.74974030  0.75440568  0.66413858  1
  Al0+  Al72  1  0.32431420  0.57286043  0.01593810  1
  Al0+  Al73  1  0.06987977  0.18026651  0.98485049  1
  Al0+  Al74  1  0.81888622  0.57404652  0.68080655  1
  Al0+  Al75  1  0.92975622  0.81938999  0.98654440  1
  Al0+  Al76  1  0.17894233  0.42689487  0.68194900  1
  Al0+  Al77  1  0.67777054  0.42725668  0.68130730  1
  Al0+  Al78  1  0.43056929  0.31954951  0.98441247  1
  Al0+  Al79  1  0.57426829  0.17565039  0.98837676  1
  Al0+  Al80  1  0.18010506  0.42624177  0.01703147  1
  Al0+  Al81  1  0.32086683  0.06696079  0.68057553  1
  Al0+  Al82  1  0.17872952  0.92957443  0.34557304  1
  Al0+  Al83  1  0.67759535  0.92820751  0.35046300  1
  Al0+  Al84  1  0.32165151  0.57153715  0.68192711  1
  Al0+  Al85  1  0.42546081  0.81975805  0.65166407  1
  Al0+  Al86  1  0.17894303  0.42787459  0.34871188  1
  Al0+  Al87  1  0.81835787  0.57309566  0.01502116  1
  Al0+  Al88  1  0.56927313  0.68068484  0.98693538  1
  Al0+  Al89  1  0.06926851  0.18063614  0.32050197  1
  Al0+  Al90  1  0.82030056  0.07239775  0.34780320  1
  Al0+  Al91  1  0.57041094  0.67824061  0.65093485  1
  Al0+  Al92  1  0.57031702  0.68033546  0.31763740  1
  Al0+  Al93  1  0.32381995  0.57004848  0.34911115  1
  Al0+  Al94  1  0.57334113  0.17900777  0.65087157  1
  Al0+  Al95  1  0.42755523  0.32086962  0.64890108  1
  Si0+  Si96  1  0.06714143  0.67847019  0.65247582  1
  Si0+  Si97  1  0.43045658  0.31943484  0.31686011  1
  Si0+  Si98  1  0.17545383  0.93073461  0.01350948  1
  Si0+  Si99  1  0.17392093  0.92754759  0.68568350  1
  Si0+  Si100  1  0.67961538  0.93070029  0.01451725  1
  Si0+  Si101  1  0.82306716  0.07144439  0.68376570  1
  Si0+  Si102  1  0.07274616  0.67687389  0.98518911  1
  Si0+  Si103  1  0.93150164  0.81927495  0.31931810  1
  Si0+  Si104  1  0.82098634  0.57266362  0.34643741  1
  Si0+  Si105  1  0.92579950  0.32492317  0.31576369  1
  Si0+  Si106  1  0.93158839  0.32187703  0.65259813  1
  Si0+  Si107  1  0.32079057  0.06845599  0.01456044  1
  Si0+  Si108  1  0.92842819  0.82343711  0.64778117  1
  Si0+  Si109  1  0.67927750  0.42653008  0.01697103  1
  Si0+  Si110  1  0.68032192  0.42936550  0.34605897  1
  Si0+  Si111  1  0.42429877  0.82256880  0.98548175  1
  Si0+  Si112  1  0.57292824  0.17754752  0.32002436  1
  Si0+  Si113  1  0.42615276  0.82406734  0.31555037  1
  Si0+  Si114  1  0.32290739  0.07279398  0.34878780  1
  Si0+  Si115  1  0.82359659  0.07092281  0.01351409  1
  Si0+  Si116  1  0.07337430  0.67756104  0.31919710  1
  Si0+  Si117  1  0.92766478  0.32548000  0.98190890  1
  Si0+  Si118  1  0.07036618  0.17758703  0.64992458  1
  Si0+  Si119  1  0.67961808  0.93221948  0.68346961  1
  O2-  O120  1  0.24867270  -0.00142840  0.05672323  1
  O2-  O121  1  0.25540760  0.00198146  0.39145899  1
  O2-  O122  1  0.24732116  -0.00897027  0.72914645  1
  O2-  O123  1  0.25083443  0.50098825  0.06458470  1
  O2-  O124  1  0.24833033  0.50158992  0.39820307  1
  O2-  O125  1  0.25424509  0.49505492  0.73156161  1
  O2-  O126  1  0.74625097  0.00686040  0.05532471  1
  O2-  O127  1  0.74348465  0.00677630  0.39971853  1
  O2-  O128  1  0.74804291  0.00560356  0.72688167  1
  O2-  O129  1  0.74495025  0.49780212  0.06323231  1
  O2-  O130  1  0.75344739  0.49873784  0.38743293  1
  O2-  O131  1  0.74244765  0.50686752  0.73045806  1
  O2-  O132  1  -0.00430976  0.25648039  0.27286271  1
  O2-  O133  1  0.00309299  0.25217764  0.60883503  1
  O2-  O134  1  0.00010958  0.25981143  0.93851661  1
  O2-  O135  1  0.00230908  0.74875875  0.27592689  1
  O2-  O136  1  -0.00234015  0.75045690  0.60703428  1
  O2-  O137  1  0.00143796  0.74238215  0.93900006  1
  O2-  O138  1  0.49991615  0.24514994  0.27647817  1
  O2-  O139  1  0.50422178  0.25248444  0.59878467  1
  O2-  O140  1  0.50589018  0.24918202  0.93738324  1
  O2-  O141  1  0.49451010  0.75496748  0.27162147  1
  O2-  O142  1  0.49215005  0.74365282  0.60032907  1
  O2-  O143  1  0.48720450  0.74824763  0.94295843  1
  O2-  O144  1  0.06645944  0.17560245  0.09794858  1
  O2-  O145  1  0.06742266  0.17979042  0.43357444  1
  O2-  O146  1  0.06657422  0.17384774  0.75497981  1
  O2-  O147  1  0.07142616  0.68285414  0.09109191  1
  O2-  O148  1  0.06875858  0.67795946  0.42439563  1
  O2-  O149  1  0.06398746  0.68116080  0.75738151  1
  O2-  O150  1  0.57113367  0.17447891  0.10286504  1
  O2-  O151  1  0.57393234  0.17995895  0.42449789  1
  O2-  O152  1  0.57075161  0.17848338  0.76432652  1
  O2-  O153  1  0.57261263  0.68623686  0.10021242  1
  O2-  O154  1  0.57261180  0.67968064  0.42992480  1
  O2-  O155  1  0.57466469  0.68389715  0.76434848  1
  O2-  O156  1  0.18086375  0.42723053  0.23558041  1
  O2-  O157  1  0.17593664  0.42996401  0.56836946  1
  O2-  O158  1  0.18133327  0.42732136  0.90387356  1
  O2-  O159  1  0.17714610  0.93217898  0.23188690  1
  O2-  O160  1  0.16863688  0.93130116  0.58020420  1
  O2-  O161  1  0.17279787  0.93209057  0.90878980  1
  O2-  O162  1  0.68126096  0.42770034  0.24095953  1
  O2-  O163  1  0.68394286  0.42591991  0.56688595  1
  O2-  O164  1  0.68246099  0.42521356  0.91207604  1
  O2-  O165  1  0.68184380  0.92773150  0.23616166  1
  O2-  O166  1  0.68265485  0.93207967  0.57866198  1
  O2-  O167  1  0.68052968  0.93039466  0.90941944  1
  O2-  O168  1  0.43126095  0.31608965  0.09917894  1
  O2-  O169  1  0.43051376  0.31998730  0.42148786  1
  O2-  O170  1  0.42590925  0.31722586  0.76198530  1
  O2-  O171  1  0.42599168  0.82919579  0.09084909  1
  O2-  O172  1  0.42659098  0.82704153  0.42044596  1
  O2-  O173  1  0.43158193  0.82142611  0.76563449  1
  O2-  O174  1  0.92283154  0.32189641  0.08746336  1
  O2-  O175  1  0.92423408  0.32529016  0.42138473  1
  O2-  O176  1  0.93165313  0.32003900  0.75748257  1
  O2-  O177  1  0.93134170  0.82180245  0.10006344  1
  O2-  O178  1  0.93191464  0.81779084  0.42453892  1
  O2-  O179  1  0.92940955  0.82678008  0.75285646  1
  O2-  O180  1  0.32310845  0.07202498  0.24263876  1
  O2-  O181  1  0.31641844  0.06697904  0.56721820  1
  O2-  O182  1  0.32173918  0.06588422  0.90987188  1
  O2-  O183  1  0.32408140  0.56752840  0.23553133  1
  O2-  O184  1  0.31730152  0.57143245  0.56841181  1
  O2-  O185  1  0.32208099  0.57499001  0.90294842  1
  O2-  O186  1  0.82105142  0.06859283  0.23365905  1
  O2-  O187  1  0.82639795  0.06844478  0.57901036  1
  O2-  O188  1  0.82675980  0.06709584  0.90848457  1
  O2-  O189  1  0.81975495  0.57454893  0.24140420  1
  O2-  O190  1  0.82267487  0.57020291  0.56653281  1
  O2-  O191  1  0.81577148  0.57434282  0.90260431  1
  O2-  O192  1  0.03572778  0.08356629  0.26717499  1
  O2-  O193  1  0.03679517  0.08715322  0.60236877  1
  O2-  O194  1  0.03381280  0.08723255  0.92700459  1
  O2-  O195  1  0.04519818  0.58640145  0.27062902  1
  O2-  O196  1  0.03663945  0.58738986  0.60490381  1
  O2-  O197  1  0.04908957  0.58157873  0.94358283  1
  O2-  O198  1  0.54876607  0.08323841  0.27528579  1
  O2-  O199  1  0.54135583  0.08141222  0.59839710  1
  O2-  O200  1  0.54405930  0.07703283  0.93702829  1
  O2-  O201  1  0.54282845  0.58318820  0.26187063  1
  O2-  O202  1  0.55035606  0.57755756  0.59949402  1
  O2-  O203  1  0.54966572  0.58124855  0.93576443  1
  O2-  O204  1  0.16696992  0.20731072  0.26534104  1
  O2-  O205  1  0.16331122  0.19920309  0.60363711  1
  O2-  O206  1  0.16767672  0.20436633  0.93132164  1
  O2-  O207  1  0.16585028  0.70564669  0.27414810  1
  O2-  O208  1  0.15832633  0.70573343  0.60402440  1
  O2-  O209  1  0.16470132  0.70692423  0.93846031  1
  O2-  O210  1  0.66463617  0.20687393  0.27231321  1
  O2-  O211  1  0.67596912  0.20036591  0.60264057  1
  O2-  O212  1  0.67576065  0.19623286  0.93874597  1
  O2-  O213  1  0.66756625  0.71478300  0.26483651  1
  O2-  O214  1  0.66782829  0.71407619  0.59796828  1
  O2-  O215  1  0.66225005  0.71969287  0.93181454  1
  O2-  O216  1  0.08018888  0.44957190  0.06994644  1
  O2-  O217  1  0.07804502  0.45326291  0.39889521  1
  O2-  O218  1  0.08212046  0.45856209  0.73634179  1
  O2-  O219  1  0.08428708  0.96274981  0.06048110  1
  O2-  O220  1  0.08425720  0.96149708  0.40265795  1
  O2-  O221  1  0.08224976  0.96021005  0.73292342  1
  O2-  O222  1  0.58488385  0.44842531  0.06208560  1
  O2-  O223  1  0.58961780  0.45970828  0.39264529  1
  O2-  O224  1  0.57656925  0.44523115  0.72964937  1
  O2-  O225  1  0.58710358  0.95280965  0.06408185  1
  O2-  O226  1  0.57774657  0.95033610  0.40220847  1
  O2-  O227  1  0.58757611  0.95732449  0.73069334  1
  O2-  O228  1  0.21095017  0.32673551  0.06762860  1
  O2-  O229  1  0.20831703  0.32909947  0.40010911  1
  O2-  O230  1  0.20016223  0.32513759  0.72967653  1
  O2-  O231  1  0.19863355  0.83838841  0.06199084  1
  O2-  O232  1  0.20458710  0.83317281  0.40181691  1
  O2-  O233  1  0.19049759  0.83200033  0.73009741  1
  O2-  O234  1  0.70925065  0.33341407  0.06405906  1
  O2-  O235  1  0.70537893  0.33806662  0.39532797  1
  O2-  O236  1  0.71518131  0.33197052  0.73571179  1
  O2-  O237  1  0.71426586  0.84196350  0.06295690  1
  O2-  O238  1  0.71529008  0.83358089  0.40484609  1
  O2-  O239  1  0.71256063  0.84221716  0.73096549  1
  O2-  O240  1  0.46344788  0.40873240  0.26798593  1
  O2-  O241  1  0.45272177  0.41911102  0.59417564  1
  O2-  O242  1  0.45667566  0.41792529  0.93228243  1
  O2-  O243  1  0.45148651  0.91835281  0.26857363  1
  O2-  O244  1  0.45983623  0.91569801  0.59738003  1
  O2-  O245  1  0.45785401  0.91301031  0.93723212  1
  O2-  O246  1  0.94950849  0.41919538  0.26930522  1
  O2-  O247  1  0.95713507  0.41455792  0.60543390  1
  O2-  O248  1  0.94941862  0.42124206  0.93941647  1
  O2-  O249  1  0.95970167  0.91139994  0.27296422  1
  O2-  O250  1  0.95998003  0.91394916  0.59940986  1
  O2-  O251  1  0.96296171  0.91286520  0.92771712  1
  O2-  O252  1  0.33892341  0.29189811  0.26897937  1
  O2-  O253  1  0.33075254  0.28398483  0.59599902  1
  O2-  O254  1  0.33454280  0.28668088  0.93116637  1
  O2-  O255  1  0.33111067  0.80036354  0.27067873  1
  O2-  O256  1  0.32158523  0.80404682  0.60456054  1
  O2-  O257  1  0.32818185  0.80627605  0.94099252  1
  O2-  O258  1  0.83257676  0.29943082  0.26772860  1
  O2-  O259  1  0.84109282  0.29210236  0.60358881  1
  O2-  O260  1  0.83697722  0.29501710  0.93256321  1
  O2-  O261  1  0.83977453  0.79125046  0.27208118  1
  O2-  O262  1  0.83664638  0.79889347  0.59962517  1
  O2-  O263  1  0.83382693  0.79168153  0.93047550  1
  O2-  O264  1  0.41160775  0.03933292  0.06436477  1
  O2-  O265  1  0.41616694  0.04917568  0.39562717  1
  O2-  O266  1  0.41731240  0.03584064  0.73497947  1
  O2-  O267  1  0.42317057  0.54235815  0.06753619  1
  O2-  O268  1  0.42211486  0.53699063  0.39879261  1
  O2-  O269  1  0.42238774  0.54826011  0.73022136  1
  O2-  O270  1  0.91271699  0.03453573  0.06119299  1
  O2-  O271  1  0.91492076  0.03719913  0.40374758  1
  O2-  O272  1  0.91255620  0.03651732  0.73225565  1
  O2-  O273  1  0.91526666  0.54559424  0.07079479  1
  O2-  O274  1  0.91427340  0.54891624  0.39266891  1
  O2-  O275  1  0.91447444  0.54136833  0.73644072  1
  O2-  O276  1  0.29302093  0.15975765  0.06184866  1
  O2-  O277  1  0.29448845  0.16504330  0.39439972  1
  O2-  O278  1  0.28725105  0.16126298  0.73626445  1
  O2-  O279  1  0.29660029  0.67265033  0.06897333  1
  O2-  O280  1  0.30085694  0.67007569  0.40001704  1
  O2-  O281  1  0.28890836  0.66969067  0.73389149  1
  O2-  O282  1  0.80599452  0.16522368  0.05995485  1
  O2-  O283  1  0.80008999  0.17361065  0.39821816  1
  O2-  O284  1  0.80428186  0.16496449  0.73063639  1
  O2-  O285  1  0.78670661  0.67072583  0.06820063  1
  O2-  O286  1  0.79220427  0.66315682  0.39515847  1
  O2-  O287  1  0.79744937  0.67601088  0.72970595  1
