# generated using pymatgen
data_Ca2Al2SiO7
_symmetry_space_group_name_H-M   'P 1'
_cell_length_a   15.45667343
_cell_length_b   15.45751136
_cell_length_c   15.28345523
_cell_angle_alpha   89.98804446
_cell_angle_beta   89.99635694
_cell_angle_gamma   89.99269961
_symmetry_Int_Tables_number   1
_chemical_formula_structural   Ca2Al2SiO7
_chemical_formula_sum   'Ca48 Al48 Si24 O168'
_cell_volume   3651.54906715
_cell_formula_units_Z   24
loop_
 _symmetry_equiv_pos_site_id
 _symmetry_equiv_pos_as_xyz
  1  'x, y, z'
loop_
 _atom_type_symbol
 _atom_type_oxidation_number
  Ca2+  2.0
  Al0+  0.0
  Si0+  0.0
  O2-  -2.0
loop_
 _atom_site_type_symbol
 _atom_site_label
 _atom_site_symmetry_multiplicity
 _atom_site_fract_x
 _atom_site_fract_y
 _atom_site_fract_z
 _atom_site_occupancy
  Ca2+  Ca0  1  0.17391923  0.08037750  0.18020462  1
  Ca2+  Ca1  1  0.17597935  0.08262027  0.50076686  1
  Ca2+  Ca2  1  0.17671235  0.08319321  0.83276445  1
  Ca2+  Ca3  1  0.17456559  0.58102222  0.16692494  1
  Ca2+  Ca4  1  0.16330756  0.57547128  0.51051858  1
  Ca2+  Ca5  1  0.17046233  0.57863463  0.83515462  1
  Ca2+  Ca6  1  0.67468211  0.09301198  0.17024097  1
  Ca2+  Ca7  1  0.67298327  0.08402406  0.50937436  1
  Ca2+  Ca8  1  0.66843836  0.08897856  0.83428125  1
  Ca2+  Ca9  1  0.65843934  0.57395717  0.17023271  1
  Ca2+  Ca10  1  0.66915198  0.58911319  0.50785172  1
  Ca2+  Ca11  1  0.66540413  0.58010178  0.83559036  1
  Ca2+  Ca12  1  0.07584308  0.32472277  0.16378127  1
  Ca2+  Ca13  1  0.08288319  0.32741393  0.49739872  1
  Ca2+  Ca14  1  0.07658322  0.33939435  0.82851934  1
  Ca2+  Ca15  1  0.07755405  0.84459930  0.16822790  1
  Ca2+  Ca16  1  0.07816849  0.83464249  0.49479774  1
  Ca2+  Ca17  1  0.08088621  0.82408348  0.82609844  1
  Ca2+  Ca18  1  0.58227574  0.32265809  0.15771951  1
  Ca2+  Ca19  1  0.57851290  0.32158039  0.49937465  1
  Ca2+  Ca20  1  0.57730729  0.32795491  0.83151616  1
  Ca2+  Ca21  1  0.57774402  0.82692129  0.16298394  1
  Ca2+  Ca22  1  0.58703058  0.82950397  0.50205490  1
  Ca2+  Ca23  1  0.57508537  0.83237129  0.82316706  1
  Ca2+  Ca24  1  0.34579497  0.42242792  0.16536226  1
  Ca2+  Ca25  1  0.32725140  0.41384468  0.50984332  1
  Ca2+  Ca26  1  0.33657523  0.41789706  0.83728875  1
  Ca2+  Ca27  1  0.32836531  0.92034549  0.17381757  1
  Ca2+  Ca28  1  0.33730191  0.92675429  0.50375676  1
  Ca2+  Ca29  1  0.34447548  0.91968782  0.83325144  1
  Ca2+  Ca30  1  0.82760218  0.41022040  0.16410220  1
  Ca2+  Ca31  1  0.83016079  0.42481981  0.50898535  1
  Ca2+  Ca32  1  0.82671075  0.41962902  0.83976785  1
  Ca2+  Ca33  1  0.83377793  0.92754777  0.17536679  1
  Ca2+  Ca34  1  0.82888177  0.92396384  0.50645451  1
  Ca2+  Ca35  1  0.82231535  0.92612050  0.83400722  1
  Ca2+  Ca36  1  0.42802762  0.16537502  0.15962476  1
  Ca2+  Ca37  1  0.42386755  0.16029103  0.49794324  1
  Ca2+  Ca38  1  0.42755397  0.17192164  0.82204895  1
  Ca2+  Ca39  1  0.41723802  0.67100513  0.15935880  1
  Ca2+  Ca40  1  0.42905142  0.67156692  0.49873611  1
  Ca2+  Ca41  1  0.41695108  0.67611559  0.82601392  1
  Ca2+  Ca42  1  0.91990788  0.16205927  0.16106740  1
  Ca2+  Ca43  1  0.92103274  0.15754788  0.49288565  1
  Ca2+  Ca44  1  0.90976161  0.16891318  0.83322813  1
  Ca2+  Ca45  1  0.91827939  0.67637663  0.16615976  1
  Ca2+  Ca46  1  0.91886605  0.67147084  0.49757871  1
  Ca2+  Ca47  1  0.92193818  0.66155899  0.82233233  1
  Al0+  Al48  1  -0.00012226  -0.00096512  -0.00021949  1
  Al0+  Al49  1  0.00055240  0.00012728  0.33273377  1
  Al0+  Al50  1  0.00065160  0.00078036  0.67288299  1
  Al0+  Al51  1  0.00083998  0.49946331  0.00052577  1
  Al0+  Al52  1  -0.00035093  0.50147284  0.33084425  1
  Al0+  Al53  1  -0.00017729  0.49965807  0.66931700  1
  Al0+  Al54  1  0.50174410  -0.00245573  -0.00520700  1
  Al0+  Al55  1  0.50148876  -0.00146539  0.33079183  1
  Al0+  Al56  1  0.50051321  0.00034988  0.66630980  1
  Al0+  Al57  1  0.50083239  0.49917188  0.00587108  1
  Al0+  Al58  1  0.50079680  0.50001039  0.33318282  1
  Al0+  Al59  1  0.49848849  0.50015260  0.65903451  1
  Al0+  Al60  1  0.24866586  0.24928056  -0.00039615  1
  Al0+  Al61  1  0.24895274  0.25219365  0.33108691  1
  Al0+  Al62  1  0.24648581  0.25008087  0.67391653  1
  Al0+  Al63  1  0.24931813  0.74881950  0.00139878  1
  Al0+  Al64  1  0.24954943  0.74756666  0.33840414  1
  Al0+  Al65  1  0.24890636  0.74898689  0.65602791  1
  Al0+  Al66  1  0.75276717  0.25089937  0.00037066  1
  Al0+  Al67  1  0.74799376  0.25237989  0.33664968  1
  Al0+  Al68  1  0.74966478  0.25341021  0.66577892  1
  Al0+  Al69  1  0.75112990  0.75152061  0.00076518  1
  Al0+  Al70  1  0.75111747  0.74925036  0.32236382  1
  Al0+  Al71  1  0.75157285  0.75204815  0.67383318  1
  Al0+  Al72  1  0.57131526  0.17781348  0.31944553  1
  Al0+  Al73  1  0.42492512  0.32074414  0.65154918  1
  Al0+  Al74  1  0.81913365  0.06911464  0.01531168  1
  Al0+  Al75  1  0.93142634  0.32005430  0.98604986  1
  Al0+  Al76  1  0.57203849  0.18032254  0.65013860  1
  Al0+  Al77  1  0.68071083  0.43118065  0.01383046  1
  Al0+  Al78  1  0.81977444  0.57131522  0.67876615  1
  Al0+  Al79  1  0.17907342  0.42874261  0.68104910  1
  Al0+  Al80  1  0.57103446  0.67871317  0.31735466  1
  Al0+  Al81  1  0.32345002  0.07220740  0.34668986  1
  Al0+  Al82  1  0.57219964  0.17880288  0.98406410  1
  Al0+  Al83  1  0.81884167  0.07197563  0.34654761  1
  Al0+  Al84  1  0.82274816  0.07419253  0.68279692  1
  Al0+  Al85  1  0.93134182  0.82071962  0.32015734  1
  Al0+  Al86  1  0.42789608  0.81840272  0.98726892  1
  Al0+  Al87  1  0.06965170  0.67750247  0.65291945  1
  Al0+  Al88  1  0.32047055  0.06967402  0.68105647  1
  Al0+  Al89  1  0.42795133  0.82313480  0.64861472  1
  Al0+  Al90  1  0.31930765  0.56962088  0.01252802  1
  Al0+  Al91  1  0.67840614  0.92967093  0.68168898  1
  Al0+  Al92  1  0.17816906  0.92809738  0.34924022  1
  Al0+  Al93  1  0.42782159  0.32227902  0.98566922  1
  Al0+  Al94  1  0.07025082  0.18003014  0.32115413  1
  Al0+  Al95  1  0.57326119  0.67941639  0.65400342  1
  Si0+  Si96  1  0.92864491  0.82274633  0.98325070  1
  Si0+  Si97  1  0.07340759  0.67523187  0.31479488  1
  Si0+  Si98  1  0.82083249  0.57181620  0.34624980  1
  Si0+  Si99  1  0.17543687  0.42627465  0.01952310  1
  Si0+  Si100  1  0.92726944  0.32479095  0.31823954  1
  Si0+  Si101  1  0.18004173  0.92891692  0.01373562  1
  Si0+  Si102  1  0.32296830  0.56988763  0.35077961  1
  Si0+  Si103  1  0.42645897  0.82051697  0.31629626  1
  Si0+  Si104  1  0.67561106  0.42952642  0.68234140  1
  Si0+  Si105  1  0.06957779  0.17803244  0.65319580  1
  Si0+  Si106  1  0.17801215  0.92565916  0.68364173  1
  Si0+  Si107  1  0.92958921  0.82349074  0.65237226  1
  Si0+  Si108  1  0.07220227  0.17513175  0.98149278  1
  Si0+  Si109  1  0.67833829  0.43021528  0.35091891  1
  Si0+  Si110  1  0.57276055  0.67709742  0.98460052  1
  Si0+  Si111  1  0.32226668  0.57214039  0.68059037  1
  Si0+  Si112  1  0.67624896  0.92605797  0.01951724  1
  Si0+  Si113  1  0.82520127  0.57411010  0.01905902  1
  Si0+  Si114  1  0.42754040  0.32162605  0.31678461  1
  Si0+  Si115  1  0.92917914  0.32153691  0.65194440  1
  Si0+  Si116  1  0.17737874  0.43117968  0.34756999  1
  Si0+  Si117  1  0.32267152  0.07090269  0.01356248  1
  Si0+  Si118  1  0.67924804  0.92475256  0.34729299  1
  Si0+  Si119  1  0.06935803  0.68008702  0.98621267  1
  O2-  O120  1  0.24994307  0.00112663  0.05556280  1
  O2-  O121  1  0.25268069  -0.00157668  0.39710819  1
  O2-  O122  1  0.24986213  -0.00975818  0.72878000  1
  O2-  O123  1  0.24963201  0.49019095  0.06234626  1
  O2-  O124  1  0.24914046  0.50074339  0.39093040  1
  O2-  O125  1  0.25602313  0.50175902  0.72616164  1
  O2-  O126  1  0.74391915  -0.00431212  0.06358706  1
  O2-  O127  1  0.74248025  -0.00159053  0.39151655  1
  O2-  O128  1  0.74685227  0.00576032  0.73142202  1
  O2-  O129  1  0.75364312  0.50843265  0.06287156  1
  O2-  O130  1  0.75054269  0.50161233  0.39042814  1
  O2-  O131  1  0.74161037  0.50137002  0.72588220  1
  O2-  O132  1  -0.00781716  0.25199103  0.27511219  1
  O2-  O133  1  -0.00546789  0.24515901  0.61069957  1
  O2-  O134  1  0.00707006  0.24722751  0.93757564  1
  O2-  O135  1  0.00967790  0.74892998  0.27162886  1
  O2-  O136  1  -0.00269172  0.75436175  0.60701561  1
  O2-  O137  1  -0.00570137  0.74602965  0.94276100  1
  O2-  O138  1  0.49225891  0.24899734  0.27377215  1
  O2-  O139  1  0.49548522  0.24826111  0.60045510  1
  O2-  O140  1  0.49565415  0.24716199  0.93567799  1
  O2-  O141  1  0.49467812  0.75174933  0.27110913  1
  O2-  O142  1  0.50251765  0.75155874  0.60189904  1
  O2-  O143  1  0.50521261  0.74625983  0.94109834  1
  O2-  O144  1  0.07116341  0.17383818  0.08728888  1
  O2-  O145  1  0.07063303  0.18314231  0.43446189  1
  O2-  O146  1  0.07025271  0.17863620  0.75832863  1
  O2-  O147  1  0.06964917  0.68166505  0.09140496  1
  O2-  O148  1  0.06873061  0.66858227  0.41969050  1
  O2-  O149  1  0.06856291  0.67799711  0.76677092  1
  O2-  O150  1  0.57144793  0.17986932  0.09820783  1
  O2-  O151  1  0.57417319  0.18068273  0.43194486  1
  O2-  O152  1  0.57318489  0.18415961  0.76346530  1
  O2-  O153  1  0.57095514  0.67853377  0.09060726  1
  O2-  O154  1  0.57253705  0.67898796  0.42991060  1
  O2-  O155  1  0.57024610  0.67769657  0.76766635  1
  O2-  O156  1  0.17500013  0.43355385  0.24259816  1
  O2-  O157  1  0.17665059  0.43008219  0.56729634  1
  O2-  O158  1  0.17020116  0.43105545  0.91449481  1
  O2-  O159  1  0.17994316  0.93021494  0.23457741  1
  O2-  O160  1  0.17353161  0.92990135  0.57865870  1
  O2-  O161  1  0.17871205  0.92746665  0.90882573  1
  O2-  O162  1  0.67863490  0.42981432  0.24568926  1
  O2-  O163  1  0.67999254  0.42830874  0.57635860  1
  O2-  O164  1  0.68219772  0.43430192  0.90088551  1
  O2-  O165  1  0.68207052  0.92270988  0.24154867  1
  O2-  O166  1  0.68389904  0.92673654  0.56768824  1
  O2-  O167  1  0.67830636  0.92218567  0.91458511  1
  O2-  O168  1  0.43092308  0.32071076  0.09977562  1
  O2-  O169  1  0.42803667  0.32450317  0.42200353  1
  O2-  O170  1  0.42736896  0.32121567  0.76493142  1
  O2-  O171  1  0.42600025  0.81656948  0.10070576  1
  O2-  O172  1  0.42705958  0.81916700  0.42124257  1
  O2-  O173  1  0.42634993  0.81845051  0.76261563  1
  O2-  O174  1  0.93332896  0.31903822  0.09951046  1
  O2-  O175  1  0.93085228  0.33082571  0.42363409  1
  O2-  O176  1  0.93132489  0.32405469  0.75696191  1
  O2-  O177  1  0.93146176  0.82407559  0.08848713  1
  O2-  O178  1  0.92980011  0.81627154  0.43301385  1
  O2-  O179  1  0.93306350  0.82233403  0.75835714  1
  O2-  O180  1  0.32191750  0.07085984  0.23226487  1
  O2-  O181  1  0.31707617  0.07152199  0.56817455  1
  O2-  O182  1  0.32068771  0.06982948  0.90861701  1
  O2-  O183  1  0.32279701  0.56937219  0.24525429  1
  O2-  O184  1  0.31976831  0.57012315  0.57475711  1
  O2-  O185  1  0.31476657  0.57292194  0.89995678  1
  O2-  O186  1  0.81923950  0.07152383  0.23323802  1
  O2-  O187  1  0.82591948  0.07037952  0.56904211  1
  O2-  O188  1  0.82058722  0.06681577  0.90276271  1
  O2-  O189  1  0.82229848  0.56976192  0.24119735  1
  O2-  O190  1  0.82162630  0.56893121  0.56503048  1
  O2-  O191  1  0.82769737  0.57301283  0.91365971  1
  O2-  O192  1  0.04245397  0.08366201  0.26586321  1
  O2-  O193  1  0.04504945  0.08477101  0.60676410  1
  O2-  O194  1  0.04371934  0.08272403  0.93455965  1
  O2-  O195  1  0.04198084  0.58489449  0.26401739  1
  O2-  O196  1  0.03458044  0.58223552  0.59841480  1
  O2-  O197  1  0.04577853  0.58676772  0.94003833  1
  O2-  O198  1  0.54713063  0.07944704  0.26496961  1
  O2-  O199  1  0.54761834  0.08046614  0.60016763  1
  O2-  O200  1  0.54844548  0.07884309  0.93312790  1
  O2-  O201  1  0.53809316  0.58178023  0.26443100  1
  O2-  O202  1  0.54594385  0.58226306  0.59725546  1
  O2-  O203  1  0.54757687  0.58311263  0.94149102  1
  O2-  O204  1  0.16472866  0.21438858  0.26363015  1
  O2-  O205  1  0.15911669  0.21085457  0.60560276  1
  O2-  O206  1  0.16723648  0.19740137  0.93722630  1
  O2-  O207  1  0.16988856  0.69516038  0.27236568  1
  O2-  O208  1  0.16487195  0.70296346  0.59498420  1
  O2-  O209  1  0.15881086  0.71247003  0.93794027  1
  O2-  O210  1  0.66668193  0.21589140  0.26619810  1
  O2-  O211  1  0.66968825  0.21333272  0.59674026  1
  O2-  O212  1  0.66967960  0.21161530  0.93372434  1
  O2-  O213  1  0.66633254  0.70666864  0.25956849  1
  O2-  O214  1  0.67349923  0.70779459  0.60357773  1
  O2-  O215  1  0.66869394  0.69978318  0.94161456  1
  O2-  O216  1  0.08491165  0.45903589  0.06892468  1
  O2-  O217  1  0.08560838  0.46061118  0.39537873  1
  O2-  O218  1  0.08473617  0.46465172  0.73669490  1
  O2-  O219  1  0.08806216  0.95692715  0.06130959  1
  O2-  O220  1  0.08074754  0.95814100  0.40191840  1
  O2-  O221  1  0.08676395  0.95420306  0.73397039  1
  O2-  O222  1  0.58546367  0.45978443  0.07251218  1
  O2-  O223  1  0.58712362  0.45973881  0.39801443  1
  O2-  O224  1  0.58071668  0.45327050  0.72580266  1
  O2-  O225  1  0.58128183  0.94910410  0.06422417  1
  O2-  O226  1  0.58320532  0.94307512  0.39008893  1
  O2-  O227  1  0.57895512  0.95288987  0.73381274  1
  O2-  O228  1  0.19398597  0.32972999  0.06269679  1
  O2-  O229  1  0.20313671  0.33895419  0.39444101  1
  O2-  O230  1  0.20262404  0.33301977  0.73922212  1
  O2-  O231  1  0.20750678  0.83807057  0.06314530  1
  O2-  O232  1  0.19877858  0.82644791  0.39961902  1
  O2-  O233  1  0.19955958  0.82889041  0.72517155  1
  O2-  O234  1  0.71660225  0.33664833  0.06917422  1
  O2-  O235  1  0.70670924  0.34020640  0.40078135  1
  O2-  O236  1  0.70613397  0.33869412  0.73008701  1
  O2-  O237  1  0.70359163  0.83222237  0.06626119  1
  O2-  O238  1  0.71152652  0.83224060  0.39203709  1
  O2-  O239  1  0.71041187  0.83437763  0.73993601  1
  O2-  O240  1  0.45942190  0.41378451  0.27046232  1
  O2-  O241  1  0.45151364  0.41871570  0.59646094  1
  O2-  O242  1  0.45858028  0.42119738  0.93539647  1
  O2-  O243  1  0.45118858  0.91377237  0.26912881  1
  O2-  O244  1  0.45579605  0.92135918  0.59682862  1
  O2-  O245  1  0.45702944  0.91440723  0.93247534  1
  O2-  O246  1  0.95714943  0.41597653  0.26819828  1
  O2-  O247  1  0.96349297  0.41050336  0.60277014  1
  O2-  O248  1  0.96113362  0.41813651  0.93302121  1
  O2-  O249  1  0.96217995  0.91619308  0.26357339  1
  O2-  O250  1  0.95738401  0.91687670  0.60689986  1
  O2-  O251  1  0.96278762  0.91119657  0.93426725  1
  O2-  O252  1  0.33201830  0.30470935  0.27097784  1
  O2-  O253  1  0.32360574  0.29449948  0.60324631  1
  O2-  O254  1  0.32517435  0.30251664  0.93796582  1
  O2-  O255  1  0.33190913  0.79307448  0.27192642  1
  O2-  O256  1  0.33050930  0.79502895  0.59379362  1
  O2-  O257  1  0.33176058  0.78570520  0.93338886  1
  O2-  O258  1  0.83191974  0.30309747  0.27537067  1
  O2-  O259  1  0.83596039  0.30212708  0.60429770  1
  O2-  O260  1  0.83609545  0.28997528  0.93109008  1
  O2-  O261  1  0.83881820  0.78660771  0.25979885  1
  O2-  O262  1  0.83610026  0.79804684  0.60809404  1
  O2-  O263  1  0.83470244  0.80001166  0.93823898  1
  O2-  O264  1  0.41453071  0.04110621  0.05945836  1
  O2-  O265  1  0.42239088  0.04314649  0.39861681  1
  O2-  O266  1  0.41763534  0.04252623  0.73464414  1
  O2-  O267  1  0.41588939  0.54317287  0.06970887  1
  O2-  O268  1  0.41390730  0.53964144  0.39798076  1
  O2-  O269  1  0.41677194  0.54912002  0.72556655  1
  O2-  O270  1  0.91704647  0.03546036  0.06738120  1
  O2-  O271  1  0.91558499  0.03927948  0.39813164  1
  O2-  O272  1  0.92002183  0.04402881  0.73823632  1
  O2-  O273  1  0.91792992  0.54588204  0.06620773  1
  O2-  O274  1  0.91341523  0.54447953  0.39341269  1
  O2-  O275  1  0.91355308  0.53472283  0.73479763  1
  O2-  O276  1  0.29618765  0.16328259  0.06103052  1
  O2-  O277  1  0.29243324  0.17139152  0.39694530  1
  O2-  O278  1  0.28331941  0.16282110  0.73771698  1
  O2-  O279  1  0.28188861  0.66336768  0.07022693  1
  O2-  O280  1  0.29842011  0.66201803  0.39806188  1
  O2-  O281  1  0.29295930  0.66587594  0.72427268  1
  O2-  O282  1  0.79337965  0.16727618  0.06825557  1
  O2-  O283  1  0.79335364  0.17036211  0.40012577  1
  O2-  O284  1  0.79729738  0.17515986  0.73189176  1
  O2-  O285  1  0.80326582  0.67000506  0.06282356  1
  O2-  O286  1  0.79275674  0.66428471  0.39111854  1
  O2-  O287  1  0.79782002  0.66800016  0.73601355  1
