# generated using pymatgen
data_Ca2Al2SiO7
_symmetry_space_group_name_H-M   'P 1'
_cell_length_a   15.46305125
_cell_length_b   15.46120115
_cell_length_c   15.28658507
_cell_angle_alpha   89.99982390
_cell_angle_beta   90.01085756
_cell_angle_gamma   89.96975221
_symmetry_Int_Tables_number   1
_chemical_formula_structural   Ca2Al2SiO7
_chemical_formula_sum   'Ca48 Al48 Si24 O168'
_cell_volume   3654.67561128
_cell_formula_units_Z   24
loop_
 _symmetry_equiv_pos_site_id
 _symmetry_equiv_pos_as_xyz
  1  'x, y, z'
loop_
 _atom_type_symbol
 _atom_type_oxidation_number
  Ca2+  2.0
  Al0+  0.0
  Si0+  0.0
  O2-  -2.0
loop_
 _atom_site_type_symbol
 _atom_site_label
 _atom_site_symmetry_multiplicity
 _atom_site_fract_x
 _atom_site_fract_y
 _atom_site_fract_z
 _atom_site_occupancy
  Ca2+  Ca0  1  0.16643569  0.08535358  0.16609547  1
  Ca2+  Ca1  1  0.16192884  0.07962572  0.50795490  1
  Ca2+  Ca2  1  0.16241497  0.07360231  0.84046755  1
  Ca2+  Ca3  1  0.16974700  0.58133792  0.16604462  1
  Ca2+  Ca4  1  0.15993999  0.57231528  0.50784392  1
  Ca2+  Ca5  1  0.16408792  0.58068574  0.83983906  1
  Ca2+  Ca6  1  0.66882026  0.08259418  0.17209504  1
  Ca2+  Ca7  1  0.66590695  0.08685346  0.50716617  1
  Ca2+  Ca8  1  0.66689285  0.08588580  0.83723293  1
  Ca2+  Ca9  1  0.66974445  0.58054579  0.16708197  1
  Ca2+  Ca10  1  0.66594235  0.58895138  0.50475287  1
  Ca2+  Ca11  1  0.67419898  0.58081130  0.84474747  1
  Ca2+  Ca12  1  0.08660599  0.32490972  0.15867853  1
  Ca2+  Ca13  1  0.08695269  0.32920696  0.49708160  1
  Ca2+  Ca14  1  0.07838429  0.32692948  0.82458481  1
  Ca2+  Ca15  1  0.07462490  0.83096701  0.15399350  1
  Ca2+  Ca16  1  0.08430836  0.82912111  0.49916181  1
  Ca2+  Ca17  1  0.09390375  0.82266574  0.83315053  1
  Ca2+  Ca18  1  0.58026967  0.33048394  0.15838492  1
  Ca2+  Ca19  1  0.58254321  0.32205515  0.49722668  1
  Ca2+  Ca20  1  0.57687054  0.33630179  0.83262458  1
  Ca2+  Ca21  1  0.57640009  0.82562622  0.16108724  1
  Ca2+  Ca22  1  0.57796744  0.82367027  0.49853034  1
  Ca2+  Ca23  1  0.56881984  0.82729308  0.82744749  1
  Ca2+  Ca24  1  0.33145534  0.41930172  0.16751818  1
  Ca2+  Ca25  1  0.32005980  0.41647692  0.50388578  1
  Ca2+  Ca26  1  0.32961847  0.42214677  0.84114949  1
  Ca2+  Ca27  1  0.32866695  0.91767956  0.16053911  1
  Ca2+  Ca28  1  0.32881843  0.91876709  0.51051201  1
  Ca2+  Ca29  1  0.32699004  0.91805614  0.84288509  1
  Ca2+  Ca30  1  0.83557960  0.41881780  0.16216021  1
  Ca2+  Ca31  1  0.83366827  0.41588052  0.50775584  1
  Ca2+  Ca32  1  0.83077520  0.41616731  0.84354677  1
  Ca2+  Ca33  1  0.83821045  0.91209392  0.17098173  1
  Ca2+  Ca34  1  0.83521466  0.91686931  0.50248837  1
  Ca2+  Ca35  1  0.83090347  0.91518866  0.84097565  1
  Ca2+  Ca36  1  0.41871005  0.17110985  0.15839377  1
  Ca2+  Ca37  1  0.42748090  0.16284007  0.49696901  1
  Ca2+  Ca38  1  0.41668121  0.16902857  0.83400820  1
  Ca2+  Ca39  1  0.41905448  0.66608402  0.15677448  1
  Ca2+  Ca40  1  0.42370414  0.66924446  0.50056180  1
  Ca2+  Ca41  1  0.40982399  0.67684470  0.82982504  1
  Ca2+  Ca42  1  0.93126779  0.17191013  0.15820995  1
  Ca2+  Ca43  1  0.92947228  0.17173210  0.50000462  1
  Ca2+  Ca44  1  0.92690577  0.17622102  0.83276253  1
  Ca2+  Ca45  1  0.92118571  0.67385528  0.15752784  1
  Ca2+  Ca46  1  0.92421653  0.67145207  0.49860839  1
  Ca2+  Ca47  1  0.92548859  0.66560863  0.83588216  1
  Al0+  Al48  1  -0.00257557  -0.00051172  -0.00279229  1
  Al0+  Al49  1  -0.00067574  0.00220555  0.32836285  1
  Al0+  Al50  1  -0.00134304  0.00219099  0.67021932  1
  Al0+  Al51  1  -0.00212594  0.50054563  0.00055275  1
  Al0+  Al52  1  -0.00143337  0.50156787  0.33837123  1
  Al0+  Al53  1  -0.00231408  0.50154295  0.66409234  1
  Al0+  Al54  1  0.49976105  -0.00185504  0.00164021  1
  Al0+  Al55  1  0.50066787  -0.00089484  0.33050823  1
  Al0+  Al56  1  0.50029758  -0.00007977  0.66040020  1
  Al0+  Al57  1  0.50063826  0.49669488  0.00401224  1
  Al0+  Al58  1  0.50119842  0.50041991  0.33308094  1
  Al0+  Al59  1  0.50007262  0.49952214  0.66242160  1
  Al0+  Al60  1  0.25394601  0.24769550  -0.00575786  1
  Al0+  Al61  1  0.25140421  0.24969428  0.33572246  1
  Al0+  Al62  1  0.25005247  0.24991139  0.66814026  1
  Al0+  Al63  1  0.25009678  0.74994595  0.00334673  1
  Al0+  Al64  1  0.25074183  0.75073681  0.33563948  1
  Al0+  Al65  1  0.24894524  0.75038972  0.65871090  1
  Al0+  Al66  1  0.75083753  0.24743510  0.00331620  1
  Al0+  Al67  1  0.75096928  0.24977159  0.33142682  1
  Al0+  Al68  1  0.75010399  0.25107568  0.66116223  1
  Al0+  Al69  1  0.75055551  0.74892791  0.00171914  1
  Al0+  Al70  1  0.74797104  0.75037351  0.32838056  1
  Al0+  Al71  1  0.74936836  0.75115285  0.66623246  1
  Al0+  Al72  1  0.07211090  0.18135347  0.31916137  1
  Al0+  Al73  1  0.57263412  0.67806575  0.65406566  1
  Al0+  Al74  1  0.93140203  0.82014079  0.32166033  1
  Al0+  Al75  1  0.32263261  0.07161610  0.01543523  1
  Al0+  Al76  1  0.57230195  0.17832392  0.31826767  1
  Al0+  Al77  1  0.07230492  0.17842848  0.65148712  1
  Al0+  Al78  1  0.07211312  0.67932406  0.98688536  1
  Al0+  Al79  1  0.82245970  0.57178693  0.01695147  1
  Al0+  Al80  1  0.42739591  0.82109385  0.65084770  1
  Al0+  Al81  1  0.43004260  0.32208294  0.98660167  1
  Al0+  Al82  1  0.56921249  0.67873041  0.31711931  1
  Al0+  Al83  1  0.17859385  0.92926190  0.67977138  1
  Al0+  Al84  1  0.07417535  0.17868945  0.98384880  1
  Al0+  Al85  1  0.17741251  0.92962250  0.01603343  1
  Al0+  Al86  1  0.07021738  0.67965602  0.65236042  1
  Al0+  Al87  1  0.42963303  0.81994624  0.98766976  1
  Al0+  Al88  1  0.17762037  0.42903336  0.68173123  1
  Al0+  Al89  1  0.67926460  0.42676012  0.01557312  1
  Al0+  Al90  1  0.56967542  0.18087043  0.65519058  1
  Al0+  Al91  1  0.32034378  0.57100241  0.01151923  1
  Al0+  Al92  1  0.92860283  0.32082516  0.98698923  1
  Al0+  Al93  1  0.92644130  0.82137658  0.98374510  1
  Al0+  Al94  1  0.17998128  0.42993516  0.34595695  1
  Al0+  Al95  1  0.92953456  0.32196295  0.65126456  1
  Si0+  Si96  1  0.92639960  0.82343554  0.65150736  1
  Si0+  Si97  1  0.67866308  0.92838296  0.01564553  1
  Si0+  Si98  1  0.32530183  0.07149881  0.68251450  1
  Si0+  Si99  1  0.82122293  0.07126240  0.34968757  1
  Si0+  Si100  1  0.32213293  0.07010735  0.34917812  1
  Si0+  Si101  1  0.07287708  0.67655078  0.31719535  1
  Si0+  Si102  1  0.42658618  0.32392834  0.64854979  1
  Si0+  Si103  1  0.81933665  0.57292080  0.68114842  1
  Si0+  Si104  1  0.81814329  0.57267385  0.35077384  1
  Si0+  Si105  1  0.82010416  0.07012920  0.01662946  1
  Si0+  Si106  1  0.57216095  0.17676280  0.98513079  1
  Si0+  Si107  1  0.67891058  0.92930058  0.34964588  1
  Si0+  Si108  1  0.17781756  0.42677373  0.01350248  1
  Si0+  Si109  1  0.32421074  0.57384023  0.35198053  1
  Si0+  Si110  1  0.67899317  0.42794486  0.35087203  1
  Si0+  Si111  1  0.42629507  0.82231460  0.31458437  1
  Si0+  Si112  1  0.32243753  0.57055340  0.68116653  1
  Si0+  Si113  1  0.17721315  0.93052821  0.34819706  1
  Si0+  Si114  1  0.67840148  0.92927416  0.68137698  1
  Si0+  Si115  1  0.67905577  0.42792359  0.67969504  1
  Si0+  Si116  1  0.42941925  0.32035057  0.31775065  1
  Si0+  Si117  1  0.81883825  0.07255977  0.68229208  1
  Si0+  Si118  1  0.92801046  0.32478715  0.31646912  1
  Si0+  Si119  1  0.57113015  0.67631632  0.98485256  1
  O2-  O120  1  0.24663046  0.00442754  0.06690054  1
  O2-  O121  1  0.25065627  -0.00083118  0.39095757  1
  O2-  O122  1  0.25401109  0.00458202  0.72439052  1
  O2-  O123  1  0.24559233  0.49626361  0.05854197  1
  O2-  O124  1  0.25190206  0.50780141  0.39430858  1
  O2-  O125  1  0.25346808  0.50321982  0.72663063  1
  O2-  O126  1  0.75132648  -0.00314971  0.05919598  1
  O2-  O127  1  0.74859894  0.00155141  0.39293865  1
  O2-  O128  1  0.74869595  0.00024782  0.72457287  1
  O2-  O129  1  0.75077115  0.49878519  0.06687127  1
  O2-  O130  1  0.74964334  0.49912225  0.39412512  1
  O2-  O131  1  0.74639535  0.50243856  0.72071163  1
  O2-  O132  1  0.00075602  0.25987609  0.27408104  1
  O2-  O133  1  0.00548975  0.25476194  0.60032052  1
  O2-  O134  1  0.00608172  0.25575869  0.93629672  1
  O2-  O135  1  0.00773636  0.74849208  0.27424072  1
  O2-  O136  1  -0.00268410  0.75754418  0.60709135  1
  O2-  O137  1  0.00141131  0.75236669  0.93540832  1
  O2-  O138  1  0.49930398  0.25362098  0.27233212  1
  O2-  O139  1  0.49355137  0.25243675  0.60577429  1
  O2-  O140  1  0.50506539  0.24653837  0.94140835  1
  O2-  O141  1  0.49057107  0.74915532  0.27131214  1
  O2-  O142  1  0.49990901  0.74839617  0.60266018  1
  O2-  O143  1  0.50070223  0.74225837  0.94039449  1
  O2-  O144  1  0.07192634  0.18042755  0.09816857  1
  O2-  O145  1  0.06987420  0.17866767  0.43203629  1
  O2-  O146  1  0.06809932  0.17663869  0.76408425  1
  O2-  O147  1  0.07164848  0.68015120  0.10099706  1
  O2-  O148  1  0.07033743  0.67631918  0.42315353  1
  O2-  O149  1  0.07003807  0.67802385  0.76458314  1
  O2-  O150  1  0.57151417  0.17653445  0.09099938  1
  O2-  O151  1  0.57120952  0.17880240  0.43158803  1
  O2-  O152  1  0.57133746  0.18209671  0.76785329  1
  O2-  O153  1  0.57027773  0.67947395  0.09087390  1
  O2-  O154  1  0.57027260  0.68174761  0.43024662  1
  O2-  O155  1  0.57533871  0.67999120  0.76699666  1
  O2-  O156  1  0.18237742  0.42967571  0.23297767  1
  O2-  O157  1  0.17964692  0.43055913  0.56798938  1
  O2-  O158  1  0.17928501  0.42856705  0.90802667  1
  O2-  O159  1  0.17692052  0.93042717  0.24380801  1
  O2-  O160  1  0.17871730  0.93126721  0.56547515  1
  O2-  O161  1  0.18129145  0.92833055  0.90244977  1
  O2-  O162  1  0.67900619  0.42733638  0.24647819  1
  O2-  O163  1  0.68078729  0.42651147  0.57410891  1
  O2-  O164  1  0.67908335  0.42785181  0.90136677  1
  O2-  O165  1  0.67927550  0.93003109  0.24454172  1
  O2-  O166  1  0.68045882  0.92914560  0.57591606  1
  O2-  O167  1  0.67780013  0.93067068  0.91027937  1
  O2-  O168  1  0.43115532  0.32153833  0.10003331  1
  O2-  O169  1  0.43076828  0.31788141  0.42357531  1
  O2-  O170  1  0.42950188  0.32735560  0.75372054  1
  O2-  O171  1  0.43346117  0.81952054  0.10100144  1
  O2-  O172  1  0.42838260  0.82426708  0.42014286  1
  O2-  O173  1  0.42919873  0.82144152  0.76423817  1
  O2-  O174  1  0.92898371  0.31671533  0.10101262  1
  O2-  O175  1  0.92595369  0.32278804  0.42208330  1
  O2-  O176  1  0.92590316  0.31912065  0.76410849  1
  O2-  O177  1  0.92676599  0.81930294  0.09774010  1
  O2-  O178  1  0.93202134  0.81959998  0.43521364  1
  O2-  O179  1  0.92107892  0.82082823  0.75610330  1
  O2-  O180  1  0.32329668  0.07094514  0.24472952  1
  O2-  O181  1  0.32776942  0.06927693  0.57614728  1
  O2-  O182  1  0.32830037  0.06764276  0.90227786  1
  O2-  O183  1  0.32548932  0.57364613  0.24650737  1
  O2-  O184  1  0.32345744  0.56720378  0.57521047  1
  O2-  O185  1  0.32094254  0.57041064  0.89845719  1
  O2-  O186  1  0.82020031  0.06980620  0.24483141  1
  O2-  O187  1  0.81788692  0.07084354  0.57666282  1
  O2-  O188  1  0.81575362  0.07220815  0.91142385  1
  O2-  O189  1  0.81803230  0.57253053  0.24640218  1
  O2-  O190  1  0.81793467  0.57449928  0.57540033  1
  O2-  O191  1  0.81860906  0.57372499  0.90305524  1
  O2-  O192  1  0.03674931  0.08724932  0.26407475  1
  O2-  O193  1  0.03609410  0.08173036  0.59802306  1
  O2-  O194  1  0.03821893  0.08262021  0.93250756  1
  O2-  O195  1  0.04339206  0.58404549  0.27217318  1
  O2-  O196  1  0.03367914  0.58633114  0.59557381  1
  O2-  O197  1  0.04291085  0.58113430  0.93458440  1
  O2-  O198  1  0.54311015  0.08106787  0.26553316  1
  O2-  O199  1  0.54312323  0.08449816  0.59776716  1
  O2-  O200  1  0.54611986  0.08355207  0.93907587  1
  O2-  O201  1  0.54411855  0.57984429  0.26527471  1
  O2-  O202  1  0.54672236  0.57970593  0.59847172  1
  O2-  O203  1  0.55009305  0.58119559  0.94237745  1
  O2-  O204  1  0.17054344  0.20869954  0.26779956  1
  O2-  O205  1  0.17325043  0.20088560  0.60076195  1
  O2-  O206  1  0.17395379  0.19813854  0.93198019  1
  O2-  O207  1  0.16927704  0.69784344  0.27582875  1
  O2-  O208  1  0.16522722  0.70717584  0.59385866  1
  O2-  O209  1  0.17021150  0.70725563  0.93382861  1
  O2-  O210  1  0.66979120  0.20704740  0.26558547  1
  O2-  O211  1  0.66395089  0.21329628  0.59714601  1
  O2-  O212  1  0.66639275  0.19997104  0.94060105  1
  O2-  O213  1  0.66344671  0.71393087  0.26224466  1
  O2-  O214  1  0.66926241  0.71063609  0.59809833  1
  O2-  O215  1  0.66379159  0.70519974  0.94030557  1
  O2-  O216  1  0.08428371  0.45023484  0.06024923  1
  O2-  O217  1  0.08230813  0.45823152  0.40104089  1
  O2-  O218  1  0.08002871  0.46125643  0.73204900  1
  O2-  O219  1  0.07660064  0.95536883  0.06603229  1
  O2-  O220  1  0.08586909  0.96143811  0.39517063  1
  O2-  O221  1  0.08145520  0.95826493  0.73344392  1
  O2-  O222  1  0.58203986  0.45444029  0.07134481  1
  O2-  O223  1  0.58654506  0.45491591  0.39820748  1
  O2-  O224  1  0.58491381  0.45141668  0.72451072  1
  O2-  O225  1  0.58893486  0.95813277  0.06586324  1
  O2-  O226  1  0.58640514  0.95635296  0.39663659  1
  O2-  O227  1  0.58628705  0.95792915  0.72726198  1
  O2-  O228  1  0.20681930  0.33336572  0.05765376  1
  O2-  O229  1  0.21418034  0.33444686  0.40218785  1
  O2-  O230  1  0.20675798  0.33142770  0.73425246  1
  O2-  O231  1  0.20956286  0.83315799  0.07119969  1
  O2-  O232  1  0.20210446  0.83685402  0.39525262  1
  O2-  O233  1  0.20945849  0.83067490  0.72931917  1
  O2-  O234  1  0.70693507  0.32795835  0.06955937  1
  O2-  O235  1  0.70778863  0.33532633  0.39777584  1
  O2-  O236  1  0.70949201  0.33728710  0.72731803  1
  O2-  O237  1  0.70433304  0.83631407  0.06354421  1
  O2-  O238  1  0.70902708  0.83771040  0.39665493  1
  O2-  O239  1  0.70639801  0.83810018  0.72986175  1
  O2-  O240  1  0.45321425  0.41509863  0.27402936  1
  O2-  O241  1  0.45470483  0.41500978  0.59864204  1
  O2-  O242  1  0.46305331  0.41715667  0.93065009  1
  O2-  O243  1  0.45738324  0.91375070  0.26806362  1
  O2-  O244  1  0.45865436  0.91765222  0.59532920  1
  O2-  O245  1  0.46502257  0.91463631  0.93337204  1
  O2-  O246  1  0.94892402  0.42082667  0.27418892  1
  O2-  O247  1  0.95162469  0.42144242  0.59811845  1
  O2-  O248  1  0.94621536  0.42204475  0.93763354  1
  O2-  O249  1  0.95790733  0.91709959  0.26703490  1
  O2-  O250  1  0.94897454  0.91842553  0.60735378  1
  O2-  O251  1  0.94641412  0.92172031  0.93295023  1
  O2-  O252  1  0.33696781  0.29280903  0.27183239  1
  O2-  O253  1  0.33278126  0.29915639  0.60338469  1
  O2-  O254  1  0.33597683  0.29242486  0.92848854  1
  O2-  O255  1  0.33040487  0.80136215  0.27146225  1
  O2-  O256  1  0.33156256  0.79312001  0.59312870  1
  O2-  O257  1  0.33310072  0.79063761  0.93516433  1
  O2-  O258  1  0.83575712  0.29556226  0.27056279  1
  O2-  O259  1  0.83348586  0.28872663  0.59500714  1
  O2-  O260  1  0.83161049  0.28568443  0.93465537  1
  O2-  O261  1  0.83470903  0.79013457  0.26839645  1
  O2-  O262  1  0.83413271  0.79588890  0.60253087  1
  O2-  O263  1  0.82774007  0.79189463  0.93143382  1
  O2-  O264  1  0.41977038  0.03866505  0.07090422  1
  O2-  O265  1  0.41447024  0.04023691  0.39638094  1
  O2-  O266  1  0.41891423  0.04455625  0.72803579  1
  O2-  O267  1  0.41579138  0.53888803  0.06769891  1
  O2-  O268  1  0.41715245  0.54489461  0.39863349  1
  O2-  O269  1  0.41663772  0.54519596  0.72672491  1
  O2-  O270  1  0.91198315  0.04421504  0.06427754  1
  O2-  O271  1  0.91221811  0.04036155  0.39759899  1
  O2-  O272  1  0.90965756  0.04621229  0.73125900  1
  O2-  O273  1  0.92039688  0.54441412  0.07257391  1
  O2-  O274  1  0.91082540  0.54821370  0.39920740  1
  O2-  O275  1  0.91023892  0.54437711  0.72815557  1
  O2-  O276  1  0.29932447  0.17225855  0.06719880  1
  O2-  O277  1  0.29686899  0.16187750  0.39799095  1
  O2-  O278  1  0.30467896  0.16697479  0.72605194  1
  O2-  O279  1  0.29134356  0.66560699  0.07021138  1
  O2-  O280  1  0.30252954  0.66908620  0.39747274  1
  O2-  O281  1  0.29734437  0.66605033  0.72190885  1
  O2-  O282  1  0.79017758  0.15916275  0.06830054  1
  O2-  O283  1  0.79410435  0.16372604  0.39682293  1
  O2-  O284  1  0.78626275  0.16328844  0.72839864  1
  O2-  O285  1  0.79122270  0.66950728  0.07134106  1
  O2-  O286  1  0.78595204  0.66383965  0.39763573  1
  O2-  O287  1  0.79230448  0.66481725  0.72880196  1
