# generated using pymatgen
data_Ca2Al2SiO7
_symmetry_space_group_name_H-M   'P 1'
_cell_length_a   15.45650675
_cell_length_b   15.45691829
_cell_length_c   15.28252015
_cell_angle_alpha   89.99590786
_cell_angle_beta   90.00148846
_cell_angle_gamma   90.02229910
_symmetry_Int_Tables_number   1
_chemical_formula_structural   Ca2Al2SiO7
_chemical_formula_sum   'Ca48 Al48 Si24 O168'
_cell_volume   3651.14602057
_cell_formula_units_Z   24
loop_
 _symmetry_equiv_pos_site_id
 _symmetry_equiv_pos_as_xyz
  1  'x, y, z'
loop_
 _atom_type_symbol
 _atom_type_oxidation_number
  Ca2+  2.0
  Al0+  0.0
  Si0+  0.0
  O2-  -2.0
loop_
 _atom_site_type_symbol
 _atom_site_label
 _atom_site_symmetry_multiplicity
 _atom_site_fract_x
 _atom_site_fract_y
 _atom_site_fract_z
 _atom_site_occupancy
  Ca2+  Ca0  1  0.18020675  0.07880604  0.17612956  1
  Ca2+  Ca1  1  0.17240439  0.07368010  0.50559200  1
  Ca2+  Ca2  1  0.17677118  0.08182749  0.83389088  1
  Ca2+  Ca3  1  0.15288270  0.57611375  0.17028914  1
  Ca2+  Ca4  1  0.16647858  0.57651577  0.50407454  1
  Ca2+  Ca5  1  0.16393049  0.57349675  0.83720424  1
  Ca2+  Ca6  1  0.66718496  0.08088445  0.17728375  1
  Ca2+  Ca7  1  0.67438124  0.08407153  0.49746977  1
  Ca2+  Ca8  1  0.67241165  0.08820628  0.83526852  1
  Ca2+  Ca9  1  0.67896079  0.59216615  0.16946124  1
  Ca2+  Ca10  1  0.67505970  0.57994513  0.50585736  1
  Ca2+  Ca11  1  0.67022780  0.57658316  0.83906846  1
  Ca2+  Ca12  1  0.08579431  0.33730250  0.16402966  1
  Ca2+  Ca13  1  0.08197232  0.33888789  0.49780516  1
  Ca2+  Ca14  1  0.08120430  0.33665096  0.82656073  1
  Ca2+  Ca15  1  0.08255517  0.82580933  0.16588170  1
  Ca2+  Ca16  1  0.07886433  0.83489638  0.49103286  1
  Ca2+  Ca17  1  0.08228690  0.82813601  0.82386738  1
  Ca2+  Ca18  1  0.58167066  0.31883673  0.16204181  1
  Ca2+  Ca19  1  0.57746836  0.33081490  0.49692881  1
  Ca2+  Ca20  1  0.57870287  0.32896201  0.82233170  1
  Ca2+  Ca21  1  0.58472382  0.83326383  0.16241822  1
  Ca2+  Ca22  1  0.58207134  0.83743682  0.49478855  1
  Ca2+  Ca23  1  0.58324872  0.82468247  0.83267426  1
  Ca2+  Ca24  1  0.32028536  0.41727099  0.17060182  1
  Ca2+  Ca25  1  0.32354726  0.41831275  0.50985910  1
  Ca2+  Ca26  1  0.32510366  0.41423425  0.83145522  1
  Ca2+  Ca27  1  0.33119340  0.92545520  0.17452522  1
  Ca2+  Ca28  1  0.32309701  0.92440472  0.50452825  1
  Ca2+  Ca29  1  0.33093279  0.92576342  0.83398123  1
  Ca2+  Ca30  1  0.83545243  0.43225489  0.17152701  1
  Ca2+  Ca31  1  0.83001292  0.42093494  0.50554370  1
  Ca2+  Ca32  1  0.82925709  0.41686343  0.83593299  1
  Ca2+  Ca33  1  0.82600463  0.92009336  0.17986611  1
  Ca2+  Ca34  1  0.83844307  0.92340611  0.50263748  1
  Ca2+  Ca35  1  0.83933337  0.92051093  0.82995703  1
  Ca2+  Ca36  1  0.42499945  0.15626047  0.16263429  1
  Ca2+  Ca37  1  0.41423866  0.16730552  0.49476926  1
  Ca2+  Ca38  1  0.41740419  0.16709938  0.82799507  1
  Ca2+  Ca39  1  0.42511406  0.67073367  0.15966483  1
  Ca2+  Ca40  1  0.41564307  0.66352094  0.49814361  1
  Ca2+  Ca41  1  0.42178846  0.65770349  0.82740577  1
  Ca2+  Ca42  1  0.91686911  0.16672301  0.16549573  1
  Ca2+  Ca43  1  0.91045553  0.17002519  0.49788432  1
  Ca2+  Ca44  1  0.91834036  0.17318465  0.82005790  1
  Ca2+  Ca45  1  0.92195979  0.66729354  0.16538910  1
  Ca2+  Ca46  1  0.92155932  0.67803523  0.48999981  1
  Ca2+  Ca47  1  0.92069085  0.66910694  0.82997903  1
  Al0+  Al48  1  0.00055887  0.00093095  0.00001380  1
  Al0+  Al49  1  -0.00046841  0.00238122  0.33271602  1
  Al0+  Al50  1  -0.00060607  -0.00029030  0.67131038  1
  Al0+  Al51  1  -0.00210302  0.50142488  0.00230397  1
  Al0+  Al52  1  -0.00182687  0.50104783  0.33943040  1
  Al0+  Al53  1  -0.00069327  0.50072448  0.66485945  1
  Al0+  Al54  1  0.50148088  0.00032562  -0.00373944  1
  Al0+  Al55  1  0.50130218  0.00096983  0.33705775  1
  Al0+  Al56  1  0.50237120  -0.00329912  0.66961567  1
  Al0+  Al57  1  0.49849317  0.49795672  -0.00197078  1
  Al0+  Al58  1  0.49884141  0.49869073  0.32743665  1
  Al0+  Al59  1  0.50179276  0.49635737  0.66755077  1
  Al0+  Al60  1  0.24982324  0.24917119  0.00896304  1
  Al0+  Al61  1  0.24838896  0.25314365  0.33937740  1
  Al0+  Al62  1  0.25081137  0.24970034  0.66893690  1
  Al0+  Al63  1  0.24881892  0.74935146  -0.00565535  1
  Al0+  Al64  1  0.25101623  0.74847353  0.32922671  1
  Al0+  Al65  1  0.25313040  0.74905439  0.67297988  1
  Al0+  Al66  1  0.74878124  0.25028123  -0.00286792  1
  Al0+  Al67  1  0.74796429  0.25103664  0.32962091  1
  Al0+  Al68  1  0.75076540  0.24960489  0.66928984  1
  Al0+  Al69  1  0.74923373  0.75090422  -0.00245843  1
  Al0+  Al70  1  0.75054805  0.75084386  0.33867465  1
  Al0+  Al71  1  0.75143559  0.75052594  0.66284234  1
  Al0+  Al72  1  0.17864327  0.43159853  0.34840287  1
  Al0+  Al73  1  0.81790876  0.57075240  0.01265814  1
  Al0+  Al74  1  0.32089090  0.06836882  0.01497816  1
  Al0+  Al75  1  0.92825588  0.82432679  0.31719751  1
  Al0+  Al76  1  0.17758468  0.92811281  0.68258932  1
  Al0+  Al77  1  0.06927378  0.67831864  0.98413887  1
  Al0+  Al78  1  0.93072857  0.82134508  0.65183439  1
  Al0+  Al79  1  0.92854843  0.32179947  0.65263686  1
  Al0+  Al80  1  0.17946970  0.43156272  0.01482547  1
  Al0+  Al81  1  0.57130486  0.67837881  0.98628752  1
  Al0+  Al82  1  0.17666103  0.42963350  0.68233830  1
  Al0+  Al83  1  0.32269138  0.57016665  0.68133867  1
  Al0+  Al84  1  0.32206057  0.07147313  0.34916311  1
  Al0+  Al85  1  0.42898662  0.31896426  0.65255593  1
  Al0+  Al86  1  0.67891704  0.92838541  0.34841023  1
  Al0+  Al87  1  0.82184382  0.07393112  0.34659968  1
  Al0+  Al88  1  0.07104743  0.67842493  0.31856381  1
  Al0+  Al89  1  0.17894985  0.92650407  0.34555888  1
  Al0+  Al90  1  0.32308725  0.07113122  0.68205451  1
  Al0+  Al91  1  0.56869832  0.18036472  0.32036526  1
  Al0+  Al92  1  0.81908631  0.06990036  0.68084324  1
  Al0+  Al93  1  0.68071498  0.42878923  0.67917372  1
  Al0+  Al94  1  0.81988499  0.57151028  0.34885335  1
  Al0+  Al95  1  0.57091473  0.17865890  0.98364532  1
  Si0+  Si96  1  0.57271466  0.17566412  0.64901842  1
  Si0+  Si97  1  0.43029205  0.82091830  0.31957736  1
  Si0+  Si98  1  0.82204979  0.07355462  0.01422251  1
  Si0+  Si99  1  0.57100969  0.67786677  0.65086622  1
  Si0+  Si100  1  0.42853112  0.82187425  0.98223509  1
  Si0+  Si101  1  0.42962496  0.82079782  0.65133964  1
  Si0+  Si102  1  0.68132733  0.93061000  0.01276828  1
  Si0+  Si103  1  0.32370181  0.57398528  0.01723165  1
  Si0+  Si104  1  0.92764453  0.82391703  0.98263988  1
  Si0+  Si105  1  0.67677956  0.42842850  0.34709431  1
  Si0+  Si106  1  0.67566592  0.42603799  0.01767320  1
  Si0+  Si107  1  0.82090610  0.57355743  0.68343861  1
  Si0+  Si108  1  0.57190788  0.67724651  0.31977835  1
  Si0+  Si109  1  0.42555745  0.32001304  0.98365078  1
  Si0+  Si110  1  0.92817024  0.32124314  0.31768564  1
  Si0+  Si111  1  0.07177061  0.17857780  0.65061481  1
  Si0+  Si112  1  0.17638027  0.92586115  0.01712944  1
  Si0+  Si113  1  0.42485303  0.32287133  0.31438789  1
  Si0+  Si114  1  0.07442190  0.67842944  0.65012440  1
  Si0+  Si115  1  0.93019994  0.32039409  0.98659750  1
  Si0+  Si116  1  0.07198622  0.17869842  0.98676097  1
  Si0+  Si117  1  0.07244470  0.18054111  0.31863730  1
  Si0+  Si118  1  0.67818770  0.92479087  0.68626442  1
  Si0+  Si119  1  0.32602637  0.57182778  0.34682899  1
  O2-  O120  1  0.24693038  -0.00742578  0.06105668  1
  O2-  O121  1  0.24870979  -0.00008711  0.39645767  1
  O2-  O122  1  0.25012101  0.00009093  0.73226252  1
  O2-  O123  1  0.25283202  0.50820875  0.06202755  1
  O2-  O124  1  0.25553083  0.50563747  0.39062512  1
  O2-  O125  1  0.24796855  0.50209338  0.73263459  1
  O2-  O126  1  0.75216833  0.00149177  0.05524719  1
  O2-  O127  1  0.75436718  -0.00235393  0.39641349  1
  O2-  O128  1  0.74514616  -0.00473656  0.72989008  1
  O2-  O129  1  0.74075747  0.49827605  0.06127937  1
  O2-  O130  1  0.74195378  0.49894684  0.39294202  1
  O2-  O131  1  0.75537155  0.50240252  0.72808559  1
  O2-  O132  1  -0.00049071  0.25025966  0.27534287  1
  O2-  O133  1  0.00510543  0.24924525  0.60548227  1
  O2-  O134  1  -0.00095637  0.24747983  0.94415713  1
  O2-  O135  1  0.00103543  0.75265751  0.26763891  1
  O2-  O136  1  0.00829172  0.74942982  0.60627384  1
  O2-  O137  1  -0.00120068  0.75765987  0.93872280  1
  O2-  O138  1  0.49131315  0.25151913  0.27107266  1
  O2-  O139  1  0.49978433  0.24015569  0.60562908  1
  O2-  O140  1  0.49727320  0.25473345  0.93879763  1
  O2-  O141  1  0.50185536  0.74957683  0.27770250  1
  O2-  O142  1  0.49949350  0.74835504  0.60856255  1
  O2-  O143  1  0.49165842  0.74722518  0.93828526  1
  O2-  O144  1  0.07003133  0.17806167  0.09201197  1
  O2-  O145  1  0.07384706  0.18243617  0.42335251  1
  O2-  O146  1  0.06919797  0.17957327  0.75706154  1
  O2-  O147  1  0.06600025  0.67741612  0.09686150  1
  O2-  O148  1  0.07018476  0.67743570  0.43191061  1
  O2-  O149  1  0.07061025  0.67739362  0.75607939  1
  O2-  O150  1  0.57205228  0.17754119  0.09680474  1
  O2-  O151  1  0.57049567  0.18401682  0.43304351  1
  O2-  O152  1  0.57307466  0.17838913  0.75508354  1
  O2-  O153  1  0.57243190  0.68419610  0.09967916  1
  O2-  O154  1  0.56862397  0.67369479  0.42480756  1
  O2-  O155  1  0.57183266  0.67945102  0.75616170  1
  O2-  O156  1  0.17840825  0.43136622  0.23491091  1
  O2-  O157  1  0.17712025  0.43196236  0.56894236  1
  O2-  O158  1  0.17864719  0.42993395  0.90239458  1
  O2-  O159  1  0.18338224  0.92765207  0.23143212  1
  O2-  O160  1  0.17882397  0.92856500  0.56908550  1
  O2-  O161  1  0.17521681  0.92854864  0.91178943  1
  O2-  O162  1  0.67886368  0.42904236  0.24129289  1
  O2-  O163  1  0.68062467  0.43206543  0.56588960  1
  O2-  O164  1  0.67868301  0.42470429  0.91206766  1
  O2-  O165  1  0.67695935  0.92946929  0.23389389  1
  O2-  O166  1  0.67669396  0.92337810  0.58127069  1
  O2-  O167  1  0.68232619  0.92965323  0.90777089  1
  O2-  O168  1  0.42646613  0.31894115  0.08940883  1
  O2-  O169  1  0.42739798  0.32657915  0.41962111  1
  O2-  O170  1  0.43177510  0.31918734  0.76594455  1
  O2-  O171  1  0.43211405  0.82329030  0.08819543  1
  O2-  O172  1  0.43000849  0.81903604  0.42466087  1
  O2-  O173  1  0.43299539  0.82181221  0.75645363  1
  O2-  O174  1  0.93011645  0.31922904  0.09201515  1
  O2-  O175  1  0.92695956  0.32055362  0.42257911  1
  O2-  O176  1  0.92818224  0.31966981  0.76650329  1
  O2-  O177  1  0.92584064  0.82532738  0.08775827  1
  O2-  O178  1  0.92926720  0.82233683  0.43067266  1
  O2-  O179  1  0.92912000  0.81741837  0.76557529  1
  O2-  O180  1  0.32295503  0.06805819  0.23503315  1
  O2-  O181  1  0.32267584  0.06830901  0.56889307  1
  O2-  O182  1  0.31942773  0.06854967  0.90224223  1
  O2-  O183  1  0.33210000  0.56975736  0.24139966  1
  O2-  O184  1  0.32290760  0.56970268  0.56734983  1
  O2-  O185  1  0.32526949  0.57109702  0.91213452  1
  O2-  O186  1  0.81788631  0.07581268  0.23216108  1
  O2-  O187  1  0.81740402  0.07136936  0.56842775  1
  O2-  O188  1  0.82227342  0.07433090  0.90924452  1
  O2-  O189  1  0.81929554  0.57029017  0.23520725  1
  O2-  O190  1  0.81740604  0.57399317  0.57797090  1
  O2-  O191  1  0.81723863  0.56770537  0.89960781  1
  O2-  O192  1  0.04718646  0.08932836  0.26865449  1
  O2-  O193  1  0.04272837  0.08562822  0.60631728  1
  O2-  O194  1  0.04668924  0.08645392  0.93835360  1
  O2-  O195  1  0.03529185  0.58051553  0.26701140  1
  O2-  O196  1  0.04643233  0.58579094  0.60375334  1
  O2-  O197  1  0.03267227  0.58311917  0.93035636  1
  O2-  O198  1  0.54055086  0.08218767  0.26648449  1
  O2-  O199  1  0.55329296  0.07876409  0.60739443  1
  O2-  O200  1  0.54193521  0.08218814  0.92865722  1
  O2-  O201  1  0.54450661  0.58675603  0.26830710  1
  O2-  O202  1  0.54401622  0.58619767  0.60357639  1
  O2-  O203  1  0.54575548  0.57910050  0.93409004  1
  O2-  O204  1  0.16331009  0.21212397  0.27014694  1
  O2-  O205  1  0.16626877  0.20087343  0.60600974  1
  O2-  O206  1  0.16351211  0.20910087  0.94115032  1
  O2-  O207  1  0.17137264  0.70037995  0.26419310  1
  O2-  O208  1  0.17084167  0.69989038  0.60848976  1
  O2-  O209  1  0.16818462  0.70212773  0.93058380  1
  O2-  O210  1  0.66367578  0.21389950  0.26253979  1
  O2-  O211  1  0.66474989  0.20684895  0.60420172  1
  O2-  O212  1  0.66810658  0.20953916  0.92954449  1
  O2-  O213  1  0.66377717  0.70540738  0.27366241  1
  O2-  O214  1  0.66217851  0.70706566  0.60294391  1
  O2-  O215  1  0.66505796  0.71408103  0.92936990  1
  O2-  O216  1  0.08224495  0.46170481  0.06834099  1
  O2-  O217  1  0.08299297  0.46132002  0.40333393  1
  O2-  O218  1  0.07734023  0.45767578  0.73483866  1
  O2-  O219  1  0.08289865  0.95338068  0.06291056  1
  O2-  O220  1  0.08027721  0.95492155  0.39593470  1
  O2-  O221  1  0.08056338  0.95647408  0.73788610  1
  O2-  O222  1  0.57980794  0.44615308  0.06115854  1
  O2-  O223  1  0.58120583  0.45134149  0.39032346  1
  O2-  O224  1  0.58617851  0.46035873  0.73566867  1
  O2-  O225  1  0.58916626  0.95768679  0.05939740  1
  O2-  O226  1  0.58287634  0.95946787  0.40382619  1
  O2-  O227  1  0.58452635  0.94708920  0.73368042  1
  O2-  O228  1  0.21005981  0.33574262  0.07127935  1
  O2-  O229  1  0.20705861  0.33591661  0.40420898  1
  O2-  O230  1  0.20456937  0.33086008  0.73412295  1
  O2-  O231  1  0.19986680  0.83031723  0.05988478  1
  O2-  O232  1  0.20875162  0.82798844  0.39720049  1
  O2-  O233  1  0.20769376  0.83068031  0.73641451  1
  O2-  O234  1  0.70604457  0.33351487  0.06393323  1
  O2-  O235  1  0.70509108  0.33658893  0.39363951  1
  O2-  O236  1  0.71075014  0.33344454  0.73548366  1
  O2-  O237  1  0.70806162  0.83897071  0.06103413  1
  O2-  O238  1  0.69990302  0.82927206  0.40218429  1
  O2-  O239  1  0.70710085  0.83162614  0.73226690  1
  O2-  O240  1  0.45286152  0.41473439  0.26418909  1
  O2-  O241  1  0.46469988  0.41398711  0.59738465  1
  O2-  O242  1  0.44619296  0.41531664  0.93875258  1
  O2-  O243  1  0.46008736  0.91199257  0.27189122  1
  O2-  O244  1  0.46043907  0.91134642  0.60264122  1
  O2-  O245  1  0.46224023  0.91158787  0.93340220  1
  O2-  O246  1  0.95831318  0.41297119  0.27150748  1
  O2-  O247  1  0.95521112  0.41954084  0.59829206  1
  O2-  O248  1  0.95882719  0.41129455  0.93920569  1
  O2-  O249  1  0.95201062  0.92439625  0.26413647  1
  O2-  O250  1  0.95763594  0.92026613  0.60130413  1
  O2-  O251  1  0.95141068  0.91913992  0.93716006  1
  O2-  O252  1  0.32955228  0.29982949  0.27080633  1
  O2-  O253  1  0.33078217  0.29270423  0.59918728  1
  O2-  O254  1  0.33248251  0.28992328  0.93931613  1
  O2-  O255  1  0.34051609  0.79363243  0.26777155  1
  O2-  O256  1  0.33738813  0.79403839  0.60459180  1
  O2-  O257  1  0.33299164  0.80381267  0.93769757  1
  O2-  O258  1  0.83709573  0.29473785  0.26759733  1
  O2-  O259  1  0.83243973  0.28831404  0.59895379  1
  O2-  O260  1  0.83770639  0.29442106  0.93911476  1
  O2-  O261  1  0.82823711  0.79352572  0.26713660  1
  O2-  O262  1  0.83385911  0.79042958  0.59778795  1
  O2-  O263  1  0.83510903  0.79620182  0.93543055  1
  O2-  O264  1  0.41903395  0.03601123  0.06573106  1
  O2-  O265  1  0.41923052  0.04288172  0.40209308  1
  O2-  O266  1  0.42157537  0.04016776  0.73466413  1
  O2-  O267  1  0.41760059  0.54745689  0.06388558  1
  O2-  O268  1  0.41895628  0.54478807  0.39466988  1
  O2-  O269  1  0.42020855  0.53828492  0.73408336  1
  O2-  O270  1  0.91520533  0.04876901  0.06076606  1
  O2-  O271  1  0.92200022  0.05371424  0.39786093  1
  O2-  O272  1  0.91486412  0.04065390  0.73752110  1
  O2-  O273  1  0.91184067  0.53615162  0.06887603  1
  O2-  O274  1  0.91287266  0.53696295  0.40533884  1
  O2-  O275  1  0.91566867  0.55048327  0.72688126  1
  O2-  O276  1  0.28973123  0.16331797  0.07151790  1
  O2-  O277  1  0.29447956  0.17046277  0.39939473  1
  O2-  O278  1  0.29527300  0.16898214  0.73570900  1
  O2-  O279  1  0.30257777  0.67041955  0.05949785  1
  O2-  O280  1  0.30400556  0.66662422  0.39094024  1
  O2-  O281  1  0.30364175  0.66986583  0.73542732  1
  O2-  O282  1  0.79380072  0.16542090  0.06113603  1
  O2-  O283  1  0.78799905  0.17134715  0.39882484  1
  O2-  O284  1  0.78819143  0.16543977  0.73733574  1
  O2-  O285  1  0.78698441  0.66816430  0.06559133  1
  O2-  O286  1  0.78999135  0.66670286  0.40428590  1
  O2-  O287  1  0.79146253  0.66587905  0.72983958  1
