# generated using pymatgen
data_Ca2Al2SiO7
_symmetry_space_group_name_H-M   'P 1'
_cell_length_a   15.46059579
_cell_length_b   15.45884330
_cell_length_c   15.28489627
_cell_angle_alpha   89.99904900
_cell_angle_beta   89.97852466
_cell_angle_gamma   90.00306329
_symmetry_Int_Tables_number   1
_chemical_formula_structural   Ca2Al2SiO7
_chemical_formula_sum   'Ca48 Al48 Si24 O168'
_cell_volume   3653.13469414
_cell_formula_units_Z   24
loop_
 _symmetry_equiv_pos_site_id
 _symmetry_equiv_pos_as_xyz
  1  'x, y, z'
loop_
 _atom_type_symbol
 _atom_type_oxidation_number
  Ca2+  2.0
  Al0+  0.0
  Si0+  0.0
  O2-  -2.0
loop_
 _atom_site_type_symbol
 _atom_site_label
 _atom_site_symmetry_multiplicity
 _atom_site_fract_x
 _atom_site_fract_y
 _atom_site_fract_z
 _atom_site_occupancy
  Ca2+  Ca0  1  0.17397297  0.08391960  0.16706381  1
  Ca2+  Ca1  1  0.17803347  0.08938618  0.50252996  1
  Ca2+  Ca2  1  0.17960725  0.07827547  0.84062656  1
  Ca2+  Ca3  1  0.17245218  0.58410454  0.16602628  1
  Ca2+  Ca4  1  0.17376770  0.57982646  0.50749704  1
  Ca2+  Ca5  1  0.18149443  0.58455222  0.83831595  1
  Ca2+  Ca6  1  0.67873955  0.08042554  0.17341024  1
  Ca2+  Ca7  1  0.66745530  0.08059687  0.50119306  1
  Ca2+  Ca8  1  0.66949375  0.08353866  0.83761784  1
  Ca2+  Ca9  1  0.66667964  0.58079753  0.15972089  1
  Ca2+  Ca10  1  0.66335053  0.57664213  0.50862160  1
  Ca2+  Ca11  1  0.66059868  0.57571505  0.84109882  1
  Ca2+  Ca12  1  0.07207828  0.32515938  0.16320453  1
  Ca2+  Ca13  1  0.07829879  0.32614267  0.48795168  1
  Ca2+  Ca14  1  0.07552888  0.33647590  0.83395160  1
  Ca2+  Ca15  1  0.07811202  0.83842587  0.15776941  1
  Ca2+  Ca16  1  0.07864463  0.83485393  0.50083100  1
  Ca2+  Ca17  1  0.07382311  0.84375131  0.83431154  1
  Ca2+  Ca18  1  0.57977560  0.33158819  0.15633536  1
  Ca2+  Ca19  1  0.58162299  0.32999704  0.50662433  1
  Ca2+  Ca20  1  0.57856291  0.33232116  0.82799380  1
  Ca2+  Ca21  1  0.58284133  0.83165788  0.16388810  1
  Ca2+  Ca22  1  0.57338099  0.83496375  0.49734969  1
  Ca2+  Ca23  1  0.57984997  0.81798515  0.82534347  1
  Ca2+  Ca24  1  0.34122674  0.42280948  0.16431183  1
  Ca2+  Ca25  1  0.33532058  0.42128725  0.51121212  1
  Ca2+  Ca26  1  0.34670781  0.42439489  0.83748213  1
  Ca2+  Ca27  1  0.33355399  0.92663822  0.17319454  1
  Ca2+  Ca28  1  0.34183029  0.92435078  0.50529198  1
  Ca2+  Ca29  1  0.33511100  0.92521692  0.83912413  1
  Ca2+  Ca30  1  0.83300154  0.41449286  0.16668204  1
  Ca2+  Ca31  1  0.82895650  0.41528822  0.50640483  1
  Ca2+  Ca32  1  0.81909938  0.42076343  0.84445154  1
  Ca2+  Ca33  1  0.83049426  0.92484287  0.17025549  1
  Ca2+  Ca34  1  0.82989719  0.91966376  0.50234228  1
  Ca2+  Ca35  1  0.83513123  0.91871633  0.84262316  1
  Ca2+  Ca36  1  0.41355974  0.16931143  0.16008082  1
  Ca2+  Ca37  1  0.41881650  0.16279547  0.49847481  1
  Ca2+  Ca38  1  0.41752911  0.17355612  0.82528154  1
  Ca2+  Ca39  1  0.42172144  0.67334982  0.15729553  1
  Ca2+  Ca40  1  0.41721191  0.67521255  0.50020407  1
  Ca2+  Ca41  1  0.42369006  0.66405417  0.82602290  1
  Ca2+  Ca42  1  0.91235608  0.16985356  0.16117337  1
  Ca2+  Ca43  1  0.92368940  0.17133916  0.48727506  1
  Ca2+  Ca44  1  0.91258667  0.16992131  0.83382734  1
  Ca2+  Ca45  1  0.91576835  0.67266069  0.15442928  1
  Ca2+  Ca46  1  0.91439704  0.67363631  0.49931158  1
  Ca2+  Ca47  1  0.91037075  0.67768821  0.83245048  1
  Al0+  Al48  1  0.00091372  0.00088263  0.00285519  1
  Al0+  Al49  1  0.00248026  -0.00071817  0.33339716  1
  Al0+  Al50  1  -0.00011636  0.00131591  0.66109747  1
  Al0+  Al51  1  0.00058807  0.50046255  -0.00266607  1
  Al0+  Al52  1  0.00032108  0.50017661  0.33112590  1
  Al0+  Al53  1  -0.00072810  0.50182971  0.66720907  1
  Al0+  Al54  1  0.50053496  -0.00011362  0.00368382  1
  Al0+  Al55  1  0.49983804  -0.00007354  0.33496462  1
  Al0+  Al56  1  0.50295129  0.00001115  0.66660036  1
  Al0+  Al57  1  0.50020813  0.49950577  0.00320047  1
  Al0+  Al58  1  0.50168489  0.50161876  0.33471850  1
  Al0+  Al59  1  0.50030591  0.49799361  0.66550195  1
  Al0+  Al60  1  0.24893489  0.25100661  -0.00175541  1
  Al0+  Al61  1  0.24865533  0.25101291  0.33197202  1
  Al0+  Al62  1  0.24803157  0.25024500  0.66908370  1
  Al0+  Al63  1  0.24883801  0.74973117  0.00741046  1
  Al0+  Al64  1  0.25124520  0.75101330  0.32999311  1
  Al0+  Al65  1  0.24718357  0.74999040  0.66791502  1
  Al0+  Al66  1  0.74921139  0.24992460  0.00277924  1
  Al0+  Al67  1  0.74855721  0.25120631  0.33487927  1
  Al0+  Al68  1  0.74947933  0.25049406  0.66664792  1
  Al0+  Al69  1  0.74958753  0.74823894  -0.00472190  1
  Al0+  Al70  1  0.74901781  0.74745918  0.33737823  1
  Al0+  Al71  1  0.75071258  0.75077819  0.65684953  1
  Al0+  Al72  1  0.57048740  0.67688340  0.65021293  1
  Al0+  Al73  1  0.32312772  0.07252736  0.01528268  1
  Al0+  Al74  1  0.67882590  0.42914314  0.01656096  1
  Al0+  Al75  1  0.31892150  0.07187220  0.34827712  1
  Al0+  Al76  1  0.57297961  0.17803912  0.65125617  1
  Al0+  Al77  1  0.32284897  0.07047938  0.68097615  1
  Al0+  Al78  1  0.92733026  0.32146540  0.98424575  1
  Al0+  Al79  1  0.68094046  0.42940366  0.68069049  1
  Al0+  Al80  1  0.82176693  0.57200979  0.01338620  1
  Al0+  Al81  1  0.07292820  0.17716613  0.31630990  1
  Al0+  Al82  1  0.82250523  0.07187286  0.34986909  1
  Al0+  Al83  1  0.67955921  0.92750217  0.34964030  1
  Al0+  Al84  1  0.92961164  0.82239850  0.65112798  1
  Al0+  Al85  1  0.42757630  0.31936935  0.65150800  1
  Al0+  Al86  1  0.93071118  0.82113464  0.98829064  1
  Al0+  Al87  1  0.42875131  0.31920402  0.98765937  1
  Al0+  Al88  1  0.56900710  0.68073635  0.98702955  1
  Al0+  Al89  1  0.42692737  0.82146207  0.65408297  1
  Al0+  Al90  1  0.81969367  0.07059353  0.01166548  1
  Al0+  Al91  1  0.43025358  0.82157214  0.31772988  1
  Al0+  Al92  1  0.92706500  0.32089461  0.31793369  1
  Al0+  Al93  1  0.31947016  0.57035949  0.67921442  1
  Al0+  Al94  1  0.17944765  0.92958990  0.01498011  1
  Al0+  Al95  1  0.32140167  0.56942450  0.01477165  1
  Si0+  Si96  1  0.07096802  0.17847664  0.98059837  1
  Si0+  Si97  1  0.06983523  0.18009156  0.65210478  1
  Si0+  Si98  1  0.07149692  0.67882978  0.31808781  1
  Si0+  Si99  1  0.32166547  0.57160815  0.34880825  1
  Si0+  Si100  1  0.17545679  0.42749924  0.01775299  1
  Si0+  Si101  1  0.17930195  0.43157727  0.34696576  1
  Si0+  Si102  1  0.92826891  0.81900866  0.31819719  1
  Si0+  Si103  1  0.17495347  0.42705693  0.68363922  1
  Si0+  Si104  1  0.17866508  0.92481113  0.35218071  1
  Si0+  Si105  1  0.17561490  0.92937177  0.68224643  1
  Si0+  Si106  1  0.82316527  0.56976721  0.34921116  1
  Si0+  Si107  1  0.07461874  0.67697504  0.98255743  1
  Si0+  Si108  1  0.42919394  0.32308920  0.31916560  1
  Si0+  Si109  1  0.57244128  0.67606135  0.31440335  1
  Si0+  Si110  1  0.56973930  0.17948292  0.31809277  1
  Si0+  Si111  1  0.82210320  0.06993315  0.68097833  1
  Si0+  Si112  1  0.92916723  0.32175134  0.65319725  1
  Si0+  Si113  1  0.82311618  0.57420405  0.68280840  1
  Si0+  Si114  1  0.68057197  0.92748148  0.68228660  1
  Si0+  Si115  1  0.07134594  0.67661262  0.64963228  1
  Si0+  Si116  1  0.67832652  0.92528359  0.01401142  1
  Si0+  Si117  1  0.57258130  0.17607701  0.98559244  1
  Si0+  Si118  1  0.42588891  0.82329013  0.98487752  1
  Si0+  Si119  1  0.67761789  0.42929800  0.35029793  1
  O2-  O120  1  0.25428766  -0.00219647  0.06582768  1
  O2-  O121  1  0.24504339  -0.00404204  0.39568224  1
  O2-  O122  1  0.25034720  -0.00805933  0.72516559  1
  O2-  O123  1  0.24605977  0.49485846  0.06195616  1
  O2-  O124  1  0.25191463  0.49969558  0.39133103  1
  O2-  O125  1  0.24623063  0.49361286  0.72608461  1
  O2-  O126  1  0.74448162  -0.00351261  0.05788088  1
  O2-  O127  1  0.75215383  -0.00106394  0.40108223  1
  O2-  O128  1  0.75198436  -0.00142871  0.72421776  1
  O2-  O129  1  0.75439078  0.49775490  0.06678275  1
  O2-  O130  1  0.75249229  0.49789440  0.39043452  1
  O2-  O131  1  0.75309491  0.50723727  0.72582935  1
  O2-  O132  1  -0.00628415  0.24321516  0.26871886  1
  O2-  O133  1  0.00219407  0.25432161  0.60978177  1
  O2-  O134  1  0.00178878  0.24696700  0.93597474  1
  O2-  O135  1  0.00112568  0.75008611  0.27581286  1
  O2-  O136  1  0.00279342  0.74543961  0.60497347  1
  O2-  O137  1  0.00499430  0.74591900  0.94029335  1
  O2-  O138  1  0.49874590  0.25107052  0.27663389  1
  O2-  O139  1  0.49601330  0.24479104  0.59993854  1
  O2-  O140  1  0.49981613  0.24069079  0.94246479  1
  O2-  O141  1  0.50572757  0.74714907  0.27175250  1
  O2-  O142  1  0.49801337  0.74926760  0.60177364  1
  O2-  O143  1  0.49390165  0.75481374  0.94028602  1
  O2-  O144  1  0.07088021  0.17969089  0.08605071  1
  O2-  O145  1  0.07478310  0.18395301  0.43068606  1
  O2-  O146  1  0.06728392  0.17812416  0.75692218  1
  O2-  O147  1  0.07376430  0.67668181  0.08868252  1
  O2-  O148  1  0.07066538  0.67765095  0.42339732  1
  O2-  O149  1  0.07126947  0.67368280  0.75441313  1
  O2-  O150  1  0.57372997  0.17709447  0.09155006  1
  O2-  O151  1  0.57007221  0.18047888  0.42299508  1
  O2-  O152  1  0.57618673  0.17949038  0.76468829  1
  O2-  O153  1  0.56865044  0.68321636  0.10056123  1
  O2-  O154  1  0.57011875  0.67128452  0.41961269  1
  O2-  O155  1  0.57068384  0.67808194  0.76383324  1
  O2-  O156  1  0.17874488  0.43454914  0.24239906  1
  O2-  O157  1  0.17182017  0.42911815  0.57753257  1
  O2-  O158  1  0.17358899  0.42969295  0.91211969  1
  O2-  O159  1  0.18045119  0.92127818  0.24704534  1
  O2-  O160  1  0.17154569  0.93267655  0.57672318  1
  O2-  O161  1  0.17854983  0.93261075  0.90097783  1
  O2-  O162  1  0.67360807  0.43038833  0.24576872  1
  O2-  O163  1  0.68539374  0.42875669  0.56676602  1
  O2-  O164  1  0.67827031  0.42996575  0.90317394  1
  O2-  O165  1  0.68265969  0.92764680  0.23567762  1
  O2-  O166  1  0.68203938  0.92793974  0.57737721  1
  O2-  O167  1  0.67960707  0.92546257  0.90819393  1
  O2-  O168  1  0.43145677  0.31952660  0.10175558  1
  O2-  O169  1  0.42977555  0.32551833  0.42380099  1
  O2-  O170  1  0.42999925  0.31934617  0.76479426  1
  O2-  O171  1  0.42842190  0.82236464  0.09071608  1
  O2-  O172  1  0.42860821  0.81817510  0.43071735  1
  O2-  O173  1  0.42922054  0.82101649  0.76766713  1
  O2-  O174  1  0.92915843  0.31945531  0.09704746  1
  O2-  O175  1  0.93167816  0.32413603  0.43239299  1
  O2-  O176  1  0.92973642  0.32019104  0.75801810  1
  O2-  O177  1  0.93106928  0.81979071  0.10168312  1
  O2-  O178  1  0.92965539  0.81643708  0.42359578  1
  O2-  O179  1  0.93084647  0.82458797  0.76395452  1
  O2-  O180  1  0.31847875  0.07278632  0.23561785  1
  O2-  O181  1  0.31903721  0.07140228  0.56768821  1
  O2-  O182  1  0.32249470  0.07181730  0.90158394  1
  O2-  O183  1  0.32146104  0.57000736  0.24384803  1
  O2-  O184  1  0.31537619  0.56931820  0.56530393  1
  O2-  O185  1  0.32110116  0.56890425  0.90176825  1
  O2-  O186  1  0.81953416  0.07079069  0.23630860  1
  O2-  O187  1  0.82326964  0.06904541  0.57619293  1
  O2-  O188  1  0.81892688  0.06928332  0.89784248  1
  O2-  O189  1  0.82501689  0.57208505  0.24468150  1
  O2-  O190  1  0.82657633  0.57017109  0.57656304  1
  O2-  O191  1  0.81873426  0.57298792  0.89995389  1
  O2-  O192  1  0.05401300  0.07515163  0.26756909  1
  O2-  O193  1  0.03965197  0.09097820  0.60111173  1
  O2-  O194  1  0.04406814  0.08537677  0.93510916  1
  O2-  O195  1  0.04370664  0.58770438  0.26980131  1
  O2-  O196  1  0.04494032  0.58352900  0.60046178  1
  O2-  O197  1  0.05227760  0.58350655  0.93554527  1
  O2-  O198  1  0.54292211  0.08794238  0.27079688  1
  O2-  O199  1  0.55004802  0.07845627  0.59892773  1
  O2-  O200  1  0.55257893  0.08035425  0.94063030  1
  O2-  O201  1  0.54323589  0.58363894  0.26705803  1
  O2-  O202  1  0.54187600  0.57919148  0.59683187  1
  O2-  O203  1  0.53670708  0.58395191  0.93565935  1
  O2-  O204  1  0.16785713  0.21454432  0.26156805  1
  O2-  O205  1  0.16188723  0.20647336  0.60478540  1
  O2-  O206  1  0.16379649  0.20566645  0.93366174  1
  O2-  O207  1  0.16355490  0.70470089  0.27041120  1
  O2-  O208  1  0.16372782  0.70284604  0.60117152  1
  O2-  O209  1  0.16844365  0.70388329  0.93745122  1
  O2-  O210  1  0.66142779  0.20841949  0.27118372  1
  O2-  O211  1  0.66953266  0.21246051  0.59598847  1
  O2-  O212  1  0.66439222  0.20478993  0.93816663  1
  O2-  O213  1  0.66787740  0.69978694  0.27123825  1
  O2-  O214  1  0.66877037  0.70366899  0.59572487  1
  O2-  O215  1  0.66449800  0.70965556  0.93037710  1
  O2-  O216  1  0.08332364  0.45546165  0.06536782  1
  O2-  O217  1  0.08848148  0.46177284  0.39645234  1
  O2-  O218  1  0.08215733  0.45592231  0.73074773  1
  O2-  O219  1  0.08302419  0.96145596  0.07016346  1
  O2-  O220  1  0.08356337  0.94680621  0.39690348  1
  O2-  O221  1  0.08428983  0.96325249  0.72917220  1
  O2-  O222  1  0.58331797  0.46209511  0.07238640  1
  O2-  O223  1  0.58753278  0.46148241  0.39972631  1
  O2-  O224  1  0.58307057  0.45648245  0.73235099  1
  O2-  O225  1  0.58437350  0.94729071  0.06094395  1
  O2-  O226  1  0.58192369  0.95856552  0.40200930  1
  O2-  O227  1  0.58969925  0.95416844  0.73115437  1
  O2-  O228  1  0.19930504  0.33338911  0.06252746  1
  O2-  O229  1  0.20521632  0.33956052  0.39452094  1
  O2-  O230  1  0.19504475  0.33287423  0.72979911  1
  O2-  O231  1  0.19889257  0.82967920  0.06866993  1
  O2-  O232  1  0.20530951  0.83113491  0.39897975  1
  O2-  O233  1  0.19128798  0.83296529  0.72563139  1
  O2-  O234  1  0.70490009  0.33045940  0.06946813  1
  O2-  O235  1  0.70210819  0.33712470  0.39798537  1
  O2-  O236  1  0.71465069  0.33383730  0.73500017  1
  O2-  O237  1  0.70708578  0.83364568  0.06116175  1
  O2-  O238  1  0.70625400  0.82818193  0.40287406  1
  O2-  O239  1  0.71043035  0.83479693  0.72683323  1
  O2-  O240  1  0.45942195  0.41499228  0.27218836  1
  O2-  O241  1  0.45932206  0.41593372  0.59679445  1
  O2-  O242  1  0.46345139  0.41502930  0.93561929  1
  O2-  O243  1  0.46088259  0.91859232  0.26463644  1
  O2-  O244  1  0.45933820  0.91839722  0.60060854  1
  O2-  O245  1  0.45099606  0.91784204  0.94048680  1
  O2-  O246  1  0.96093007  0.41823458  0.26539605  1
  O2-  O247  1  0.95327364  0.41549993  0.60687560  1
  O2-  O248  1  0.95897411  0.41797705  0.92994639  1
  O2-  O249  1  0.95372181  0.91209384  0.27315519  1
  O2-  O250  1  0.96327689  0.91717984  0.59438458  1
  O2-  O251  1  0.96279310  0.91747612  0.93357063  1
  O2-  O252  1  0.33667851  0.29818949  0.27258111  1
  O2-  O253  1  0.32558805  0.29774536  0.60161271  1
  O2-  O254  1  0.33013472  0.29671528  0.93384199  1
  O2-  O255  1  0.33382460  0.78962556  0.26361496  1
  O2-  O256  1  0.32678956  0.79597573  0.60201020  1
  O2-  O257  1  0.33087338  0.79842753  0.94269362  1
  O2-  O258  1  0.82604641  0.29887838  0.26802694  1
  O2-  O259  1  0.83918760  0.29138194  0.60471342  1
  O2-  O260  1  0.83067143  0.28871566  0.93156301  1
  O2-  O261  1  0.83652862  0.78830235  0.27312715  1
  O2-  O262  1  0.83542238  0.79197415  0.59261671  1
  O2-  O263  1  0.83516731  0.79064088  0.93207679  1
  O2-  O264  1  0.42255429  0.04797023  0.06898376  1
  O2-  O265  1  0.41615806  0.04152055  0.40059394  1
  O2-  O266  1  0.42115252  0.04376563  0.73322527  1
  O2-  O267  1  0.41528578  0.53656275  0.07215663  1
  O2-  O268  1  0.41383951  0.54421865  0.39552140  1
  O2-  O269  1  0.41616014  0.53940758  0.73148291  1
  O2-  O270  1  0.91532985  0.04034765  0.06620072  1
  O2-  O271  1  0.92293654  0.04513777  0.40018766  1
  O2-  O272  1  0.91440908  0.04221065  0.72747190  1
  O2-  O273  1  0.92274719  0.54911861  0.06376519  1
  O2-  O274  1  0.91530821  0.54298563  0.39775023  1
  O2-  O275  1  0.91679526  0.54962377  0.72916130  1
  O2-  O276  1  0.29105147  0.17095086  0.06650943  1
  O2-  O277  1  0.28757793  0.16955236  0.40133165  1
  O2-  O278  1  0.28763959  0.16635956  0.73425690  1
  O2-  O279  1  0.29057129  0.66488737  0.07124116  1
  O2-  O280  1  0.29102815  0.66302426  0.39479130  1
  O2-  O281  1  0.28699493  0.66622910  0.73404461  1
  O2-  O282  1  0.78908056  0.16554947  0.06777916  1
  O2-  O283  1  0.79329481  0.17114722  0.40157981  1
  O2-  O284  1  0.79395773  0.16191486  0.72749608  1
  O2-  O285  1  0.78936587  0.66919325  0.06747424  1
  O2-  O286  1  0.79436650  0.66023077  0.39905911  1
  O2-  O287  1  0.79988285  0.67036592  0.72341709  1
