# generated using pymatgen
data_Ca2Al2SiO7
_symmetry_space_group_name_H-M   'P 1'
_cell_length_a   15.46142799
_cell_length_b   15.46176571
_cell_length_c   15.28570164
_cell_angle_alpha   90.00380439
_cell_angle_beta   90.02006806
_cell_angle_gamma   89.99007385
_symmetry_Int_Tables_number   1
_chemical_formula_structural   Ca2Al2SiO7
_chemical_formula_sum   'Ca48 Al48 Si24 O168'
_cell_volume   3654.21448330
_cell_formula_units_Z   24
loop_
 _symmetry_equiv_pos_site_id
 _symmetry_equiv_pos_as_xyz
  1  'x, y, z'
loop_
 _atom_type_symbol
 _atom_type_oxidation_number
  Ca2+  2.0
  Al0+  0.0
  Si0+  0.0
  O2-  -2.0
loop_
 _atom_site_type_symbol
 _atom_site_label
 _atom_site_symmetry_multiplicity
 _atom_site_fract_x
 _atom_site_fract_y
 _atom_site_fract_z
 _atom_site_occupancy
  Ca2+  Ca0  1  0.17161689  0.07222698  0.17459921  1
  Ca2+  Ca1  1  0.16399536  0.07565064  0.50616794  1
  Ca2+  Ca2  1  0.16720007  0.08504229  0.83571969  1
  Ca2+  Ca3  1  0.16394204  0.57994360  0.17672723  1
  Ca2+  Ca4  1  0.17120926  0.58730073  0.49849832  1
  Ca2+  Ca5  1  0.16379539  0.58278268  0.83831302  1
  Ca2+  Ca6  1  0.66793579  0.07656320  0.17677990  1
  Ca2+  Ca7  1  0.66243405  0.07746638  0.50743329  1
  Ca2+  Ca8  1  0.66464964  0.07914566  0.82879975  1
  Ca2+  Ca9  1  0.67409492  0.58239244  0.17697066  1
  Ca2+  Ca10  1  0.66622497  0.57799775  0.50872194  1
  Ca2+  Ca11  1  0.65626209  0.58082561  0.83538243  1
  Ca2+  Ca12  1  0.07908668  0.34266967  0.16072776  1
  Ca2+  Ca13  1  0.08571991  0.32773802  0.49573938  1
  Ca2+  Ca14  1  0.07731508  0.33330538  0.82839950  1
  Ca2+  Ca15  1  0.08246380  0.82085953  0.16311108  1
  Ca2+  Ca16  1  0.08357981  0.82315377  0.49254150  1
  Ca2+  Ca17  1  0.08009051  0.82262259  0.82839643  1
  Ca2+  Ca18  1  0.59184919  0.32798660  0.16765711  1
  Ca2+  Ca19  1  0.59503312  0.32582810  0.49753447  1
  Ca2+  Ca20  1  0.57718615  0.33029439  0.81766113  1
  Ca2+  Ca21  1  0.57493263  0.82893737  0.16081644  1
  Ca2+  Ca22  1  0.57540583  0.84210415  0.49513737  1
  Ca2+  Ca23  1  0.57691892  0.82475165  0.82584416  1
  Ca2+  Ca24  1  0.31996256  0.42847068  0.17602730  1
  Ca2+  Ca25  1  0.33443900  0.42194983  0.50267501  1
  Ca2+  Ca26  1  0.32807569  0.41653909  0.83941266  1
  Ca2+  Ca27  1  0.33148293  0.90910606  0.17504225  1
  Ca2+  Ca28  1  0.33058416  0.90657067  0.50112524  1
  Ca2+  Ca29  1  0.34066903  0.91435451  0.83368559  1
  Ca2+  Ca30  1  0.83239305  0.42411134  0.17472110  1
  Ca2+  Ca31  1  0.82351536  0.42246867  0.49868234  1
  Ca2+  Ca32  1  0.82784920  0.41428802  0.83467680  1
  Ca2+  Ca33  1  0.82755989  0.91191594  0.17262837  1
  Ca2+  Ca34  1  0.81792338  0.92103517  0.50974938  1
  Ca2+  Ca35  1  0.83288388  0.91851190  0.83390919  1
  Ca2+  Ca36  1  0.42407448  0.16628442  0.16819929  1
  Ca2+  Ca37  1  0.42764455  0.17460450  0.49872271  1
  Ca2+  Ca38  1  0.42180916  0.17545478  0.82208379  1
  Ca2+  Ca39  1  0.41567809  0.67399876  0.16501126  1
  Ca2+  Ca40  1  0.42196879  0.67379825  0.49707398  1
  Ca2+  Ca41  1  0.42452891  0.67505779  0.82817219  1
  Ca2+  Ca42  1  0.91879125  0.17638385  0.16125640  1
  Ca2+  Ca43  1  0.91572040  0.16253053  0.50126976  1
  Ca2+  Ca44  1  0.91950598  0.17005491  0.82651059  1
  Ca2+  Ca45  1  0.92442254  0.66558271  0.16159808  1
  Ca2+  Ca46  1  0.92666836  0.65627925  0.49577781  1
  Ca2+  Ca47  1  0.92744123  0.66768381  0.83307389  1
  Al0+  Al48  1  0.00063635  0.00114343  0.00016378  1
  Al0+  Al49  1  0.00145739  0.00007736  0.33539254  1
  Al0+  Al50  1  -0.00029493  -0.00061443  0.66855021  1
  Al0+  Al51  1  -0.00296322  0.49808493  -0.00606532  1
  Al0+  Al52  1  -0.00021426  0.49781038  0.33822028  1
  Al0+  Al53  1  -0.00019056  0.49885732  0.66279466  1
  Al0+  Al54  1  0.50136400  0.00095271  -0.00177580  1
  Al0+  Al55  1  0.50020053  0.00209086  0.32676750  1
  Al0+  Al56  1  0.49765143  0.00221086  0.66541866  1
  Al0+  Al57  1  0.49792848  0.49744225  0.00211055  1
  Al0+  Al58  1  0.49849506  0.49816215  0.33864089  1
  Al0+  Al59  1  0.49667766  0.50405842  0.66615938  1
  Al0+  Al60  1  0.25106178  0.24865970  0.00862574  1
  Al0+  Al61  1  0.25177868  0.24886494  0.33394101  1
  Al0+  Al62  1  0.24807732  0.24909839  0.65941138  1
  Al0+  Al63  1  0.25135934  0.75071093  -0.00734655  1
  Al0+  Al64  1  0.24916447  0.74923341  0.33265745  1
  Al0+  Al65  1  0.24911289  0.74859799  0.66232309  1
  Al0+  Al66  1  0.75211038  0.24836685  -0.00348420  1
  Al0+  Al67  1  0.75256983  0.25019904  0.33034033  1
  Al0+  Al68  1  0.75095974  0.25147902  0.67118724  1
  Al0+  Al69  1  0.75018485  0.74918329  -0.00624202  1
  Al0+  Al70  1  0.75101174  0.75152108  0.34439873  1
  Al0+  Al71  1  0.75147727  0.74908740  0.67120552  1
  Al0+  Al72  1  0.82109406  0.57276837  0.34791737  1
  Al0+  Al73  1  0.92919065  0.32042253  0.98538502  1
  Al0+  Al74  1  0.06901952  0.67873426  0.65019007  1
  Al0+  Al75  1  0.57143048  0.18215628  0.31814814  1
  Al0+  Al76  1  0.06953528  0.17821880  0.65343903  1
  Al0+  Al77  1  0.17768773  0.42754893  0.35034823  1
  Al0+  Al78  1  0.42926849  0.82264357  0.98436271  1
  Al0+  Al79  1  0.42642583  0.32406641  0.65210194  1
  Al0+  Al80  1  0.43109305  0.81910381  0.31874803  1
  Al0+  Al81  1  0.57144942  0.67592120  0.98792152  1
  Al0+  Al82  1  0.32063813  0.57276969  0.34940695  1
  Al0+  Al83  1  0.17750873  0.43024037  0.01189192  1
  Al0+  Al84  1  0.82191246  0.07056526  0.68361320  1
  Al0+  Al85  1  0.92782289  0.82364075  0.98552008  1
  Al0+  Al86  1  0.43043167  0.82176698  0.65001465  1
  Al0+  Al87  1  0.67507157  0.92836799  0.68464930  1
  Al0+  Al88  1  0.67911555  0.42793608  0.34614533  1
  Al0+  Al89  1  0.06793676  0.67920189  0.31962464  1
  Al0+  Al90  1  0.67805512  0.93013025  0.34466905  1
  Al0+  Al91  1  0.57198938  0.18221789  0.65220334  1
  Al0+  Al92  1  0.67834925  0.43280269  0.68135637  1
  Al0+  Al93  1  0.57352339  0.67944755  0.65080288  1
  Al0+  Al94  1  0.18010821  0.92941843  0.34656355  1
  Al0+  Al95  1  0.07095630  0.67799076  0.98556687  1
  Si0+  Si96  1  0.32177756  0.57265217  0.01576570  1
  Si0+  Si97  1  0.31816172  0.57250489  0.68417043  1
  Si0+  Si98  1  0.81903076  0.56990832  0.01256792  1
  Si0+  Si99  1  0.42812953  0.31836573  0.98831679  1
  Si0+  Si100  1  0.17936082  0.42720864  0.68141334  1
  Si0+  Si101  1  0.57501715  0.67572971  0.32008364  1
  Si0+  Si102  1  0.92835333  0.82302673  0.64934739  1
  Si0+  Si103  1  0.07422575  0.17571981  0.31694711  1
  Si0+  Si104  1  0.93245920  0.31790066  0.31841135  1
  Si0+  Si105  1  0.82201831  0.07204231  0.01668291  1
  Si0+  Si106  1  0.07391439  0.17844420  0.98627427  1
  Si0+  Si107  1  0.32320601  0.07089292  0.01629592  1
  Si0+  Si108  1  0.82559466  0.57109814  0.68668990  1
  Si0+  Si109  1  0.17975446  0.92740811  0.68297415  1
  Si0+  Si110  1  0.57212702  0.17992197  0.98394900  1
  Si0+  Si111  1  0.92753472  0.32166954  0.64711523  1
  Si0+  Si112  1  0.31791957  0.07257239  0.68096701  1
  Si0+  Si113  1  0.32347962  0.07180240  0.35104130  1
  Si0+  Si114  1  0.42556432  0.32421862  0.31352716  1
  Si0+  Si115  1  0.67990549  0.92960971  0.01496406  1
  Si0+  Si116  1  0.67742273  0.42631562  0.01407207  1
  Si0+  Si117  1  0.82273504  0.07251708  0.34760963  1
  Si0+  Si118  1  0.92649256  0.82451312  0.31978894  1
  Si0+  Si119  1  0.17950788  0.92866261  0.01347621  1
  O2-  O120  1  0.25417025  -0.00344091  0.05608492  1
  O2-  O121  1  0.25338859  0.00471245  0.39508529  1
  O2-  O122  1  0.24972332  -0.00042296  0.72542806  1
  O2-  O123  1  0.24781719  0.50875996  0.05890020  1
  O2-  O124  1  0.25146115  0.49741792  0.39987142  1
  O2-  O125  1  0.24922025  0.49811412  0.72543282  1
  O2-  O126  1  0.75344949  -0.00152478  0.05843833  1
  O2-  O127  1  0.75539147  0.00269290  0.39004258  1
  O2-  O128  1  0.74954363  -0.00086032  0.73465703  1
  O2-  O129  1  0.74461414  0.50161031  0.05463258  1
  O2-  O130  1  0.74130496  0.50814355  0.39630419  1
  O2-  O131  1  0.75102179  0.50847287  0.73119613  1
  O2-  O132  1  0.00659884  0.24986228  0.27501234  1
  O2-  O133  1  -0.00589871  0.25023241  0.60420621  1
  O2-  O134  1  0.00721236  0.24792724  0.94127803  1
  O2-  O135  1  -0.00840417  0.75311657  0.27415664  1
  O2-  O136  1  -0.00800952  0.75080182  0.60387746  1
  O2-  O137  1  0.00197173  0.75349535  0.93617715  1
  O2-  O138  1  0.49864345  0.25885128  0.26985767  1
  O2-  O139  1  0.50480360  0.25888067  0.60246592  1
  O2-  O140  1  0.50210928  0.25228499  0.94350028  1
  O2-  O141  1  0.50675607  0.74403235  0.27378190  1
  O2-  O142  1  0.50854538  0.75701735  0.60001228  1
  O2-  O143  1  0.50034488  0.74870451  0.93778611  1
  O2-  O144  1  0.07209729  0.17664440  0.09195308  1
  O2-  O145  1  0.07151076  0.17341183  0.42172368  1
  O2-  O146  1  0.07207504  0.18221956  0.76700797  1
  O2-  O147  1  0.06915295  0.67742258  0.09918341  1
  O2-  O148  1  0.06774314  0.68087947  0.43247804  1
  O2-  O149  1  0.06960833  0.67943600  0.76353097  1
  O2-  O150  1  0.57283617  0.17941031  0.08923189  1
  O2-  O151  1  0.57197410  0.18228112  0.43037161  1
  O2-  O152  1  0.56754697  0.18258547  0.76667308  1
  O2-  O153  1  0.57334049  0.67719286  0.10184265  1
  O2-  O154  1  0.57377769  0.67799892  0.42503505  1
  O2-  O155  1  0.56622360  0.67687306  0.76447892  1
  O2-  O156  1  0.17622988  0.43011130  0.23611781  1
  O2-  O157  1  0.18026456  0.42670804  0.57687897  1
  O2-  O158  1  0.18148382  0.42638436  0.89861456  1
  O2-  O159  1  0.18019051  0.93081268  0.23270267  1
  O2-  O160  1  0.17995349  0.92825112  0.57793206  1
  O2-  O161  1  0.17776045  0.93239685  0.90841647  1
  O2-  O162  1  0.68559604  0.42596858  0.23168971  1
  O2-  O163  1  0.68246585  0.43146022  0.56876465  1
  O2-  O164  1  0.67721607  0.42429676  0.90923166  1
  O2-  O165  1  0.67941941  0.93089852  0.23060672  1
  O2-  O166  1  0.67461783  0.93320373  0.57096465  1
  O2-  O167  1  0.67803782  0.93357741  0.91058919  1
  O2-  O168  1  0.42891503  0.31572703  0.09302884  1
  O2-  O169  1  0.42132620  0.32045607  0.41837217  1
  O2-  O170  1  0.42412329  0.31898708  0.76703039  1
  O2-  O171  1  0.42996363  0.82375793  0.09802103  1
  O2-  O172  1  0.43135886  0.82118724  0.43099357  1
  O2-  O173  1  0.42827074  0.81858293  0.76369597  1
  O2-  O174  1  0.92771984  0.31909229  0.09875529  1
  O2-  O175  1  0.93075533  0.31425451  0.42303199  1
  O2-  O176  1  0.93045701  0.32301417  0.75314611  1
  O2-  O177  1  0.92734130  0.82234092  0.09942512  1
  O2-  O178  1  0.93049243  0.82862375  0.42474284  1
  O2-  O179  1  0.93392309  0.82426561  0.75519028  1
  O2-  O180  1  0.32143818  0.07112532  0.24450290  1
  O2-  O181  1  0.31491617  0.07439383  0.57641324  1
  O2-  O182  1  0.32187396  0.07583238  0.91138042  1
  O2-  O183  1  0.31741330  0.57314008  0.23497675  1
  O2-  O184  1  0.31590553  0.57453709  0.57957243  1
  O2-  O185  1  0.32405917  0.56812122  0.91021546  1
  O2-  O186  1  0.82234045  0.07361690  0.24133156  1
  O2-  O187  1  0.82353358  0.06721486  0.56986871  1
  O2-  O188  1  0.82106482  0.07475132  0.91234815  1
  O2-  O189  1  0.82296455  0.57008440  0.23331687  1
  O2-  O190  1  0.82903306  0.56607611  0.58147490  1
  O2-  O191  1  0.82075290  0.56704023  0.90781849  1
  O2-  O192  1  0.04326794  0.08537578  0.26734055  1
  O2-  O193  1  0.04122278  0.08048803  0.60035453  1
  O2-  O194  1  0.04765838  0.08601312  0.93869398  1
  O2-  O195  1  0.03739582  0.58069692  0.26877048  1
  O2-  O196  1  0.04039233  0.58115452  0.59742392  1
  O2-  O197  1  0.03812685  0.58216623  0.93026151  1
  O2-  O198  1  0.53725735  0.08829459  0.25960850  1
  O2-  O199  1  0.53778989  0.08600232  0.60002862  1
  O2-  O200  1  0.54217462  0.08917325  0.93686990  1
  O2-  O201  1  0.55203889  0.58028006  0.27579290  1
  O2-  O202  1  0.53829059  0.58381215  0.59749189  1
  O2-  O203  1  0.54200667  0.57647935  0.93632971  1
  O2-  O204  1  0.16800711  0.19816347  0.27085511  1
  O2-  O205  1  0.16341007  0.20901274  0.59552005  1
  O2-  O206  1  0.16928612  0.20176214  0.94293284  1
  O2-  O207  1  0.16314310  0.71269386  0.26507637  1
  O2-  O208  1  0.16386279  0.71292496  0.59676723  1
  O2-  O209  1  0.16945223  0.70324002  0.93173705  1
  O2-  O210  1  0.66880225  0.21158590  0.26233831  1
  O2-  O211  1  0.67245229  0.20653185  0.60240956  1
  O2-  O212  1  0.66404021  0.20548051  0.93706257  1
  O2-  O213  1  0.67040085  0.70176577  0.27700786  1
  O2-  O214  1  0.67764422  0.69466061  0.60585596  1
  O2-  O215  1  0.66890372  0.70125032  0.93271759  1
  O2-  O216  1  0.07819212  0.45695088  0.06269876  1
  O2-  O217  1  0.08022858  0.45344810  0.40449092  1
  O2-  O218  1  0.08627972  0.45509300  0.72698286  1
  O2-  O219  1  0.08912272  0.95941709  0.06280281  1
  O2-  O220  1  0.08412453  0.96098933  0.40168036  1
  O2-  O221  1  0.08845483  0.95550444  0.73081260  1
  O2-  O222  1  0.58388213  0.44706077  0.06168789  1
  O2-  O223  1  0.57680858  0.43975283  0.39478131  1
  O2-  O224  1  0.57939607  0.46087788  0.73415953  1
  O2-  O225  1  0.58889571  0.96141259  0.06275342  1
  O2-  O226  1  0.58289381  0.96712853  0.39614306  1
  O2-  O227  1  0.57703627  0.96143527  0.73708442  1
  O2-  O228  1  0.20933764  0.33449108  0.06866367  1
  O2-  O229  1  0.20318327  0.32620093  0.39881656  1
  O2-  O230  1  0.20670321  0.33460341  0.72798771  1
  O2-  O231  1  0.20500678  0.83522911  0.05882312  1
  O2-  O232  1  0.21102008  0.83408284  0.40066753  1
  O2-  O233  1  0.20944760  0.83595265  0.72993270  1
  O2-  O234  1  0.71086193  0.33526888  0.06056363  1
  O2-  O235  1  0.71942388  0.33313840  0.39897295  1
  O2-  O236  1  0.71002306  0.33651247  0.73660394  1
  O2-  O237  1  0.70587941  0.83605525  0.05973567  1
  O2-  O238  1  0.70359571  0.83538606  0.40348989  1
  O2-  O239  1  0.70269390  0.82874149  0.73628394  1
  O2-  O240  1  0.44611270  0.41965440  0.26906166  1
  O2-  O241  1  0.44512263  0.42509586  0.60416200  1
  O2-  O242  1  0.44983510  0.41162431  0.94173638  1
  O2-  O243  1  0.45937137  0.91632741  0.26363810  1
  O2-  O244  1  0.44877070  0.92336416  0.60031139  1
  O2-  O245  1  0.45863665  0.92152910  0.93221886  1
  O2-  O246  1  0.95894671  0.41012109  0.27129777  1
  O2-  O247  1  0.95687765  0.41305107  0.59994304  1
  O2-  O248  1  0.95668637  0.41485503  0.92711623  1
  O2-  O249  1  0.95391094  0.91743365  0.27151174  1
  O2-  O250  1  0.95773505  0.91492218  0.60310203  1
  O2-  O251  1  0.95505590  0.92323887  0.93395543  1
  O2-  O252  1  0.33376093  0.29257880  0.26506589  1
  O2-  O253  1  0.33229560  0.28832823  0.59640473  1
  O2-  O254  1  0.33713862  0.28630899  0.94148775  1
  O2-  O255  1  0.33441062  0.78700845  0.26496865  1
  O2-  O256  1  0.33330401  0.78728802  0.59841166  1
  O2-  O257  1  0.33086809  0.79925954  0.92976937  1
  O2-  O258  1  0.84312092  0.28745670  0.26698181  1
  O2-  O259  1  0.83372887  0.29700565  0.60299988  1
  O2-  O260  1  0.83474616  0.28555013  0.92948092  1
  O2-  O261  1  0.83071007  0.80207295  0.27655798  1
  O2-  O262  1  0.83186950  0.80328390  0.60846151  1
  O2-  O263  1  0.83130461  0.79518195  0.93015310  1
  O2-  O264  1  0.41633155  0.04573537  0.06316623  1
  O2-  O265  1  0.41708838  0.04588956  0.39435853  1
  O2-  O266  1  0.40973975  0.04801438  0.72999034  1
  O2-  O267  1  0.41253094  0.54150017  0.06550387  1
  O2-  O268  1  0.41965662  0.54763696  0.40246471  1
  O2-  O269  1  0.40990494  0.54776197  0.73284625  1
  O2-  O270  1  0.91580583  0.04948097  0.06372632  1
  O2-  O271  1  0.91697711  0.05018176  0.39332477  1
  O2-  O272  1  0.92072356  0.04145464  0.73820977  1
  O2-  O273  1  0.90929041  0.53740213  0.06049277  1
  O2-  O274  1  0.91414157  0.53306131  0.40339547  1
  O2-  O275  1  0.91700410  0.53686457  0.73382339  1
  O2-  O276  1  0.29349636  0.15955453  0.06951756  1
  O2-  O277  1  0.30008129  0.16586215  0.39589557  1
  O2-  O278  1  0.28590415  0.16315189  0.73011072  1
  O2-  O279  1  0.30170650  0.66944231  0.05732877  1
  O2-  O280  1  0.28744017  0.66852932  0.40333673  1
  O2-  O281  1  0.28464171  0.66244470  0.73246702  1
  O2-  O282  1  0.79039612  0.16286982  0.06531108  1
  O2-  O283  1  0.79651498  0.16523140  0.39365877  1
  O2-  O284  1  0.79707998  0.17018214  0.73625016  1
  O2-  O285  1  0.79559580  0.66323719  0.05942076  1
  O2-  O286  1  0.80558741  0.67234732  0.40280429  1
  O2-  O287  1  0.81022166  0.66766176  0.72987220  1
