# generated using pymatgen
data_Ca2Al2SiO7
_symmetry_space_group_name_H-M   'P 1'
_cell_length_a   15.46408870
_cell_length_b   15.46599300
_cell_length_c   15.28927214
_cell_angle_alpha   89.99500056
_cell_angle_beta   89.99997263
_cell_angle_gamma   90.02068228
_symmetry_Int_Tables_number   1
_chemical_formula_structural   Ca2Al2SiO7
_chemical_formula_sum   'Ca48 Al48 Si24 O168'
_cell_volume   3656.69655251
_cell_formula_units_Z   24
loop_
 _symmetry_equiv_pos_site_id
 _symmetry_equiv_pos_as_xyz
  1  'x, y, z'
loop_
 _atom_type_symbol
 _atom_type_oxidation_number
  Ca2+  2.0
  Al0+  0.0
  Si0+  0.0
  O2-  -2.0
loop_
 _atom_site_type_symbol
 _atom_site_label
 _atom_site_symmetry_multiplicity
 _atom_site_fract_x
 _atom_site_fract_y
 _atom_site_fract_z
 _atom_site_occupancy
  Ca2+  Ca0  1  0.16848188  0.07138917  0.16473737  1
  Ca2+  Ca1  1  0.15845593  0.07774692  0.50298294  1
  Ca2+  Ca2  1  0.16879382  0.08083121  0.84443759  1
  Ca2+  Ca3  1  0.16834396  0.57841632  0.17208457  1
  Ca2+  Ca4  1  0.17158334  0.58026779  0.49892578  1
  Ca2+  Ca5  1  0.17767013  0.57804559  0.84450384  1
  Ca2+  Ca6  1  0.67149945  0.09110183  0.16530418  1
  Ca2+  Ca7  1  0.67470283  0.07668387  0.51127465  1
  Ca2+  Ca8  1  0.67642179  0.08640076  0.83933224  1
  Ca2+  Ca9  1  0.67133766  0.58004503  0.17360689  1
  Ca2+  Ca10  1  0.67952638  0.57425848  0.50633507  1
  Ca2+  Ca11  1  0.66829692  0.58075113  0.83414683  1
  Ca2+  Ca12  1  0.07891998  0.34469334  0.16388986  1
  Ca2+  Ca13  1  0.07847822  0.32987433  0.49223058  1
  Ca2+  Ca14  1  0.08842064  0.32599468  0.82739330  1
  Ca2+  Ca15  1  0.08585894  0.82380045  0.15923837  1
  Ca2+  Ca16  1  0.08134559  0.82554052  0.49013129  1
  Ca2+  Ca17  1  0.08241873  0.83306577  0.83548328  1
  Ca2+  Ca18  1  0.57638915  0.33374652  0.15612028  1
  Ca2+  Ca19  1  0.58222558  0.34559830  0.49984952  1
  Ca2+  Ca20  1  0.57260651  0.33220278  0.83099580  1
  Ca2+  Ca21  1  0.57934897  0.82230986  0.15668450  1
  Ca2+  Ca22  1  0.58280728  0.83417501  0.49746558  1
  Ca2+  Ca23  1  0.58613185  0.82906620  0.83163767  1
  Ca2+  Ca24  1  0.32476193  0.42328222  0.16697154  1
  Ca2+  Ca25  1  0.33372717  0.42751161  0.50456631  1
  Ca2+  Ca26  1  0.33384139  0.41977878  0.84088957  1
  Ca2+  Ca27  1  0.32170753  0.91455820  0.16755807  1
  Ca2+  Ca28  1  0.32468908  0.91635444  0.50101723  1
  Ca2+  Ca29  1  0.32616026  0.92690847  0.84471011  1
  Ca2+  Ca30  1  0.82690817  0.42148230  0.17995173  1
  Ca2+  Ca31  1  0.82902480  0.42110224  0.50154436  1
  Ca2+  Ca32  1  0.82872136  0.41908294  0.83390207  1
  Ca2+  Ca33  1  0.84107209  0.91973980  0.16258362  1
  Ca2+  Ca34  1  0.82708886  0.92127459  0.51078210  1
  Ca2+  Ca35  1  0.83324270  0.92538996  0.83902283  1
  Ca2+  Ca36  1  0.42228254  0.17349287  0.15276021  1
  Ca2+  Ca37  1  0.41932665  0.17691080  0.49712495  1
  Ca2+  Ca38  1  0.40946373  0.17933746  0.82997712  1
  Ca2+  Ca39  1  0.42041648  0.65676443  0.15884727  1
  Ca2+  Ca40  1  0.41306716  0.66173244  0.49728381  1
  Ca2+  Ca41  1  0.41999422  0.65694072  0.83182166  1
  Ca2+  Ca42  1  0.91506510  0.17396369  0.16253622  1
  Ca2+  Ca43  1  0.91783053  0.16982860  0.49851227  1
  Ca2+  Ca44  1  0.92051579  0.16143449  0.82835245  1
  Ca2+  Ca45  1  0.92891737  0.66721783  0.15904178  1
  Ca2+  Ca46  1  0.91973168  0.66003780  0.49134511  1
  Ca2+  Ca47  1  0.92209405  0.66875469  0.83235909  1
  Al0+  Al48  1  -0.00223775  0.00155312  0.00594998  1
  Al0+  Al49  1  0.00017767  0.00035404  0.33676007  1
  Al0+  Al50  1  -0.00099167  -0.00260973  0.66438615  1
  Al0+  Al51  1  -0.00110176  0.50206053  -0.00413071  1
  Al0+  Al52  1  0.00101006  0.49921573  0.33195442  1
  Al0+  Al53  1  0.00109909  0.49888302  0.66863231  1
  Al0+  Al54  1  0.50455364  -0.00077060  -0.00052543  1
  Al0+  Al55  1  0.49961111  0.00059142  0.33164297  1
  Al0+  Al56  1  0.49736538  -0.00067360  0.66829945  1
  Al0+  Al57  1  0.50092752  0.49831245  -0.00562743  1
  Al0+  Al58  1  0.49947952  0.50019791  0.33753189  1
  Al0+  Al59  1  0.50080219  0.50111192  0.66760419  1
  Al0+  Al60  1  0.24840096  0.25097158  0.00575258  1
  Al0+  Al61  1  0.25133045  0.24798491  0.33348862  1
  Al0+  Al62  1  0.25001572  0.24903774  0.65226577  1
  Al0+  Al63  1  0.25201435  0.74954745  0.00161021  1
  Al0+  Al64  1  0.24913539  0.75276526  0.33737380  1
  Al0+  Al65  1  0.25039151  0.74923614  0.66951561  1
  Al0+  Al66  1  0.74974897  0.25003167  0.00004676  1
  Al0+  Al67  1  0.75054996  0.24903622  0.33500750  1
  Al0+  Al68  1  0.74999975  0.24967115  0.67355165  1
  Al0+  Al69  1  0.75039394  0.75154410  -0.00805604  1
  Al0+  Al70  1  0.74877362  0.75223938  0.33501793  1
  Al0+  Al71  1  0.74987674  0.74958874  0.67194837  1
  Al0+  Al72  1  0.42706770  0.31839878  0.98550849  1
  Al0+  Al73  1  0.67856003  0.42914430  0.68479864  1
  Al0+  Al74  1  0.67877987  0.42734413  0.34686901  1
  Al0+  Al75  1  0.57031913  0.67828340  0.98549549  1
  Al0+  Al76  1  0.93094616  0.82272806  0.98390658  1
  Al0+  Al77  1  0.17566384  0.42899327  0.01357602  1
  Al0+  Al78  1  0.07403856  0.67792675  0.98291036  1
  Al0+  Al79  1  0.17918694  0.93137268  0.34881230  1
  Al0+  Al80  1  0.43076289  0.32230567  0.64940090  1
  Al0+  Al81  1  0.57359968  0.17754547  0.98437084  1
  Al0+  Al82  1  0.82175278  0.06935831  0.68217621  1
  Al0+  Al83  1  0.17766118  0.42615955  0.34950240  1
  Al0+  Al84  1  0.82477615  0.57129399  0.68409237  1
  Al0+  Al85  1  0.17878498  0.92899791  0.01426369  1
  Al0+  Al86  1  0.31886719  0.57056364  0.68168696  1
  Al0+  Al87  1  0.32432060  0.07319084  0.01353881  1
  Al0+  Al88  1  0.32363831  0.56955659  0.01377997  1
  Al0+  Al89  1  0.82167297  0.57316761  0.34480775  1
  Al0+  Al90  1  0.32029984  0.57118898  0.34836194  1
  Al0+  Al91  1  0.67527197  0.92841983  0.68296264  1
  Al0+  Al92  1  0.93014033  0.31877801  0.32035976  1
  Al0+  Al93  1  0.81936262  0.07184621  0.01670461  1
  Al0+  Al94  1  0.06996017  0.17726519  0.65320364  1
  Al0+  Al95  1  0.07077322  0.67991859  0.32069586  1
  Si0+  Si96  1  0.92710038  0.32291716  0.98514374  1
  Si0+  Si97  1  0.42951329  0.32244470  0.31733996  1
  Si0+  Si98  1  0.92567042  0.82380504  0.31817317  1
  Si0+  Si99  1  0.67678407  0.92969747  0.34676509  1
  Si0+  Si100  1  0.57188256  0.17703805  0.65018989  1
  Si0+  Si101  1  0.17901120  0.92875306  0.68102792  1
  Si0+  Si102  1  0.07277690  0.17515740  0.31391975  1
  Si0+  Si103  1  0.68166105  0.43046498  0.01405766  1
  Si0+  Si104  1  0.57120076  0.68075423  0.64951285  1
  Si0+  Si105  1  0.57018057  0.67997656  0.32071433  1
  Si0+  Si106  1  0.32495015  0.07084109  0.35132807  1
  Si0+  Si107  1  0.31871082  0.07220484  0.67846560  1
  Si0+  Si108  1  0.82041816  0.57361228  0.01393980  1
  Si0+  Si109  1  0.67962307  0.92539382  0.01864276  1
  Si0+  Si110  1  0.57029948  0.17781661  0.31948608  1
  Si0+  Si111  1  0.06829836  0.18099400  0.98885435  1
  Si0+  Si112  1  0.42797094  0.82334879  0.98325419  1
  Si0+  Si113  1  0.92920493  0.81883215  0.65088739  1
  Si0+  Si114  1  0.82010897  0.07066584  0.34900676  1
  Si0+  Si115  1  0.17949581  0.42499672  0.68047377  1
  Si0+  Si116  1  0.92678017  0.32262995  0.65055623  1
  Si0+  Si117  1  0.07248198  0.67901825  0.65113020  1
  Si0+  Si118  1  0.42710657  0.82208487  0.65103207  1
  Si0+  Si119  1  0.42943224  0.82271166  0.31879397  1
  O2-  O120  1  0.25553963  -0.00245861  0.06302355  1
  O2-  O121  1  0.25155970  0.00786912  0.39694556  1
  O2-  O122  1  0.24679015  0.00301209  0.72174508  1
  O2-  O123  1  0.24603433  0.50340636  0.06255911  1
  O2-  O124  1  0.25021863  0.49774378  0.39934961  1
  O2-  O125  1  0.24624173  0.49377871  0.72635197  1
  O2-  O126  1  0.74419841  -0.00248069  0.06415054  1
  O2-  O127  1  0.75020527  -0.00227534  0.38923153  1
  O2-  O128  1  0.74606975  0.00149089  0.73220879  1
  O2-  O129  1  0.75139808  0.50168116  0.05741080  1
  O2-  O130  1  0.75139324  0.49968539  0.39495673  1
  O2-  O131  1  0.75266510  0.49947689  0.73426334  1
  O2-  O132  1  0.00833897  0.24830900  0.27081409  1
  O2-  O133  1  -0.00504682  0.25236394  0.60760968  1
  O2-  O134  1  0.00218326  0.25544501  0.94475501  1
  O2-  O135  1  -0.00803437  0.75232331  0.27611921  1
  O2-  O136  1  -0.00323928  0.74506207  0.60797029  1
  O2-  O137  1  0.00371970  0.75206664  0.93280716  1
  O2-  O138  1  0.50159447  0.25096818  0.27739943  1
  O2-  O139  1  0.50821357  0.24885048  0.60289544  1
  O2-  O140  1  0.49468311  0.24181235  0.93507458  1
  O2-  O141  1  0.49714491  0.74840569  0.27747354  1
  O2-  O142  1  0.50045303  0.75328715  0.60798221  1
  O2-  O143  1  0.49373214  0.75183029  0.93899093  1
  O2-  O144  1  0.06504686  0.17955505  0.09374288  1
  O2-  O145  1  0.06771891  0.17197559  0.41965192  1
  O2-  O146  1  0.07222037  0.17744897  0.76666141  1
  O2-  O147  1  0.07058230  0.67693240  0.09665639  1
  O2-  O148  1  0.07070743  0.68336255  0.43463611  1
  O2-  O149  1  0.07469642  0.68275832  0.75560751  1
  O2-  O150  1  0.57602863  0.18528189  0.09880124  1
  O2-  O151  1  0.56773132  0.17270143  0.42439614  1
  O2-  O152  1  0.56719462  0.17523560  0.75495910  1
  O2-  O153  1  0.57182257  0.67911657  0.09951654  1
  O2-  O154  1  0.57170907  0.68398129  0.42563681  1
  O2-  O155  1  0.56970458  0.68091199  0.75448730  1
  O2-  O156  1  0.17934364  0.42822512  0.23637044  1
  O2-  O157  1  0.17960658  0.42681237  0.57504057  1
  O2-  O158  1  0.17627911  0.42605072  0.89964659  1
  O2-  O159  1  0.18062127  0.93115364  0.23645374  1
  O2-  O160  1  0.18063385  0.92794897  0.57578670  1
  O2-  O161  1  0.17818622  0.93390410  0.89998043  1
  O2-  O162  1  0.67799697  0.42888949  0.23280521  1
  O2-  O163  1  0.67997797  0.43275930  0.57101871  1
  O2-  O164  1  0.68346130  0.43068476  0.90935330  1
  O2-  O165  1  0.67397391  0.92919877  0.24234831  1
  O2-  O166  1  0.67729494  0.92971815  0.56801803  1
  O2-  O167  1  0.68233985  0.92388266  0.91353365  1
  O2-  O168  1  0.43106867  0.32065605  0.09946862  1
  O2-  O169  1  0.43095847  0.32173748  0.42257638  1
  O2-  O170  1  0.42648123  0.31890548  0.76180086  1
  O2-  O171  1  0.43099903  0.82441637  0.08926515  1
  O2-  O172  1  0.43280002  0.82655539  0.42413862  1
  O2-  O173  1  0.42453202  0.82274700  0.75546434  1
  O2-  O174  1  0.92449293  0.32160029  0.09028267  1
  O2-  O175  1  0.92753805  0.31350205  0.43338891  1
  O2-  O176  1  0.92929533  0.32378055  0.75630849  1
  O2-  O177  1  0.93034838  0.81979716  0.09801034  1
  O2-  O178  1  0.92565704  0.82579065  0.42413895  1
  O2-  O179  1  0.93337526  0.82238314  0.75524930  1
  O2-  O180  1  0.32931208  0.06648368  0.24644396  1
  O2-  O181  1  0.31989748  0.06881907  0.57328939  1
  O2-  O182  1  0.31777482  0.07349603  0.89916154  1
  O2-  O183  1  0.32431224  0.56968865  0.23558382  1
  O2-  O184  1  0.31600280  0.57303014  0.56868751  1
  O2-  O185  1  0.32392154  0.56513376  0.90010148  1
  O2-  O186  1  0.81932200  0.07211083  0.24414045  1
  O2-  O187  1  0.82117277  0.06609934  0.56771707  1
  O2-  O188  1  0.82087504  0.07162714  0.90418411  1
  O2-  O189  1  0.81720289  0.57435652  0.23097020  1
  O2-  O190  1  0.82400571  0.57161981  0.57026373  1
  O2-  O191  1  0.81952564  0.57102563  0.90902314  1
  O2-  O192  1  0.04083303  0.08316316  0.26789731  1
  O2-  O193  1  0.03780130  0.08080522  0.59757503  1
  O2-  O194  1  0.03669063  0.09081853  0.94084138  1
  O2-  O195  1  0.04420705  0.58281009  0.26682955  1
  O2-  O196  1  0.04923538  0.58463468  0.60633657  1
  O2-  O197  1  0.04153881  0.58145190  0.92742167  1
  O2-  O198  1  0.54126799  0.08728583  0.26928261  1
  O2-  O199  1  0.54195850  0.08406253  0.60286857  1
  O2-  O200  1  0.55995581  0.07442527  0.93667291  1
  O2-  O201  1  0.54426182  0.58737336  0.27408729  1
  O2-  O202  1  0.54171572  0.58998882  0.60183175  1
  O2-  O203  1  0.54131689  0.58287871  0.92897828  1
  O2-  O204  1  0.17006575  0.19251610  0.27274709  1
  O2-  O205  1  0.16409227  0.20485425  0.59238798  1
  O2-  O206  1  0.16139704  0.20436142  0.94216255  1
  O2-  O207  1  0.16658033  0.71605066  0.26854324  1
  O2-  O208  1  0.16247679  0.71296219  0.60315258  1
  O2-  O209  1  0.17398845  0.70441669  0.93212972  1
  O2-  O210  1  0.66365891  0.20238078  0.27425658  1
  O2-  O211  1  0.66863109  0.19764744  0.60785192  1
  O2-  O212  1  0.66922891  0.21336228  0.93024187  1
  O2-  O213  1  0.66090627  0.71049998  0.27186158  1
  O2-  O214  1  0.66391513  0.70847917  0.60310735  1
  O2-  O215  1  0.66467996  0.71136063  0.92903162  1
  O2-  O216  1  0.07578052  0.45720440  0.06478196  1
  O2-  O217  1  0.07931669  0.45405600  0.40204476  1
  O2-  O218  1  0.08509961  0.44644159  0.72584795  1
  O2-  O219  1  0.08336947  0.96235377  0.06928531  1
  O2-  O220  1  0.08211915  0.96052361  0.40427764  1
  O2-  O221  1  0.08624693  0.95365640  0.72607800  1
  O2-  O222  1  0.58935101  0.45817077  0.05947805  1
  O2-  O223  1  0.58214417  0.45762595  0.40071408  1
  O2-  O224  1  0.58153673  0.46169793  0.73675952  1
  O2-  O225  1  0.58441745  0.94488719  0.06377868  1
  O2-  O226  1  0.58620789  0.95991099  0.39587253  1
  O2-  O227  1  0.57495181  0.95188650  0.73375921  1
  O2-  O228  1  0.20161979  0.33180437  0.06951189  1
  O2-  O229  1  0.20245747  0.32491275  0.39913184  1
  O2-  O230  1  0.20652951  0.32982380  0.72212733  1
  O2-  O231  1  0.20576469  0.83040012  0.06697556  1
  O2-  O232  1  0.21312463  0.83760512  0.40618626  1
  O2-  O233  1  0.21040136  0.83917681  0.72924709  1
  O2-  O234  1  0.71024419  0.33954927  0.06203867  1
  O2-  O235  1  0.70618835  0.32900419  0.40073382  1
  O2-  O236  1  0.70200056  0.32963721  0.73677146  1
  O2-  O237  1  0.70968075  0.83284303  0.06530877  1
  O2-  O238  1  0.70166458  0.83817408  0.39640306  1
  O2-  O239  1  0.70335815  0.83054350  0.73463335  1
  O2-  O240  1  0.45794315  0.41435061  0.27098810  1
  O2-  O241  1  0.46264637  0.41951473  0.59638880  1
  O2-  O242  1  0.46211518  0.41333078  0.93031352  1
  O2-  O243  1  0.46101523  0.91228641  0.26906222  1
  O2-  O244  1  0.45219730  0.91436481  0.60153487  1
  O2-  O245  1  0.45620110  0.91574627  0.93555764  1
  O2-  O246  1  0.95585465  0.41629417  0.26584882  1
  O2-  O247  1  0.95384623  0.41572884  0.60351869  1
  O2-  O248  1  0.94925325  0.41528085  0.93693445  1
  O2-  O249  1  0.95421442  0.91707388  0.27288196  1
  O2-  O250  1  0.95939092  0.90875610  0.60022055  1
  O2-  O251  1  0.95895792  0.92281701  0.93351256  1
  O2-  O252  1  0.33747536  0.29396078  0.27115067  1
  O2-  O253  1  0.33710619  0.28860406  0.59065261  1
  O2-  O254  1  0.32682227  0.29260625  0.93407936  1
  O2-  O255  1  0.33613810  0.79881727  0.27426095  1
  O2-  O256  1  0.33617498  0.79086276  0.60214073  1
  O2-  O257  1  0.33310675  0.80367279  0.93810355  1
  O2-  O258  1  0.83378277  0.28454773  0.26573907  1
  O2-  O259  1  0.83223114  0.29693549  0.60631117  1
  O2-  O260  1  0.83809069  0.28982691  0.93636094  1
  O2-  O261  1  0.83032747  0.80366765  0.27278631  1
  O2-  O262  1  0.83478587  0.79555551  0.60583073  1
  O2-  O263  1  0.83360648  0.79468336  0.92927915  1
  O2-  O264  1  0.42571659  0.04988903  0.06268125  1
  O2-  O265  1  0.41622216  0.03944006  0.40011054  1
  O2-  O266  1  0.40928223  0.04415985  0.72684914  1
  O2-  O267  1  0.42151854  0.53652442  0.06597384  1
  O2-  O268  1  0.41859725  0.54352330  0.40303932  1
  O2-  O269  1  0.41702617  0.54273655  0.73160833  1
  O2-  O270  1  0.91404132  0.04101760  0.07389986  1
  O2-  O271  1  0.91186860  0.04426703  0.39663865  1
  O2-  O272  1  0.91921693  0.03572251  0.73416136  1
  O2-  O273  1  0.91297196  0.54724525  0.05935649  1
  O2-  O274  1  0.91959121  0.54529221  0.39687199  1
  O2-  O275  1  0.92362127  0.54371132  0.73688160  1
  O2-  O276  1  0.29250633  0.16813290  0.07014990  1
  O2-  O277  1  0.30473526  0.16634384  0.39498738  1
  O2-  O278  1  0.29049137  0.16510384  0.72195176  1
  O2-  O279  1  0.30611321  0.67145804  0.06276640  1
  O2-  O280  1  0.29368807  0.67032457  0.40110716  1
  O2-  O281  1  0.28868963  0.66715465  0.73587438  1
  O2-  O282  1  0.78692795  0.16838328  0.07124327  1
  O2-  O283  1  0.79005403  0.16019832  0.39865753  1
  O2-  O284  1  0.80072988  0.16907991  0.73417124  1
  O2-  O285  1  0.79098223  0.66549960  0.05888633  1
  O2-  O286  1  0.79267062  0.67151322  0.39922991  1
  O2-  O287  1  0.79575479  0.66933359  0.73601004  1
