# generated using pymatgen
data_Ca2Al2SiO7
_symmetry_space_group_name_H-M   'P 1'
_cell_length_a   15.47059165
_cell_length_b   15.46895893
_cell_length_c   15.29025086
_cell_angle_alpha   89.98024534
_cell_angle_beta   89.99011931
_cell_angle_gamma   90.00332195
_symmetry_Int_Tables_number   1
_chemical_formula_structural   Ca2Al2SiO7
_chemical_formula_sum   'Ca48 Al48 Si24 O168'
_cell_volume   3659.17000373
_cell_formula_units_Z   24
loop_
 _symmetry_equiv_pos_site_id
 _symmetry_equiv_pos_as_xyz
  1  'x, y, z'
loop_
 _atom_type_symbol
 _atom_type_oxidation_number
  Ca2+  2.0
  Al0+  0.0
  Si0+  0.0
  O2-  -2.0
loop_
 _atom_site_type_symbol
 _atom_site_label
 _atom_site_symmetry_multiplicity
 _atom_site_fract_x
 _atom_site_fract_y
 _atom_site_fract_z
 _atom_site_occupancy
  Ca2+  Ca0  1  0.17914631  0.09213593  0.16673465  1
  Ca2+  Ca1  1  0.18082689  0.08416000  0.50512775  1
  Ca2+  Ca2  1  0.17970002  0.08808578  0.83940259  1
  Ca2+  Ca3  1  0.17198508  0.58670150  0.16254321  1
  Ca2+  Ca4  1  0.17097635  0.58022321  0.51126191  1
  Ca2+  Ca5  1  0.17337456  0.58574764  0.83669788  1
  Ca2+  Ca6  1  0.66136998  0.07794733  0.16591926  1
  Ca2+  Ca7  1  0.67378278  0.08993836  0.50810549  1
  Ca2+  Ca8  1  0.66477609  0.08505489  0.83725625  1
  Ca2+  Ca9  1  0.66540443  0.57798573  0.17554131  1
  Ca2+  Ca10  1  0.67396852  0.56902160  0.50803381  1
  Ca2+  Ca11  1  0.66258532  0.57679853  0.83680748  1
  Ca2+  Ca12  1  0.07714963  0.32712869  0.15987931  1
  Ca2+  Ca13  1  0.07522802  0.33483185  0.50184911  1
  Ca2+  Ca14  1  0.07713268  0.33022124  0.83122035  1
  Ca2+  Ca15  1  0.07899845  0.82844723  0.15856394  1
  Ca2+  Ca16  1  0.08361637  0.82652203  0.50072243  1
  Ca2+  Ca17  1  0.08846179  0.82078585  0.82838960  1
  Ca2+  Ca18  1  0.57585221  0.32950032  0.16231813  1
  Ca2+  Ca19  1  0.57866980  0.33621261  0.50113522  1
  Ca2+  Ca20  1  0.57600858  0.32494940  0.82800351  1
  Ca2+  Ca21  1  0.58166072  0.82764073  0.15361531  1
  Ca2+  Ca22  1  0.57894957  0.83338044  0.50245507  1
  Ca2+  Ca23  1  0.57704630  0.83122690  0.83481326  1
  Ca2+  Ca24  1  0.34288526  0.42010219  0.16708941  1
  Ca2+  Ca25  1  0.33698798  0.41825494  0.50820362  1
  Ca2+  Ca26  1  0.34830619  0.42691381  0.83664135  1
  Ca2+  Ca27  1  0.34229492  0.93120614  0.16406572  1
  Ca2+  Ca28  1  0.33868142  0.92770458  0.50807720  1
  Ca2+  Ca29  1  0.34597048  0.92595964  0.83679904  1
  Ca2+  Ca30  1  0.82165321  0.42329494  0.17704744  1
  Ca2+  Ca31  1  0.82251190  0.41725412  0.51106693  1
  Ca2+  Ca32  1  0.82906898  0.41433159  0.82845238  1
  Ca2+  Ca33  1  0.82500117  0.92091400  0.16933851  1
  Ca2+  Ca34  1  0.83211549  0.92877937  0.50512388  1
  Ca2+  Ca35  1  0.82565886  0.92125850  0.83728334  1
  Ca2+  Ca36  1  0.41612372  0.17649213  0.15621377  1
  Ca2+  Ca37  1  0.41773658  0.17396718  0.49723196  1
  Ca2+  Ca38  1  0.42445368  0.16898911  0.82484791  1
  Ca2+  Ca39  1  0.42350591  0.67396304  0.15183123  1
  Ca2+  Ca40  1  0.41080855  0.67245443  0.50095758  1
  Ca2+  Ca41  1  0.41091013  0.67582729  0.82883992  1
  Ca2+  Ca42  1  0.92270120  0.16179042  0.16041810  1
  Ca2+  Ca43  1  0.90677243  0.17068594  0.49950121  1
  Ca2+  Ca44  1  0.92257305  0.16675375  0.82404574  1
  Ca2+  Ca45  1  0.92009339  0.66380222  0.15872102  1
  Ca2+  Ca46  1  0.91884274  0.65409559  0.49972224  1
  Ca2+  Ca47  1  0.92812689  0.65968555  0.82544546  1
  Al0+  Al48  1  0.00131758  0.00048575  -0.00482616  1
  Al0+  Al49  1  0.00026590  -0.00291041  0.33535548  1
  Al0+  Al50  1  0.00156133  -0.00339521  0.66916446  1
  Al0+  Al51  1  0.00072063  0.50057554  -0.00196526  1
  Al0+  Al52  1  0.00292500  0.49870750  0.33177315  1
  Al0+  Al53  1  0.00081097  0.49739056  0.66196768  1
  Al0+  Al54  1  0.50208729  0.00027019  0.00394412  1
  Al0+  Al55  1  0.49943939  0.00021136  0.33795306  1
  Al0+  Al56  1  0.50139660  -0.00120945  0.66112974  1
  Al0+  Al57  1  0.50175278  0.50067314  0.00160567  1
  Al0+  Al58  1  0.49924817  0.50130289  0.33468550  1
  Al0+  Al59  1  0.50099598  0.49997256  0.67130183  1
  Al0+  Al60  1  0.24592022  0.25426995  -0.00345792  1
  Al0+  Al61  1  0.24971334  0.25147172  0.33387275  1
  Al0+  Al62  1  0.24923848  0.24953811  0.66785712  1
  Al0+  Al63  1  0.24861653  0.75104654  -0.00130354  1
  Al0+  Al64  1  0.24875699  0.75096281  0.33012265  1
  Al0+  Al65  1  0.24929099  0.74886604  0.65890553  1
  Al0+  Al66  1  0.74969326  0.25317582  0.00035669  1
  Al0+  Al67  1  0.74729939  0.24986743  0.33667033  1
  Al0+  Al68  1  0.75127418  0.24944174  0.66942751  1
  Al0+  Al69  1  0.75045922  0.75216620  0.00005320  1
  Al0+  Al70  1  0.75159826  0.75062367  0.33729952  1
  Al0+  Al71  1  0.75233026  0.75038054  0.66851956  1
  Al0+  Al72  1  0.43040797  0.81899218  0.65137381  1
  Al0+  Al73  1  0.32036454  0.07313308  0.01195237  1
  Al0+  Al74  1  0.42727598  0.32252448  0.98528119  1
  Al0+  Al75  1  0.93088833  0.31713051  0.65296909  1
  Al0+  Al76  1  0.32078971  0.57122568  0.01384224  1
  Al0+  Al77  1  0.67830228  0.42818738  0.68603583  1
  Al0+  Al78  1  0.57091184  0.17892409  0.98681372  1
  Al0+  Al79  1  0.42883143  0.82141594  0.98637588  1
  Al0+  Al80  1  0.06885522  0.67914690  0.65077327  1
  Al0+  Al81  1  0.67644978  0.42942258  0.34953829  1
  Al0+  Al82  1  0.07003010  0.17847852  0.98613534  1
  Al0+  Al83  1  0.57124404  0.17850649  0.65051362  1
  Al0+  Al84  1  0.82334745  0.57122285  0.34729245  1
  Al0+  Al85  1  0.68022387  0.93003526  0.01338100  1
  Al0+  Al86  1  0.42827875  0.32127422  0.31892350  1
  Al0+  Al87  1  0.42815921  0.32209058  0.65162837  1
  Al0+  Al88  1  0.32000631  0.57085989  0.67915347  1
  Al0+  Al89  1  0.82313458  0.57015631  0.68344812  1
  Al0+  Al90  1  0.82156377  0.07019732  0.68154562  1
  Al0+  Al91  1  0.32144160  0.07056190  0.68093638  1
  Al0+  Al92  1  0.32028058  0.07182363  0.34724324  1
  Al0+  Al93  1  0.82146071  0.06930054  0.34523989  1
  Al0+  Al94  1  0.57391136  0.67838195  0.98606285  1
  Al0+  Al95  1  0.06947368  0.67979613  0.98586705  1
  Si0+  Si96  1  0.17619077  0.92856146  0.01628115  1
  Si0+  Si97  1  0.17802466  0.92628145  0.35004921  1
  Si0+  Si98  1  0.67880251  0.42934384  0.01771458  1
  Si0+  Si99  1  0.67760137  0.92693633  0.68390074  1
  Si0+  Si100  1  0.92695238  0.82298134  0.64793070  1
  Si0+  Si101  1  0.92742179  0.82304482  0.98242528  1
  Si0+  Si102  1  0.31918551  0.57252635  0.34704860  1
  Si0+  Si103  1  0.57509931  0.67695659  0.64951685  1
  Si0+  Si104  1  0.17971203  0.92663663  0.68292710  1
  Si0+  Si105  1  0.92970359  0.82120346  0.31778312  1
  Si0+  Si106  1  0.07142270  0.67741735  0.31573587  1
  Si0+  Si107  1  0.42771425  0.82249354  0.31716501  1
  Si0+  Si108  1  0.07278355  0.17397003  0.64835031  1
  Si0+  Si109  1  0.82196884  0.57048647  0.01338419  1
  Si0+  Si110  1  0.17919587  0.42859572  0.34825069  1
  Si0+  Si111  1  0.57006212  0.68199599  0.32124662  1
  Si0+  Si112  1  0.67745222  0.92696865  0.35161395  1
  Si0+  Si113  1  0.06957747  0.17837681  0.32016923  1
  Si0+  Si114  1  0.92753304  0.32057787  0.31866018  1
  Si0+  Si115  1  0.92739844  0.32274999  0.98483478  1
  Si0+  Si116  1  0.17756598  0.42721823  0.68376309  1
  Si0+  Si117  1  0.82355796  0.07355003  0.01508567  1
  Si0+  Si118  1  0.57236306  0.17662888  0.31624336  1
  Si0+  Si119  1  0.17427490  0.43047704  0.01848127  1
  O2-  O120  1  0.24449186  -0.00165315  0.05975799  1
  O2-  O121  1  0.24781216  -0.00601421  0.39309183  1
  O2-  O122  1  0.24606755  -0.00357295  0.72768378  1
  O2-  O123  1  0.24802961  0.49455443  0.06219832  1
  O2-  O124  1  0.24935003  0.50076235  0.38928261  1
  O2-  O125  1  0.25076384  0.49139261  0.72652928  1
  O2-  O126  1  0.75349565  0.00695420  0.06011769  1
  O2-  O127  1  0.74330399  -0.00084760  0.39360456  1
  O2-  O128  1  0.74606496  -0.00348794  0.72700959  1
  O2-  O129  1  0.74858812  0.50348020  0.05776355  1
  O2-  O130  1  0.75335605  0.49790436  0.39699702  1
  O2-  O131  1  0.74784575  0.50377237  0.73566383  1
  O2-  O132  1  -0.00506716  0.24577192  0.27663918  1
  O2-  O133  1  0.00212637  0.23999513  0.60328101  1
  O2-  O134  1  -0.00870153  0.24936032  0.94166397  1
  O2-  O135  1  -0.00336990  0.74573653  0.27532116  1
  O2-  O136  1  -0.00866241  0.75041583  0.60267184  1
  O2-  O137  1  -0.00415589  0.75451524  0.93861290  1
  O2-  O138  1  0.50181930  0.24440187  0.27380628  1
  O2-  O139  1  0.49862239  0.24969530  0.59986863  1
  O2-  O140  1  0.49423118  0.24549157  0.93699485  1
  O2-  O141  1  0.50094209  0.75358807  0.27638818  1
  O2-  O142  1  0.50453489  0.74354708  0.60382939  1
  O2-  O143  1  0.49722650  0.74571232  0.93705294  1
  O2-  O144  1  0.06842664  0.17958136  0.10040618  1
  O2-  O145  1  0.07036968  0.18041786  0.42482474  1
  O2-  O146  1  0.07190196  0.17528806  0.75382039  1
  O2-  O147  1  0.06637857  0.68043319  0.09983467  1
  O2-  O148  1  0.07453864  0.67801008  0.42034702  1
  O2-  O149  1  0.06978692  0.68122630  0.76361809  1
  O2-  O150  1  0.57243191  0.18128683  0.10105076  1
  O2-  O151  1  0.57332515  0.17528017  0.42127434  1
  O2-  O152  1  0.56953200  0.17705393  0.76392946  1
  O2-  O153  1  0.57386629  0.68021942  0.10098594  1
  O2-  O154  1  0.56760297  0.68347600  0.42603018  1
  O2-  O155  1  0.57539986  0.67969594  0.75468603  1
  O2-  O156  1  0.17526311  0.42867029  0.24347248  1
  O2-  O157  1  0.17558248  0.42973551  0.57732827  1
  O2-  O158  1  0.16539119  0.43376759  0.91393670  1
  O2-  O159  1  0.17586020  0.92415623  0.24471989  1
  O2-  O160  1  0.18008861  0.92787548  0.57669970  1
  O2-  O161  1  0.17314847  0.92848870  0.91125431  1
  O2-  O162  1  0.67757921  0.43220872  0.23524851  1
  O2-  O163  1  0.67972244  0.42913354  0.57220592  1
  O2-  O164  1  0.68052496  0.42652266  0.91342390  1
  O2-  O165  1  0.67869941  0.92442351  0.24603519  1
  O2-  O166  1  0.67964498  0.92587572  0.57778598  1
  O2-  O167  1  0.68316358  0.92793413  0.90094034  1
  O2-  O168  1  0.43137378  0.32202581  0.09975053  1
  O2-  O169  1  0.42621569  0.32160417  0.43129469  1
  O2-  O170  1  0.42890047  0.32047124  0.76460311  1
  O2-  O171  1  0.43158963  0.82099874  0.10100787  1
  O2-  O172  1  0.42585755  0.82069505  0.42216153  1
  O2-  O173  1  0.43020428  0.81963284  0.76380257  1
  O2-  O174  1  0.92911872  0.32383090  0.09115329  1
  O2-  O175  1  0.93067009  0.32172187  0.42326046  1
  O2-  O176  1  0.93452540  0.31681292  0.76613346  1
  O2-  O177  1  0.92829609  0.82223158  0.08881800  1
  O2-  O178  1  0.93281544  0.82455024  0.42217357  1
  O2-  O179  1  0.92974657  0.82562553  0.75315583  1
  O2-  O180  1  0.31816026  0.07244913  0.23396430  1
  O2-  O181  1  0.31877964  0.06937929  0.56728935  1
  O2-  O182  1  0.31995371  0.07088647  0.89943773  1
  O2-  O183  1  0.31771368  0.57438801  0.24208786  1
  O2-  O184  1  0.31580582  0.57182553  0.56502404  1
  O2-  O185  1  0.31769149  0.57228309  0.90133124  1
  O2-  O186  1  0.82544728  0.06527179  0.23216949  1
  O2-  O187  1  0.82099448  0.06762913  0.56794021  1
  O2-  O188  1  0.82488267  0.07152653  0.90997906  1
  O2-  O189  1  0.82238573  0.57078755  0.23286450  1
  O2-  O190  1  0.82215531  0.56574369  0.56976167  1
  O2-  O191  1  0.82446931  0.56741487  0.90908465  1
  O2-  O192  1  0.04472325  0.08507513  0.27389025  1
  O2-  O193  1  0.05092269  0.07861821  0.60439027  1
  O2-  O194  1  0.04405789  0.08190796  0.93037719  1
  O2-  O195  1  0.04796419  0.58457944  0.26780110  1
  O2-  O196  1  0.04105050  0.58219301  0.59577492  1
  O2-  O197  1  0.03803081  0.58393018  0.93211643  1
  O2-  O198  1  0.54774783  0.08103387  0.27260837  1
  O2-  O199  1  0.54623573  0.07991936  0.59600190  1
  O2-  O200  1  0.54934180  0.07859277  0.93711868  1
  O2-  O201  1  0.54116850  0.59080561  0.27339516  1
  O2-  O202  1  0.55047507  0.58279673  0.60548524  1
  O2-  O203  1  0.55093008  0.57861097  0.93692501  1
  O2-  O204  1  0.15911928  0.21159179  0.27153742  1
  O2-  O205  1  0.16482892  0.20373903  0.60161154  1
  O2-  O206  1  0.16317898  0.21313832  0.92958208  1
  O2-  O207  1  0.16166722  0.70959065  0.26680139  1
  O2-  O208  1  0.16250839  0.71334517  0.59253612  1
  O2-  O209  1  0.16535050  0.71035135  0.93224766  1
  O2-  O210  1  0.66591160  0.20233732  0.26928077  1
  O2-  O211  1  0.67056916  0.20759322  0.60053200  1
  O2-  O212  1  0.66951646  0.20980055  0.93554695  1
  O2-  O213  1  0.66366622  0.70756461  0.27537367  1
  O2-  O214  1  0.66829105  0.70519801  0.60282312  1
  O2-  O215  1  0.67073458  0.70986877  0.93290398  1
  O2-  O216  1  0.08349746  0.46226966  0.06937244  1
  O2-  O217  1  0.08798389  0.45677172  0.39704580  1
  O2-  O218  1  0.08631531  0.45839312  0.73009428  1
  O2-  O219  1  0.08197627  0.95386993  0.06334107  1
  O2-  O220  1  0.08534965  0.95180846  0.39775900  1
  O2-  O221  1  0.08530117  0.94692653  0.72905180  1
  O2-  O222  1  0.58812260  0.45664827  0.06725609  1
  O2-  O223  1  0.58020279  0.46357518  0.40326894  1
  O2-  O224  1  0.58018276  0.45509385  0.73919869  1
  O2-  O225  1  0.58551284  0.95894513  0.07266208  1
  O2-  O226  1  0.58278146  0.94828337  0.39696078  1
  O2-  O227  1  0.58402527  0.95259503  0.72795998  1
  O2-  O228  1  0.19420440  0.33513918  0.06336260  1
  O2-  O229  1  0.20590893  0.33797044  0.39755592  1
  O2-  O230  1  0.19517492  0.33158172  0.72785774  1
  O2-  O231  1  0.20078925  0.83528755  0.06381820  1
  O2-  O232  1  0.20365603  0.83221274  0.39622438  1
  O2-  O233  1  0.20705991  0.83286195  0.72610936  1
  O2-  O234  1  0.71003069  0.33929316  0.06794178  1
  O2-  O235  1  0.70088988  0.32986722  0.40029053  1
  O2-  O236  1  0.71288567  0.33195918  0.73838899  1
  O2-  O237  1  0.71422273  0.83462268  0.07081281  1
  O2-  O238  1  0.70674265  0.83568598  0.40002823  1
  O2-  O239  1  0.70397688  0.83404590  0.73042537  1
  O2-  O240  1  0.45938395  0.41945323  0.26667692  1
  O2-  O241  1  0.45643711  0.42216101  0.60068759  1
  O2-  O242  1  0.46182131  0.41927379  0.93499502  1
  O2-  O243  1  0.45407021  0.91595522  0.27260297  1
  O2-  O244  1  0.46350929  0.91330518  0.59390077  1
  O2-  O245  1  0.46217915  0.91836680  0.93550108  1
  O2-  O246  1  0.96085695  0.41029185  0.26927454  1
  O2-  O247  1  0.96524966  0.41108044  0.59579394  1
  O2-  O248  1  0.95938430  0.41326988  0.93744714  1
  O2-  O249  1  0.96197603  0.91042020  0.26700126  1
  O2-  O250  1  0.95914578  0.91435215  0.59940423  1
  O2-  O251  1  0.95196385  0.91624311  0.93611635  1
  O2-  O252  1  0.33021191  0.29264139  0.26532284  1
  O2-  O253  1  0.32736647  0.29607889  0.60074962  1
  O2-  O254  1  0.32484203  0.30787967  0.93748618  1
  O2-  O255  1  0.33622099  0.79369285  0.26975520  1
  O2-  O256  1  0.33512886  0.78786916  0.59397403  1
  O2-  O257  1  0.32911277  0.79838543  0.93526595  1
  O2-  O258  1  0.83400698  0.29733713  0.27279590  1
  O2-  O259  1  0.83470133  0.28747295  0.59865463  1
  O2-  O260  1  0.83292737  0.30308064  0.93996571  1
  O2-  O261  1  0.83582664  0.79766446  0.27173018  1
  O2-  O262  1  0.83175703  0.80336257  0.60266177  1
  O2-  O263  1  0.83461236  0.79807615  0.93660953  1
  O2-  O264  1  0.41551732  0.04145050  0.06854814  1
  O2-  O265  1  0.41674937  0.04228401  0.40175866  1
  O2-  O266  1  0.41859139  0.03630711  0.73036461  1
  O2-  O267  1  0.41818734  0.54261159  0.06915524  1
  O2-  O268  1  0.41096042  0.54727070  0.39428928  1
  O2-  O269  1  0.41794530  0.54817018  0.73271217  1
  O2-  O270  1  0.91699164  0.04467604  0.06096965  1
  O2-  O271  1  0.91671042  0.03556557  0.40050627  1
  O2-  O272  1  0.91900403  0.03842377  0.73391715  1
  O2-  O273  1  0.91260810  0.53972561  0.06270870  1
  O2-  O274  1  0.92407626  0.54462178  0.39571983  1
  O2-  O275  1  0.92127383  0.53609699  0.73350011  1
  O2-  O276  1  0.28556721  0.17018069  0.06456815  1
  O2-  O277  1  0.28483900  0.16693717  0.40083707  1
  O2-  O278  1  0.28976767  0.16689646  0.73415155  1
  O2-  O279  1  0.28670807  0.66753713  0.06864742  1
  O2-  O280  1  0.28931780  0.66452314  0.39362183  1
  O2-  O281  1  0.28332775  0.66680547  0.73003743  1
  O2-  O282  1  0.80210863  0.16877131  0.06007220  1
  O2-  O283  1  0.79480397  0.16722661  0.39778530  1
  O2-  O284  1  0.79534491  0.16656720  0.73587648  1
  O2-  O285  1  0.79977202  0.66456927  0.05896567  1
  O2-  O286  1  0.79857860  0.67048969  0.39973699  1
  O2-  O287  1  0.80470998  0.67288427  0.73112762  1
