# generated using pymatgen
data_Ca2Al2SiO7
_symmetry_space_group_name_H-M   'P 1'
_cell_length_a   15.45601378
_cell_length_b   15.45557673
_cell_length_c   15.28202326
_cell_angle_alpha   89.99153366
_cell_angle_beta   90.00369308
_cell_angle_gamma   90.02183840
_symmetry_Int_Tables_number   1
_chemical_formula_structural   Ca2Al2SiO7
_chemical_formula_sum   'Ca48 Al48 Si24 O168'
_cell_volume   3650.59396135
_cell_formula_units_Z   24
loop_
 _symmetry_equiv_pos_site_id
 _symmetry_equiv_pos_as_xyz
  1  'x, y, z'
loop_
 _atom_type_symbol
 _atom_type_oxidation_number
  Ca2+  2.0
  Al0+  0.0
  Si0+  0.0
  O2-  -2.0
loop_
 _atom_site_type_symbol
 _atom_site_label
 _atom_site_symmetry_multiplicity
 _atom_site_fract_x
 _atom_site_fract_y
 _atom_site_fract_z
 _atom_site_occupancy
  Ca2+  Ca0  1  0.15403612  0.07132856  0.16792854  1
  Ca2+  Ca1  1  0.17189626  0.07390548  0.50521637  1
  Ca2+  Ca2  1  0.17205014  0.07983842  0.84189589  1
  Ca2+  Ca3  1  0.16529022  0.57788273  0.16607973  1
  Ca2+  Ca4  1  0.16511190  0.57686711  0.50681359  1
  Ca2+  Ca5  1  0.17298666  0.58824613  0.84072319  1
  Ca2+  Ca6  1  0.67115240  0.07752236  0.17408740  1
  Ca2+  Ca7  1  0.67631957  0.08699038  0.50393435  1
  Ca2+  Ca8  1  0.66844249  0.08827373  0.83415929  1
  Ca2+  Ca9  1  0.67648163  0.57784717  0.17563767  1
  Ca2+  Ca10  1  0.67522192  0.58482262  0.50043640  1
  Ca2+  Ca11  1  0.67785564  0.58005464  0.84393848  1
  Ca2+  Ca12  1  0.08010761  0.33419219  0.16174253  1
  Ca2+  Ca13  1  0.07599664  0.33342315  0.48889688  1
  Ca2+  Ca14  1  0.08853197  0.33195665  0.83415773  1
  Ca2+  Ca15  1  0.07757886  0.83138816  0.15434899  1
  Ca2+  Ca16  1  0.08593010  0.82593072  0.49757082  1
  Ca2+  Ca17  1  0.08229288  0.82393119  0.83506001  1
  Ca2+  Ca18  1  0.59125269  0.33131731  0.15970186  1
  Ca2+  Ca19  1  0.58744721  0.33054270  0.49500752  1
  Ca2+  Ca20  1  0.59098173  0.32500741  0.83235058  1
  Ca2+  Ca21  1  0.59090686  0.82573995  0.16690522  1
  Ca2+  Ca22  1  0.57941717  0.83081490  0.49320982  1
  Ca2+  Ca23  1  0.57299862  0.83045062  0.82540823  1
  Ca2+  Ca24  1  0.32159595  0.41818148  0.16640680  1
  Ca2+  Ca25  1  0.32638842  0.42176065  0.50402300  1
  Ca2+  Ca26  1  0.32915802  0.43086191  0.84231962  1
  Ca2+  Ca27  1  0.31829009  0.91598869  0.16907846  1
  Ca2+  Ca28  1  0.33105192  0.91622043  0.50496753  1
  Ca2+  Ca29  1  0.33006298  0.91739355  0.83570892  1
  Ca2+  Ca30  1  0.82877998  0.42489038  0.17276854  1
  Ca2+  Ca31  1  0.83335400  0.42447936  0.49845735  1
  Ca2+  Ca32  1  0.83023736  0.42829881  0.83876668  1
  Ca2+  Ca33  1  0.83364128  0.92243911  0.17509070  1
  Ca2+  Ca34  1  0.82682086  0.92670159  0.50138598  1
  Ca2+  Ca35  1  0.83936444  0.92095104  0.83593130  1
  Ca2+  Ca36  1  0.42511171  0.17042784  0.15790989  1
  Ca2+  Ca37  1  0.42099349  0.16223523  0.50058604  1
  Ca2+  Ca38  1  0.42817713  0.16354914  0.82506280  1
  Ca2+  Ca39  1  0.42154394  0.66209910  0.16483903  1
  Ca2+  Ca40  1  0.41953429  0.66898748  0.49659451  1
  Ca2+  Ca41  1  0.40826741  0.67050819  0.82504728  1
  Ca2+  Ca42  1  0.91558567  0.17420232  0.16213825  1
  Ca2+  Ca43  1  0.90982795  0.17188949  0.49245704  1
  Ca2+  Ca44  1  0.92340025  0.16621883  0.83024572  1
  Ca2+  Ca45  1  0.91744843  0.67058382  0.15722409  1
  Ca2+  Ca46  1  0.91924619  0.65840867  0.49634742  1
  Ca2+  Ca47  1  0.92536048  0.66115868  0.83085998  1
  Al0+  Al48  1  -0.00003804  0.00163060  -0.00564735  1
  Al0+  Al49  1  0.00172627  -0.00150784  0.34515350  1
  Al0+  Al50  1  -0.00112378  -0.00168718  0.66932083  1
  Al0+  Al51  1  0.00065959  0.50105413  0.00160284  1
  Al0+  Al52  1  0.00119793  0.49805979  0.33416904  1
  Al0+  Al53  1  -0.00212769  0.49774910  0.66665817  1
  Al0+  Al54  1  0.50107991  0.00059646  -0.00355040  1
  Al0+  Al55  1  0.49762811  -0.00090790  0.33218606  1
  Al0+  Al56  1  0.49925932  -0.00053471  0.65982539  1
  Al0+  Al57  1  0.50038647  0.49945151  0.00587125  1
  Al0+  Al58  1  0.50008268  0.50001775  0.33170016  1
  Al0+  Al59  1  0.49829604  0.49806369  0.67028552  1
  Al0+  Al60  1  0.25278170  0.25160962  -0.00173284  1
  Al0+  Al61  1  0.25087832  0.24976013  0.33611941  1
  Al0+  Al62  1  0.25118504  0.24684973  0.66907225  1
  Al0+  Al63  1  0.25006904  0.75251683  0.00620555  1
  Al0+  Al64  1  0.25059108  0.75080772  0.33550690  1
  Al0+  Al65  1  0.24783532  0.74811551  0.65924468  1
  Al0+  Al66  1  0.75119273  0.24994713  -0.00320442  1
  Al0+  Al67  1  0.75064296  0.25224966  0.33309015  1
  Al0+  Al68  1  0.75102753  0.24839873  0.66693600  1
  Al0+  Al69  1  0.74863493  0.75338245  -0.00330764  1
  Al0+  Al70  1  0.75036262  0.75110358  0.33733011  1
  Al0+  Al71  1  0.75040043  0.75094660  0.67125418  1
  Al0+  Al72  1  0.67683854  0.92799440  0.34769043  1
  Al0+  Al73  1  0.92944982  0.32051496  0.31844307  1
  Al0+  Al74  1  0.92611096  0.82282795  0.98490157  1
  Al0+  Al75  1  0.67691691  0.42909206  0.34925536  1
  Al0+  Al76  1  0.17877581  0.42703487  0.01458486  1
  Al0+  Al77  1  0.07180627  0.17981333  0.98694359  1
  Al0+  Al78  1  0.31920726  0.57018864  0.67781975  1
  Al0+  Al79  1  0.68113471  0.42776637  0.01448117  1
  Al0+  Al80  1  0.17887073  0.92790955  0.34876527  1
  Al0+  Al81  1  0.17981515  0.42876135  0.34750539  1
  Al0+  Al82  1  0.82077824  0.57156979  0.68200640  1
  Al0+  Al83  1  0.57080081  0.18122919  0.64998731  1
  Al0+  Al84  1  0.82202244  0.57185120  0.34812406  1
  Al0+  Al85  1  0.57126216  0.17938944  0.98595855  1
  Al0+  Al86  1  0.82039804  0.07130720  0.68325328  1
  Al0+  Al87  1  0.06767073  0.67864686  0.65155717  1
  Al0+  Al88  1  0.82131772  0.57464881  0.01537507  1
  Al0+  Al89  1  0.32128216  0.57477160  0.01701152  1
  Al0+  Al90  1  0.82036138  0.07183723  0.34655197  1
  Al0+  Al91  1  0.17911851  0.93263361  0.01163909  1
  Al0+  Al92  1  0.57132641  0.68010418  0.32001630  1
  Al0+  Al93  1  0.32168647  0.06913974  0.68082149  1
  Al0+  Al94  1  0.07127717  0.67875343  0.98694565  1
  Al0+  Al95  1  0.42879482  0.81900475  0.65216128  1
  Si0+  Si96  1  0.42620934  0.82276126  0.31316065  1
  Si0+  Si97  1  0.92860233  0.32242723  0.98164002  1
  Si0+  Si98  1  0.42961413  0.82040575  0.98651789  1
  Si0+  Si99  1  0.07177478  0.67855537  0.31850503  1
  Si0+  Si100  1  0.82092452  0.06992449  0.01296295  1
  Si0+  Si101  1  0.67559157  0.93059812  0.01304773  1
  Si0+  Si102  1  0.17670691  0.42650517  0.68241635  1
  Si0+  Si103  1  0.57039142  0.17983860  0.31801191  1
  Si0+  Si104  1  0.32201713  0.57156754  0.35072450  1
  Si0+  Si105  1  0.57370664  0.67577022  0.65236401  1
  Si0+  Si106  1  0.93088561  0.82171466  0.32183560  1
  Si0+  Si107  1  0.93122158  0.31786106  0.65154732  1
  Si0+  Si108  1  0.57048561  0.67790808  0.98539734  1
  Si0+  Si109  1  0.67706172  0.92895063  0.68417763  1
  Si0+  Si110  1  0.67786235  0.42752441  0.68297750  1
  Si0+  Si111  1  0.42626707  0.32285851  0.64910860  1
  Si0+  Si112  1  0.07337464  0.17665641  0.31956687  1
  Si0+  Si113  1  0.32258953  0.07249865  0.34913925  1
  Si0+  Si114  1  0.92617664  0.82356480  0.64716042  1
  Si0+  Si115  1  0.42845779  0.32382752  0.98194857  1
  Si0+  Si116  1  0.42694968  0.32152477  0.31762019  1
  Si0+  Si117  1  0.07354171  0.17626269  0.65119944  1
  Si0+  Si118  1  0.17825127  0.92655740  0.68472956  1
  Si0+  Si119  1  0.32487679  0.07200530  0.01556028  1
  O2-  O120  1  0.25101916  0.00978455  0.06049547  1
  O2-  O121  1  0.25447193  0.00290603  0.39260606  1
  O2-  O122  1  0.24547864  -0.00295456  0.72855513  1
  O2-  O123  1  0.24801078  0.50229967  0.06420201  1
  O2-  O124  1  0.25207701  0.50468325  0.39540527  1
  O2-  O125  1  0.24585869  0.49494006  0.72532529  1
  O2-  O126  1  0.74994136  -0.00128165  0.05440093  1
  O2-  O127  1  0.74536700  0.00313193  0.39737036  1
  O2-  O128  1  0.74709443  -0.00461823  0.73025596  1
  O2-  O129  1  0.75012646  0.50184065  0.06485283  1
  O2-  O130  1  0.74813911  0.50164384  0.39869199  1
  O2-  O131  1  0.74041363  0.50187546  0.72658189  1
  O2-  O132  1  0.00390296  0.24368399  0.27432019  1
  O2-  O133  1  0.00335981  0.24753835  0.60879218  1
  O2-  O134  1  0.00137963  0.25739488  0.93762001  1
  O2-  O135  1  0.00028904  0.74995279  0.27809679  1
  O2-  O136  1  -0.00856072  0.75151238  0.60303618  1
  O2-  O137  1  -0.00512648  0.74644238  0.93661681  1
  O2-  O138  1  0.50020061  0.25180829  0.27587218  1
  O2-  O139  1  0.49634177  0.25627651  0.60311372  1
  O2-  O140  1  0.49788556  0.25513546  0.93855795  1
  O2-  O141  1  0.49745320  0.75573091  0.27069711  1
  O2-  O142  1  0.50394531  0.74334317  0.60776602  1
  O2-  O143  1  0.49627248  0.74567233  0.94301153  1
  O2-  O144  1  0.06548798  0.17600044  0.09993105  1
  O2-  O145  1  0.07443417  0.17921348  0.42553282  1
  O2-  O146  1  0.07362858  0.17777317  0.75633981  1
  O2-  O147  1  0.07191482  0.68307623  0.10095376  1
  O2-  O148  1  0.07183437  0.67887579  0.42393914  1
  O2-  O149  1  0.06996990  0.67976701  0.76418682  1
  O2-  O150  1  0.56954121  0.17624740  0.09935286  1
  O2-  O151  1  0.56886041  0.17981550  0.42310278  1
  O2-  O152  1  0.57081345  0.18265902  0.76318134  1
  O2-  O153  1  0.57201065  0.68127167  0.09044428  1
  O2-  O154  1  0.56794758  0.68096804  0.43338338  1
  O2-  O155  1  0.57301985  0.67819274  0.75824988  1
  O2-  O156  1  0.18082010  0.42788904  0.23507558  1
  O2-  O157  1  0.17694415  0.42688390  0.57646171  1
  O2-  O158  1  0.18349285  0.42513127  0.90082850  1
  O2-  O159  1  0.17711756  0.92898846  0.23558209  1
  O2-  O160  1  0.17953338  0.92849031  0.57876733  1
  O2-  O161  1  0.18316173  0.93204366  0.89875378  1
  O2-  O162  1  0.67900701  0.42858912  0.23606755  1
  O2-  O163  1  0.67929617  0.42621207  0.57761102  1
  O2-  O164  1  0.68309183  0.42829246  0.90036716  1
  O2-  O165  1  0.67975277  0.92986823  0.23340155  1
  O2-  O166  1  0.67829408  0.92990048  0.57879266  1
  O2-  O167  1  0.67094783  0.93245948  0.90817045  1
  O2-  O168  1  0.42712654  0.32036614  0.08785791  1
  O2-  O169  1  0.42508226  0.31973468  0.42276077  1
  O2-  O170  1  0.42591256  0.32239193  0.75429747  1
  O2-  O171  1  0.43268234  0.82348636  0.09133605  1
  O2-  O172  1  0.42465355  0.82171071  0.41873848  1
  O2-  O173  1  0.42894230  0.81857733  0.76598264  1
  O2-  O174  1  0.92584611  0.31835107  0.08707142  1
  O2-  O175  1  0.93124353  0.32002616  0.43221394  1
  O2-  O176  1  0.93218771  0.31751312  0.75665885  1
  O2-  O177  1  0.92780806  0.82683316  0.09915909  1
  O2-  O178  1  0.93309950  0.82213106  0.42687615  1
  O2-  O179  1  0.92897290  0.82562931  0.75244837  1
  O2-  O180  1  0.32473954  0.07330385  0.24359705  1
  O2-  O181  1  0.31881810  0.06851616  0.56749967  1
  O2-  O182  1  0.32720040  0.06724154  0.91000785  1
  O2-  O183  1  0.32091234  0.57077254  0.24533321  1
  O2-  O184  1  0.31843774  0.56793893  0.56474397  1
  O2-  O185  1  0.32070369  0.57544961  0.90293932  1
  O2-  O186  1  0.82099764  0.07002682  0.23239886  1
  O2-  O187  1  0.81875984  0.07275382  0.57049275  1
  O2-  O188  1  0.81982342  0.07009159  0.90773355  1
  O2-  O189  1  0.82185435  0.57288871  0.23497958  1
  O2-  O190  1  0.82200375  0.56818842  0.56924182  1
  O2-  O191  1  0.81904160  0.57229035  0.90134129  1
  O2-  O192  1  0.04757085  0.08093587  0.27818457  1
  O2-  O193  1  0.04556633  0.08343702  0.60592004  1
  O2-  O194  1  0.03792653  0.08675005  0.92811176  1
  O2-  O195  1  0.04515822  0.58652919  0.27215692  1
  O2-  O196  1  0.03757902  0.58035384  0.59884524  1
  O2-  O197  1  0.04946518  0.57861857  0.93390284  1
  O2-  O198  1  0.54160284  0.08756973  0.27090873  1
  O2-  O199  1  0.53912873  0.08537233  0.59540428  1
  O2-  O200  1  0.53890330  0.08378146  0.92969635  1
  O2-  O201  1  0.53983313  0.58372748  0.26506467  1
  O2-  O202  1  0.54914437  0.58091470  0.60844528  1
  O2-  O203  1  0.54714454  0.58408059  0.94037333  1
  O2-  O204  1  0.16728565  0.20129077  0.27356819  1
  O2-  O205  1  0.16630602  0.20143537  0.60395245  1
  O2-  O206  1  0.17089952  0.20553436  0.93388666  1
  O2-  O207  1  0.16437286  0.70693428  0.27333428  1
  O2-  O208  1  0.16219393  0.71035169  0.59357564  1
  O2-  O209  1  0.16938607  0.71394109  0.93566904  1
  O2-  O210  1  0.66234271  0.20633775  0.27075689  1
  O2-  O211  1  0.66809794  0.21251331  0.59729015  1
  O2-  O212  1  0.66782058  0.20943100  0.93060578  1
  O2-  O213  1  0.66817540  0.71277967  0.26623757  1
  O2-  O214  1  0.66729181  0.70324318  0.60694014  1
  O2-  O215  1  0.65977295  0.70972133  0.93529748  1
  O2-  O216  1  0.07917857  0.45074256  0.06622901  1
  O2-  O217  1  0.08426243  0.45915477  0.40283434  1
  O2-  O218  1  0.08325968  0.45097200  0.72789173  1
  O2-  O219  1  0.08203033  0.96443637  0.06478456  1
  O2-  O220  1  0.08590049  0.95756271  0.40956358  1
  O2-  O221  1  0.08404638  0.95053001  0.72914161  1
  O2-  O222  1  0.58112763  0.44957705  0.06584452  1
  O2-  O223  1  0.57730787  0.45482817  0.40118173  1
  O2-  O224  1  0.58181695  0.44431656  0.72766700  1
  O2-  O225  1  0.58633158  0.96171588  0.06364029  1
  O2-  O226  1  0.57563640  0.95115981  0.39674631  1
  O2-  O227  1  0.58346597  0.95698772  0.72821868  1
  O2-  O228  1  0.21035726  0.32924248  0.06889652  1
  O2-  O229  1  0.21100743  0.33241358  0.40259379  1
  O2-  O230  1  0.20135890  0.33200247  0.72672289  1
  O2-  O231  1  0.21179344  0.83931317  0.06974696  1
  O2-  O232  1  0.21161752  0.83223027  0.40375663  1
  O2-  O233  1  0.20723725  0.83320359  0.72750039  1
  O2-  O234  1  0.71115586  0.32886018  0.06624949  1
  O2-  O235  1  0.70639293  0.33108922  0.40161441  1
  O2-  O236  1  0.71125721  0.33650524  0.72944485  1
  O2-  O237  1  0.70010159  0.83788682  0.05936445  1
  O2-  O238  1  0.70718876  0.83260457  0.40397302  1
  O2-  O239  1  0.69877902  0.83466273  0.73112470  1
  O2-  O240  1  0.45114071  0.41382903  0.27029000  1
  O2-  O241  1  0.44952465  0.41740485  0.60290930  1
  O2-  O242  1  0.45367531  0.41844627  0.93743329  1
  O2-  O243  1  0.44721153  0.91779752  0.26745131  1
  O2-  O244  1  0.45973458  0.91401324  0.59527859  1
  O2-  O245  1  0.46130292  0.91022532  0.93652891  1
  O2-  O246  1  0.96328287  0.41596351  0.26413606  1
  O2-  O247  1  0.95804365  0.40921861  0.60286345  1
  O2-  O248  1  0.95095569  0.41722153  0.93712864  1
  O2-  O249  1  0.96089686  0.91415535  0.27605934  1
  O2-  O250  1  0.95518182  0.91666745  0.60069309  1
  O2-  O251  1  0.96002562  0.91834762  0.92884471  1
  O2-  O252  1  0.33652039  0.28979454  0.26866547  1
  O2-  O253  1  0.33300983  0.29394652  0.60259197  1
  O2-  O254  1  0.33588598  0.29919403  0.93375894  1
  O2-  O255  1  0.33322317  0.79338144  0.26686386  1
  O2-  O256  1  0.33362575  0.78849679  0.59546250  1
  O2-  O257  1  0.33672197  0.79626184  0.94012604  1
  O2-  O258  1  0.83301818  0.29014026  0.26336509  1
  O2-  O259  1  0.84013695  0.28783008  0.60442696  1
  O2-  O260  1  0.83793982  0.29115283  0.93254249  1
  O2-  O261  1  0.83789917  0.79792786  0.27513688  1
  O2-  O262  1  0.82977952  0.80225725  0.60509383  1
  O2-  O263  1  0.82581765  0.80283166  0.93093841  1
  O2-  O264  1  0.41608585  0.04015215  0.06341671  1
  O2-  O265  1  0.41546520  0.04630868  0.39640665  1
  O2-  O266  1  0.41881266  0.03705652  0.73242960  1
  O2-  O267  1  0.41915295  0.54472059  0.06995707  1
  O2-  O268  1  0.41478533  0.54401927  0.39630912  1
  O2-  O269  1  0.41635966  0.54338658  0.73397808  1
  O2-  O270  1  0.91235813  0.04263329  0.05985485  1
  O2-  O271  1  0.91656274  0.04310456  0.40364514  1
  O2-  O272  1  0.91810725  0.04136971  0.73627346  1
  O2-  O273  1  0.92079160  0.54941311  0.06572980  1
  O2-  O274  1  0.91916139  0.53908856  0.40093194  1
  O2-  O275  1  0.91515560  0.53327350  0.73583244  1
  O2-  O276  1  0.30708847  0.16829742  0.05748348  1
  O2-  O277  1  0.29752017  0.16491437  0.39769309  1
  O2-  O278  1  0.29425535  0.16633262  0.73578739  1
  O2-  O279  1  0.29595959  0.67245722  0.07227153  1
  O2-  O280  1  0.29891244  0.66622495  0.39520278  1
  O2-  O281  1  0.28655623  0.66711228  0.72972945  1
  O2-  O282  1  0.79286546  0.16168206  0.05941633  1
  O2-  O283  1  0.79165308  0.16977007  0.39934178  1
  O2-  O284  1  0.78847055  0.16717615  0.73780347  1
  O2-  O285  1  0.79165150  0.67446836  0.06469632  1
  O2-  O286  1  0.79550945  0.66986451  0.40227980  1
  O2-  O287  1  0.79678946  0.67027835  0.73501297  1
