# generated using pymatgen
data_Ca2Al2SiO7
_symmetry_space_group_name_H-M   'P 1'
_cell_length_a   15.45920600
_cell_length_b   15.45994532
_cell_length_c   15.28491559
_cell_angle_alpha   89.99541912
_cell_angle_beta   90.01130137
_cell_angle_gamma   90.00533534
_symmetry_Int_Tables_number   1
_chemical_formula_structural   Ca2Al2SiO7
_chemical_formula_sum   'Ca48 Al48 Si24 O168'
_cell_volume   3653.07148654
_cell_formula_units_Z   24
loop_
 _symmetry_equiv_pos_site_id
 _symmetry_equiv_pos_as_xyz
  1  'x, y, z'
loop_
 _atom_type_symbol
 _atom_type_oxidation_number
  Ca2+  2.0
  Al0+  0.0
  Si0+  0.0
  O2-  -2.0
loop_
 _atom_site_type_symbol
 _atom_site_label
 _atom_site_symmetry_multiplicity
 _atom_site_fract_x
 _atom_site_fract_y
 _atom_site_fract_z
 _atom_site_occupancy
  Ca2+  Ca0  1  0.17175157  0.07985796  0.18111692  1
  Ca2+  Ca1  1  0.18016353  0.08730482  0.49995363  1
  Ca2+  Ca2  1  0.17699335  0.08359427  0.83506938  1
  Ca2+  Ca3  1  0.16204175  0.57224607  0.16969920  1
  Ca2+  Ca4  1  0.16460965  0.57174786  0.50654567  1
  Ca2+  Ca5  1  0.15868651  0.57711082  0.83696986  1
  Ca2+  Ca6  1  0.67216170  0.08826227  0.16750307  1
  Ca2+  Ca7  1  0.67526639  0.09670787  0.50566644  1
  Ca2+  Ca8  1  0.67272023  0.08408789  0.84077187  1
  Ca2+  Ca9  1  0.67459911  0.57735714  0.17889542  1
  Ca2+  Ca10  1  0.66370179  0.57187955  0.50412054  1
  Ca2+  Ca11  1  0.65653266  0.57768106  0.83387828  1
  Ca2+  Ca12  1  0.08922524  0.32898122  0.16623981  1
  Ca2+  Ca13  1  0.08480809  0.33061058  0.49220856  1
  Ca2+  Ca14  1  0.08247935  0.33826357  0.82991441  1
  Ca2+  Ca15  1  0.07719730  0.82989202  0.15785859  1
  Ca2+  Ca16  1  0.08682058  0.82975440  0.49499262  1
  Ca2+  Ca17  1  0.07922954  0.82319236  0.82837260  1
  Ca2+  Ca18  1  0.57688840  0.32600872  0.16331873  1
  Ca2+  Ca19  1  0.58232714  0.32704387  0.49100212  1
  Ca2+  Ca20  1  0.58263243  0.32391314  0.82670080  1
  Ca2+  Ca21  1  0.58645843  0.83531025  0.16146780  1
  Ca2+  Ca22  1  0.57983371  0.83155341  0.50211983  1
  Ca2+  Ca23  1  0.58259533  0.83075662  0.82539736  1
  Ca2+  Ca24  1  0.32789169  0.40723237  0.17041349  1
  Ca2+  Ca25  1  0.32282440  0.40474074  0.50162655  1
  Ca2+  Ca26  1  0.32279744  0.41302725  0.83933027  1
  Ca2+  Ca27  1  0.32492686  0.92459640  0.17723728  1
  Ca2+  Ca28  1  0.33513256  0.92716603  0.50365207  1
  Ca2+  Ca29  1  0.34332237  0.92225160  0.83193125  1
  Ca2+  Ca30  1  0.82690375  0.42374783  0.17644421  1
  Ca2+  Ca31  1  0.82021818  0.41686864  0.50032787  1
  Ca2+  Ca32  1  0.82522150  0.41698249  0.83298962  1
  Ca2+  Ca33  1  0.83117136  0.92315522  0.16784889  1
  Ca2+  Ca34  1  0.83285020  0.93061679  0.50296101  1
  Ca2+  Ca35  1  0.82918862  0.92507415  0.84250399  1
  Ca2+  Ca36  1  0.42230112  0.17423557  0.16486979  1
  Ca2+  Ca37  1  0.42615261  0.16614174  0.49067797  1
  Ca2+  Ca38  1  0.42830196  0.16706628  0.82831271  1
  Ca2+  Ca39  1  0.41740562  0.66878219  0.16425507  1
  Ca2+  Ca40  1  0.41789888  0.67044872  0.50160723  1
  Ca2+  Ca41  1  0.42160417  0.67659070  0.82240621  1
  Ca2+  Ca42  1  0.92054815  0.15797533  0.16679351  1
  Ca2+  Ca43  1  0.92018419  0.16363833  0.49237662  1
  Ca2+  Ca44  1  0.91361120  0.16336665  0.82954566  1
  Ca2+  Ca45  1  0.91951234  0.67156627  0.15764515  1
  Ca2+  Ca46  1  0.92007445  0.66308779  0.49619547  1
  Ca2+  Ca47  1  0.92425435  0.67101824  0.83045485  1
  Al0+  Al48  1  0.00029577  -0.00034951  -0.00306059  1
  Al0+  Al49  1  -0.00155122  -0.00228272  0.33648111  1
  Al0+  Al50  1  0.00145996  0.00016940  0.67085687  1
  Al0+  Al51  1  0.00030560  0.49756666  0.00131301  1
  Al0+  Al52  1  0.00065046  0.50028403  0.33962088  1
  Al0+  Al53  1  -0.00214993  0.49982459  0.66603205  1
  Al0+  Al54  1  0.50169921  0.00083372  0.00198505  1
  Al0+  Al55  1  0.50094892  -0.00142341  0.33067234  1
  Al0+  Al56  1  0.50165828  0.00095214  0.66209978  1
  Al0+  Al57  1  0.49584937  0.49990264  -0.00208678  1
  Al0+  Al58  1  0.49870883  0.50123435  0.33168022  1
  Al0+  Al59  1  0.49704450  0.49965922  0.66786036  1
  Al0+  Al60  1  0.24973425  0.25055636  -0.00012450  1
  Al0+  Al61  1  0.24999442  0.24863972  0.33328434  1
  Al0+  Al62  1  0.24918081  0.24824354  0.67774337  1
  Al0+  Al63  1  0.25151249  0.74812656  -0.00439239  1
  Al0+  Al64  1  0.24909708  0.74809402  0.33383609  1
  Al0+  Al65  1  0.24832945  0.74984546  0.65772565  1
  Al0+  Al66  1  0.75185052  0.25025297  0.00159236  1
  Al0+  Al67  1  0.75103142  0.25117202  0.33499742  1
  Al0+  Al68  1  0.75100492  0.25292496  0.67195110  1
  Al0+  Al69  1  0.75009945  0.75121615  -0.00196444  1
  Al0+  Al70  1  0.75178438  0.75160542  0.33776095  1
  Al0+  Al71  1  0.75180204  0.75028154  0.66070321  1
  Al0+  Al72  1  0.92787886  0.82237989  0.98355345  1
  Al0+  Al73  1  0.57234141  0.18208115  0.65303391  1
  Al0+  Al74  1  0.57235145  0.67603279  0.65043449  1
  Al0+  Al75  1  0.82296630  0.07254075  0.01713224  1
  Al0+  Al76  1  0.18154165  0.42912418  0.34698383  1
  Al0+  Al77  1  0.82187563  0.57348940  0.34847970  1
  Al0+  Al78  1  0.67683410  0.43101906  0.68174835  1
  Al0+  Al79  1  0.82172814  0.07141471  0.68133220  1
  Al0+  Al80  1  0.06926608  0.17860250  0.32215457  1
  Al0+  Al81  1  0.42822466  0.32186805  0.31926204  1
  Al0+  Al82  1  0.07098282  0.67719589  0.98551175  1
  Al0+  Al83  1  0.42924647  0.82290116  0.64965634  1
  Al0+  Al84  1  0.67699059  0.42965532  0.34648944  1
  Al0+  Al85  1  0.57218192  0.18002967  0.98344288  1
  Al0+  Al86  1  0.06839129  0.67810059  0.64984243  1
  Al0+  Al87  1  0.42697032  0.32121352  0.98189778  1
  Al0+  Al88  1  0.17897333  0.42979265  0.01591357  1
  Al0+  Al89  1  0.67833626  0.92832802  0.01453647  1
  Al0+  Al90  1  0.81894989  0.07030657  0.34696757  1
  Al0+  Al91  1  0.32204358  0.07049015  0.34724102  1
  Al0+  Al92  1  0.57480106  0.17746427  0.31677808  1
  Al0+  Al93  1  0.32307012  0.06929704  0.68199271  1
  Al0+  Al94  1  0.17827016  0.42985418  0.68183566  1
  Al0+  Al95  1  0.17722838  0.92678708  0.34733966  1
  Si0+  Si96  1  0.17888502  0.92635754  0.68459107  1
  Si0+  Si97  1  0.31993176  0.57431601  0.68335617  1
  Si0+  Si98  1  0.07163362  0.17815472  0.98470385  1
  Si0+  Si99  1  0.67967438  0.92733530  0.68130788  1
  Si0+  Si100  1  0.67712591  0.92648550  0.35199987  1
  Si0+  Si101  1  0.42915021  0.82149971  0.98702012  1
  Si0+  Si102  1  0.92960121  0.32042721  0.65176909  1
  Si0+  Si103  1  0.32277467  0.57405032  0.35077006  1
  Si0+  Si104  1  0.07193429  0.17854679  0.65376432  1
  Si0+  Si105  1  0.81970907  0.56984324  0.01222900  1
  Si0+  Si106  1  0.92936519  0.82451086  0.64709599  1
  Si0+  Si107  1  0.67627659  0.42969220  0.01448109  1
  Si0+  Si108  1  0.92934367  0.32353455  0.31724786  1
  Si0+  Si109  1  0.32071693  0.07023367  0.01557554  1
  Si0+  Si110  1  0.42492949  0.32034012  0.65169172  1
  Si0+  Si111  1  0.32270143  0.57381508  0.01699913  1
  Si0+  Si112  1  0.92882085  0.82062637  0.31805911  1
  Si0+  Si113  1  0.57186977  0.68073976  0.31815889  1
  Si0+  Si114  1  0.07070508  0.67743954  0.31751689  1
  Si0+  Si115  1  0.92962212  0.32122495  0.98560463  1
  Si0+  Si116  1  0.57130732  0.67863889  0.98760811  1
  Si0+  Si117  1  0.42810752  0.82010471  0.31648922  1
  Si0+  Si118  1  0.82113611  0.57282884  0.68434620  1
  Si0+  Si119  1  0.18049153  0.92712153  0.01176559  1
  O2-  O120  1  0.24914298  -0.00118110  0.05615538  1
  O2-  O121  1  0.25003853  -0.00216939  0.39693332  1
  O2-  O122  1  0.25028238  -0.00801566  0.72961896  1
  O2-  O123  1  0.25425049  0.50483519  0.06078898  1
  O2-  O124  1  0.25781423  0.50175064  0.39418149  1
  O2-  O125  1  0.25176953  0.50577324  0.72865774  1
  O2-  O126  1  0.74970386  0.00054142  0.06497568  1
  O2-  O127  1  0.73906407  0.00170081  0.39490264  1
  O2-  O128  1  0.74772379  -0.00430046  0.72648771  1
  O2-  O129  1  0.74545217  0.50310580  0.05555442  1
  O2-  O130  1  0.74819117  0.50275474  0.39669310  1
  O2-  O131  1  0.74686239  0.51070999  0.72959872  1
  O2-  O132  1  -0.00396731  0.25340169  0.27206677  1
  O2-  O133  1  0.00047301  0.24863453  0.61120074  1
  O2-  O134  1  -0.00154735  0.24765846  0.94355128  1
  O2-  O135  1  -0.00016712  0.74881587  0.27599708  1
  O2-  O136  1  -0.00397016  0.75439722  0.60180892  1
  O2-  O137  1  0.00093518  0.75061492  0.93476984  1
  O2-  O138  1  0.50164698  0.25051675  0.26977958  1
  O2-  O139  1  0.49617434  0.25545438  0.60688989  1
  O2-  O140  1  0.50143583  0.25240163  0.93174894  1
  O2-  O141  1  0.50108122  0.75100877  0.27364198  1
  O2-  O142  1  0.50077406  0.74900113  0.60089693  1
  O2-  O143  1  0.50184469  0.75148357  0.94622755  1
  O2-  O144  1  0.07326335  0.17771597  0.08972108  1
  O2-  O145  1  0.06874545  0.18096304  0.43551714  1
  O2-  O146  1  0.07137655  0.17938272  0.75937182  1
  O2-  O147  1  0.06850224  0.67775435  0.09945639  1
  O2-  O148  1  0.07012100  0.67754891  0.42249011  1
  O2-  O149  1  0.06571941  0.67807680  0.76300090  1
  O2-  O150  1  0.57118951  0.18143163  0.09661788  1
  O2-  O151  1  0.57476302  0.17986159  0.43062166  1
  O2-  O152  1  0.57248705  0.18205808  0.76608767  1
  O2-  O153  1  0.57060554  0.67804113  0.09295783  1
  O2-  O154  1  0.57058592  0.68164275  0.42272707  1
  O2-  O155  1  0.57001183  0.67828985  0.76492459  1
  O2-  O156  1  0.17948727  0.43153863  0.23389305  1
  O2-  O157  1  0.17883498  0.42806869  0.56891151  1
  O2-  O158  1  0.17748355  0.43152768  0.90282969  1
  O2-  O159  1  0.17917208  0.92624650  0.23266788  1
  O2-  O160  1  0.17673416  0.92955453  0.57940850  1
  O2-  O161  1  0.18334561  0.92782686  0.90670710  1
  O2-  O162  1  0.67927331  0.43361044  0.23208500  1
  O2-  O163  1  0.67997851  0.42923089  0.56929105  1
  O2-  O164  1  0.67778075  0.43114289  0.90919029  1
  O2-  O165  1  0.68121436  0.91981352  0.24678321  1
  O2-  O166  1  0.68170639  0.92705691  0.57572140  1
  O2-  O167  1  0.67777815  0.92628520  0.90098693  1
  O2-  O168  1  0.42707909  0.31957477  0.09517445  1
  O2-  O169  1  0.42751468  0.32008727  0.43299708  1
  O2-  O170  1  0.42523775  0.31812131  0.75729870  1
  O2-  O171  1  0.42629322  0.81903135  0.09218774  1
  O2-  O172  1  0.42773688  0.81853046  0.42102183  1
  O2-  O173  1  0.43170040  0.82162102  0.76419913  1
  O2-  O174  1  0.93019253  0.32551600  0.09027693  1
  O2-  O175  1  0.93084503  0.32344422  0.42305259  1
  O2-  O176  1  0.93008656  0.32150164  0.75748186  1
  O2-  O177  1  0.92949105  0.82009184  0.09766288  1
  O2-  O178  1  0.92931887  0.82034475  0.42306404  1
  O2-  O179  1  0.93063772  0.82384451  0.75258737  1
  O2-  O180  1  0.31939282  0.06795904  0.23295538  1
  O2-  O181  1  0.32060095  0.07160911  0.56949410  1
  O2-  O182  1  0.32059442  0.06828081  0.91020152  1
  O2-  O183  1  0.32003147  0.57943586  0.24514654  1
  O2-  O184  1  0.31876280  0.57377707  0.57780208  1
  O2-  O185  1  0.32429561  0.57687376  0.91187675  1
  O2-  O186  1  0.82255803  0.06570085  0.23445492  1
  O2-  O187  1  0.82301871  0.07146087  0.56826953  1
  O2-  O188  1  0.82207037  0.07180953  0.90340445  1
  O2-  O189  1  0.82054661  0.57397307  0.23381148  1
  O2-  O190  1  0.82342226  0.56822531  0.57920429  1
  O2-  O191  1  0.81966914  0.56759561  0.90717223  1
  O2-  O192  1  0.03802841  0.08134841  0.26844662  1
  O2-  O193  1  0.04585528  0.08600978  0.60772332  1
  O2-  O194  1  0.04720132  0.08645720  0.93533752  1
  O2-  O195  1  0.04138694  0.58551296  0.27113012  1
  O2-  O196  1  0.03451582  0.58188756  0.59643305  1
  O2-  O197  1  0.03849453  0.57946494  0.93340139  1
  O2-  O198  1  0.54848240  0.07731990  0.26540152  1
  O2-  O199  1  0.54603235  0.08478221  0.59974729  1
  O2-  O200  1  0.54245890  0.08038301  0.93287773  1
  O2-  O201  1  0.54476676  0.58963439  0.26884093  1
  O2-  O202  1  0.54077706  0.57802926  0.59809928  1
  O2-  O203  1  0.54143543  0.58811316  0.93892759  1
  O2-  O204  1  0.16506120  0.20846589  0.26637352  1
  O2-  O205  1  0.16413611  0.20830479  0.60893706  1
  O2-  O206  1  0.16205197  0.20838589  0.93607544  1
  O2-  O207  1  0.16306908  0.70339114  0.26998340  1
  O2-  O208  1  0.16504089  0.70497388  0.59490648  1
  O2-  O209  1  0.17013084  0.70331626  0.93233006  1
  O2-  O210  1  0.67341480  0.20754528  0.26471829  1
  O2-  O211  1  0.66924503  0.21667143  0.60187193  1
  O2-  O212  1  0.67229316  0.20835559  0.93334376  1
  O2-  O213  1  0.66461627  0.70955934  0.27227825  1
  O2-  O214  1  0.67160548  0.70185975  0.59779375  1
  O2-  O215  1  0.66282081  0.70299664  0.93866208  1
  O2-  O216  1  0.08222372  0.46003817  0.07062022  1
  O2-  O217  1  0.08611667  0.46077471  0.40235042  1
  O2-  O218  1  0.08045527  0.46108935  0.73405419  1
  O2-  O219  1  0.08755525  0.95273006  0.05714776  1
  O2-  O220  1  0.07941848  0.95207429  0.40103616  1
  O2-  O221  1  0.08714854  0.95524252  0.73318229  1
  O2-  O222  1  0.58338757  0.45647963  0.05962642  1
  O2-  O223  1  0.57885840  0.45890761  0.39893497  1
  O2-  O224  1  0.57887411  0.45780852  0.73614392  1
  O2-  O225  1  0.57959120  0.95417472  0.06943203  1
  O2-  O226  1  0.58032925  0.94337538  0.39339085  1
  O2-  O227  1  0.58528491  0.95117912  0.72543928  1
  O2-  O228  1  0.20910897  0.33189273  0.06804253  1
  O2-  O229  1  0.20950414  0.33221603  0.40100124  1
  O2-  O230  1  0.20726688  0.33430219  0.73903277  1
  O2-  O231  1  0.20892010  0.83510622  0.05889046  1
  O2-  O232  1  0.20534432  0.82782909  0.39905034  1
  O2-  O233  1  0.20135994  0.83048990  0.72714128  1
  O2-  O234  1  0.70794781  0.33963532  0.06132150  1
  O2-  O235  1  0.70821065  0.33325382  0.40061851  1
  O2-  O236  1  0.71615396  0.33896761  0.73922814  1
  O2-  O237  1  0.70632176  0.82878430  0.06789286  1
  O2-  O238  1  0.70896285  0.83644656  0.40179016  1
  O2-  O239  1  0.70458118  0.83240027  0.72617085  1
  O2-  O240  1  0.45179842  0.42239011  0.26586971  1
  O2-  O241  1  0.44358550  0.41648764  0.60905074  1
  O2-  O242  1  0.44935937  0.42251803  0.93139634  1
  O2-  O243  1  0.45354176  0.91154860  0.26753714  1
  O2-  O244  1  0.46020403  0.91907537  0.59445871  1
  O2-  O245  1  0.45609037  0.91333717  0.94003246  1
  O2-  O246  1  0.95717566  0.41721433  0.27162655  1
  O2-  O247  1  0.95729924  0.41130458  0.60349646  1
  O2-  O248  1  0.96017242  0.41081495  0.93492405  1
  O2-  O249  1  0.95757545  0.91107182  0.26926986  1
  O2-  O250  1  0.95881270  0.91793408  0.60229902  1
  O2-  O251  1  0.95703147  0.92004237  0.92957299  1
  O2-  O252  1  0.33089614  0.29055854  0.26517909  1
  O2-  O253  1  0.33095293  0.29046454  0.60862927  1
  O2-  O254  1  0.32861305  0.29031611  0.93000492  1
  O2-  O255  1  0.33691528  0.78899830  0.26839498  1
  O2-  O256  1  0.33093106  0.79617037  0.59610919  1
  O2-  O257  1  0.33941981  0.79306476  0.93582239  1
  O2-  O258  1  0.83521387  0.30108708  0.27170357  1
  O2-  O259  1  0.83824875  0.29231029  0.60479455  1
  O2-  O260  1  0.83756246  0.29620149  0.93695983  1
  O2-  O261  1  0.83659554  0.79293233  0.27071015  1
  O2-  O262  1  0.83532850  0.80211305  0.60084004  1
  O2-  O263  1  0.83021522  0.79230413  0.92963700  1
  O2-  O264  1  0.41192188  0.04221060  0.06271523  1
  O2-  O265  1  0.42079349  0.04059429  0.39829089  1
  O2-  O266  1  0.42015028  0.03753922  0.73523539  1
  O2-  O267  1  0.41624132  0.54918754  0.06513490  1
  O2-  O268  1  0.41818014  0.55452148  0.39442030  1
  O2-  O269  1  0.41382271  0.55106190  0.72990479  1
  O2-  O270  1  0.92300033  0.04286329  0.06711672  1
  O2-  O271  1  0.91312801  0.03443265  0.40275323  1
  O2-  O272  1  0.91895676  0.04182261  0.73562143  1
  O2-  O273  1  0.90953426  0.53830625  0.06108805  1
  O2-  O274  1  0.91855117  0.54378285  0.40295413  1
  O2-  O275  1  0.91132547  0.53907198  0.73268931  1
  O2-  O276  1  0.29048185  0.16147481  0.06120818  1
  O2-  O277  1  0.29117331  0.16692246  0.40110979  1
  O2-  O278  1  0.28776401  0.16200587  0.74113398  1
  O2-  O279  1  0.29754853  0.66775946  0.06417872  1
  O2-  O280  1  0.29338065  0.66525769  0.39928857  1
  O2-  O281  1  0.29440920  0.66910908  0.72740323  1
  O2-  O282  1  0.79789921  0.17232602  0.06939529  1
  O2-  O283  1  0.79686629  0.16935677  0.39983736  1
  O2-  O284  1  0.79253980  0.16803603  0.73541284  1
  O2-  O285  1  0.79530253  0.66281579  0.05859599  1
  O2-  O286  1  0.79626944  0.67166575  0.40259830  1
  O2-  O287  1  0.80348681  0.67001409  0.72605054  1
