# generated using pymatgen
data_Ca2Al2SiO7
_symmetry_space_group_name_H-M   'P 1'
_cell_length_a   15.46419051
_cell_length_b   15.46770201
_cell_length_c   15.28939225
_cell_angle_alpha   90.02095493
_cell_angle_beta   89.99156605
_cell_angle_gamma   90.00781122
_symmetry_Int_Tables_number   1
_chemical_formula_structural   Ca2Al2SiO7
_chemical_formula_sum   'Ca48 Al48 Si24 O168'
_cell_volume   3657.15336190
_cell_formula_units_Z   24
loop_
 _symmetry_equiv_pos_site_id
 _symmetry_equiv_pos_as_xyz
  1  'x, y, z'
loop_
 _atom_type_symbol
 _atom_type_oxidation_number
  Ca2+  2.0
  Al0+  0.0
  Si0+  0.0
  O2-  -2.0
loop_
 _atom_site_type_symbol
 _atom_site_label
 _atom_site_symmetry_multiplicity
 _atom_site_fract_x
 _atom_site_fract_y
 _atom_site_fract_z
 _atom_site_occupancy
  Ca2+  Ca0  1  0.17691545  0.07571127  0.17453757  1
  Ca2+  Ca1  1  0.17090145  0.06993537  0.49916351  1
  Ca2+  Ca2  1  0.16778385  0.07508736  0.83579980  1
  Ca2+  Ca3  1  0.17397629  0.57954811  0.17077056  1
  Ca2+  Ca4  1  0.17224821  0.59450725  0.50159426  1
  Ca2+  Ca5  1  0.16455385  0.58196480  0.83841929  1
  Ca2+  Ca6  1  0.66482579  0.07417719  0.16421092  1
  Ca2+  Ca7  1  0.66703259  0.06978586  0.50164238  1
  Ca2+  Ca8  1  0.67059220  0.07263777  0.84137607  1
  Ca2+  Ca9  1  0.67617610  0.59318427  0.16473889  1
  Ca2+  Ca10  1  0.67516547  0.57980834  0.50286539  1
  Ca2+  Ca11  1  0.66635973  0.57735165  0.84433297  1
  Ca2+  Ca12  1  0.08001386  0.33543609  0.16292387  1
  Ca2+  Ca13  1  0.07597628  0.32964477  0.49123254  1
  Ca2+  Ca14  1  0.08404540  0.33256088  0.83168519  1
  Ca2+  Ca15  1  0.07146509  0.83963275  0.16398557  1
  Ca2+  Ca16  1  0.07470056  0.83810671  0.49668478  1
  Ca2+  Ca17  1  0.07027303  0.83059197  0.82320825  1
  Ca2+  Ca18  1  0.57870624  0.32646615  0.15273170  1
  Ca2+  Ca19  1  0.58794373  0.33154154  0.49702995  1
  Ca2+  Ca20  1  0.59404289  0.33001526  0.83393654  1
  Ca2+  Ca21  1  0.57505486  0.83530547  0.15727810  1
  Ca2+  Ca22  1  0.57501834  0.84392272  0.49530858  1
  Ca2+  Ca23  1  0.57991845  0.83593924  0.83234579  1
  Ca2+  Ca24  1  0.33285315  0.41902840  0.16889763  1
  Ca2+  Ca25  1  0.33526837  0.42773781  0.50155897  1
  Ca2+  Ca26  1  0.32623737  0.41617422  0.84427068  1
  Ca2+  Ca27  1  0.33202648  0.91578343  0.17929750  1
  Ca2+  Ca28  1  0.32480425  0.90817794  0.50284587  1
  Ca2+  Ca29  1  0.32917238  0.90401491  0.83409772  1
  Ca2+  Ca30  1  0.82964336  0.42852510  0.17084954  1
  Ca2+  Ca31  1  0.83386254  0.42170705  0.50240841  1
  Ca2+  Ca32  1  0.82332955  0.42674124  0.84355165  1
  Ca2+  Ca33  1  0.82055573  0.90750148  0.16823098  1
  Ca2+  Ca34  1  0.82337818  0.90468011  0.50269372  1
  Ca2+  Ca35  1  0.82679753  0.91345035  0.84277176  1
  Ca2+  Ca36  1  0.42226070  0.16736247  0.15684975  1
  Ca2+  Ca37  1  0.41614760  0.16550169  0.49389600  1
  Ca2+  Ca38  1  0.42319065  0.17259889  0.83704901  1
  Ca2+  Ca39  1  0.42120968  0.67525208  0.16129194  1
  Ca2+  Ca40  1  0.41833804  0.67646446  0.49400230  1
  Ca2+  Ca41  1  0.42444874  0.67481666  0.83389738  1
  Ca2+  Ca42  1  0.91157381  0.17155118  0.16111554  1
  Ca2+  Ca43  1  0.91500409  0.17419705  0.49211821  1
  Ca2+  Ca44  1  0.91056569  0.16542201  0.83336580  1
  Ca2+  Ca45  1  0.90933579  0.67367762  0.16284053  1
  Ca2+  Ca46  1  0.92079565  0.67407273  0.49564320  1
  Ca2+  Ca47  1  0.91583908  0.67503524  0.83132706  1
  Al0+  Al48  1  0.00077740  0.00157820  -0.00101435  1
  Al0+  Al49  1  0.00044290  0.00150928  0.33143991  1
  Al0+  Al50  1  0.00227017  0.00190589  0.66490002  1
  Al0+  Al51  1  0.00052939  0.49891866  0.00783082  1
  Al0+  Al52  1  -0.00114747  0.49927478  0.33307891  1
  Al0+  Al53  1  0.00175303  0.49985140  0.66277999  1
  Al0+  Al54  1  0.49846639  0.00337512  -0.00749922  1
  Al0+  Al55  1  0.50088181  0.00154092  0.33615529  1
  Al0+  Al56  1  0.50151733  0.00360574  0.66717510  1
  Al0+  Al57  1  0.49620377  0.50143043  -0.00290670  1
  Al0+  Al58  1  0.50002699  0.49871237  0.33738280  1
  Al0+  Al59  1  0.49952872  0.49942954  0.67012611  1
  Al0+  Al60  1  0.24818862  0.24855786  0.00040587  1
  Al0+  Al61  1  0.24979326  0.24965422  0.33760002  1
  Al0+  Al62  1  0.25128177  0.25078605  0.66414873  1
  Al0+  Al63  1  0.24763063  0.74807530  -0.00126586  1
  Al0+  Al64  1  0.24963450  0.74814134  0.33696259  1
  Al0+  Al65  1  0.25178952  0.75002867  0.66696672  1
  Al0+  Al66  1  0.75044534  0.25037304  0.00097801  1
  Al0+  Al67  1  0.74962677  0.24925320  0.32766089  1
  Al0+  Al68  1  0.74963379  0.25015946  0.66736896  1
  Al0+  Al69  1  0.74857313  0.75008915  -0.00138409  1
  Al0+  Al70  1  0.75061922  0.74729161  0.34100548  1
  Al0+  Al71  1  0.74957404  0.74818412  0.66812146  1
  Al0+  Al72  1  0.67712090  0.92952564  0.01420198  1
  Al0+  Al73  1  0.82025640  0.57191671  0.01506944  1
  Al0+  Al74  1  0.17750771  0.92752015  0.34784946  1
  Al0+  Al75  1  0.18056768  0.92925153  0.68227269  1
  Al0+  Al76  1  0.57356639  0.18082523  0.98218454  1
  Al0+  Al77  1  0.92996008  0.82143858  0.98767585  1
  Al0+  Al78  1  0.17968558  0.42707912  0.01409319  1
  Al0+  Al79  1  0.32283593  0.07137471  0.34783578  1
  Al0+  Al80  1  0.92832437  0.82061524  0.31849321  1
  Al0+  Al81  1  0.68045997  0.92879990  0.34629066  1
  Al0+  Al82  1  0.67995520  0.42922347  0.68031812  1
  Al0+  Al83  1  0.67520468  0.42909911  0.01602245  1
  Al0+  Al84  1  0.42615499  0.82355739  0.98563231  1
  Al0+  Al85  1  0.43006600  0.82045861  0.32169548  1
  Al0+  Al86  1  0.82377879  0.07050068  0.01510611  1
  Al0+  Al87  1  0.07125055  0.67811025  0.65183918  1
  Al0+  Al88  1  0.67937792  0.92849260  0.68122467  1
  Al0+  Al89  1  0.32194485  0.56977928  0.34750595  1
  Al0+  Al90  1  0.82183242  0.57037967  0.34990400  1
  Al0+  Al91  1  0.43291880  0.82135642  0.65180184  1
  Al0+  Al92  1  0.57143885  0.68007199  0.98606416  1
  Al0+  Al93  1  0.92865044  0.32126160  0.31749707  1
  Al0+  Al94  1  0.42660542  0.32156521  0.98627308  1
  Al0+  Al95  1  0.92721122  0.82265645  0.65084835  1
  Si0+  Si96  1  0.07468532  0.17936667  0.64980834  1
  Si0+  Si97  1  0.17907389  0.92716007  0.01336180  1
  Si0+  Si98  1  0.93001597  0.32225393  0.98454900  1
  Si0+  Si99  1  0.17800240  0.42813394  0.35171158  1
  Si0+  Si100  1  0.57169411  0.67529561  0.31926312  1
  Si0+  Si101  1  0.57149657  0.18215000  0.64899840  1
  Si0+  Si102  1  0.17952150  0.42793455  0.68019588  1
  Si0+  Si103  1  0.42867972  0.32199439  0.32017532  1
  Si0+  Si104  1  0.82254383  0.07289390  0.68010433  1
  Si0+  Si105  1  0.57018533  0.17906340  0.31820826  1
  Si0+  Si106  1  0.07099810  0.67579888  0.98594161  1
  Si0+  Si107  1  0.57170459  0.67428510  0.64899200  1
  Si0+  Si108  1  0.82126349  0.07410048  0.34860226  1
  Si0+  Si109  1  0.82449900  0.57013101  0.68368333  1
  Si0+  Si110  1  0.07295346  0.17933832  0.31494874  1
  Si0+  Si111  1  0.32036588  0.57376040  0.01697406  1
  Si0+  Si112  1  0.67920008  0.42536435  0.34919647  1
  Si0+  Si113  1  0.42740161  0.32196128  0.64947478  1
  Si0+  Si114  1  0.07099625  0.17962170  0.98396275  1
  Si0+  Si115  1  0.32085296  0.57092674  0.68387335  1
  Si0+  Si116  1  0.31844835  0.07019659  0.01194462  1
  Si0+  Si117  1  0.32219085  0.07512558  0.68570392  1
  Si0+  Si118  1  0.07255789  0.67740458  0.31527231  1
  Si0+  Si119  1  0.92987351  0.31890813  0.65318440  1
  O2-  O120  1  0.25634658  -0.00837457  0.05437109  1
  O2-  O121  1  0.25408153  -0.00393825  0.39716132  1
  O2-  O122  1  0.25692654  0.00297620  0.72968950  1
  O2-  O123  1  0.25525253  0.50058586  0.05991323  1
  O2-  O124  1  0.24548302  0.49715509  0.39667429  1
  O2-  O125  1  0.24806866  0.49996646  0.72382074  1
  O2-  O126  1  0.75195328  -0.00128026  0.06503076  1
  O2-  O127  1  0.75895536  0.00054449  0.39351592  1
  O2-  O128  1  0.76166239  -0.00246487  0.72353809  1
  O2-  O129  1  0.74561836  0.50223331  0.06581843  1
  O2-  O130  1  0.74786726  0.49331830  0.39427018  1
  O2-  O131  1  0.75184355  0.50553347  0.72717248  1
  O2-  O132  1  0.00361178  0.24691243  0.27023387  1
  O2-  O133  1  0.00043916  0.24810749  0.60956156  1
  O2-  O134  1  -0.00186496  0.24877158  0.94097203  1
  O2-  O135  1  0.00493176  0.74710110  0.27142916  1
  O2-  O136  1  0.00072977  0.75121648  0.60157876  1
  O2-  O137  1  0.00331615  0.74489609  0.94187256  1
  O2-  O138  1  0.49719056  0.24934513  0.27823288  1
  O2-  O139  1  0.49943093  0.25252027  0.60644803  1
  O2-  O140  1  0.50490495  0.25802376  0.93341428  1
  O2-  O141  1  0.50495250  0.74621843  0.27584108  1
  O2-  O142  1  0.50993723  0.74894464  0.60425754  1
  O2-  O143  1  0.50173367  0.75480956  0.93641268  1
  O2-  O144  1  0.07358537  0.18095017  0.08857719  1
  O2-  O145  1  0.07220981  0.18204840  0.42100193  1
  O2-  O146  1  0.07784382  0.18169246  0.75496443  1
  O2-  O147  1  0.07404707  0.67694914  0.09125637  1
  O2-  O148  1  0.07099949  0.67692114  0.42085794  1
  O2-  O149  1  0.06817488  0.67504136  0.76561930  1
  O2-  O150  1  0.56846823  0.17800612  0.09612751  1
  O2-  O151  1  0.57200155  0.18179042  0.42382075  1
  O2-  O152  1  0.57256358  0.18399803  0.75335096  1
  O2-  O153  1  0.56895250  0.68120301  0.10002843  1
  O2-  O154  1  0.56908589  0.67193852  0.42508358  1
  O2-  O155  1  0.56743689  0.66986027  0.75399314  1
  O2-  O156  1  0.18033554  0.42661881  0.24623953  1
  O2-  O157  1  0.18149225  0.42445420  0.57557693  1
  O2-  O158  1  0.17886287  0.42764758  0.90020063  1
  O2-  O159  1  0.17801841  0.93072829  0.23372030  1
  O2-  O160  1  0.17998790  0.93184467  0.56961991  1
  O2-  O161  1  0.17763375  0.92970950  0.90816221  1
  O2-  O162  1  0.67808041  0.42358570  0.24454794  1
  O2-  O163  1  0.68313174  0.42717826  0.56685144  1
  O2-  O164  1  0.68201482  0.42994272  0.90203333  1
  O2-  O165  1  0.67712497  0.93027980  0.23389979  1
  O2-  O166  1  0.67719791  0.93335309  0.56787434  1
  O2-  O167  1  0.67893440  0.93125872  0.90048000  1
  O2-  O168  1  0.42341835  0.31448851  0.10013849  1
  O2-  O169  1  0.43085100  0.32294763  0.42574785  1
  O2-  O170  1  0.42217195  0.32017492  0.75379138  1
  O2-  O171  1  0.42320307  0.82169469  0.09945911  1
  O2-  O172  1  0.43147001  0.81924320  0.43497786  1
  O2-  O173  1  0.43173214  0.81750706  0.76450661  1
  O2-  O174  1  0.93296703  0.32197451  0.08935390  1
  O2-  O175  1  0.92976768  0.31823202  0.43176256  1
  O2-  O176  1  0.93165232  0.31849533  0.75818906  1
  O2-  O177  1  0.93183585  0.82189154  0.10083549  1
  O2-  O178  1  0.92829200  0.81895394  0.43144996  1
  O2-  O179  1  0.92869031  0.82223119  0.76457476  1
  O2-  O180  1  0.32123844  0.07339779  0.23390989  1
  O2-  O181  1  0.31889316  0.07937171  0.58044385  1
  O2-  O182  1  0.31279836  0.07546118  0.90713724  1
  O2-  O183  1  0.32192644  0.56587316  0.23479418  1
  O2-  O184  1  0.32201880  0.56804789  0.57865666  1
  O2-  O185  1  0.31606677  0.57579189  0.91120345  1
  O2-  O186  1  0.81719233  0.07852099  0.24390352  1
  O2-  O187  1  0.81808875  0.08047106  0.57475370  1
  O2-  O188  1  0.82511661  0.06800112  0.90090508  1
  O2-  O189  1  0.82011552  0.57113639  0.23742716  1
  O2-  O190  1  0.82569568  0.56573694  0.57797412  1
  O2-  O191  1  0.82448359  0.56821516  0.90134253  1
  O2-  O192  1  0.05035738  0.08565469  0.26884442  1
  O2-  O193  1  0.04956238  0.08796695  0.60144084  1
  O2-  O194  1  0.04498879  0.08838340  0.93411225  1
  O2-  O195  1  0.04750165  0.58293326  0.27086579  1
  O2-  O196  1  0.04565794  0.57900931  0.59638763  1
  O2-  O197  1  0.04594319  0.58121245  0.94099792  1
  O2-  O198  1  0.54233249  0.08818064  0.27036863  1
  O2-  O199  1  0.54317186  0.09108389  0.60086287  1
  O2-  O200  1  0.53905372  0.08631690  0.92533066  1
  O2-  O201  1  0.54399334  0.58221218  0.27294731  1
  O2-  O202  1  0.53975098  0.58258128  0.60118058  1
  O2-  O203  1  0.54029613  0.58274460  0.93125538  1
  O2-  O204  1  0.16670741  0.20765679  0.26988138  1
  O2-  O205  1  0.16397400  0.21210574  0.60021139  1
  O2-  O206  1  0.16018107  0.21079594  0.93332371  1
  O2-  O207  1  0.16741089  0.69983355  0.27070550  1
  O2-  O208  1  0.17124679  0.70425364  0.60188295  1
  O2-  O209  1  0.16387532  0.69977743  0.93764956  1
  O2-  O210  1  0.66050718  0.20720086  0.26916162  1
  O2-  O211  1  0.66243998  0.21254289  0.60030645  1
  O2-  O212  1  0.67305899  0.20683043  0.92910348  1
  O2-  O213  1  0.66660270  0.69972499  0.27745839  1
  O2-  O214  1  0.66860346  0.69224925  0.60740306  1
  O2-  O215  1  0.66968803  0.70341532  0.93085867  1
  O2-  O216  1  0.08517023  0.45731406  0.07131030  1
  O2-  O217  1  0.08363668  0.45158295  0.39633123  1
  O2-  O218  1  0.08652942  0.45306563  0.72695836  1
  O2-  O219  1  0.09073283  0.96300092  0.06155993  1
  O2-  O220  1  0.08084467  0.96283802  0.40156782  1
  O2-  O221  1  0.08405100  0.96410570  0.73541829  1
  O2-  O222  1  0.57306213  0.45046282  0.06343588  1
  O2-  O223  1  0.58599459  0.45063738  0.39713118  1
  O2-  O224  1  0.58123975  0.45407983  0.73260795  1
  O2-  O225  1  0.57753084  0.96195398  0.06332114  1
  O2-  O226  1  0.58685706  0.96616679  0.40222711  1
  O2-  O227  1  0.58507890  0.96712220  0.73453015  1
  O2-  O228  1  0.20923375  0.33054078  0.06877923  1
  O2-  O229  1  0.20364706  0.33511510  0.39929939  1
  O2-  O230  1  0.20900213  0.33658111  0.72843845  1
  O2-  O231  1  0.19883604  0.83320713  0.05930830  1
  O2-  O232  1  0.20163532  0.82866281  0.40072666  1
  O2-  O233  1  0.21097921  0.83229143  0.73580640  1
  O2-  O234  1  0.70495365  0.33063984  0.06669703  1
  O2-  O235  1  0.70616140  0.33176148  0.39580492  1
  O2-  O236  1  0.71378425  0.33338496  0.73390616  1
  O2-  O237  1  0.70316639  0.83066729  0.06594698  1
  O2-  O238  1  0.70713078  0.83262517  0.40282952  1
  O2-  O239  1  0.70188895  0.82862158  0.73208606  1
  O2-  O240  1  0.45757928  0.41286894  0.27222015  1
  O2-  O241  1  0.45545933  0.41439894  0.60330966  1
  O2-  O242  1  0.44036056  0.42333573  0.93617055  1
  O2-  O243  1  0.45903803  0.91876418  0.27032149  1
  O2-  O244  1  0.45949309  0.92110783  0.60122433  1
  O2-  O245  1  0.44727005  0.92262010  0.93164910  1
  O2-  O246  1  0.96015582  0.41739088  0.26402804  1
  O2-  O247  1  0.95850645  0.40958924  0.60420595  1
  O2-  O248  1  0.96263459  0.41272682  0.93740298  1
  O2-  O249  1  0.95679768  0.91913324  0.26666119  1
  O2-  O250  1  0.95451885  0.92287539  0.59992438  1
  O2-  O251  1  0.96363437  0.91714404  0.93332010  1
  O2-  O252  1  0.33456016  0.29766339  0.27621460  1
  O2-  O253  1  0.33659980  0.29350914  0.59927422  1
  O2-  O254  1  0.33066342  0.28432121  0.93133192  1
  O2-  O255  1  0.33211921  0.79006884  0.27042535  1
  O2-  O256  1  0.33634833  0.78733271  0.59997278  1
  O2-  O257  1  0.32858416  0.78915784  0.93258732  1
  O2-  O258  1  0.83268494  0.29027465  0.26314272  1
  O2-  O259  1  0.83882202  0.28985474  0.60464145  1
  O2-  O260  1  0.83824756  0.29643286  0.93682275  1
  O2-  O261  1  0.83086954  0.78554507  0.26864447  1
  O2-  O262  1  0.82833284  0.79194715  0.59953609  1
  O2-  O263  1  0.83360244  0.79186739  0.93411089  1
  O2-  O264  1  0.41327669  0.05203143  0.05574618  1
  O2-  O265  1  0.42169699  0.04942465  0.40170459  1
  O2-  O266  1  0.41779384  0.05497928  0.72840877  1
  O2-  O267  1  0.41442720  0.55238645  0.06217762  1
  O2-  O268  1  0.41632263  0.53537522  0.40523405  1
  O2-  O269  1  0.41104301  0.54004785  0.73186810  1
  O2-  O270  1  0.92413624  0.04784213  0.06728016  1
  O2-  O271  1  0.91801167  0.05697502  0.39098531  1
  O2-  O272  1  0.91993879  0.05863691  0.72221460  1
  O2-  O273  1  0.91697701  0.54094299  0.07008009  1
  O2-  O274  1  0.91819197  0.53764000  0.40348349  1
  O2-  O275  1  0.91700967  0.53935588  0.72910185  1
  O2-  O276  1  0.28254153  0.15755674  0.06286862  1
  O2-  O277  1  0.29166535  0.16884080  0.40344671  1
  O2-  O278  1  0.29124094  0.16780804  0.73186413  1
  O2-  O279  1  0.28885262  0.66455721  0.06621541  1
  O2-  O280  1  0.29152026  0.66499263  0.40403383  1
  O2-  O281  1  0.29385894  0.66182445  0.73191734  1
  O2-  O282  1  0.79705239  0.17009927  0.06550642  1
  O2-  O283  1  0.78985118  0.16587366  0.39715283  1
  O2-  O284  1  0.79015556  0.16333092  0.72968977  1
  O2-  O285  1  0.79182314  0.67000242  0.06814469  1
  O2-  O286  1  0.78930740  0.66341205  0.40891359  1
  O2-  O287  1  0.80287825  0.66496355  0.72737253  1
