# generated using pymatgen
data_Ca2Al2SiO7
_symmetry_space_group_name_H-M   'P 1'
_cell_length_a   15.46213442
_cell_length_b   15.46338471
_cell_length_c   15.28702280
_cell_angle_alpha   89.98757638
_cell_angle_beta   89.98484531
_cell_angle_gamma   89.99062634
_symmetry_Int_Tables_number   1
_chemical_formula_structural   Ca2Al2SiO7
_chemical_formula_sum   'Ca48 Al48 Si24 O168'
_cell_volume   3655.08000299
_cell_formula_units_Z   24
loop_
 _symmetry_equiv_pos_site_id
 _symmetry_equiv_pos_as_xyz
  1  'x, y, z'
loop_
 _atom_type_symbol
 _atom_type_oxidation_number
  Ca2+  2.0
  Al0+  0.0
  Si0+  0.0
  O2-  -2.0
loop_
 _atom_site_type_symbol
 _atom_site_label
 _atom_site_symmetry_multiplicity
 _atom_site_fract_x
 _atom_site_fract_y
 _atom_site_fract_z
 _atom_site_occupancy
  Ca2+  Ca0  1  0.17378479  0.09312966  0.16999225  1
  Ca2+  Ca1  1  0.17408376  0.08543414  0.50570426  1
  Ca2+  Ca2  1  0.17262273  0.09184613  0.83094015  1
  Ca2+  Ca3  1  0.17825002  0.57806299  0.17332586  1
  Ca2+  Ca4  1  0.17383806  0.57496699  0.50473763  1
  Ca2+  Ca5  1  0.17216594  0.57207983  0.83835993  1
  Ca2+  Ca6  1  0.67391487  0.08756617  0.17796977  1
  Ca2+  Ca7  1  0.67854261  0.09495445  0.50121886  1
  Ca2+  Ca8  1  0.67610594  0.09220830  0.83410516  1
  Ca2+  Ca9  1  0.66800958  0.57528932  0.17460424  1
  Ca2+  Ca10  1  0.66725003  0.59003746  0.50005619  1
  Ca2+  Ca11  1  0.66584598  0.57650200  0.83906454  1
  Ca2+  Ca12  1  0.07806895  0.32111077  0.16104181  1
  Ca2+  Ca13  1  0.08614171  0.32228737  0.49963211  1
  Ca2+  Ca14  1  0.07958614  0.32470755  0.82442468  1
  Ca2+  Ca15  1  0.07780685  0.83411999  0.16747319  1
  Ca2+  Ca16  1  0.07974576  0.84029206  0.49474402  1
  Ca2+  Ca17  1  0.08848103  0.83247537  0.82826661  1
  Ca2+  Ca18  1  0.57612559  0.33228132  0.16699944  1
  Ca2+  Ca19  1  0.56951120  0.32676281  0.49416164  1
  Ca2+  Ca20  1  0.57150189  0.34015270  0.83176976  1
  Ca2+  Ca21  1  0.57703625  0.82932672  0.17137519  1
  Ca2+  Ca22  1  0.57849125  0.82373005  0.49162267  1
  Ca2+  Ca23  1  0.58068827  0.82365651  0.82546545  1
  Ca2+  Ca24  1  0.34325340  0.42273276  0.17097314  1
  Ca2+  Ca25  1  0.33329979  0.41361291  0.50301221  1
  Ca2+  Ca26  1  0.33006801  0.41216459  0.83699410  1
  Ca2+  Ca27  1  0.33471335  0.92915169  0.17537597  1
  Ca2+  Ca28  1  0.33345037  0.92712514  0.50483779  1
  Ca2+  Ca29  1  0.32877816  0.93043879  0.83631501  1
  Ca2+  Ca30  1  0.82730332  0.41359601  0.17171600  1
  Ca2+  Ca31  1  0.83463494  0.41998372  0.50502292  1
  Ca2+  Ca32  1  0.82789352  0.40695010  0.84025954  1
  Ca2+  Ca33  1  0.83117111  0.92072528  0.17816145  1
  Ca2+  Ca34  1  0.83600179  0.92725414  0.50088301  1
  Ca2+  Ca35  1  0.83444368  0.92575843  0.83218893  1
  Ca2+  Ca36  1  0.41213463  0.17578705  0.16293926  1
  Ca2+  Ca37  1  0.41138429  0.17285313  0.49071338  1
  Ca2+  Ca38  1  0.40888344  0.17460078  0.82868328  1
  Ca2+  Ca39  1  0.41346609  0.66584506  0.16618133  1
  Ca2+  Ca40  1  0.42545677  0.66990108  0.48843171  1
  Ca2+  Ca41  1  0.42128938  0.66201240  0.82747674  1
  Ca2+  Ca42  1  0.92806125  0.16421111  0.16126822  1
  Ca2+  Ca43  1  0.92695192  0.16094895  0.49556903  1
  Ca2+  Ca44  1  0.92537128  0.17567586  0.82526098  1
  Ca2+  Ca45  1  0.90928886  0.67068753  0.17061413  1
  Ca2+  Ca46  1  0.91746565  0.67328416  0.48969778  1
  Ca2+  Ca47  1  0.91833905  0.66976298  0.82832725  1
  Al0+  Al48  1  0.00020435  -0.00170490  -0.00535005  1
  Al0+  Al49  1  -0.00085710  -0.00047705  0.32658532  1
  Al0+  Al50  1  -0.00083517  -0.00017889  0.67262375  1
  Al0+  Al51  1  -0.00081334  0.50331791  -0.00129673  1
  Al0+  Al52  1  -0.00097421  0.49958311  0.33726834  1
  Al0+  Al53  1  0.00067266  0.50216028  0.66839002  1
  Al0+  Al54  1  0.50023732  -0.00152659  0.00227731  1
  Al0+  Al55  1  0.50138959  -0.00177176  0.33144776  1
  Al0+  Al56  1  0.50255505  -0.00077718  0.67171451  1
  Al0+  Al57  1  0.50277983  0.49908862  0.00440761  1
  Al0+  Al58  1  0.50078544  0.49949959  0.33248238  1
  Al0+  Al59  1  0.50319589  0.49984638  0.65706161  1
  Al0+  Al60  1  0.24932776  0.25019176  -0.00299343  1
  Al0+  Al61  1  0.24791230  0.25015382  0.32795764  1
  Al0+  Al62  1  0.24808146  0.25236312  0.66645812  1
  Al0+  Al63  1  0.24958340  0.75106667  0.00243958  1
  Al0+  Al64  1  0.24899652  0.74848572  0.33388594  1
  Al0+  Al65  1  0.25176952  0.75088292  0.66907141  1
  Al0+  Al66  1  0.74950199  0.24932816  0.00475706  1
  Al0+  Al67  1  0.74892634  0.25122594  0.33752818  1
  Al0+  Al68  1  0.74918667  0.25354133  0.66934148  1
  Al0+  Al69  1  0.74912843  0.75056479  -0.00158328  1
  Al0+  Al70  1  0.74978697  0.74935329  0.32924676  1
  Al0+  Al71  1  0.75095855  0.74980240  0.66484282  1
  Al0+  Al72  1  0.32078864  0.56995093  0.01242121  1
  Al0+  Al73  1  0.32183748  0.57066422  0.34841033  1
  Al0+  Al74  1  0.92655392  0.32368553  0.65027608  1
  Al0+  Al75  1  0.17858635  0.92754235  0.68111675  1
  Al0+  Al76  1  0.81988705  0.07266476  0.68145443  1
  Al0+  Al77  1  0.07128006  0.17844054  0.98141966  1
  Al0+  Al78  1  0.92703618  0.32226462  0.98711769  1
  Al0+  Al79  1  0.57108458  0.67959809  0.65302607  1
  Al0+  Al80  1  0.32110083  0.07127627  0.34531450  1
  Al0+  Al81  1  0.31972331  0.07166412  0.01533498  1
  Al0+  Al82  1  0.06874912  0.17841663  0.64917453  1
  Al0+  Al83  1  0.82003128  0.57068964  0.34758912  1
  Al0+  Al84  1  0.06905399  0.17871233  0.31893114  1
  Al0+  Al85  1  0.82148791  0.07130499  0.34579855  1
  Al0+  Al86  1  0.17884064  0.43069357  0.68040575  1
  Al0+  Al87  1  0.68101361  0.42861778  0.01498379  1
  Al0+  Al88  1  0.42878908  0.31858883  0.65328777  1
  Al0+  Al89  1  0.42777704  0.31890285  0.31704730  1
  Al0+  Al90  1  0.32259031  0.07291867  0.68081410  1
  Al0+  Al91  1  0.43223271  0.32126004  0.98584648  1
  Al0+  Al92  1  0.57066153  0.67878541  0.31526646  1
  Al0+  Al93  1  0.93071549  0.81987776  0.32047460  1
  Al0+  Al94  1  0.42550540  0.82123747  0.31819023  1
  Al0+  Al95  1  0.57316521  0.17773257  0.32000117  1
  Si0+  Si96  1  0.17717444  0.42772831  0.34966067  1
  Si0+  Si97  1  0.67917782  0.92568931  0.01588048  1
  Si0+  Si98  1  0.67902984  0.43165320  0.68177398  1
  Si0+  Si99  1  0.92767574  0.81941404  0.98275767  1
  Si0+  Si100  1  0.32485667  0.57057531  0.68088804  1
  Si0+  Si101  1  0.93005516  0.81990696  0.65233991  1
  Si0+  Si102  1  0.17590925  0.42831436  0.01699482  1
  Si0+  Si103  1  0.42806886  0.82356077  0.65153460  1
  Si0+  Si104  1  0.82116962  0.57328947  0.68237742  1
  Si0+  Si105  1  0.67855933  0.92700686  0.35021925  1
  Si0+  Si106  1  0.17727864  0.92808166  0.34672816  1
  Si0+  Si107  1  0.42756048  0.82220221  0.98352553  1
  Si0+  Si108  1  0.07188031  0.67457523  0.31676869  1
  Si0+  Si109  1  0.67779604  0.42806918  0.35471948  1
  Si0+  Si110  1  0.17688488  0.92703134  0.01870092  1
  Si0+  Si111  1  0.57228288  0.17475050  0.98387081  1
  Si0+  Si112  1  0.56974182  0.68048253  0.98512709  1
  Si0+  Si113  1  0.68036396  0.92535059  0.68378679  1
  Si0+  Si114  1  0.07331260  0.68055289  0.98447296  1
  Si0+  Si115  1  0.57299913  0.17625958  0.65288604  1
  Si0+  Si116  1  0.82010543  0.06804366  0.01528716  1
  Si0+  Si117  1  0.07328293  0.67926460  0.65253486  1
  Si0+  Si118  1  0.92732030  0.32399573  0.31879452  1
  Si0+  Si119  1  0.82256252  0.57545603  0.01631429  1
  O2-  O120  1  0.24291803  -0.00193014  0.06168169  1
  O2-  O121  1  0.24908447  -0.00703208  0.39070615  1
  O2-  O122  1  0.24973725  0.00058200  0.73057970  1
  O2-  O123  1  0.24741144  0.49447904  0.06053524  1
  O2-  O124  1  0.24775766  0.49513226  0.39364824  1
  O2-  O125  1  0.25623988  0.50344928  0.72695396  1
  O2-  O126  1  0.74775779  -0.00126004  0.05793889  1
  O2-  O127  1  0.74311984  0.00025154  0.39335327  1
  O2-  O128  1  0.74296886  -0.00067707  0.72903261  1
  O2-  O129  1  0.76057015  0.50046976  0.05866511  1
  O2-  O130  1  0.74697158  0.49720291  0.39813973  1
  O2-  O131  1  0.75344187  0.49965328  0.72473344  1
  O2-  O132  1  -0.00759102  0.25277236  0.27429101  1
  O2-  O133  1  -0.00466573  0.24958963  0.59935685  1
  O2-  O134  1  0.00016703  0.25344072  0.93473595  1
  O2-  O135  1  0.00383409  0.74412184  0.27230733  1
  O2-  O136  1  0.00543156  0.75343961  0.61082074  1
  O2-  O137  1  -0.00017304  0.74928571  0.94125952  1
  O2-  O138  1  0.49799606  0.24443873  0.26777472  1
  O2-  O139  1  0.49715130  0.23661354  0.60935361  1
  O2-  O140  1  0.50279793  0.24205659  0.93891758  1
  O2-  O141  1  0.49425701  0.74655110  0.26583296  1
  O2-  O142  1  0.49598594  0.75405709  0.60815539  1
  O2-  O143  1  0.49722453  0.74921483  0.94132816  1
  O2-  O144  1  0.06825972  0.17702901  0.09528485  1
  O2-  O145  1  0.06977267  0.17687841  0.43157748  1
  O2-  O146  1  0.06794198  0.18071084  0.76255423  1
  O2-  O147  1  0.07399895  0.68183241  0.08916732  1
  O2-  O148  1  0.07063882  0.67455230  0.42251004  1
  O2-  O149  1  0.07033777  0.67917069  0.75811867  1
  O2-  O150  1  0.57333184  0.17386993  0.08897718  1
  O2-  O151  1  0.57512465  0.18249358  0.43367816  1
  O2-  O152  1  0.57589434  0.18031129  0.75871390  1
  O2-  O153  1  0.57222799  0.68326451  0.08926821  1
  O2-  O154  1  0.57199392  0.68322498  0.42898542  1
  O2-  O155  1  0.57067001  0.67930635  0.76713936  1
  O2-  O156  1  0.17377823  0.43094356  0.24401347  1
  O2-  O157  1  0.17825412  0.43333050  0.56747917  1
  O2-  O158  1  0.17523119  0.43209512  0.91126681  1
  O2-  O159  1  0.17587607  0.92911049  0.24100434  1
  O2-  O160  1  0.17933261  0.92488913  0.56766030  1
  O2-  O161  1  0.17943010  0.92235617  0.91343349  1
  O2-  O162  1  0.67993692  0.42793520  0.24886227  1
  O2-  O163  1  0.67831138  0.43351424  0.57730134  1
  O2-  O164  1  0.67857709  0.43340825  0.90137802  1
  O2-  O165  1  0.68261188  0.92495459  0.24409584  1
  O2-  O166  1  0.68418366  0.92042721  0.57905303  1
  O2-  O167  1  0.68218866  0.92125090  0.91076547  1
  O2-  O168  1  0.43494692  0.32292680  0.09822445  1
  O2-  O169  1  0.42747670  0.31799010  0.43079038  1
  O2-  O170  1  0.43239877  0.32330013  0.76664679  1
  O2-  O171  1  0.42877226  0.82247387  0.08804463  1
  O2-  O172  1  0.42818990  0.82056071  0.43205366  1
  O2-  O173  1  0.42988452  0.82174020  0.75773687  1
  O2-  O174  1  0.92739479  0.31943203  0.10088826  1
  O2-  O175  1  0.93013507  0.32602653  0.42405025  1
  O2-  O176  1  0.92650289  0.32237827  0.76397522  1
  O2-  O177  1  0.92575957  0.81911541  0.08749072  1
  O2-  O178  1  0.93297496  0.82040906  0.43375942  1
  O2-  O179  1  0.92659317  0.81560630  0.75793357  1
  O2-  O180  1  0.31782693  0.07207606  0.23208813  1
  O2-  O181  1  0.32307363  0.07065537  0.56720305  1
  O2-  O182  1  0.32158016  0.06919205  0.90239304  1
  O2-  O183  1  0.31884652  0.56993749  0.23493349  1
  O2-  O184  1  0.32236081  0.57090336  0.57564843  1
  O2-  O185  1  0.31931865  0.57088732  0.89894571  1
  O2-  O186  1  0.82198586  0.06730128  0.23223004  1
  O2-  O187  1  0.82031148  0.06929880  0.56859152  1
  O2-  O188  1  0.81794087  0.06636789  0.91000220  1
  O2-  O189  1  0.81916897  0.56852027  0.23428681  1
  O2-  O190  1  0.81981852  0.57708140  0.57772538  1
  O2-  O191  1  0.81870011  0.58239608  0.91064279  1
  O2-  O192  1  0.03789338  0.08409027  0.26162473  1
  O2-  O193  1  0.04025666  0.07773211  0.60095131  1
  O2-  O194  1  0.04230397  0.07917160  0.92998717  1
  O2-  O195  1  0.04368705  0.58224561  0.26967654  1
  O2-  O196  1  0.04204936  0.58992506  0.60375552  1
  O2-  O197  1  0.04716466  0.58876911  0.93575213  1
  O2-  O198  1  0.55624725  0.07611823  0.27023606  1
  O2-  O199  1  0.55993750  0.07831961  0.61163265  1
  O2-  O200  1  0.55125133  0.07952759  0.93791402  1
  O2-  O201  1  0.54678488  0.57886521  0.26524573  1
  O2-  O202  1  0.54362037  0.58517845  0.59503096  1
  O2-  O203  1  0.54322541  0.58822670  0.93861938  1
  O2-  O204  1  0.16242009  0.21338789  0.26204905  1
  O2-  O205  1  0.16686155  0.20996536  0.59821458  1
  O2-  O206  1  0.16950619  0.20684177  0.92938425  1
  O2-  O207  1  0.16472433  0.70011935  0.26987703  1
  O2-  O208  1  0.16683155  0.70265523  0.60675064  1
  O2-  O209  1  0.16345091  0.71111052  0.93484848  1
  O2-  O210  1  0.67100793  0.21042894  0.26629915  1
  O2-  O211  1  0.66333695  0.21042172  0.60585075  1
  O2-  O212  1  0.66612869  0.20288556  0.93950513  1
  O2-  O213  1  0.66737132  0.71078720  0.26113283  1
  O2-  O214  1  0.66765267  0.71199661  0.59985702  1
  O2-  O215  1  0.66089687  0.71078417  0.93597672  1
  O2-  O216  1  0.08325716  0.45835478  0.06329154  1
  O2-  O217  1  0.08511175  0.45501597  0.39808141  1
  O2-  O218  1  0.08407085  0.46607316  0.73676921  1
  O2-  O219  1  0.08021403  0.94879438  0.06074740  1
  O2-  O220  1  0.08436209  0.95698476  0.39214372  1
  O2-  O221  1  0.07921523  0.94979536  0.73536586  1
  O2-  O222  1  0.58826229  0.46498959  0.07170558  1
  O2-  O223  1  0.58463755  0.45520558  0.39975201  1
  O2-  O224  1  0.58851967  0.46526472  0.72927221  1
  O2-  O225  1  0.58618315  0.94896137  0.06205185  1
  O2-  O226  1  0.58354547  0.94533457  0.39519179  1
  O2-  O227  1  0.58531698  0.94345463  0.73028425  1
  O2-  O228  1  0.19839480  0.33355633  0.06015438  1
  O2-  O229  1  0.20338454  0.33418261  0.39436070  1
  O2-  O230  1  0.20802247  0.33509823  0.73576485  1
  O2-  O231  1  0.20309117  0.83431369  0.06645592  1
  O2-  O232  1  0.19517714  0.83227958  0.39157488  1
  O2-  O233  1  0.20750568  0.82897105  0.73697882  1
  O2-  O234  1  0.70782817  0.33175566  0.07111362  1
  O2-  O235  1  0.70347463  0.33550711  0.40233078  1
  O2-  O236  1  0.70233801  0.34003706  0.73182003  1
  O2-  O237  1  0.71096649  0.83568191  0.06480190  1
  O2-  O238  1  0.71074309  0.83558658  0.39650908  1
  O2-  O239  1  0.71350739  0.83461271  0.73359710  1
  O2-  O240  1  0.46051022  0.41681211  0.26630510  1
  O2-  O241  1  0.46569105  0.41203989  0.59708192  1
  O2-  O242  1  0.46775176  0.41727602  0.93233422  1
  O2-  O243  1  0.45853305  0.91736714  0.26297051  1
  O2-  O244  1  0.45516248  0.91712405  0.60652996  1
  O2-  O245  1  0.45921979  0.91243630  0.93499034  1
  O2-  O246  1  0.95430347  0.41690606  0.27135639  1
  O2-  O247  1  0.95461432  0.42424345  0.60144114  1
  O2-  O248  1  0.94667302  0.42506752  0.93788612  1
  O2-  O249  1  0.96203218  0.91314656  0.26070776  1
  O2-  O250  1  0.95346900  0.91320344  0.60754026  1
  O2-  O251  1  0.95455427  0.91040821  0.93356219  1
  O2-  O252  1  0.32928721  0.29502744  0.26283922  1
  O2-  O253  1  0.33077425  0.29547576  0.60022961  1
  O2-  O254  1  0.33349116  0.29507757  0.93440799  1
  O2-  O255  1  0.32598774  0.79573716  0.26562520  1
  O2-  O256  1  0.33409526  0.79973434  0.60641681  1
  O2-  O257  1  0.33489655  0.79538740  0.93754029  1
  O2-  O258  1  0.83195394  0.30177329  0.27635340  1
  O2-  O259  1  0.82542780  0.30053092  0.60093868  1
  O2-  O260  1  0.82835081  0.29083346  0.93545632  1
  O2-  O261  1  0.83561400  0.78856407  0.26399056  1
  O2-  O262  1  0.84073067  0.78743813  0.60375535  1
  O2-  O263  1  0.83664917  0.78990283  0.93372577  1
  O2-  O264  1  0.41725799  0.03888905  0.06707740  1
  O2-  O265  1  0.41957633  0.04342022  0.39715937  1
  O2-  O266  1  0.42189496  0.04602732  0.73508806  1
  O2-  O267  1  0.41752504  0.54152752  0.06630395  1
  O2-  O268  1  0.41963012  0.54241673  0.40056094  1
  O2-  O269  1  0.41961955  0.54418550  0.72418704  1
  O2-  O270  1  0.91223289  0.03659549  0.05946314  1
  O2-  O271  1  0.91647697  0.03340056  0.39830024  1
  O2-  O272  1  0.91305490  0.03734892  0.73870165  1
  O2-  O273  1  0.91923990  0.55997382  0.05949545  1
  O2-  O274  1  0.91749027  0.54383197  0.40273499  1
  O2-  O275  1  0.91419645  0.55113666  0.72987253  1
  O2-  O276  1  0.28941907  0.16943262  0.06717299  1
  O2-  O277  1  0.28612252  0.16748998  0.39719706  1
  O2-  O278  1  0.29183723  0.17066544  0.73326310  1
  O2-  O279  1  0.28865109  0.66667918  0.06603049  1
  O2-  O280  1  0.28993829  0.66720145  0.40253648  1
  O2-  O281  1  0.30174975  0.66499759  0.72688131  1
  O2-  O282  1  0.79471225  0.15959368  0.06322627  1
  O2-  O283  1  0.79425608  0.16824308  0.40098003  1
  O2-  O284  1  0.78801982  0.16911886  0.73639224  1
  O2-  O285  1  0.78976945  0.66666392  0.06401526  1
  O2-  O286  1  0.78965205  0.66846408  0.40004355  1
  O2-  O287  1  0.79015805  0.66367118  0.73219610  1
