# generated using pymatgen
data_Ca2Al2SiO7
_symmetry_space_group_name_H-M   'P 1'
_cell_length_a   15.47252130
_cell_length_b   15.47657379
_cell_length_c   15.29523869
_cell_angle_alpha   89.98919345
_cell_angle_beta   89.99923400
_cell_angle_gamma   90.00575197
_symmetry_Int_Tables_number   1
_chemical_formula_structural   Ca2Al2SiO7
_chemical_formula_sum   'Ca48 Al48 Si24 O168'
_cell_volume   3662.62251420
_cell_formula_units_Z   24
loop_
 _symmetry_equiv_pos_site_id
 _symmetry_equiv_pos_as_xyz
  1  'x, y, z'
loop_
 _atom_type_symbol
 _atom_type_oxidation_number
  Ca2+  2.0
  Al0+  0.0
  Si0+  0.0
  O2-  -2.0
loop_
 _atom_site_type_symbol
 _atom_site_label
 _atom_site_symmetry_multiplicity
 _atom_site_fract_x
 _atom_site_fract_y
 _atom_site_fract_z
 _atom_site_occupancy
  Ca2+  Ca0  1  0.16982372  0.09114133  0.17462670  1
  Ca2+  Ca1  1  0.16925669  0.09470099  0.50186794  1
  Ca2+  Ca2  1  0.16163004  0.08571301  0.83821793  1
  Ca2+  Ca3  1  0.17187036  0.57103637  0.16801988  1
  Ca2+  Ca4  1  0.16317826  0.56928706  0.50346050  1
  Ca2+  Ca5  1  0.16547671  0.57066250  0.84154968  1
  Ca2+  Ca6  1  0.67764082  0.08690263  0.17267539  1
  Ca2+  Ca7  1  0.67053124  0.08678950  0.50231397  1
  Ca2+  Ca8  1  0.66822091  0.09040449  0.83954138  1
  Ca2+  Ca9  1  0.67658147  0.57637404  0.17482143  1
  Ca2+  Ca10  1  0.67303170  0.57539051  0.49560084  1
  Ca2+  Ca11  1  0.67569388  0.58087304  0.84055292  1
  Ca2+  Ca12  1  0.08516019  0.32927230  0.16669187  1
  Ca2+  Ca13  1  0.07678218  0.33430211  0.49461993  1
  Ca2+  Ca14  1  0.08386022  0.32737661  0.82690540  1
  Ca2+  Ca15  1  0.08159300  0.82343811  0.15979258  1
  Ca2+  Ca16  1  0.08616474  0.82337662  0.49809299  1
  Ca2+  Ca17  1  0.08426834  0.81727428  0.82959466  1
  Ca2+  Ca18  1  0.57680897  0.33471265  0.15909647  1
  Ca2+  Ca19  1  0.57930347  0.33459623  0.49732927  1
  Ca2+  Ca20  1  0.57372420  0.32719202  0.82814888  1
  Ca2+  Ca21  1  0.58687961  0.83466559  0.16662701  1
  Ca2+  Ca22  1  0.58141135  0.83507615  0.49499976  1
  Ca2+  Ca23  1  0.57625616  0.82888609  0.82622572  1
  Ca2+  Ca24  1  0.32368417  0.41694501  0.17179558  1
  Ca2+  Ca25  1  0.31993571  0.41295589  0.50554250  1
  Ca2+  Ca26  1  0.32425737  0.41030134  0.83973392  1
  Ca2+  Ca27  1  0.32959957  0.92732470  0.17373192  1
  Ca2+  Ca28  1  0.33644805  0.92389218  0.50221555  1
  Ca2+  Ca29  1  0.33359115  0.91701248  0.83414414  1
  Ca2+  Ca30  1  0.83251757  0.42367078  0.17594022  1
  Ca2+  Ca31  1  0.83482803  0.40824066  0.50025941  1
  Ca2+  Ca32  1  0.83626206  0.41672842  0.83681979  1
  Ca2+  Ca33  1  0.83049989  0.93176249  0.17366694  1
  Ca2+  Ca34  1  0.83168349  0.92439998  0.49792560  1
  Ca2+  Ca35  1  0.83264370  0.92707595  0.84085042  1
  Ca2+  Ca36  1  0.42217934  0.17278203  0.15935566  1
  Ca2+  Ca37  1  0.41822812  0.17084243  0.49907873  1
  Ca2+  Ca38  1  0.42494257  0.17965436  0.83064969  1
  Ca2+  Ca39  1  0.41013209  0.66316450  0.16275770  1
  Ca2+  Ca40  1  0.41001847  0.67221175  0.49403157  1
  Ca2+  Ca41  1  0.40661212  0.67282584  0.82886052  1
  Ca2+  Ca42  1  0.92153195  0.16785466  0.16337211  1
  Ca2+  Ca43  1  0.92722239  0.17615357  0.49178929  1
  Ca2+  Ca44  1  0.92451363  0.17138520  0.82814037  1
  Ca2+  Ca45  1  0.91678412  0.66230428  0.16039170  1
  Ca2+  Ca46  1  0.92115217  0.66181195  0.49483606  1
  Ca2+  Ca47  1  0.92973460  0.65486660  0.83270873  1
  Al0+  Al48  1  -0.00206343  -0.00151421  0.00073158  1
  Al0+  Al49  1  0.00018056  -0.00326063  0.33404529  1
  Al0+  Al50  1  0.00019335  -0.00189584  0.66557592  1
  Al0+  Al51  1  0.00064860  0.49923830  0.00497983  1
  Al0+  Al52  1  0.00190651  0.50034597  0.33384271  1
  Al0+  Al53  1  0.00203596  0.49969725  0.66380259  1
  Al0+  Al54  1  0.49856166  -0.00174468  -0.00386074  1
  Al0+  Al55  1  0.49743456  -0.00046551  0.33831238  1
  Al0+  Al56  1  0.50022153  -0.00240166  0.66175659  1
  Al0+  Al57  1  0.49939012  0.50336645  -0.00392469  1
  Al0+  Al58  1  0.50187616  0.50366691  0.33853173  1
  Al0+  Al59  1  0.50208702  0.50220732  0.66449349  1
  Al0+  Al60  1  0.24950858  0.24787988  -0.00297951  1
  Al0+  Al61  1  0.25139501  0.25036104  0.33835286  1
  Al0+  Al62  1  0.25334120  0.24879792  0.66839118  1
  Al0+  Al63  1  0.24782516  0.74964303  -0.00101222  1
  Al0+  Al64  1  0.25059013  0.75258392  0.33233056  1
  Al0+  Al65  1  0.24948987  0.75204498  0.65719005  1
  Al0+  Al66  1  0.75046678  0.24927697  0.00156854  1
  Al0+  Al67  1  0.75057632  0.25025747  0.33721583  1
  Al0+  Al68  1  0.75062190  0.24997170  0.66362819  1
  Al0+  Al69  1  0.74828503  0.75215270  0.00142379  1
  Al0+  Al70  1  0.74886568  0.74999215  0.33925859  1
  Al0+  Al71  1  0.74995301  0.75154139  0.66913483  1
  Al0+  Al72  1  0.07194089  0.17843729  0.31791465  1
  Al0+  Al73  1  0.31921501  0.07127715  0.34699020  1
  Al0+  Al74  1  0.06936389  0.67937410  0.65169795  1
  Al0+  Al75  1  0.82088574  0.07182143  0.01280684  1
  Al0+  Al76  1  0.93056035  0.32133630  0.65298502  1
  Al0+  Al77  1  0.82052539  0.57083512  0.01203968  1
  Al0+  Al78  1  0.57101533  0.17910000  0.65039754  1
  Al0+  Al79  1  0.43001933  0.81840212  0.65087589  1
  Al0+  Al80  1  0.32106427  0.57343241  0.01255149  1
  Al0+  Al81  1  0.92799030  0.32198228  0.31556817  1
  Al0+  Al82  1  0.67883405  0.93083958  0.34862815  1
  Al0+  Al83  1  0.57241139  0.17842781  0.98773216  1
  Al0+  Al84  1  0.67862325  0.42724160  0.34792560  1
  Al0+  Al85  1  0.17980577  0.42471864  0.01570004  1
  Al0+  Al86  1  0.07220566  0.17606026  0.65299251  1
  Al0+  Al87  1  0.18024902  0.42847958  0.68293035  1
  Al0+  Al88  1  0.18091705  0.42900885  0.35007741  1
  Al0+  Al89  1  0.42961914  0.32344574  0.64994885  1
  Al0+  Al90  1  0.82373541  0.07243051  0.35092602  1
  Al0+  Al91  1  0.32141760  0.57347955  0.34874265  1
  Al0+  Al92  1  0.82241516  0.57036611  0.34866226  1
  Al0+  Al93  1  0.06983532  0.17710243  0.98721166  1
  Al0+  Al94  1  0.42816712  0.32405093  0.98697176  1
  Al0+  Al95  1  0.06913722  0.67849354  0.98749266  1
  Si0+  Si96  1  0.92651757  0.81905430  0.31758612  1
  Si0+  Si97  1  0.92792918  0.32223364  0.98550728  1
  Si0+  Si98  1  0.17828636  0.92799010  0.01343354  1
  Si0+  Si99  1  0.67703087  0.42848516  0.01360472  1
  Si0+  Si100  1  0.32182302  0.57417962  0.68117058  1
  Si0+  Si101  1  0.82087711  0.57169789  0.68191853  1
  Si0+  Si102  1  0.32059268  0.06850038  0.01276876  1
  Si0+  Si103  1  0.17884748  0.92766501  0.68250314  1
  Si0+  Si104  1  0.82071874  0.07037917  0.68256459  1
  Si0+  Si105  1  0.67495228  0.92897264  0.01518317  1
  Si0+  Si106  1  0.57634266  0.67869755  0.64809707  1
  Si0+  Si107  1  0.57346670  0.68047461  0.98525810  1
  Si0+  Si108  1  0.67824998  0.92898769  0.68398466  1
  Si0+  Si109  1  0.42918316  0.82213795  0.31493603  1
  Si0+  Si110  1  0.07186245  0.68018997  0.31641294  1
  Si0+  Si111  1  0.57119454  0.68066731  0.31682906  1
  Si0+  Si112  1  0.32267133  0.06880850  0.68442717  1
  Si0+  Si113  1  0.67873884  0.42831357  0.68341478  1
  Si0+  Si114  1  0.56950473  0.17717017  0.31967244  1
  Si0+  Si115  1  0.92653735  0.82241042  0.64976788  1
  Si0+  Si116  1  0.17768323  0.92696512  0.34997495  1
  Si0+  Si117  1  0.92590653  0.82148101  0.98360149  1
  Si0+  Si118  1  0.42786949  0.81984727  0.98565379  1
  Si0+  Si119  1  0.43102281  0.32303344  0.31996943  1
  O2-  O120  1  0.24529088  0.00234894  0.05582897  1
  O2-  O121  1  0.23978193  0.00135895  0.39367793  1
  O2-  O122  1  0.24669035  0.00146832  0.72577949  1
  O2-  O123  1  0.25545916  0.49587508  0.06197274  1
  O2-  O124  1  0.25268344  0.50117790  0.40080433  1
  O2-  O125  1  0.25844803  0.50219942  0.72718993  1
  O2-  O126  1  0.74173621  -0.00006747  0.05703360  1
  O2-  O127  1  0.74803595  0.00359608  0.40097786  1
  O2-  O128  1  0.74746197  0.00127324  0.72620389  1
  O2-  O129  1  0.74629127  0.49611991  0.05802868  1
  O2-  O130  1  0.75664473  0.49296043  0.39882075  1
  O2-  O131  1  0.75054371  0.49979979  0.72451364  1
  O2-  O132  1  -0.00165392  0.24767110  0.26620522  1
  O2-  O133  1  0.00374327  0.25061833  0.60368047  1
  O2-  O134  1  -0.00334217  0.25342384  0.94167234  1
  O2-  O135  1  -0.00288047  0.74804155  0.27480858  1
  O2-  O136  1  -0.00747977  0.75206740  0.60493990  1
  O2-  O137  1  -0.00927017  0.74944615  0.93938159  1
  O2-  O138  1  0.50335398  0.25289549  0.27743780  1
  O2-  O139  1  0.50171618  0.25223270  0.59881634  1
  O2-  O140  1  0.50358887  0.25382506  0.93905739  1
  O2-  O141  1  0.49856425  0.74987853  0.27280095  1
  O2-  O142  1  0.50266698  0.74208171  0.60432741  1
  O2-  O143  1  0.49750583  0.74712140  0.94393532  1
  O2-  O144  1  0.06985434  0.17417743  0.09952781  1
  O2-  O145  1  0.07206672  0.17977820  0.43108205  1
  O2-  O146  1  0.06684512  0.17383768  0.76690091  1
  O2-  O147  1  0.06946957  0.68311632  0.10032620  1
  O2-  O148  1  0.07236721  0.68405818  0.42159682  1
  O2-  O149  1  0.06866642  0.68027983  0.76508714  1
  O2-  O150  1  0.56968749  0.17631288  0.10151629  1
  O2-  O151  1  0.56529994  0.17507790  0.42442634  1
  O2-  O152  1  0.56998673  0.17999640  0.76425616  1
  O2-  O153  1  0.57764752  0.68370536  0.08982122  1
  O2-  O154  1  0.57159447  0.68331837  0.42173198  1
  O2-  O155  1  0.58015270  0.68241031  0.75411411  1
  O2-  O156  1  0.18255094  0.42820320  0.23662153  1
  O2-  O157  1  0.17806463  0.43073222  0.57045771  1
  O2-  O158  1  0.17838155  0.42617399  0.90185345  1
  O2-  O159  1  0.18205706  0.92237907  0.24407563  1
  O2-  O160  1  0.18010624  0.92515389  0.57784970  1
  O2-  O161  1  0.18146720  0.92570916  0.90817135  1
  O2-  O162  1  0.67352299  0.43282411  0.23412107  1
  O2-  O163  1  0.67813340  0.42932715  0.57886373  1
  O2-  O164  1  0.67805054  0.43082880  0.90765449  1
  O2-  O165  1  0.67991918  0.93164578  0.23457448  1
  O2-  O166  1  0.67961609  0.92658828  0.57959903  1
  O2-  O167  1  0.67457422  0.92624121  0.90943642  1
  O2-  O168  1  0.42945268  0.32125723  0.10119786  1
  O2-  O169  1  0.43174863  0.32139133  0.42476751  1
  O2-  O170  1  0.43083239  0.32145999  0.76362309  1
  O2-  O171  1  0.42815098  0.82319614  0.09036620  1
  O2-  O172  1  0.42929909  0.82187410  0.41973058  1
  O2-  O173  1  0.43045096  0.81838070  0.76484516  1
  O2-  O174  1  0.92569762  0.32170436  0.09045005  1
  O2-  O175  1  0.93094536  0.32127273  0.42890040  1
  O2-  O176  1  0.92875426  0.32026854  0.76722420  1
  O2-  O177  1  0.92759432  0.82254211  0.08910491  1
  O2-  O178  1  0.92758493  0.81851141  0.42278814  1
  O2-  O179  1  0.92731386  0.82414575  0.75543518  1
  O2-  O180  1  0.32210754  0.06803934  0.23319225  1
  O2-  O181  1  0.32393047  0.06609791  0.57947702  1
  O2-  O182  1  0.32270410  0.06387848  0.90775553  1
  O2-  O183  1  0.31919088  0.57291142  0.23516769  1
  O2-  O184  1  0.31845983  0.57526261  0.57602601  1
  O2-  O185  1  0.31583909  0.58036800  0.89929977  1
  O2-  O186  1  0.82281887  0.06938867  0.23698493  1
  O2-  O187  1  0.82057085  0.06674213  0.57819427  1
  O2-  O188  1  0.82205595  0.06843864  0.89934353  1
  O2-  O189  1  0.81726952  0.57334951  0.23493933  1
  O2-  O190  1  0.81819650  0.57517124  0.57755432  1
  O2-  O191  1  0.81901015  0.57059848  0.89834205  1
  O2-  O192  1  0.04921903  0.07560077  0.26960269  1
  O2-  O193  1  0.04417309  0.07740405  0.60049097  1
  O2-  O194  1  0.03918249  0.07953941  0.93344254  1
  O2-  O195  1  0.04838688  0.58763748  0.27035002  1
  O2-  O196  1  0.03834272  0.58461736  0.59663055  1
  O2-  O197  1  0.03890044  0.58143526  0.93406778  1
  O2-  O198  1  0.53580618  0.08700368  0.27236755  1
  O2-  O199  1  0.54249240  0.08051794  0.59917936  1
  O2-  O200  1  0.54124498  0.08068666  0.93342388  1
  O2-  O201  1  0.54532789  0.58862427  0.26916023  1
  O2-  O202  1  0.55744133  0.58344478  0.60457441  1
  O2-  O203  1  0.55259454  0.58821085  0.93611108  1
  O2-  O204  1  0.17232196  0.20816348  0.26791296  1
  O2-  O205  1  0.17396965  0.19784771  0.60710614  1
  O2-  O206  1  0.16742037  0.20245912  0.93273441  1
  O2-  O207  1  0.16159997  0.71506697  0.26904239  1
  O2-  O208  1  0.16249641  0.71512402  0.59529584  1
  O2-  O209  1  0.16278158  0.71611443  0.93182419  1
  O2-  O210  1  0.66409542  0.19895964  0.27630233  1
  O2-  O211  1  0.66996829  0.20507501  0.59918110  1
  O2-  O212  1  0.67158469  0.20369813  0.93458684  1
  O2-  O213  1  0.66231119  0.71201934  0.26956793  1
  O2-  O214  1  0.66733066  0.71136851  0.60119634  1
  O2-  O215  1  0.66216973  0.71368822  0.93359106  1
  O2-  O216  1  0.08328371  0.45698266  0.06925807  1
  O2-  O217  1  0.08329098  0.46041158  0.40150859  1
  O2-  O218  1  0.08345773  0.46293034  0.73529578  1
  O2-  O219  1  0.08502491  0.94956256  0.05987625  1
  O2-  O220  1  0.08184773  0.94153018  0.39414322  1
  O2-  O221  1  0.08561340  0.95081468  0.73006359  1
  O2-  O222  1  0.58366220  0.45578876  0.05860787  1
  O2-  O223  1  0.58482997  0.46471353  0.40480888  1
  O2-  O224  1  0.58740742  0.45803580  0.73157622  1
  O2-  O225  1  0.58018993  0.95050698  0.06084068  1
  O2-  O226  1  0.57957116  0.95511259  0.40102965  1
  O2-  O227  1  0.58489655  0.95400543  0.72997256  1
  O2-  O228  1  0.20762345  0.32572233  0.06781353  1
  O2-  O229  1  0.21052280  0.33228539  0.40432837  1
  O2-  O230  1  0.21065454  0.33067118  0.73571554  1
  O2-  O231  1  0.21069871  0.83914216  0.06335774  1
  O2-  O232  1  0.21164959  0.83744614  0.39894645  1
  O2-  O233  1  0.21214623  0.83694190  0.72988099  1
  O2-  O234  1  0.69930150  0.33454286  0.05932597  1
  O2-  O235  1  0.69822101  0.32786466  0.40136337  1
  O2-  O236  1  0.70700943  0.33643740  0.73051281  1
  O2-  O237  1  0.70207463  0.83675582  0.06306123  1
  O2-  O238  1  0.70779928  0.83357366  0.40311549  1
  O2-  O239  1  0.70713371  0.83781934  0.73366903  1
  O2-  O240  1  0.45850904  0.41594217  0.27467188  1
  O2-  O241  1  0.45620702  0.42319560  0.59920091  1
  O2-  O242  1  0.45178199  0.42325208  0.93272548  1
  O2-  O243  1  0.45890328  0.91356357  0.26740891  1
  O2-  O244  1  0.46302963  0.91307670  0.59575811  1
  O2-  O245  1  0.45675491  0.90958669  0.93434123  1
  O2-  O246  1  0.95740464  0.42173219  0.26479106  1
  O2-  O247  1  0.95560653  0.41974634  0.59980559  1
  O2-  O248  1  0.95277533  0.41612552  0.94001825  1
  O2-  O249  1  0.95494050  0.91020248  0.26910433  1
  O2-  O250  1  0.95497061  0.91386529  0.60191028  1
  O2-  O251  1  0.95608406  0.91252745  0.93514904  1
  O2-  O252  1  0.33991540  0.29242744  0.27381642  1
  O2-  O253  1  0.33249565  0.29063022  0.59867182  1
  O2-  O254  1  0.33313860  0.28860441  0.93234910  1
  O2-  O255  1  0.33670531  0.79663815  0.26705767  1
  O2-  O256  1  0.33412515  0.79281910  0.59369789  1
  O2-  O257  1  0.33640922  0.79320762  0.93664853  1
  O2-  O258  1  0.82627520  0.29772379  0.26637763  1
  O2-  O259  1  0.83235728  0.29343872  0.60069885  1
  O2-  O260  1  0.83420990  0.29728198  0.93869808  1
  O2-  O261  1  0.83437530  0.79118082  0.27118810  1
  O2-  O262  1  0.83189834  0.79868793  0.60555015  1
  O2-  O263  1  0.83056297  0.80141548  0.93834270  1
  O2-  O264  1  0.41048892  0.03518173  0.06116249  1
  O2-  O265  1  0.41154157  0.03350057  0.40390136  1
  O2-  O266  1  0.41251201  0.03267413  0.73084135  1
  O2-  O267  1  0.42418523  0.55635275  0.06086573  1
  O2-  O268  1  0.42192768  0.55382293  0.39960516  1
  O2-  O269  1  0.41972434  0.55795824  0.72317569  1
  O2-  O270  1  0.91466293  0.03470220  0.06847678  1
  O2-  O271  1  0.92000864  0.03626216  0.40355109  1
  O2-  O272  1  0.91172029  0.03818313  0.72995412  1
  O2-  O273  1  0.91622521  0.54321678  0.06749879  1
  O2-  O274  1  0.92334399  0.55132422  0.39785089  1
  O2-  O275  1  0.91296368  0.54341801  0.72786444  1
  O2-  O276  1  0.29713585  0.16087418  0.05931302  1
  O2-  O277  1  0.29441195  0.16709187  0.40368785  1
  O2-  O278  1  0.30022978  0.16115220  0.73242145  1
  O2-  O279  1  0.28884776  0.67057624  0.06742458  1
  O2-  O280  1  0.29312799  0.67351217  0.39844658  1
  O2-  O281  1  0.29229116  0.66858879  0.72438518  1
  O2-  O282  1  0.79315049  0.16810689  0.06846194  1
  O2-  O283  1  0.79802119  0.17065649  0.40299569  1
  O2-  O284  1  0.79419551  0.16287081  0.72900354  1
  O2-  O285  1  0.78975838  0.66858765  0.06406711  1
  O2-  O286  1  0.78777709  0.66581443  0.40372962  1
  O2-  O287  1  0.79229358  0.66341439  0.73047766  1
