# generated using pymatgen
data_Ca2Al2SiO7
_symmetry_space_group_name_H-M   'P 1'
_cell_length_a   15.45614754
_cell_length_b   15.45610444
_cell_length_c   15.28240007
_cell_angle_alpha   90.00102006
_cell_angle_beta   89.99004125
_cell_angle_gamma   89.98777574
_symmetry_Int_Tables_number   1
_chemical_formula_structural   Ca2Al2SiO7
_chemical_formula_sum   'Ca48 Al48 Si24 O168'
_cell_volume   3650.84038999
_cell_formula_units_Z   24
loop_
 _symmetry_equiv_pos_site_id
 _symmetry_equiv_pos_as_xyz
  1  'x, y, z'
loop_
 _atom_type_symbol
 _atom_type_oxidation_number
  Ca2+  2.0
  Al0+  0.0
  Si0+  0.0
  O2-  -2.0
loop_
 _atom_site_type_symbol
 _atom_site_label
 _atom_site_symmetry_multiplicity
 _atom_site_fract_x
 _atom_site_fract_y
 _atom_site_fract_z
 _atom_site_occupancy
  Ca2+  Ca0  1  0.16536314  0.06869642  0.17246534  1
  Ca2+  Ca1  1  0.17518262  0.07589251  0.49714807  1
  Ca2+  Ca2  1  0.16275425  0.07436791  0.84275735  1
  Ca2+  Ca3  1  0.16275455  0.57984667  0.17357891  1
  Ca2+  Ca4  1  0.16687834  0.58508785  0.50369062  1
  Ca2+  Ca5  1  0.16541282  0.58979016  0.83395792  1
  Ca2+  Ca6  1  0.67928806  0.07681036  0.17431970  1
  Ca2+  Ca7  1  0.67123108  0.08058173  0.50421299  1
  Ca2+  Ca8  1  0.67621882  0.08647187  0.83490312  1
  Ca2+  Ca9  1  0.67231397  0.59135578  0.17003152  1
  Ca2+  Ca10  1  0.66197954  0.58333643  0.50200264  1
  Ca2+  Ca11  1  0.67486155  0.58109485  0.84165198  1
  Ca2+  Ca12  1  0.08751915  0.32398603  0.16287544  1
  Ca2+  Ca13  1  0.07860271  0.33657823  0.49533743  1
  Ca2+  Ca14  1  0.07654257  0.32352970  0.83064424  1
  Ca2+  Ca15  1  0.08716033  0.82714316  0.15843022  1
  Ca2+  Ca16  1  0.08354715  0.82477209  0.49643060  1
  Ca2+  Ca17  1  0.07451425  0.82918548  0.83219565  1
  Ca2+  Ca18  1  0.56852470  0.33184409  0.16329761  1
  Ca2+  Ca19  1  0.57826434  0.32514112  0.49531393  1
  Ca2+  Ca20  1  0.58168985  0.32751686  0.83049999  1
  Ca2+  Ca21  1  0.57517899  0.84232361  0.16866122  1
  Ca2+  Ca22  1  0.57465904  0.83196783  0.48999773  1
  Ca2+  Ca23  1  0.56998887  0.83896201  0.82982535  1
  Ca2+  Ca24  1  0.32904906  0.41470096  0.17630887  1
  Ca2+  Ca25  1  0.32915127  0.42186117  0.50248184  1
  Ca2+  Ca26  1  0.33683909  0.42590046  0.83781392  1
  Ca2+  Ca27  1  0.32599824  0.91509898  0.17354196  1
  Ca2+  Ca28  1  0.33156714  0.90719437  0.50037769  1
  Ca2+  Ca29  1  0.32754805  0.91126220  0.84031831  1
  Ca2+  Ca30  1  0.83541699  0.42648527  0.16844180  1
  Ca2+  Ca31  1  0.83348855  0.41668669  0.50699342  1
  Ca2+  Ca32  1  0.83722407  0.42120229  0.83778839  1
  Ca2+  Ca33  1  0.83556075  0.92415514  0.17335920  1
  Ca2+  Ca34  1  0.83005423  0.92360541  0.50469148  1
  Ca2+  Ca35  1  0.84171279  0.92217746  0.83972096  1
  Ca2+  Ca36  1  0.40202479  0.17674872  0.16531086  1
  Ca2+  Ca37  1  0.41985261  0.16692171  0.49121501  1
  Ca2+  Ca38  1  0.42332228  0.17254086  0.82810152  1
  Ca2+  Ca39  1  0.42061882  0.67990853  0.16592096  1
  Ca2+  Ca40  1  0.41714305  0.67463256  0.49413809  1
  Ca2+  Ca41  1  0.41001721  0.67796004  0.82845139  1
  Ca2+  Ca42  1  0.92079349  0.15943514  0.16006057  1
  Ca2+  Ca43  1  0.90904337  0.16876345  0.49994960  1
  Ca2+  Ca44  1  0.91821524  0.16281539  0.82863655  1
  Ca2+  Ca45  1  0.92680614  0.67404657  0.15724644  1
  Ca2+  Ca46  1  0.92669520  0.67171228  0.49507452  1
  Ca2+  Ca47  1  0.92347878  0.67480116  0.82894179  1
  Al0+  Al48  1  0.00210549  -0.00114171  0.00170434  1
  Al0+  Al49  1  0.00166432  0.00156513  0.34493269  1
  Al0+  Al50  1  0.00095446  0.00013840  0.66525734  1
  Al0+  Al51  1  0.00053680  0.49896853  0.00171006  1
  Al0+  Al52  1  -0.00030232  0.49996100  0.33337008  1
  Al0+  Al53  1  0.00019307  0.49746528  0.66168895  1
  Al0+  Al54  1  0.50071384  0.00294031  -0.00388422  1
  Al0+  Al55  1  0.50279334  0.00157593  0.33360162  1
  Al0+  Al56  1  0.50037793  0.00091396  0.65959682  1
  Al0+  Al57  1  0.49923597  0.49983249  -0.00276689  1
  Al0+  Al58  1  0.50138662  0.49951776  0.32568269  1
  Al0+  Al59  1  0.49849975  0.49966966  0.67419209  1
  Al0+  Al60  1  0.24933653  0.25178072  -0.01303398  1
  Al0+  Al61  1  0.24704158  0.25019331  0.33984044  1
  Al0+  Al62  1  0.24895048  0.25037239  0.66867216  1
  Al0+  Al63  1  0.25151191  0.74810106  -0.00194917  1
  Al0+  Al64  1  0.25075534  0.74782321  0.32896350  1
  Al0+  Al65  1  0.24993173  0.74875284  0.66444584  1
  Al0+  Al66  1  0.74830851  0.25114202  0.00731371  1
  Al0+  Al67  1  0.74931344  0.25375326  0.33391535  1
  Al0+  Al68  1  0.74946711  0.24873896  0.66386500  1
  Al0+  Al69  1  0.74925131  0.75050811  0.00181946  1
  Al0+  Al70  1  0.75229053  0.75097106  0.33557238  1
  Al0+  Al71  1  0.74882531  0.75066811  0.66570802  1
  Al0+  Al72  1  0.07028199  0.67863059  0.31797012  1
  Al0+  Al73  1  0.06930661  0.17798330  0.98815877  1
  Al0+  Al74  1  0.67974563  0.92770502  0.34937873  1
  Al0+  Al75  1  0.18088054  0.92438105  0.34992106  1
  Al0+  Al76  1  0.06963653  0.67962535  0.65045733  1
  Al0+  Al77  1  0.81960439  0.06955255  0.68241179  1
  Al0+  Al78  1  0.93041847  0.31803892  0.65405562  1
  Al0+  Al79  1  0.82197977  0.07366407  0.35089915  1
  Al0+  Al80  1  0.82130840  0.06988716  0.01318067  1
  Al0+  Al81  1  0.92651920  0.82379595  0.64993497  1
  Al0+  Al82  1  0.18173521  0.92820061  0.01188025  1
  Al0+  Al83  1  0.57404824  0.67841074  0.31828452  1
  Al0+  Al84  1  0.82164540  0.57144234  0.01337193  1
  Al0+  Al85  1  0.31896159  0.57008369  0.68078084  1
  Al0+  Al86  1  0.43046721  0.82165205  0.98628002  1
  Al0+  Al87  1  0.42964794  0.81973292  0.65258781  1
  Al0+  Al88  1  0.92781522  0.82169627  0.98752079  1
  Al0+  Al89  1  0.42768424  0.32186113  0.98399032  1
  Al0+  Al90  1  0.56976524  0.18105140  0.65221988  1
  Al0+  Al91  1  0.17814064  0.42915706  0.34681723  1
  Al0+  Al92  1  0.07162580  0.67602486  0.98464597  1
  Al0+  Al93  1  0.32083800  0.07158855  0.34600360  1
  Al0+  Al94  1  0.42779059  0.31800799  0.32201206  1
  Al0+  Al95  1  0.42963379  0.82334838  0.31689701  1
  Si0+  Si96  1  0.57253765  0.67551530  0.65357846  1
  Si0+  Si97  1  0.82199630  0.57099071  0.68017167  1
  Si0+  Si98  1  0.57398707  0.18004256  0.98395502  1
  Si0+  Si99  1  0.18010739  0.42757035  0.01358468  1
  Si0+  Si100  1  0.32338373  0.07279437  0.68234755  1
  Si0+  Si101  1  0.57437842  0.17884966  0.31466219  1
  Si0+  Si102  1  0.32370920  0.56980567  0.34731969  1
  Si0+  Si103  1  0.67613600  0.92723291  0.68450365  1
  Si0+  Si104  1  0.93065228  0.82417900  0.31830046  1
  Si0+  Si105  1  0.92707024  0.32212248  0.31681735  1
  Si0+  Si106  1  0.67765897  0.43104334  0.34875308  1
  Si0+  Si107  1  0.57236736  0.67764327  0.98221235  1
  Si0+  Si108  1  0.67940402  0.42872769  0.68167562  1
  Si0+  Si109  1  0.92622189  0.32137704  0.98678495  1
  Si0+  Si110  1  0.82136837  0.57015465  0.34969860  1
  Si0+  Si111  1  0.32167369  0.57031189  0.01699340  1
  Si0+  Si112  1  0.06891431  0.18002565  0.32080691  1
  Si0+  Si113  1  0.42719925  0.32396650  0.65013611  1
  Si0+  Si114  1  0.67611274  0.42887328  0.01917870  1
  Si0+  Si115  1  0.17534448  0.42665681  0.68637955  1
  Si0+  Si116  1  0.18162218  0.92975457  0.68261893  1
  Si0+  Si117  1  0.67441862  0.92844142  0.01564743  1
  Si0+  Si118  1  0.07468227  0.17621048  0.64736606  1
  Si0+  Si119  1  0.32293046  0.07428292  0.01180465  1
  O2-  O120  1  0.25773200  0.00323807  0.05631411  1
  O2-  O121  1  0.25816456  -0.00745114  0.39880019  1
  O2-  O122  1  0.25164934  0.00282709  0.72496612  1
  O2-  O123  1  0.24996541  0.49891732  0.05743534  1
  O2-  O124  1  0.25288905  0.50379705  0.39255583  1
  O2-  O125  1  0.24525484  0.49453372  0.72970235  1
  O2-  O126  1  0.74790645  -0.00676276  0.05813007  1
  O2-  O127  1  0.74985123  0.00144057  0.39974688  1
  O2-  O128  1  0.74897674  -0.00895412  0.72994909  1
  O2-  O129  1  0.74492589  0.49839948  0.06182304  1
  O2-  O130  1  0.74697733  0.50274210  0.39258682  1
  O2-  O131  1  0.74853856  0.50207386  0.72301754  1
  O2-  O132  1  -0.00603280  0.24677579  0.27686109  1
  O2-  O133  1  0.00567802  0.24556351  0.60469441  1
  O2-  O134  1  -0.01003346  0.24871236  0.94233351  1
  O2-  O135  1  0.00087205  0.75827254  0.27236901  1
  O2-  O136  1  -0.00339658  0.75004363  0.60012362  1
  O2-  O137  1  -0.00262098  0.74704987  0.93748900  1
  O2-  O138  1  0.49869457  0.24095099  0.27170633  1
  O2-  O139  1  0.49133492  0.25216912  0.60549707  1
  O2-  O140  1  0.50353405  0.24739131  0.93972541  1
  O2-  O141  1  0.50494619  0.75306560  0.26846244  1
  O2-  O142  1  0.50622811  0.74551712  0.60921836  1
  O2-  O143  1  0.50598278  0.74807533  0.93783160  1
  O2-  O144  1  0.07125410  0.17999908  0.10145261  1
  O2-  O145  1  0.06962578  0.18356058  0.42578297  1
  O2-  O146  1  0.07458505  0.17643775  0.75334897  1
  O2-  O147  1  0.07089399  0.67506746  0.09827910  1
  O2-  O148  1  0.06661903  0.67566287  0.43080947  1
  O2-  O149  1  0.06798620  0.68053480  0.76392556  1
  O2-  O150  1  0.57587145  0.18161486  0.08904241  1
  O2-  O151  1  0.57700177  0.18482214  0.42029549  1
  O2-  O152  1  0.56984770  0.18459269  0.76576462  1
  O2-  O153  1  0.57009816  0.67525545  0.08737508  1
  O2-  O154  1  0.56945400  0.67411168  0.43217416  1
  O2-  O155  1  0.57293066  0.67453062  0.75918040  1
  O2-  O156  1  0.17920148  0.42719782  0.23324894  1
  O2-  O157  1  0.17580061  0.42559709  0.58087207  1
  O2-  O158  1  0.18085930  0.42712401  0.90857593  1
  O2-  O159  1  0.17798189  0.92668023  0.23617217  1
  O2-  O160  1  0.18364922  0.92975587  0.57774630  1
  O2-  O161  1  0.18182471  0.92976372  0.89821406  1
  O2-  O162  1  0.67969714  0.42933605  0.24384043  1
  O2-  O163  1  0.67817317  0.43014821  0.57645875  1
  O2-  O164  1  0.67680116  0.42788374  0.91311111  1
  O2-  O165  1  0.68278090  0.92948711  0.23518095  1
  O2-  O166  1  0.67483307  0.92913160  0.57942815  1
  O2-  O167  1  0.66996423  0.93135476  0.91008311  1
  O2-  O168  1  0.42554110  0.32062217  0.09721681  1
  O2-  O169  1  0.43140892  0.31952073  0.43508160  1
  O2-  O170  1  0.43064671  0.32410506  0.75590211  1
  O2-  O171  1  0.43052502  0.82153923  0.09860604  1
  O2-  O172  1  0.42913487  0.81776539  0.43048218  1
  O2-  O173  1  0.42901370  0.81980422  0.76610913  1
  O2-  O174  1  0.92880702  0.32308451  0.09242499  1
  O2-  O175  1  0.92713697  0.32441491  0.42199214  1
  O2-  O176  1  0.93100887  0.31850367  0.76741067  1
  O2-  O177  1  0.92988457  0.82183204  0.10116859  1
  O2-  O178  1  0.93014617  0.81989935  0.42381382  1
  O2-  O179  1  0.92812446  0.82283683  0.76357587  1
  O2-  O180  1  0.31179879  0.07645861  0.23244771  1
  O2-  O181  1  0.32213223  0.07454193  0.57767283  1
  O2-  O182  1  0.32247183  0.07333724  0.90573213  1
  O2-  O183  1  0.32374599  0.56677537  0.24149338  1
  O2-  O184  1  0.32122956  0.56703371  0.56781463  1
  O2-  O185  1  0.32228935  0.56973587  0.91163299  1
  O2-  O186  1  0.82266285  0.07333606  0.23686182  1
  O2-  O187  1  0.81451284  0.07251990  0.57004294  1
  O2-  O188  1  0.81885124  0.07255151  0.90003133  1
  O2-  O189  1  0.82241904  0.56647601  0.24455586  1
  O2-  O190  1  0.82085833  0.56805806  0.57493925  1
  O2-  O191  1  0.82010480  0.56696832  0.89974712  1
  O2-  O192  1  0.04436825  0.08613447  0.27592637  1
  O2-  O193  1  0.05005351  0.08322282  0.60161006  1
  O2-  O194  1  0.04099594  0.08224176  0.93246987  1
  O2-  O195  1  0.03454926  0.58267275  0.26458770  1
  O2-  O196  1  0.04386782  0.57982209  0.59911002  1
  O2-  O197  1  0.04423204  0.57661351  0.93271708  1
  O2-  O198  1  0.55888383  0.08290949  0.27160590  1
  O2-  O199  1  0.54208059  0.08521825  0.59646081  1
  O2-  O200  1  0.55049848  0.08733412  0.93541928  1
  O2-  O201  1  0.54632273  0.58105106  0.26190171  1
  O2-  O202  1  0.54542250  0.58126910  0.60897687  1
  O2-  O203  1  0.54620214  0.58416377  0.93557057  1
  O2-  O204  1  0.15823316  0.21350517  0.27284271  1
  O2-  O205  1  0.16878889  0.20298212  0.60266115  1
  O2-  O206  1  0.16148278  0.21219116  0.92735410  1
  O2-  O207  1  0.16894248  0.70098635  0.26528446  1
  O2-  O208  1  0.16731595  0.70944594  0.59780543  1
  O2-  O209  1  0.16993343  0.70453684  0.93270746  1
  O2-  O210  1  0.66474404  0.21406421  0.26694159  1
  O2-  O211  1  0.66317031  0.21705888  0.59653760  1
  O2-  O212  1  0.66634858  0.21068192  0.93689277  1
  O2-  O213  1  0.67502317  0.70294487  0.26817014  1
  O2-  O214  1  0.66671527  0.69623593  0.60686861  1
  O2-  O215  1  0.66727883  0.69945039  0.93754347  1
  O2-  O216  1  0.08778080  0.45130218  0.06199788  1
  O2-  O217  1  0.08141308  0.46001458  0.40111763  1
  O2-  O218  1  0.08146297  0.45274061  0.73178287  1
  O2-  O219  1  0.08714004  0.96067919  0.06796014  1
  O2-  O220  1  0.08603306  0.95832099  0.40653647  1
  O2-  O221  1  0.08923141  0.95780505  0.72880008  1
  O2-  O222  1  0.58185121  0.45504557  0.06379318  1
  O2-  O223  1  0.58549686  0.45768182  0.39627838  1
  O2-  O224  1  0.58805148  0.45372395  0.73225029  1
  O2-  O225  1  0.58330005  0.96086224  0.06414309  1
  O2-  O226  1  0.58039248  0.95384295  0.40134267  1
  O2-  O227  1  0.58345490  0.95957240  0.73002266  1
  O2-  O228  1  0.21048771  0.33511203  0.05887129  1
  O2-  O229  1  0.20805945  0.33520837  0.40539038  1
  O2-  O230  1  0.19945071  0.33196675  0.73234449  1
  O2-  O231  1  0.21297411  0.83145791  0.06506320  1
  O2-  O232  1  0.20717139  0.82449510  0.40133959  1
  O2-  O233  1  0.21174412  0.83853536  0.72913872  1
  O2-  O234  1  0.70077788  0.33659581  0.06813122  1
  O2-  O235  1  0.70724269  0.34065614  0.39816038  1
  O2-  O236  1  0.71091415  0.33863283  0.72968833  1
  O2-  O237  1  0.69281081  0.83275283  0.05944533  1
  O2-  O238  1  0.70718852  0.82910851  0.40359390  1
  O2-  O239  1  0.69450466  0.83093218  0.72899652  1
  O2-  O240  1  0.46122219  0.41216207  0.26468691  1
  O2-  O241  1  0.45715636  0.41675685  0.60561094  1
  O2-  O242  1  0.46070822  0.41782259  0.92936099  1
  O2-  O243  1  0.45539457  0.92349368  0.26529848  1
  O2-  O244  1  0.45704112  0.91644106  0.59854480  1
  O2-  O245  1  0.45831512  0.91956317  0.93180689  1
  O2-  O246  1  0.95957012  0.41179672  0.26841377  1
  O2-  O247  1  0.95886113  0.41375282  0.59666658  1
  O2-  O248  1  0.95665337  0.41241705  0.93858918  1
  O2-  O249  1  0.95367740  0.92070668  0.27776208  1
  O2-  O250  1  0.95665417  0.92165600  0.59767835  1
  O2-  O251  1  0.96101711  0.91781272  0.93330364  1
  O2-  O252  1  0.32943549  0.28873681  0.26957039  1
  O2-  O253  1  0.33069900  0.30321935  0.60873234  1
  O2-  O254  1  0.33416795  0.29308546  0.92373862  1
  O2-  O255  1  0.33293278  0.79071039  0.26310094  1
  O2-  O256  1  0.33506461  0.78543530  0.59856834  1
  O2-  O257  1  0.33597541  0.78645056  0.93112155  1
  O2-  O258  1  0.83356712  0.30070108  0.26976380  1
  O2-  O259  1  0.83420010  0.28884289  0.59849097  1
  O2-  O260  1  0.82979470  0.30235413  0.94399035  1
  O2-  O261  1  0.83760127  0.79668532  0.27289992  1
  O2-  O262  1  0.82639770  0.79721741  0.59930432  1
  O2-  O263  1  0.82747633  0.79778403  0.93557369  1
  O2-  O264  1  0.41831840  0.05532098  0.05672572  1
  O2-  O265  1  0.42405102  0.05697331  0.39306492  1
  O2-  O266  1  0.41618281  0.04553935  0.72796115  1
  O2-  O267  1  0.41376891  0.54106487  0.06276418  1
  O2-  O268  1  0.41682793  0.54092315  0.39265693  1
  O2-  O269  1  0.41476395  0.53974423  0.73917682  1
  O2-  O270  1  0.91779280  0.04025424  0.06742908  1
  O2-  O271  1  0.91978870  0.04941783  0.40613664  1
  O2-  O272  1  0.92006695  0.04441569  0.73252372  1
  O2-  O273  1  0.91659772  0.53677612  0.06935950  1
  O2-  O274  1  0.91027735  0.53574736  0.39835517  1
  O2-  O275  1  0.91244822  0.53824012  0.72694348  1
  O2-  O276  1  0.29332198  0.16872822  0.05375212  1
  O2-  O277  1  0.28465159  0.16527934  0.40489299  1
  O2-  O278  1  0.29788666  0.16603611  0.72983279  1
  O2-  O279  1  0.29462944  0.66166648  0.06438553  1
  O2-  O280  1  0.29948948  0.66355420  0.39227563  1
  O2-  O281  1  0.28664563  0.66631296  0.73556441  1
  O2-  O282  1  0.79174891  0.16695244  0.06848129  1
  O2-  O283  1  0.79241030  0.17418415  0.40000551  1
  O2-  O284  1  0.78481212  0.16642480  0.73512409  1
  O2-  O285  1  0.79204652  0.66789467  0.06868802  1
  O2-  O286  1  0.79860970  0.66270685  0.39704486  1
  O2-  O287  1  0.79613032  0.66349101  0.72737466  1
