# generated using pymatgen
data_Ca2Al2SiO7
_symmetry_space_group_name_H-M   'P 1'
_cell_length_a   15.45771527
_cell_length_b   15.45757910
_cell_length_c   15.28457555
_cell_angle_alpha   89.99802899
_cell_angle_beta   90.00652670
_cell_angle_gamma   90.00595330
_symmetry_Int_Tables_number   1
_chemical_formula_structural   Ca2Al2SiO7
_chemical_formula_sum   'Ca48 Al48 Si24 O168'
_cell_volume   3652.07896051
_cell_formula_units_Z   24
loop_
 _symmetry_equiv_pos_site_id
 _symmetry_equiv_pos_as_xyz
  1  'x, y, z'
loop_
 _atom_type_symbol
 _atom_type_oxidation_number
  Ca2+  2.0
  Al0+  0.0
  Si0+  0.0
  O2-  -2.0
loop_
 _atom_site_type_symbol
 _atom_site_label
 _atom_site_symmetry_multiplicity
 _atom_site_fract_x
 _atom_site_fract_y
 _atom_site_fract_z
 _atom_site_occupancy
  Ca2+  Ca0  1  0.16442320  0.08100401  0.16095543  1
  Ca2+  Ca1  1  0.16325996  0.08334478  0.50496307  1
  Ca2+  Ca2  1  0.16712115  0.08289001  0.84689260  1
  Ca2+  Ca3  1  0.17523658  0.59255364  0.16443301  1
  Ca2+  Ca4  1  0.17394106  0.58204743  0.51102807  1
  Ca2+  Ca5  1  0.16605407  0.57837930  0.84155598  1
  Ca2+  Ca6  1  0.67228718  0.07731104  0.17413264  1
  Ca2+  Ca7  1  0.67613491  0.07404719  0.50061986  1
  Ca2+  Ca8  1  0.66705215  0.07924559  0.83877565  1
  Ca2+  Ca9  1  0.66822016  0.57608996  0.17141402  1
  Ca2+  Ca10  1  0.67767110  0.58122800  0.49759907  1
  Ca2+  Ca11  1  0.66785007  0.57800342  0.84329643  1
  Ca2+  Ca12  1  0.07827485  0.33130621  0.15968357  1
  Ca2+  Ca13  1  0.07597139  0.33390664  0.49976105  1
  Ca2+  Ca14  1  0.08903351  0.32911024  0.82567490  1
  Ca2+  Ca15  1  0.07240493  0.83032947  0.15567431  1
  Ca2+  Ca16  1  0.07913580  0.82436758  0.49411217  1
  Ca2+  Ca17  1  0.08721581  0.82517486  0.83537401  1
  Ca2+  Ca18  1  0.58861620  0.33053854  0.15733621  1
  Ca2+  Ca19  1  0.58380730  0.33554824  0.49293179  1
  Ca2+  Ca20  1  0.58519400  0.32993928  0.83581035  1
  Ca2+  Ca21  1  0.58043156  0.82577808  0.15572240  1
  Ca2+  Ca22  1  0.58619314  0.83619911  0.49563130  1
  Ca2+  Ca23  1  0.57769443  0.82981817  0.83406200  1
  Ca2+  Ca24  1  0.32688034  0.42766877  0.16704233  1
  Ca2+  Ca25  1  0.32623272  0.42863872  0.50768794  1
  Ca2+  Ca26  1  0.32082937  0.42683572  0.84049293  1
  Ca2+  Ca27  1  0.32964608  0.91417119  0.16059747  1
  Ca2+  Ca28  1  0.33150943  0.92018179  0.50425639  1
  Ca2+  Ca29  1  0.32700268  0.92140217  0.84635179  1
  Ca2+  Ca30  1  0.82367599  0.41914193  0.17507748  1
  Ca2+  Ca31  1  0.83619229  0.41241200  0.49864297  1
  Ca2+  Ca32  1  0.83195554  0.41448817  0.83758851  1
  Ca2+  Ca33  1  0.83409298  0.91953712  0.17727401  1
  Ca2+  Ca34  1  0.82748011  0.91353865  0.49942008  1
  Ca2+  Ca35  1  0.83114389  0.91373388  0.83802067  1
  Ca2+  Ca36  1  0.42441949  0.16692734  0.15524370  1
  Ca2+  Ca37  1  0.41867053  0.17143890  0.49564495  1
  Ca2+  Ca38  1  0.41907713  0.16320940  0.83512869  1
  Ca2+  Ca39  1  0.41962753  0.66660921  0.15635880  1
  Ca2+  Ca40  1  0.41457305  0.66265137  0.49571502  1
  Ca2+  Ca41  1  0.41361548  0.66394919  0.83527890  1
  Ca2+  Ca42  1  0.91524578  0.17154428  0.16201442  1
  Ca2+  Ca43  1  0.91760415  0.17456099  0.49594594  1
  Ca2+  Ca44  1  0.93120359  0.17440260  0.82843504  1
  Ca2+  Ca45  1  0.91342334  0.67699595  0.16019240  1
  Ca2+  Ca46  1  0.92269441  0.66567251  0.49258270  1
  Ca2+  Ca47  1  0.92970268  0.66877443  0.83347461  1
  Al0+  Al48  1  -0.00164505  0.00323268  -0.00420528  1
  Al0+  Al49  1  0.00160832  -0.00125574  0.33530095  1
  Al0+  Al50  1  -0.00164673  0.00070985  0.66333995  1
  Al0+  Al51  1  -0.00315495  0.50198136  0.00206719  1
  Al0+  Al52  1  0.00154836  0.49725903  0.32903008  1
  Al0+  Al53  1  -0.00008429  0.50049062  0.66213350  1
  Al0+  Al54  1  0.50085218  0.00006151  -0.00426734  1
  Al0+  Al55  1  0.49838786  0.00049540  0.33643892  1
  Al0+  Al56  1  0.50112893  -0.00171721  0.66868880  1
  Al0+  Al57  1  0.49998589  0.49796626  0.00240352  1
  Al0+  Al58  1  0.49781055  0.50018773  0.34019964  1
  Al0+  Al59  1  0.50160889  0.50090082  0.66868820  1
  Al0+  Al60  1  0.25082430  0.25103958  0.00570015  1
  Al0+  Al61  1  0.25135987  0.25024485  0.33231198  1
  Al0+  Al62  1  0.25297014  0.25103005  0.66387888  1
  Al0+  Al63  1  0.24857039  0.75197514  0.00127434  1
  Al0+  Al64  1  0.25133035  0.75113371  0.33731185  1
  Al0+  Al65  1  0.25224765  0.75359433  0.66455083  1
  Al0+  Al66  1  0.74940596  0.24891828  -0.00222842  1
  Al0+  Al67  1  0.75057297  0.24756554  0.33704438  1
  Al0+  Al68  1  0.75032090  0.24787859  0.66373205  1
  Al0+  Al69  1  0.74798454  0.75003445  -0.00885800  1
  Al0+  Al70  1  0.74909347  0.74749499  0.33656057  1
  Al0+  Al71  1  0.74735930  0.74882071  0.67145695  1
  Al0+  Al72  1  0.92716477  0.82450017  0.98445875  1
  Al0+  Al73  1  0.07052775  0.67886823  0.98672431  1
  Al0+  Al74  1  0.07156037  0.18281585  0.98836315  1
  Al0+  Al75  1  0.68075793  0.42804934  0.01185167  1
  Al0+  Al76  1  0.31830497  0.57148387  0.34835080  1
  Al0+  Al77  1  0.32225845  0.57394324  0.68381474  1
  Al0+  Al78  1  0.42857413  0.82080630  0.98536380  1
  Al0+  Al79  1  0.67947214  0.92862210  0.68387255  1
  Al0+  Al80  1  0.56973550  0.67556284  0.98490777  1
  Al0+  Al81  1  0.17464581  0.42820796  0.01657796  1
  Al0+  Al82  1  0.07208474  0.68137301  0.65265209  1
  Al0+  Al83  1  0.07459168  0.17802864  0.65112151  1
  Al0+  Al84  1  0.92850790  0.31940763  0.31686323  1
  Al0+  Al85  1  0.31980253  0.57195710  0.01532820  1
  Al0+  Al86  1  0.17625472  0.93001102  0.01446232  1
  Al0+  Al87  1  0.92858256  0.81861865  0.32158463  1
  Al0+  Al88  1  0.82328469  0.57034142  0.34701450  1
  Al0+  Al89  1  0.57206910  0.17884871  0.98661119  1
  Al0+  Al90  1  0.82413499  0.07020748  0.34893235  1
  Al0+  Al91  1  0.67920860  0.42789460  0.34876175  1
  Al0+  Al92  1  0.92831632  0.32110526  0.65116276  1
  Al0+  Al93  1  0.32318760  0.07159302  0.01524254  1
  Al0+  Al94  1  0.67755920  0.92742582  0.34606429  1
  Al0+  Al95  1  0.17805083  0.43018167  0.68060365  1
  Si0+  Si96  1  0.81962843  0.07027561  0.01351704  1
  Si0+  Si97  1  0.82140138  0.57080790  0.68212502  1
  Si0+  Si98  1  0.67924782  0.92826230  0.01364579  1
  Si0+  Si99  1  0.57120302  0.67754175  0.64921769  1
  Si0+  Si100  1  0.32156366  0.07135046  0.68013058  1
  Si0+  Si101  1  0.67974725  0.42724408  0.68172927  1
  Si0+  Si102  1  0.42795554  0.32155802  0.98343739  1
  Si0+  Si103  1  0.82002318  0.57453191  0.01553575  1
  Si0+  Si104  1  0.17799453  0.93126157  0.67962584  1
  Si0+  Si105  1  0.92520810  0.82053964  0.64951760  1
  Si0+  Si106  1  0.57022602  0.17720716  0.64970778  1
  Si0+  Si107  1  0.07449813  0.67781335  0.31703711  1
  Si0+  Si108  1  0.43195427  0.32205997  0.65118283  1
  Si0+  Si109  1  0.07417250  0.17713886  0.31512277  1
  Si0+  Si110  1  0.17873210  0.42501735  0.35082552  1
  Si0+  Si111  1  0.32130482  0.07201832  0.34914415  1
  Si0+  Si112  1  0.56927618  0.17897278  0.31956232  1
  Si0+  Si113  1  0.92710347  0.32231586  0.98484794  1
  Si0+  Si114  1  0.43129999  0.82176493  0.64951099  1
  Si0+  Si115  1  0.18012331  0.92964754  0.34956753  1
  Si0+  Si116  1  0.56889991  0.67869102  0.32054031  1
  Si0+  Si117  1  0.82151797  0.07232800  0.68568377  1
  Si0+  Si118  1  0.42815786  0.82300848  0.31897853  1
  Si0+  Si119  1  0.42958083  0.32221959  0.31811578  1
  O2-  O120  1  0.25019901  0.00052079  0.06530174  1
  O2-  O121  1  0.24921277  0.00292029  0.39211782  1
  O2-  O122  1  0.24283193  0.00873676  0.72020571  1
  O2-  O123  1  0.24490605  0.50282840  0.06583720  1
  O2-  O124  1  0.24169934  0.49916424  0.39474396  1
  O2-  O125  1  0.24628934  0.50534953  0.73110024  1
  O2-  O126  1  0.75255194  -0.00419102  0.05650742  1
  O2-  O127  1  0.75277017  -0.00420728  0.39697564  1
  O2-  O128  1  0.75610534  0.00093337  0.73083947  1
  O2-  O129  1  0.75210663  0.50478164  0.05892444  1
  O2-  O130  1  0.75451236  0.49587142  0.39965851  1
  O2-  O131  1  0.75309867  0.49582926  0.72285451  1
  O2-  O132  1  0.00351674  0.24397247  0.27164854  1
  O2-  O133  1  0.00232296  0.24997096  0.60189785  1
  O2-  O134  1  0.00347124  0.26275903  0.94062047  1
  O2-  O135  1  0.00046070  0.74160456  0.27466717  1
  O2-  O136  1  -0.00384672  0.75474260  0.60472007  1
  O2-  O137  1  0.00054788  0.75310915  0.93618500  1
  O2-  O138  1  0.50266134  0.25332157  0.27619660  1
  O2-  O139  1  0.50223837  0.25067722  0.60686294  1
  O2-  O140  1  0.49559260  0.25128897  0.93874007  1
  O2-  O141  1  0.50039746  0.75268111  0.27901846  1
  O2-  O142  1  0.49939187  0.74812264  0.60678862  1
  O2-  O143  1  0.49630338  0.74561553  0.93362822  1
  O2-  O144  1  0.06587951  0.18030874  0.10140626  1
  O2-  O145  1  0.07727054  0.17896161  0.42066586  1
  O2-  O146  1  0.07477413  0.17775005  0.76449266  1
  O2-  O147  1  0.06777571  0.68104713  0.10053491  1
  O2-  O148  1  0.07697653  0.68207446  0.42306503  1
  O2-  O149  1  0.07145470  0.68280945  0.76508249  1
  O2-  O150  1  0.57338904  0.17978746  0.10002270  1
  O2-  O151  1  0.56434803  0.17742392  0.42503117  1
  O2-  O152  1  0.56937322  0.17705285  0.75460334  1
  O2-  O153  1  0.57189137  0.67824282  0.09909639  1
  O2-  O154  1  0.56720761  0.67879356  0.42603287  1
  O2-  O155  1  0.57168142  0.67662646  0.75365520  1
  O2-  O156  1  0.18341227  0.42054698  0.24580324  1
  O2-  O157  1  0.18185870  0.43027663  0.56654425  1
  O2-  O158  1  0.17746472  0.42688795  0.90299417  1
  O2-  O159  1  0.18106352  0.92830815  0.24518559  1
  O2-  O160  1  0.18256651  0.93041660  0.57391074  1
  O2-  O161  1  0.17724107  0.93317374  0.90031676  1
  O2-  O162  1  0.67700667  0.42923365  0.23543542  1
  O2-  O163  1  0.67719284  0.42863214  0.57695098  1
  O2-  O164  1  0.68454607  0.42643629  0.89808563  1
  O2-  O165  1  0.67429900  0.93039988  0.23260162  1
  O2-  O166  1  0.67830536  0.93100968  0.57076614  1
  O2-  O167  1  0.67966346  0.93106812  0.90845539  1
  O2-  O168  1  0.43091389  0.32092021  0.08946311  1
  O2-  O169  1  0.42955111  0.31894753  0.42371225  1
  O2-  O170  1  0.43340269  0.32044716  0.75568208  1
  O2-  O171  1  0.43386344  0.82217809  0.09960219  1
  O2-  O172  1  0.42750740  0.82396897  0.42449003  1
  O2-  O173  1  0.43222862  0.82559757  0.75377436  1
  O2-  O174  1  0.92299211  0.31676877  0.09017239  1
  O2-  O175  1  0.93037934  0.31753053  0.42973467  1
  O2-  O176  1  0.92421074  0.31799044  0.76472870  1
  O2-  O177  1  0.92500613  0.82346750  0.09840050  1
  O2-  O178  1  0.93253853  0.81784342  0.43499317  1
  O2-  O179  1  0.92538483  0.81920353  0.75478904  1
  O2-  O180  1  0.32516812  0.07182893  0.24511466  1
  O2-  O181  1  0.32534590  0.06811377  0.57436349  1
  O2-  O182  1  0.32274866  0.07046564  0.90101787  1
  O2-  O183  1  0.32042480  0.57228572  0.23602041  1
  O2-  O184  1  0.32263762  0.57070477  0.56968200  1
  O2-  O185  1  0.32039310  0.56843846  0.90215336  1
  O2-  O186  1  0.82099946  0.07038328  0.23482478  1
  O2-  O187  1  0.81909823  0.07289350  0.58033606  1
  O2-  O188  1  0.81653307  0.07188608  0.90844249  1
  O2-  O189  1  0.81693650  0.57267739  0.23382803  1
  O2-  O190  1  0.81874121  0.57370146  0.57723887  1
  O2-  O191  1  0.81968871  0.57285936  0.90947341  1
  O2-  O192  1  0.05179502  0.08154578  0.27255590  1
  O2-  O193  1  0.04524888  0.07923739  0.59724735  1
  O2-  O194  1  0.03648689  0.08930734  0.93148888  1
  O2-  O195  1  0.05864298  0.58157008  0.27442200  1
  O2-  O196  1  0.04259912  0.58514348  0.59760964  1
  O2-  O197  1  0.03864177  0.58127735  0.93263469  1
  O2-  O198  1  0.53660043  0.08832779  0.27231460  1
  O2-  O199  1  0.53739698  0.08672045  0.60241629  1
  O2-  O200  1  0.54268718  0.08366137  0.92969070  1
  O2-  O201  1  0.53741123  0.58725494  0.27460613  1
  O2-  O202  1  0.54467228  0.58529239  0.60121755  1
  O2-  O203  1  0.54474451  0.57596048  0.93244802  1
  O2-  O204  1  0.16813481  0.20395346  0.26952219  1
  O2-  O205  1  0.17453373  0.20302243  0.59761062  1
  O2-  O206  1  0.17136812  0.20597431  0.93743807  1
  O2-  O207  1  0.16620866  0.71213165  0.27190255  1
  O2-  O208  1  0.16815360  0.71560393  0.59758704  1
  O2-  O209  1  0.16883721  0.70595216  0.93409446  1
  O2-  O210  1  0.66276131  0.20155514  0.27448961  1
  O2-  O211  1  0.66236845  0.20291020  0.60254086  1
  O2-  O212  1  0.66608424  0.21279881  0.92857182  1
  O2-  O213  1  0.66126257  0.70298835  0.27361810  1
  O2-  O214  1  0.66289732  0.70790428  0.60235486  1
  O2-  O215  1  0.66552404  0.70606685  0.92769975  1
  O2-  O216  1  0.07431494  0.45248843  0.06772459  1
  O2-  O217  1  0.08262430  0.44476709  0.39244017  1
  O2-  O218  1  0.07737297  0.45329717  0.73034349  1
  O2-  O219  1  0.07836851  0.96300384  0.06684496  1
  O2-  O220  1  0.08917152  0.95521011  0.39938678  1
  O2-  O221  1  0.08308808  0.95049992  0.72360244  1
  O2-  O222  1  0.58332054  0.45302746  0.06584031  1
  O2-  O223  1  0.58198701  0.45897661  0.40356186  1
  O2-  O224  1  0.58928318  0.45749420  0.72993795  1
  O2-  O225  1  0.58862950  0.95860782  0.06047637  1
  O2-  O226  1  0.58036960  0.96009698  0.40168961  1
  O2-  O227  1  0.58348309  0.96303768  0.73703876  1
  O2-  O228  1  0.20616759  0.33181956  0.07162825  1
  O2-  O229  1  0.21090313  0.33366777  0.39887672  1
  O2-  O230  1  0.21216418  0.33164210  0.73094936  1
  O2-  O231  1  0.20324629  0.83266848  0.06942182  1
  O2-  O232  1  0.21206301  0.84028491  0.40005367  1
  O2-  O233  1  0.21305200  0.84257930  0.72735078  1
  O2-  O234  1  0.71329977  0.33186182  0.06621660  1
  O2-  O235  1  0.70267927  0.32832253  0.40129456  1
  O2-  O236  1  0.70418440  0.33333302  0.72695528  1
  O2-  O237  1  0.70289752  0.83408319  0.05774488  1
  O2-  O238  1  0.70225331  0.82907665  0.40057554  1
  O2-  O239  1  0.70587464  0.83075442  0.73730759  1
  O2-  O240  1  0.45501972  0.41536866  0.27307344  1
  O2-  O241  1  0.46225889  0.41332905  0.60307832  1
  O2-  O242  1  0.45654786  0.41299825  0.93576314  1
  O2-  O243  1  0.45312183  0.91605041  0.27297430  1
  O2-  O244  1  0.46293333  0.91254915  0.60013410  1
  O2-  O245  1  0.46115693  0.91689164  0.92969916  1
  O2-  O246  1  0.95660304  0.41651600  0.26185324  1
  O2-  O247  1  0.95268540  0.41996896  0.59722298  1
  O2-  O248  1  0.94146278  0.41944092  0.94314814  1
  O2-  O249  1  0.96117875  0.91572234  0.26930851  1
  O2-  O250  1  0.94652943  0.91606039  0.60550142  1
  O2-  O251  1  0.95307144  0.92256631  0.93004624  1
  O2-  O252  1  0.33915706  0.29122293  0.27044418  1
  O2-  O253  1  0.34170973  0.29375254  0.60053758  1
  O2-  O254  1  0.33459408  0.29586588  0.93812473  1
  O2-  O255  1  0.33649358  0.79396520  0.27249492  1
  O2-  O256  1  0.33907828  0.79871271  0.59997598  1
  O2-  O257  1  0.32831507  0.79942583  0.93440205  1
  O2-  O258  1  0.83031751  0.28769665  0.26545268  1
  O2-  O259  1  0.83005752  0.28964555  0.59703946  1
  O2-  O260  1  0.83796407  0.28733321  0.93524966  1
  O2-  O261  1  0.82996454  0.79144771  0.26919500  1
  O2-  O262  1  0.83139498  0.79143260  0.60535194  1
  O2-  O263  1  0.83043141  0.79480603  0.92895151  1
  O2-  O264  1  0.42214893  0.04120800  0.06702840  1
  O2-  O265  1  0.41101162  0.04237549  0.40077496  1
  O2-  O266  1  0.41046260  0.03646672  0.72820234  1
  O2-  O267  1  0.41766748  0.54014824  0.06823991  1
  O2-  O268  1  0.41303423  0.53847520  0.40500979  1
  O2-  O269  1  0.42068238  0.54167203  0.73420667  1
  O2-  O270  1  0.91179012  0.04687157  0.06097638  1
  O2-  O271  1  0.92282481  0.04410261  0.40243102  1
  O2-  O272  1  0.91713753  0.04967152  0.72919229  1
  O2-  O273  1  0.91305531  0.55264458  0.06296498  1
  O2-  O274  1  0.92418902  0.54549263  0.39691316  1
  O2-  O275  1  0.91379510  0.54536941  0.72843214  1
  O2-  O276  1  0.29836429  0.16959193  0.06983862  1
  O2-  O277  1  0.29524399  0.16451227  0.39720081  1
  O2-  O278  1  0.30432239  0.16628258  0.72438551  1
  O2-  O279  1  0.29528350  0.67150527  0.06794990  1
  O2-  O280  1  0.29159173  0.66925200  0.40354560  1
  O2-  O281  1  0.30063976  0.67628352  0.73010212  1
  O2-  O282  1  0.78704186  0.16013755  0.06183818  1
  O2-  O283  1  0.79045652  0.16534820  0.40456586  1
  O2-  O284  1  0.79062879  0.16440815  0.73197186  1
  O2-  O285  1  0.79117736  0.66818221  0.05976526  1
  O2-  O286  1  0.79036811  0.66569876  0.40431708  1
  O2-  O287  1  0.78887767  0.65987559  0.73150210  1
