# generated using pymatgen
data_Ca2Al2SiO7
_symmetry_space_group_name_H-M   'P 1'
_cell_length_a   15.46820529
_cell_length_b   15.47053897
_cell_length_c   15.29216288
_cell_angle_alpha   90.00207459
_cell_angle_beta   90.00055575
_cell_angle_gamma   90.00429354
_symmetry_Int_Tables_number   1
_chemical_formula_structural   Ca2Al2SiO7
_chemical_formula_sum   'Ca48 Al48 Si24 O168'
_cell_volume   3659.43708486
_cell_formula_units_Z   24
loop_
 _symmetry_equiv_pos_site_id
 _symmetry_equiv_pos_as_xyz
  1  'x, y, z'
loop_
 _atom_type_symbol
 _atom_type_oxidation_number
  Ca2+  2.0
  Al0+  0.0
  Si0+  0.0
  O2-  -2.0
loop_
 _atom_site_type_symbol
 _atom_site_label
 _atom_site_symmetry_multiplicity
 _atom_site_fract_x
 _atom_site_fract_y
 _atom_site_fract_z
 _atom_site_occupancy
  Ca2+  Ca0  1  0.17336212  0.07612650  0.17765804  1
  Ca2+  Ca1  1  0.16849815  0.07962835  0.50037081  1
  Ca2+  Ca2  1  0.16770428  0.08148981  0.84044589  1
  Ca2+  Ca3  1  0.16711902  0.58567538  0.16872256  1
  Ca2+  Ca4  1  0.16687986  0.58513074  0.50417984  1
  Ca2+  Ca5  1  0.16270615  0.57661322  0.83784277  1
  Ca2+  Ca6  1  0.66424891  0.07786523  0.17177537  1
  Ca2+  Ca7  1  0.66373790  0.07328850  0.50460074  1
  Ca2+  Ca8  1  0.65396625  0.08025826  0.83286690  1
  Ca2+  Ca9  1  0.67815577  0.58152212  0.17313978  1
  Ca2+  Ca10  1  0.68095087  0.57244718  0.50399737  1
  Ca2+  Ca11  1  0.67844240  0.58331781  0.83912948  1
  Ca2+  Ca12  1  0.07222424  0.34176214  0.16221632  1
  Ca2+  Ca13  1  0.07752379  0.33818204  0.49552027  1
  Ca2+  Ca14  1  0.07912895  0.34709633  0.83294502  1
  Ca2+  Ca15  1  0.07689572  0.82446519  0.16310481  1
  Ca2+  Ca16  1  0.07683804  0.82187574  0.48724070  1
  Ca2+  Ca17  1  0.07610643  0.81926196  0.82926590  1
  Ca2+  Ca18  1  0.57819012  0.33076484  0.15675821  1
  Ca2+  Ca19  1  0.58908197  0.33400928  0.49649096  1
  Ca2+  Ca20  1  0.57604735  0.32817313  0.82076094  1
  Ca2+  Ca21  1  0.58525675  0.82739442  0.16242578  1
  Ca2+  Ca22  1  0.58735336  0.83607972  0.49610135  1
  Ca2+  Ca23  1  0.58873773  0.82708481  0.83211434  1
  Ca2+  Ca24  1  0.32889513  0.41931231  0.16979985  1
  Ca2+  Ca25  1  0.32774134  0.42131893  0.50549729  1
  Ca2+  Ca26  1  0.32349262  0.40368270  0.83641486  1
  Ca2+  Ca27  1  0.32599787  0.92300383  0.17934734  1
  Ca2+  Ca28  1  0.32773292  0.92091128  0.49784679  1
  Ca2+  Ca29  1  0.33249358  0.91851367  0.83736338  1
  Ca2+  Ca30  1  0.83441299  0.42561947  0.17321839  1
  Ca2+  Ca31  1  0.83041993  0.42313277  0.50316012  1
  Ca2+  Ca32  1  0.83301644  0.42697255  0.83883558  1
  Ca2+  Ca33  1  0.83292988  0.91224753  0.17302100  1
  Ca2+  Ca34  1  0.82400680  0.90834157  0.50119947  1
  Ca2+  Ca35  1  0.83178491  0.91708686  0.83753630  1
  Ca2+  Ca36  1  0.42095865  0.17041400  0.15906360  1
  Ca2+  Ca37  1  0.41926108  0.17209088  0.49964295  1
  Ca2+  Ca38  1  0.42500816  0.17812079  0.83029634  1
  Ca2+  Ca39  1  0.42481725  0.66152457  0.16332306  1
  Ca2+  Ca40  1  0.41755005  0.66430920  0.49329970  1
  Ca2+  Ca41  1  0.42657746  0.66288331  0.83254287  1
  Ca2+  Ca42  1  0.91274338  0.18202856  0.16374209  1
  Ca2+  Ca43  1  0.91419419  0.17633759  0.49303027  1
  Ca2+  Ca44  1  0.91623306  0.17576149  0.83311404  1
  Ca2+  Ca45  1  0.92051942  0.67036134  0.16195602  1
  Ca2+  Ca46  1  0.92361890  0.66148691  0.49237754  1
  Ca2+  Ca47  1  0.92382369  0.65663327  0.83256568  1
  Al0+  Al48  1  -0.00198274  -0.00020554  -0.00071539  1
  Al0+  Al49  1  -0.00011727  0.00040403  0.33447477  1
  Al0+  Al50  1  -0.00085252  -0.00114173  0.66694784  1
  Al0+  Al51  1  0.00003156  0.50036678  0.00203156  1
  Al0+  Al52  1  0.00115966  0.49986655  0.32756175  1
  Al0+  Al53  1  0.00238029  0.50057082  0.66772605  1
  Al0+  Al54  1  0.49886447  0.00038555  -0.00157452  1
  Al0+  Al55  1  0.50003170  0.00098629  0.34026902  1
  Al0+  Al56  1  0.49939128  0.00106195  0.66764726  1
  Al0+  Al57  1  0.49794362  0.50022229  -0.00986505  1
  Al0+  Al58  1  0.49861850  0.49878894  0.33941269  1
  Al0+  Al59  1  0.49923076  0.50156307  0.66386775  1
  Al0+  Al60  1  0.24977857  0.24851494  0.00414388  1
  Al0+  Al61  1  0.25212913  0.25052254  0.33691757  1
  Al0+  Al62  1  0.25107917  0.24932522  0.66668699  1
  Al0+  Al63  1  0.24884131  0.74970707  -0.00251918  1
  Al0+  Al64  1  0.25104513  0.75113388  0.33677403  1
  Al0+  Al65  1  0.24983892  0.75046977  0.66440156  1
  Al0+  Al66  1  0.75067919  0.24705521  -0.00858927  1
  Al0+  Al67  1  0.74841397  0.24752066  0.33009684  1
  Al0+  Al68  1  0.75036869  0.24798307  0.66475533  1
  Al0+  Al69  1  0.74890183  0.75148788  -0.00249888  1
  Al0+  Al70  1  0.75026742  0.74849786  0.33811540  1
  Al0+  Al71  1  0.75025123  0.75177938  0.67513350  1
  Al0+  Al72  1  0.82143686  0.56944500  0.68289466  1
  Al0+  Al73  1  0.07382501  0.67864773  0.31650642  1
  Al0+  Al74  1  0.67835945  0.42626094  0.34457173  1
  Al0+  Al75  1  0.67882846  0.93141664  0.68321073  1
  Al0+  Al76  1  0.81924376  0.57100560  0.01611260  1
  Al0+  Al77  1  0.57136221  0.17933456  0.64715276  1
  Al0+  Al78  1  0.17672158  0.92908555  0.34898338  1
  Al0+  Al79  1  0.92764458  0.82289887  0.98364775  1
  Al0+  Al80  1  0.57114492  0.17778431  0.98520032  1
  Al0+  Al81  1  0.18055509  0.42926998  0.01544179  1
  Al0+  Al82  1  0.93012431  0.32174938  0.98545873  1
  Al0+  Al83  1  0.32117644  0.57116171  0.34544324  1
  Al0+  Al84  1  0.32186695  0.07302391  0.35034982  1
  Al0+  Al85  1  0.07110180  0.67899618  0.98326622  1
  Al0+  Al86  1  0.67776264  0.42670644  0.68221916  1
  Al0+  Al87  1  0.82331528  0.56997959  0.34708572  1
  Al0+  Al88  1  0.42708810  0.32155849  0.98597915  1
  Al0+  Al89  1  0.68077758  0.92873561  0.34478733  1
  Al0+  Al90  1  0.18215251  0.42956909  0.67942991  1
  Al0+  Al91  1  0.42775620  0.32261243  0.64774482  1
  Al0+  Al92  1  0.57113515  0.67895858  0.98762886  1
  Al0+  Al93  1  0.92628530  0.82093293  0.31946497  1
  Al0+  Al94  1  0.92860538  0.31965929  0.32024279  1
  Al0+  Al95  1  0.06986751  0.67894309  0.65110225  1
  Si0+  Si96  1  0.56955807  0.67793045  0.32141342  1
  Si0+  Si97  1  0.17824902  0.92832023  0.68320195  1
  Si0+  Si98  1  0.67654847  0.42604419  0.01246674  1
  Si0+  Si99  1  0.42909705  0.82125569  0.65098027  1
  Si0+  Si100  1  0.56890114  0.17769518  0.31779664  1
  Si0+  Si101  1  0.82191186  0.07327055  0.34829762  1
  Si0+  Si102  1  0.17745357  0.92800788  0.01427185  1
  Si0+  Si103  1  0.67801386  0.93122264  0.01556432  1
  Si0+  Si104  1  0.93146114  0.32005866  0.65221030  1
  Si0+  Si105  1  0.57298656  0.68091315  0.65023064  1
  Si0+  Si106  1  0.32360787  0.57463402  0.01555948  1
  Si0+  Si107  1  0.42875332  0.32240828  0.31782186  1
  Si0+  Si108  1  0.31906844  0.06970519  0.68446482  1
  Si0+  Si109  1  0.07149482  0.17781048  0.98597422  1
  Si0+  Si110  1  0.07170466  0.17546609  0.65274879  1
  Si0+  Si111  1  0.32024078  0.06833970  0.01520906  1
  Si0+  Si112  1  0.82265012  0.07203292  0.01614317  1
  Si0+  Si113  1  0.17832144  0.42887318  0.34890971  1
  Si0+  Si114  1  0.92779204  0.82317844  0.64924657  1
  Si0+  Si115  1  0.43098603  0.82296990  0.32042298  1
  Si0+  Si116  1  0.82457618  0.07234477  0.68449095  1
  Si0+  Si117  1  0.07473322  0.17846606  0.31801448  1
  Si0+  Si118  1  0.42783000  0.82240795  0.98528229  1
  Si0+  Si119  1  0.32243107  0.57556455  0.68421028  1
  O2-  O120  1  0.24920077  -0.00217372  0.05725244  1
  O2-  O121  1  0.24677106  0.00347266  0.39948595  1
  O2-  O122  1  0.24690892  0.00026111  0.72810215  1
  O2-  O123  1  0.25633657  0.50447718  0.05939392  1
  O2-  O124  1  0.24371762  0.50030550  0.39285002  1
  O2-  O125  1  0.25829202  0.50259202  0.72743341  1
  O2-  O126  1  0.74993698  0.00153866  0.05687281  1
  O2-  O127  1  0.75915886  -0.00081392  0.39200404  1
  O2-  O128  1  0.75322993  0.00664280  0.72928673  1
  O2-  O129  1  0.74345136  0.49477789  0.05942842  1
  O2-  O130  1  0.75340869  0.49475341  0.39457036  1
  O2-  O131  1  0.74817521  0.49877935  0.73379171  1
  O2-  O132  1  0.00524392  0.24574956  0.27367301  1
  O2-  O133  1  0.00128910  0.24677578  0.61075551  1
  O2-  O134  1  0.00702616  0.24849645  0.93902723  1
  O2-  O135  1  -0.00057500  0.75025142  0.26936083  1
  O2-  O136  1  -0.00554246  0.75309859  0.60567347  1
  O2-  O137  1  -0.00354615  0.74855111  0.93317290  1
  O2-  O138  1  0.50005125  0.25106360  0.27618238  1
  O2-  O139  1  0.50511215  0.25649653  0.59649539  1
  O2-  O140  1  0.50587395  0.25646757  0.93675015  1
  O2-  O141  1  0.49973883  0.75032647  0.27792005  1
  O2-  O142  1  0.49961097  0.75020415  0.60816119  1
  O2-  O143  1  0.49416167  0.75220930  0.94069735  1
  O2-  O144  1  0.06963554  0.17573220  0.09125785  1
  O2-  O145  1  0.07468999  0.18034502  0.42401816  1
  O2-  O146  1  0.07060812  0.17198982  0.75777757  1
  O2-  O147  1  0.07497567  0.68300681  0.09615430  1
  O2-  O148  1  0.07351596  0.67927545  0.43031710  1
  O2-  O149  1  0.07116488  0.68056814  0.76390769  1
  O2-  O150  1  0.56707029  0.17341800  0.09922564  1
  O2-  O151  1  0.56869155  0.17595400  0.42233229  1
  O2-  O152  1  0.56499961  0.17644150  0.76045202  1
  O2-  O153  1  0.57031332  0.68142906  0.10126809  1
  O2-  O154  1  0.56728375  0.67984594  0.42647968  1
  O2-  O155  1  0.57137956  0.68333450  0.75554890  1
  O2-  O156  1  0.18151201  0.42592940  0.24349422  1
  O2-  O157  1  0.18041944  0.43014423  0.56634929  1
  O2-  O158  1  0.18236348  0.42883020  0.90229396  1
  O2-  O159  1  0.18125105  0.93078639  0.23481349  1
  O2-  O160  1  0.17984784  0.93036039  0.57867513  1
  O2-  O161  1  0.17984169  0.93074153  0.90869719  1
  O2-  O162  1  0.67541035  0.42822197  0.23067746  1
  O2-  O163  1  0.68287799  0.42839149  0.56862770  1
  O2-  O164  1  0.67908589  0.42827541  0.90723300  1
  O2-  O165  1  0.67626268  0.93167984  0.23161602  1
  O2-  O166  1  0.67955419  0.93094867  0.57005128  1
  O2-  O167  1  0.67543380  0.93342019  0.91066714  1
  O2-  O168  1  0.42710540  0.31843191  0.10024669  1
  O2-  O169  1  0.42784618  0.32211292  0.42236238  1
  O2-  O170  1  0.42420115  0.31541308  0.76104953  1
  O2-  O171  1  0.42942743  0.82559086  0.09080550  1
  O2-  O172  1  0.43294953  0.82361636  0.42566867  1
  O2-  O173  1  0.42763855  0.82085794  0.75639504  1
  O2-  O174  1  0.92954143  0.31932791  0.09850324  1
  O2-  O175  1  0.93027126  0.31741068  0.43388261  1
  O2-  O176  1  0.93339244  0.31930201  0.75727735  1
  O2-  O177  1  0.93007319  0.82533656  0.09685888  1
  O2-  O178  1  0.92577127  0.81904452  0.43311317  1
  O2-  O179  1  0.93163177  0.82825285  0.75450543  1
  O2-  O180  1  0.32280012  0.07024908  0.23614299  1
  O2-  O181  1  0.31757924  0.06816716  0.57969817  1
  O2-  O182  1  0.31915195  0.06603061  0.90988384  1
  O2-  O183  1  0.32686150  0.56714680  0.23259340  1
  O2-  O184  1  0.31915114  0.57859946  0.57852694  1
  O2-  O185  1  0.32259819  0.57947923  0.91041389  1
  O2-  O186  1  0.81730415  0.07700248  0.24273869  1
  O2-  O187  1  0.82825899  0.07074002  0.57903204  1
  O2-  O188  1  0.82711975  0.07078623  0.91138295  1
  O2-  O189  1  0.81969455  0.57113154  0.23340029  1
  O2-  O190  1  0.82248148  0.56776490  0.56939176  1
  O2-  O191  1  0.81918879  0.56934899  0.90314877  1
  O2-  O192  1  0.05213982  0.08388206  0.27318157  1
  O2-  O193  1  0.04383883  0.08416124  0.60364913  1
  O2-  O194  1  0.04342362  0.08584552  0.93738817  1
  O2-  O195  1  0.04921167  0.57976526  0.26376829  1
  O2-  O196  1  0.04063449  0.58181314  0.59762514  1
  O2-  O197  1  0.04258997  0.58020921  0.93246274  1
  O2-  O198  1  0.53726229  0.08650216  0.27080307  1
  O2-  O199  1  0.53580979  0.08125679  0.59640571  1
  O2-  O200  1  0.53416048  0.08213721  0.93077415  1
  O2-  O201  1  0.53841154  0.58719380  0.27414183  1
  O2-  O202  1  0.54756115  0.58897190  0.60270241  1
  O2-  O203  1  0.54243428  0.58469535  0.92838086  1
  O2-  O204  1  0.16893807  0.20380116  0.27243300  1
  O2-  O205  1  0.16359634  0.20215179  0.60611053  1
  O2-  O206  1  0.16664599  0.19858061  0.94141144  1
  O2-  O207  1  0.17325110  0.70925787  0.26579978  1
  O2-  O208  1  0.16715606  0.71148705  0.59894465  1
  O2-  O209  1  0.16931752  0.70911546  0.92929002  1
  O2-  O210  1  0.66105462  0.20094440  0.26909705  1
  O2-  O211  1  0.67365820  0.19808173  0.59730796  1
  O2-  O212  1  0.67156556  0.19314855  0.93247160  1
  O2-  O213  1  0.66113114  0.70589427  0.27476655  1
  O2-  O214  1  0.66433737  0.71334173  0.60545990  1
  O2-  O215  1  0.66371268  0.71514456  0.93051618  1
  O2-  O216  1  0.08445860  0.46048815  0.06912607  1
  O2-  O217  1  0.08364702  0.45102273  0.39291545  1
  O2-  O218  1  0.08677787  0.46208721  0.73413450  1
  O2-  O219  1  0.08647690  0.95789664  0.06104247  1
  O2-  O220  1  0.07838128  0.95578376  0.40312764  1
  O2-  O221  1  0.08602623  0.95565808  0.72998479  1
  O2-  O222  1  0.58024585  0.44992095  0.05414291  1
  O2-  O223  1  0.58248600  0.45669614  0.40073441  1
  O2-  O224  1  0.57656060  0.45324002  0.72995839  1
  O2-  O225  1  0.58575298  0.95959212  0.06290428  1
  O2-  O226  1  0.58671543  0.96249384  0.40192062  1
  O2-  O227  1  0.58113338  0.96139279  0.73649131  1
  O2-  O228  1  0.20894125  0.33160896  0.06987414  1
  O2-  O229  1  0.20558247  0.33636587  0.39645213  1
  O2-  O230  1  0.20897629  0.33112089  0.73332868  1
  O2-  O231  1  0.20567931  0.83645176  0.06085639  1
  O2-  O232  1  0.21063879  0.83373716  0.40375377  1
  O2-  O233  1  0.21034531  0.83785062  0.73054656  1
  O2-  O234  1  0.70122515  0.33022306  0.05483730  1
  O2-  O235  1  0.70376497  0.32647705  0.39592636  1
  O2-  O236  1  0.70377771  0.32599113  0.73134507  1
  O2-  O237  1  0.70376285  0.83900095  0.06212410  1
  O2-  O238  1  0.70635326  0.83249599  0.40185399  1
  O2-  O239  1  0.70876162  0.83613524  0.73964881  1
  O2-  O240  1  0.45677856  0.41415182  0.27064825  1
  O2-  O241  1  0.44596881  0.42529734  0.59935647  1
  O2-  O242  1  0.44201564  0.42169892  0.93245162  1
  O2-  O243  1  0.46090939  0.91413444  0.27262182  1
  O2-  O244  1  0.45736624  0.91286680  0.60438728  1
  O2-  O245  1  0.45582180  0.91403986  0.93612569  1
  O2-  O246  1  0.95925323  0.41461634  0.26416184  1
  O2-  O247  1  0.96340942  0.40994773  0.60464975  1
  O2-  O248  1  0.96231771  0.41703672  0.93161113  1
  O2-  O249  1  0.95050358  0.92252268  0.26958984  1
  O2-  O250  1  0.95406972  0.91658243  0.60236918  1
  O2-  O251  1  0.95837286  0.92091786  0.92988369  1
  O2-  O252  1  0.33662347  0.29395833  0.27089841  1
  O2-  O253  1  0.33072991  0.28630574  0.59518139  1
  O2-  O254  1  0.33109033  0.28296886  0.93380016  1
  O2-  O255  1  0.33852272  0.79839569  0.27382676  1
  O2-  O256  1  0.33739049  0.79465719  0.60266853  1
  O2-  O257  1  0.33392158  0.80040718  0.93839062  1
  O2-  O258  1  0.83330666  0.28571915  0.26477076  1
  O2-  O259  1  0.83997132  0.29267058  0.60455028  1
  O2-  O260  1  0.83610053  0.28815121  0.92868770  1
  O2-  O261  1  0.82686691  0.79301735  0.26711064  1
  O2-  O262  1  0.83166959  0.79917732  0.60874890  1
  O2-  O263  1  0.82729534  0.80117956  0.93316586  1
  O2-  O264  1  0.41138349  0.03883948  0.06304448  1
  O2-  O265  1  0.41673702  0.03930078  0.40609141  1
  O2-  O266  1  0.40918275  0.03775570  0.73189445  1
  O2-  O267  1  0.41878766  0.54999645  0.05951995  1
  O2-  O268  1  0.41453363  0.53836565  0.40454899  1
  O2-  O269  1  0.41869795  0.55597405  0.72631095  1
  O2-  O270  1  0.91347280  0.04395426  0.06571967  1
  O2-  O271  1  0.91790514  0.05727088  0.39256041  1
  O2-  O272  1  0.91716078  0.04417253  0.73291530  1
  O2-  O273  1  0.91579856  0.53989624  0.06853131  1
  O2-  O274  1  0.92267991  0.54186139  0.39744679  1
  O2-  O275  1  0.91903792  0.53729037  0.73501478  1
  O2-  O276  1  0.29323669  0.15896429  0.06438285  1
  O2-  O277  1  0.29557423  0.17135791  0.40422222  1
  O2-  O278  1  0.29074124  0.16076872  0.73213141  1
  O2-  O279  1  0.29779523  0.66839669  0.06284192  1
  O2-  O280  1  0.29766955  0.66901519  0.40017462  1
  O2-  O281  1  0.29473278  0.66846238  0.73121338  1
  O2-  O282  1  0.79447584  0.16437244  0.06271572  1
  O2-  O283  1  0.78973971  0.16317611  0.39779678  1
  O2-  O284  1  0.80243060  0.16695612  0.72914609  1
  O2-  O285  1  0.78628831  0.66890455  0.06649426  1
  O2-  O286  1  0.79169615  0.66564949  0.40260250  1
  O2-  O287  1  0.79420460  0.66811488  0.73587496  1
