# generated using pymatgen
data_Ca2Al2SiO7
_symmetry_space_group_name_H-M   'P 1'
_cell_length_a   15.46292528
_cell_length_b   15.46515101
_cell_length_c   15.28834204
_cell_angle_alpha   90.01374823
_cell_angle_beta   89.99298773
_cell_angle_gamma   89.97293633
_symmetry_Int_Tables_number   1
_chemical_formula_structural   Ca2Al2SiO7
_chemical_formula_sum   'Ca48 Al48 Si24 O168'
_cell_volume   3655.99967601
_cell_formula_units_Z   24
loop_
 _symmetry_equiv_pos_site_id
 _symmetry_equiv_pos_as_xyz
  1  'x, y, z'
loop_
 _atom_type_symbol
 _atom_type_oxidation_number
  Ca2+  2.0
  Al0+  0.0
  Si0+  0.0
  O2-  -2.0
loop_
 _atom_site_type_symbol
 _atom_site_label
 _atom_site_symmetry_multiplicity
 _atom_site_fract_x
 _atom_site_fract_y
 _atom_site_fract_z
 _atom_site_occupancy
  Ca2+  Ca0  1  0.17443852  0.06918191  0.16693841  1
  Ca2+  Ca1  1  0.16208996  0.07207298  0.50715814  1
  Ca2+  Ca2  1  0.16708533  0.07170066  0.83861556  1
  Ca2+  Ca3  1  0.16746440  0.58560842  0.17247554  1
  Ca2+  Ca4  1  0.15839017  0.58172728  0.50959962  1
  Ca2+  Ca5  1  0.16212049  0.57735357  0.83071795  1
  Ca2+  Ca6  1  0.67145112  0.07805100  0.17168076  1
  Ca2+  Ca7  1  0.66545237  0.07819951  0.50374902  1
  Ca2+  Ca8  1  0.67245299  0.08793713  0.83562620  1
  Ca2+  Ca9  1  0.67137384  0.59112878  0.16596315  1
  Ca2+  Ca10  1  0.67490626  0.58584949  0.51169503  1
  Ca2+  Ca11  1  0.67490613  0.59453938  0.83655941  1
  Ca2+  Ca12  1  0.07636837  0.33207865  0.16495971  1
  Ca2+  Ca13  1  0.07644658  0.33419864  0.50233709  1
  Ca2+  Ca14  1  0.08029195  0.32388917  0.81965085  1
  Ca2+  Ca15  1  0.08594692  0.83552219  0.16781889  1
  Ca2+  Ca16  1  0.07727945  0.83082591  0.49399772  1
  Ca2+  Ca17  1  0.07935937  0.83300138  0.82173005  1
  Ca2+  Ca18  1  0.57594820  0.33062896  0.15822149  1
  Ca2+  Ca19  1  0.58261688  0.32787763  0.50327883  1
  Ca2+  Ca20  1  0.57146606  0.32663082  0.82582349  1
  Ca2+  Ca21  1  0.57457855  0.83623958  0.16128427  1
  Ca2+  Ca22  1  0.57437283  0.83295349  0.49713690  1
  Ca2+  Ca23  1  0.57378878  0.82847697  0.82703653  1
  Ca2+  Ca24  1  0.33519092  0.41872956  0.16942581  1
  Ca2+  Ca25  1  0.32656561  0.42113582  0.51244872  1
  Ca2+  Ca26  1  0.33039320  0.40853353  0.83549410  1
  Ca2+  Ca27  1  0.32866518  0.90993553  0.17092788  1
  Ca2+  Ca28  1  0.32420733  0.90838518  0.50587036  1
  Ca2+  Ca29  1  0.32448307  0.91239013  0.83812081  1
  Ca2+  Ca30  1  0.83490753  0.42313345  0.17088991  1
  Ca2+  Ca31  1  0.84104557  0.42173579  0.51009685  1
  Ca2+  Ca32  1  0.83773765  0.42997954  0.83562743  1
  Ca2+  Ca33  1  0.82800785  0.91928201  0.17352932  1
  Ca2+  Ca34  1  0.82934655  0.90457948  0.50366953  1
  Ca2+  Ca35  1  0.83436987  0.92156809  0.83885313  1
  Ca2+  Ca36  1  0.41305132  0.16975868  0.15802430  1
  Ca2+  Ca37  1  0.41818915  0.16867459  0.50434493  1
  Ca2+  Ca38  1  0.41313017  0.17218143  0.82751557  1
  Ca2+  Ca39  1  0.42301239  0.68017278  0.15859901  1
  Ca2+  Ca40  1  0.41431472  0.67928287  0.50017638  1
  Ca2+  Ca41  1  0.42712339  0.67550442  0.82835286  1
  Ca2+  Ca42  1  0.91298965  0.16945193  0.16281277  1
  Ca2+  Ca43  1  0.92214168  0.17614593  0.49983331  1
  Ca2+  Ca44  1  0.92167160  0.16938127  0.82243967  1
  Ca2+  Ca45  1  0.92033860  0.67167281  0.16646538  1
  Ca2+  Ca46  1  0.92533628  0.67324815  0.50172270  1
  Ca2+  Ca47  1  0.91779710  0.67064367  0.82353525  1
  Al0+  Al48  1  0.00020304  0.00051362  0.00995647  1
  Al0+  Al49  1  0.00125316  0.00223126  0.33277838  1
  Al0+  Al50  1  -0.00193742  0.00071446  0.66251673  1
  Al0+  Al51  1  -0.00179166  0.50053306  0.00611320  1
  Al0+  Al52  1  0.00040495  0.49858722  0.32519457  1
  Al0+  Al53  1  -0.00014202  0.50092521  0.67155902  1
  Al0+  Al54  1  0.49985463  0.00191578  -0.00231105  1
  Al0+  Al55  1  0.50188118  0.00145359  0.33329642  1
  Al0+  Al56  1  0.49951306  0.00043704  0.66109257  1
  Al0+  Al57  1  0.49976113  0.49855737  -0.00755765  1
  Al0+  Al58  1  0.50070901  0.49943622  0.33541739  1
  Al0+  Al59  1  0.50114260  0.49961434  0.66128773  1
  Al0+  Al60  1  0.24645667  0.24755449  0.00204371  1
  Al0+  Al61  1  0.24982008  0.25056624  0.33372797  1
  Al0+  Al62  1  0.24956366  0.24881278  0.66151253  1
  Al0+  Al63  1  0.24876646  0.74545146  -0.00003545  1
  Al0+  Al64  1  0.25220447  0.74943021  0.32990192  1
  Al0+  Al65  1  0.25060850  0.74719625  0.66775644  1
  Al0+  Al66  1  0.74946537  0.25338934  0.00426048  1
  Al0+  Al67  1  0.74968612  0.25114052  0.32906743  1
  Al0+  Al68  1  0.74812539  0.25084191  0.66067219  1
  Al0+  Al69  1  0.75303728  0.75031563  0.00370575  1
  Al0+  Al70  1  0.75225220  0.74921759  0.33553906  1
  Al0+  Al71  1  0.74918585  0.75023098  0.66672436  1
  Al0+  Al72  1  0.18121777  0.92901745  0.34929081  1
  Al0+  Al73  1  0.42696311  0.32149644  0.65047902  1
  Al0+  Al74  1  0.57341657  0.68049630  0.98572690  1
  Al0+  Al75  1  0.92957360  0.32210564  0.65549099  1
  Al0+  Al76  1  0.17792296  0.92780619  0.67869114  1
  Al0+  Al77  1  0.07204732  0.17640480  0.65215071  1
  Al0+  Al78  1  0.42795812  0.82071787  0.65160509  1
  Al0+  Al79  1  0.07084232  0.67922878  0.65603465  1
  Al0+  Al80  1  0.32153385  0.07144763  0.01299565  1
  Al0+  Al81  1  0.68037673  0.92931961  0.34783018  1
  Al0+  Al82  1  0.92828618  0.82356152  0.65454100  1
  Al0+  Al83  1  0.82111832  0.57205256  0.01727277  1
  Al0+  Al84  1  0.42655384  0.31876043  0.98721598  1
  Al0+  Al85  1  0.57186941  0.17821782  0.65115068  1
  Al0+  Al86  1  0.42651408  0.82350635  0.98395450  1
  Al0+  Al87  1  0.07111744  0.67962801  0.31726426  1
  Al0+  Al88  1  0.82062391  0.07342352  0.01266317  1
  Al0+  Al89  1  0.57302798  0.67935540  0.65121203  1
  Al0+  Al90  1  0.43143191  0.82124222  0.31878666  1
  Al0+  Al91  1  0.18009336  0.42885161  0.68015882  1
  Al0+  Al92  1  0.18015774  0.92471112  0.01561860  1
  Al0+  Al93  1  0.92798568  0.82270936  0.31626283  1
  Al0+  Al94  1  0.81899261  0.57043190  0.68048121  1
  Al0+  Al95  1  0.92961025  0.31931275  0.31735787  1
  Si0+  Si96  1  0.82166046  0.07479023  0.35151177  1
  Si0+  Si97  1  0.17890139  0.42920583  0.34780333  1
  Si0+  Si98  1  0.92816077  0.32263765  0.98509181  1
  Si0+  Si99  1  0.06701038  0.17915208  0.98660422  1
  Si0+  Si100  1  0.67618126  0.42577566  0.68424241  1
  Si0+  Si101  1  0.17821946  0.42813245  0.01644855  1
  Si0+  Si102  1  0.57284047  0.67579746  0.31783922  1
  Si0+  Si103  1  0.67886194  0.92869280  0.01469635  1
  Si0+  Si104  1  0.07442258  0.17788994  0.31304634  1
  Si0+  Si105  1  0.42881119  0.32179691  0.31828190  1
  Si0+  Si106  1  0.82189120  0.56820951  0.34962728  1
  Si0+  Si107  1  0.32203489  0.56957901  0.34765974  1
  Si0+  Si108  1  0.67804717  0.42798876  0.34891083  1
  Si0+  Si109  1  0.32229832  0.56779401  0.01462974  1
  Si0+  Si110  1  0.67776469  0.92973243  0.68188527  1
  Si0+  Si111  1  0.57454571  0.17875488  0.98497479  1
  Si0+  Si112  1  0.32266257  0.07057622  0.68165096  1
  Si0+  Si113  1  0.32505615  0.57135879  0.68536469  1
  Si0+  Si114  1  0.81927450  0.07288643  0.67880570  1
  Si0+  Si115  1  0.93201898  0.82217085  0.98717696  1
  Si0+  Si116  1  0.07018356  0.67592072  0.98440800  1
  Si0+  Si117  1  0.67679346  0.42958861  0.01697990  1
  Si0+  Si118  1  0.57031096  0.18029082  0.31598915  1
  Si0+  Si119  1  0.32319293  0.07458072  0.35171965  1
  O2-  O120  1  0.25886195  -0.00846698  0.06387507  1
  O2-  O121  1  0.25565017  0.00492808  0.39522638  1
  O2-  O122  1  0.25378361  0.00189708  0.72527935  1
  O2-  O123  1  0.25084423  0.49740224  0.05885626  1
  O2-  O124  1  0.24894217  0.50065130  0.38965373  1
  O2-  O125  1  0.25799532  0.49969808  0.72872004  1
  O2-  O126  1  0.74428798  0.00066403  0.05916758  1
  O2-  O127  1  0.75904649  0.00057739  0.39557239  1
  O2-  O128  1  0.74968433  0.00098179  0.72257379  1
  O2-  O129  1  0.74345655  0.49944137  0.06304825  1
  O2-  O130  1  0.74845913  0.49910121  0.39111604  1
  O2-  O131  1  0.74282608  0.49651523  0.72810253  1
  O2-  O132  1  0.00225867  0.24355653  0.26871021  1
  O2-  O133  1  0.00178225  0.25140897  0.60419724  1
  O2-  O134  1  -0.00509527  0.24848609  0.94324068  1
  O2-  O135  1  0.00237472  0.75367654  0.26491773  1
  O2-  O136  1  0.00504600  0.75611377  0.60592186  1
  O2-  O137  1  0.00378205  0.75212443  0.94475352  1
  O2-  O138  1  0.49747239  0.24980940  0.27431691  1
  O2-  O139  1  0.49993787  0.25037307  0.60073071  1
  O2-  O140  1  0.49984491  0.24180890  0.94276068  1
  O2-  O141  1  0.50831504  0.74779076  0.27321374  1
  O2-  O142  1  0.49970230  0.74879642  0.60061397  1
  O2-  O143  1  0.50237708  0.75379368  0.93685164  1
  O2-  O144  1  0.06617688  0.18268113  0.09175811  1
  O2-  O145  1  0.07581788  0.18060043  0.41817049  1
  O2-  O146  1  0.06874225  0.17596660  0.76655444  1
  O2-  O147  1  0.06879934  0.67282743  0.08943578  1
  O2-  O148  1  0.06827716  0.67538999  0.43009034  1
  O2-  O149  1  0.06708124  0.67847773  0.77010639  1
  O2-  O150  1  0.57730960  0.18256053  0.09087990  1
  O2-  O151  1  0.57158937  0.18184188  0.42056593  1
  O2-  O152  1  0.57360623  0.17947752  0.76485924  1
  O2-  O153  1  0.57132978  0.68123134  0.10003466  1
  O2-  O154  1  0.56971156  0.67251652  0.42274785  1
  O2-  O155  1  0.57386735  0.68403231  0.76470520  1
  O2-  O156  1  0.18178650  0.42780461  0.24212609  1
  O2-  O157  1  0.17916645  0.43238733  0.56663232  1
  O2-  O158  1  0.17624773  0.42799626  0.91175362  1
  O2-  O159  1  0.18443565  0.92959212  0.23611100  1
  O2-  O160  1  0.17817002  0.92890216  0.56561077  1
  O2-  O161  1  0.17453644  0.92799348  0.90224995  1
  O2-  O162  1  0.67598375  0.42847546  0.24371502  1
  O2-  O163  1  0.67857128  0.42518549  0.57817429  1
  O2-  O164  1  0.67960579  0.42561371  0.91219335  1
  O2-  O165  1  0.67886556  0.93400947  0.23432753  1
  O2-  O166  1  0.67832263  0.93005506  0.57674223  1
  O2-  O167  1  0.68216511  0.92786000  0.90910971  1
  O2-  O168  1  0.42905565  0.31978898  0.10123715  1
  O2-  O169  1  0.42969547  0.32276148  0.42250486  1
  O2-  O170  1  0.42675762  0.31752037  0.76426983  1
  O2-  O171  1  0.42852710  0.82023732  0.09798866  1
  O2-  O172  1  0.43022674  0.81884198  0.43123046  1
  O2-  O173  1  0.42910534  0.82091451  0.76503244  1
  O2-  O174  1  0.93070224  0.32268383  0.09048948  1
  O2-  O175  1  0.93135301  0.32085744  0.42991670  1
  O2-  O176  1  0.93009882  0.31938982  0.76956838  1
  O2-  O177  1  0.93112311  0.82119149  0.09209538  1
  O2-  O178  1  0.92665987  0.81778980  0.42922257  1
  O2-  O179  1  0.92745970  0.82444739  0.76893322  1
  O2-  O180  1  0.32172926  0.07797537  0.24612872  1
  O2-  O181  1  0.32306398  0.06958698  0.57586873  1
  O2-  O182  1  0.31384487  0.07781841  0.90027902  1
  O2-  O183  1  0.32448254  0.56507121  0.24216819  1
  O2-  O184  1  0.32398567  0.57088553  0.57933669  1
  O2-  O185  1  0.32089706  0.56687045  0.91008700  1
  O2-  O186  1  0.81579222  0.07736050  0.24552087  1
  O2-  O187  1  0.81743342  0.07498740  0.57405019  1
  O2-  O188  1  0.82149741  0.07308423  0.89931563  1
  O2-  O189  1  0.82020443  0.56688841  0.24413010  1
  O2-  O190  1  0.81982128  0.56805189  0.56708623  1
  O2-  O191  1  0.82496575  0.57051702  0.90476801  1
  O2-  O192  1  0.05171808  0.08394460  0.26729512  1
  O2-  O193  1  0.03796031  0.08263724  0.59504151  1
  O2-  O194  1  0.03970776  0.08624970  0.94189433  1
  O2-  O195  1  0.04145492  0.58209662  0.26147480  1
  O2-  O196  1  0.03701487  0.58312610  0.60257723  1
  O2-  O197  1  0.03703818  0.58491710  0.93851622  1
  O2-  O198  1  0.54432010  0.08878311  0.26785720  1
  O2-  O199  1  0.54344388  0.08164344  0.59523242  1
  O2-  O200  1  0.55832842  0.08336605  0.94032661  1
  O2-  O201  1  0.54403714  0.58288259  0.27044152  1
  O2-  O202  1  0.55214036  0.57892529  0.60011383  1
  O2-  O203  1  0.54571296  0.58214748  0.93301307  1
  O2-  O204  1  0.16664151  0.20950932  0.26643290  1
  O2-  O205  1  0.16933177  0.20146120  0.59740732  1
  O2-  O206  1  0.15746607  0.20922203  0.93925431  1
  O2-  O207  1  0.17095784  0.70385305  0.26460502  1
  O2-  O208  1  0.17155079  0.69639865  0.60517398  1
  O2-  O209  1  0.16425118  0.69507130  0.93901264  1
  O2-  O210  1  0.66073488  0.21052101  0.26705220  1
  O2-  O211  1  0.66773967  0.20783106  0.59348628  1
  O2-  O212  1  0.66595585  0.21137228  0.93778301  1
  O2-  O213  1  0.66841860  0.69767506  0.27517635  1
  O2-  O214  1  0.66941053  0.71033348  0.59694358  1
  O2-  O215  1  0.67366235  0.70793518  0.93613903  1
  O2-  O216  1  0.08801280  0.45887221  0.06611036  1
  O2-  O217  1  0.08578312  0.45660482  0.39186919  1
  O2-  O218  1  0.08584615  0.46166884  0.73794502  1
  O2-  O219  1  0.08554404  0.96110416  0.07236513  1
  O2-  O220  1  0.08253389  0.95957364  0.39974027  1
  O2-  O221  1  0.08032207  0.96036666  0.73121015  1
  O2-  O222  1  0.58160486  0.45301669  0.06182735  1
  O2-  O223  1  0.58593556  0.45363294  0.39726036  1
  O2-  O224  1  0.58069014  0.44777000  0.72786792  1
  O2-  O225  1  0.58398663  0.95165214  0.05943379  1
  O2-  O226  1  0.58510810  0.96478966  0.40199804  1
  O2-  O227  1  0.58620541  0.95951323  0.72864363  1
  O2-  O228  1  0.20379560  0.33648081  0.06528077  1
  O2-  O229  1  0.20683251  0.33756004  0.39505511  1
  O2-  O230  1  0.20806093  0.32988863  0.73213910  1
  O2-  O231  1  0.20196019  0.82358469  0.06703192  1
  O2-  O232  1  0.21269697  0.83072638  0.39936719  1
  O2-  O233  1  0.20718561  0.83060497  0.73279408  1
  O2-  O234  1  0.70404595  0.33790193  0.06766234  1
  O2-  O235  1  0.70596154  0.33553811  0.39451183  1
  O2-  O236  1  0.70259290  0.33200649  0.72975156  1
  O2-  O237  1  0.70849487  0.83790354  0.06391975  1
  O2-  O238  1  0.70726759  0.83095556  0.40091556  1
  O2-  O239  1  0.70631038  0.83908776  0.73028466  1
  O2-  O240  1  0.45904073  0.41312951  0.27027491  1
  O2-  O241  1  0.45361981  0.41961081  0.59678335  1
  O2-  O242  1  0.45693525  0.41351070  0.93092754  1
  O2-  O243  1  0.46096497  0.91919743  0.26645315  1
  O2-  O244  1  0.45560793  0.91819184  0.59794528  1
  O2-  O245  1  0.45011780  0.92384681  0.93306323  1
  O2-  O246  1  0.96326944  0.41314569  0.25945616  1
  O2-  O247  1  0.96081730  0.41895205  0.60260220  1
  O2-  O248  1  0.96020137  0.41392853  0.94017459  1
  O2-  O249  1  0.95117854  0.92436315  0.26724027  1
  O2-  O250  1  0.94856376  0.92171309  0.59920106  1
  O2-  O251  1  0.95819348  0.91560885  0.94231533  1
  O2-  O252  1  0.33581227  0.29660769  0.27131122  1
  O2-  O253  1  0.33035467  0.29304944  0.59462998  1
  O2-  O254  1  0.32823476  0.28990500  0.93594229  1
  O2-  O255  1  0.33744720  0.78595205  0.26333845  1
  O2-  O256  1  0.33097110  0.78830138  0.59874400  1
  O2-  O257  1  0.32872161  0.78919398  0.93365900  1
  O2-  O258  1  0.83208087  0.29122487  0.26237089  1
  O2-  O259  1  0.83221387  0.29573969  0.60066925  1
  O2-  O260  1  0.83386105  0.30036993  0.94162784  1
  O2-  O261  1  0.82977699  0.79056309  0.26340616  1
  O2-  O262  1  0.83224340  0.79002448  0.60153164  1
  O2-  O263  1  0.84007364  0.79428595  0.94086393  1
  O2-  O264  1  0.42475955  0.05659034  0.06243108  1
  O2-  O265  1  0.41831982  0.05189927  0.39482394  1
  O2-  O266  1  0.41730585  0.04739913  0.72726231  1
  O2-  O267  1  0.41381119  0.53822229  0.06216289  1
  O2-  O268  1  0.41232276  0.53899622  0.39674478  1
  O2-  O269  1  0.42011656  0.54717973  0.72910669  1
  O2-  O270  1  0.91440242  0.04258195  0.07158542  1
  O2-  O271  1  0.91903001  0.05897194  0.39167114  1
  O2-  O272  1  0.91109362  0.04666668  0.72682946  1
  O2-  O273  1  0.91517967  0.53615163  0.07430559  1
  O2-  O274  1  0.91353843  0.53483586  0.39301319  1
  O2-  O275  1  0.91362922  0.53803707  0.73764971  1
  O2-  O276  1  0.28465206  0.16634697  0.07114356  1
  O2-  O277  1  0.29677892  0.16871819  0.39771428  1
  O2-  O278  1  0.29779270  0.16527414  0.72528007  1
  O2-  O279  1  0.29375454  0.65855163  0.06399774  1
  O2-  O280  1  0.29667127  0.66187246  0.39346350  1
  O2-  O281  1  0.29738252  0.66298175  0.73376590  1
  O2-  O282  1  0.79138989  0.17035280  0.06854098  1
  O2-  O283  1  0.78880831  0.16691296  0.39674737  1
  O2-  O284  1  0.78956883  0.16419329  0.72730463  1
  O2-  O285  1  0.79265388  0.66864319  0.07320978  1
  O2-  O286  1  0.79773943  0.66074058  0.39612770  1
  O2-  O287  1  0.78792109  0.66727260  0.73541313  1
