# generated using pymatgen
data_Ca2Al2SiO7
_symmetry_space_group_name_H-M   'P 1'
_cell_length_a   15.45454026
_cell_length_b   15.45458523
_cell_length_c   15.28122966
_cell_angle_alpha   90.00232969
_cell_angle_beta   90.00364688
_cell_angle_gamma   90.01255987
_symmetry_Int_Tables_number   1
_chemical_formula_structural   Ca2Al2SiO7
_chemical_formula_sum   'Ca48 Al48 Si24 O168'
_cell_volume   3649.82242643
_cell_formula_units_Z   24
loop_
 _symmetry_equiv_pos_site_id
 _symmetry_equiv_pos_as_xyz
  1  'x, y, z'
loop_
 _atom_type_symbol
 _atom_type_oxidation_number
  Ca2+  2.0
  Al0+  0.0
  Si0+  0.0
  O2-  -2.0
loop_
 _atom_site_type_symbol
 _atom_site_label
 _atom_site_symmetry_multiplicity
 _atom_site_fract_x
 _atom_site_fract_y
 _atom_site_fract_z
 _atom_site_occupancy
  Ca2+  Ca0  1  0.17495881  0.08270004  0.17691665  1
  Ca2+  Ca1  1  0.16994207  0.07668116  0.50038192  1
  Ca2+  Ca2  1  0.17829799  0.08170917  0.83401058  1
  Ca2+  Ca3  1  0.15432749  0.57302116  0.16800120  1
  Ca2+  Ca4  1  0.16979482  0.57138772  0.50873159  1
  Ca2+  Ca5  1  0.16664116  0.57729165  0.83874202  1
  Ca2+  Ca6  1  0.67138209  0.07868491  0.16819002  1
  Ca2+  Ca7  1  0.67639691  0.08453971  0.50016217  1
  Ca2+  Ca8  1  0.66494142  0.07648044  0.84398699  1
  Ca2+  Ca9  1  0.67178794  0.58339256  0.17660180  1
  Ca2+  Ca10  1  0.66719438  0.57805859  0.49789806  1
  Ca2+  Ca11  1  0.66544794  0.57838169  0.83636582  1
  Ca2+  Ca12  1  0.08355645  0.33122004  0.16152256  1
  Ca2+  Ca13  1  0.09264177  0.32768945  0.49281208  1
  Ca2+  Ca14  1  0.08333648  0.33899432  0.83285476  1
  Ca2+  Ca15  1  0.07337502  0.83366783  0.16173944  1
  Ca2+  Ca16  1  0.07857927  0.84046363  0.49277740  1
  Ca2+  Ca17  1  0.07572684  0.83686536  0.82609839  1
  Ca2+  Ca18  1  0.58407412  0.32678335  0.16085010  1
  Ca2+  Ca19  1  0.57748783  0.34252763  0.49741336  1
  Ca2+  Ca20  1  0.57762399  0.32644647  0.82463354  1
  Ca2+  Ca21  1  0.58918893  0.82324371  0.15962962  1
  Ca2+  Ca22  1  0.57805270  0.82478696  0.49141263  1
  Ca2+  Ca23  1  0.58598958  0.82888308  0.83427431  1
  Ca2+  Ca24  1  0.32102868  0.41664951  0.17008837  1
  Ca2+  Ca25  1  0.32520586  0.41845897  0.50810182  1
  Ca2+  Ca26  1  0.32512303  0.41553727  0.83145387  1
  Ca2+  Ca27  1  0.32876975  0.92863324  0.17429965  1
  Ca2+  Ca28  1  0.32168594  0.92515989  0.50695869  1
  Ca2+  Ca29  1  0.33152002  0.92561287  0.83919580  1
  Ca2+  Ca30  1  0.83006444  0.42312576  0.17579823  1
  Ca2+  Ca31  1  0.82201373  0.42239590  0.50194601  1
  Ca2+  Ca32  1  0.82902151  0.41377177  0.83955200  1
  Ca2+  Ca33  1  0.83253613  0.91357954  0.17141144  1
  Ca2+  Ca34  1  0.84378308  0.92075995  0.49945921  1
  Ca2+  Ca35  1  0.83144201  0.91173575  0.83794039  1
  Ca2+  Ca36  1  0.41840856  0.16292007  0.16053163  1
  Ca2+  Ca37  1  0.40720828  0.17068949  0.49835645  1
  Ca2+  Ca38  1  0.41617177  0.16613664  0.82937178  1
  Ca2+  Ca39  1  0.43041166  0.66460241  0.16259399  1
  Ca2+  Ca40  1  0.42031594  0.66012877  0.49476592  1
  Ca2+  Ca41  1  0.42148979  0.65912485  0.82873332  1
  Ca2+  Ca42  1  0.92097984  0.17032810  0.16585071  1
  Ca2+  Ca43  1  0.92526257  0.16668175  0.48923444  1
  Ca2+  Ca44  1  0.91676539  0.17461957  0.83177398  1
  Ca2+  Ca45  1  0.91737478  0.67519384  0.16025867  1
  Ca2+  Ca46  1  0.91320245  0.67848502  0.49311475  1
  Ca2+  Ca47  1  0.92432866  0.67663699  0.83322371  1
  Al0+  Al48  1  0.00049194  0.00295976  -0.00534665  1
  Al0+  Al49  1  0.00007432  0.00196004  0.32896751  1
  Al0+  Al50  1  -0.00053662  0.00234601  0.66789472  1
  Al0+  Al51  1  -0.00180007  0.50043588  -0.00441021  1
  Al0+  Al52  1  -0.00269685  0.50121111  0.34520008  1
  Al0+  Al53  1  -0.00247913  0.50208335  0.66787948  1
  Al0+  Al54  1  0.50235987  -0.00117744  0.00561549  1
  Al0+  Al55  1  0.50022495  0.00168166  0.33763170  1
  Al0+  Al56  1  0.50284136  -0.00158574  0.66642629  1
  Al0+  Al57  1  0.49858848  0.49847717  -0.00398500  1
  Al0+  Al58  1  0.49881632  0.49897034  0.32865623  1
  Al0+  Al59  1  0.50100309  0.49663875  0.66946059  1
  Al0+  Al60  1  0.25026683  0.25083890  0.00747597  1
  Al0+  Al61  1  0.25066838  0.25083569  0.33401964  1
  Al0+  Al62  1  0.25075514  0.24982661  0.66987900  1
  Al0+  Al63  1  0.25177714  0.74919456  -0.00026893  1
  Al0+  Al64  1  0.24967248  0.75001187  0.33354304  1
  Al0+  Al65  1  0.25023480  0.74928916  0.67346868  1
  Al0+  Al66  1  0.74914539  0.24839873  -0.00741796  1
  Al0+  Al67  1  0.74835374  0.24909957  0.34109094  1
  Al0+  Al68  1  0.75051144  0.24952544  0.66913786  1
  Al0+  Al69  1  0.74966332  0.74905940  -0.00569457  1
  Al0+  Al70  1  0.74927870  0.74963922  0.32996905  1
  Al0+  Al71  1  0.75150542  0.75018359  0.66090502  1
  Al0+  Al72  1  0.93110872  0.82109084  0.31854011  1
  Al0+  Al73  1  0.17697104  0.92932582  0.68274956  1
  Al0+  Al74  1  0.82067178  0.06988611  0.34499903  1
  Al0+  Al75  1  0.17674007  0.42820169  0.68278003  1
  Al0+  Al76  1  0.93121009  0.82123441  0.64997839  1
  Al0+  Al77  1  0.57066815  0.67758817  0.98441584  1
  Al0+  Al78  1  0.07151504  0.18167760  0.31956593  1
  Al0+  Al79  1  0.32290114  0.07013160  0.68258884  1
  Al0+  Al80  1  0.43024421  0.31820049  0.65266268  1
  Al0+  Al81  1  0.17791312  0.43034596  0.34662663  1
  Al0+  Al82  1  0.32211676  0.57079859  0.68133701  1
  Al0+  Al83  1  0.68244052  0.92782961  0.01324127  1
  Al0+  Al84  1  0.67696402  0.42802963  0.34631526  1
  Al0+  Al85  1  0.56988727  0.17774050  0.98748277  1
  Al0+  Al86  1  0.07243052  0.67834668  0.98535368  1
  Al0+  Al87  1  0.17797917  0.92811219  0.34561239  1
  Al0+  Al88  1  0.92918504  0.32057451  0.98824274  1
  Al0+  Al89  1  0.17820344  0.43236927  0.01499138  1
  Al0+  Al90  1  0.68055719  0.42918408  0.68272042  1
  Al0+  Al91  1  0.32303521  0.07188453  0.34983762  1
  Al0+  Al92  1  0.93013109  0.82310457  0.98359488  1
  Al0+  Al93  1  0.56827805  0.67966186  0.31942765  1
  Al0+  Al94  1  0.82071522  0.57406182  0.34849322  1
  Al0+  Al95  1  0.32068783  0.06952520  0.01532517  1
  Si0+  Si96  1  0.32454618  0.57302177  0.01867034  1
  Si0+  Si97  1  0.92599175  0.32280423  0.32087069  1
  Si0+  Si98  1  0.67836161  0.92696807  0.35043074  1
  Si0+  Si99  1  0.81969459  0.57466742  0.68541263  1
  Si0+  Si100  1  0.81827884  0.56897970  0.01284694  1
  Si0+  Si101  1  0.42981665  0.82193080  0.98450369  1
  Si0+  Si102  1  0.82111609  0.07096562  0.68284773  1
  Si0+  Si103  1  0.07481964  0.17991990  0.98234414  1
  Si0+  Si104  1  0.06909375  0.18265462  0.65256601  1
  Si0+  Si105  1  0.56971629  0.67858945  0.65080986  1
  Si0+  Si106  1  0.92594619  0.32319077  0.65011217  1
  Si0+  Si107  1  0.42957127  0.31995579  0.31663081  1
  Si0+  Si108  1  0.07338358  0.67528674  0.31930236  1
  Si0+  Si109  1  0.42820185  0.82212912  0.65246640  1
  Si0+  Si110  1  0.57316599  0.17795192  0.31883639  1
  Si0+  Si111  1  0.32262677  0.57113675  0.34677306  1
  Si0+  Si112  1  0.67767795  0.42657104  0.01325905  1
  Si0+  Si113  1  0.42662739  0.32052850  0.98295825  1
  Si0+  Si114  1  0.17616448  0.92695836  0.01635289  1
  Si0+  Si115  1  0.68053961  0.92772573  0.67986643  1
  Si0+  Si116  1  0.42671779  0.82463250  0.31727171  1
  Si0+  Si117  1  0.82287827  0.07445552  0.01548466  1
  Si0+  Si118  1  0.07400604  0.67793432  0.64886177  1
  Si0+  Si119  1  0.57405396  0.17535712  0.64787551  1
  O2-  O120  1  0.24411111  -0.00386317  0.06082302  1
  O2-  O121  1  0.25251350  -0.00285851  0.39637545  1
  O2-  O122  1  0.25360195  -0.00390961  0.73313477  1
  O2-  O123  1  0.25141368  0.50881459  0.06244417  1
  O2-  O124  1  0.24906585  0.50879451  0.39158288  1
  O2-  O125  1  0.24628132  0.50313502  0.73168047  1
  O2-  O126  1  0.76000085  0.00016051  0.05895836  1
  O2-  O127  1  0.74806251  -0.00566643  0.39490991  1
  O2-  O128  1  0.74880139  0.00072593  0.72317019  1
  O2-  O129  1  0.74655912  0.49866194  0.05602744  1
  O2-  O130  1  0.74899496  0.50011950  0.39617911  1
  O2-  O131  1  0.75598774  0.50199974  0.73113901  1
  O2-  O132  1  -0.00206900  0.25899973  0.27464101  1
  O2-  O133  1  0.00183976  0.25741418  0.60925058  1
  O2-  O134  1  0.00396510  0.24694074  0.93870794  1
  O2-  O135  1  0.00617179  0.74535870  0.27454255  1
  O2-  O136  1  0.00825567  0.74894575  0.60351752  1
  O2-  O137  1  0.00822080  0.75720402  0.93429609  1
  O2-  O138  1  0.50057722  0.24753063  0.27645175  1
  O2-  O139  1  0.50382721  0.24239790  0.60383889  1
  O2-  O140  1  0.49584609  0.25187510  0.93971199  1
  O2-  O141  1  0.49512132  0.75585104  0.27239823  1
  O2-  O142  1  0.49581601  0.74741621  0.60953231  1
  O2-  O143  1  0.49328325  0.74935790  0.93746891  1
  O2-  O144  1  0.07439341  0.18077718  0.08792670  1
  O2-  O145  1  0.07024844  0.18185279  0.43321168  1
  O2-  O146  1  0.06578435  0.18205103  0.75785240  1
  O2-  O147  1  0.06545002  0.67579021  0.09908620  1
  O2-  O148  1  0.07377138  0.67558380  0.42472321  1
  O2-  O149  1  0.07035347  0.67715716  0.75431119  1
  O2-  O150  1  0.57161795  0.18075737  0.10090754  1
  O2-  O151  1  0.57484370  0.17786024  0.42374761  1
  O2-  O152  1  0.57532683  0.17543041  0.75357723  1
  O2-  O153  1  0.57160455  0.67759135  0.09746824  1
  O2-  O154  1  0.56557151  0.67958453  0.43311963  1
  O2-  O155  1  0.57147598  0.68064471  0.75599299  1
  O2-  O156  1  0.17862889  0.43034909  0.23337340  1
  O2-  O157  1  0.17995342  0.42768391  0.56906035  1
  O2-  O158  1  0.17989147  0.43201318  0.90238001  1
  O2-  O159  1  0.17937871  0.93028478  0.23184665  1
  O2-  O160  1  0.17587739  0.93279018  0.56931496  1
  O2-  O161  1  0.17784804  0.92902547  0.91076508  1
  O2-  O162  1  0.67861481  0.42693575  0.23215857  1
  O2-  O163  1  0.68020859  0.43186941  0.56983371  1
  O2-  O164  1  0.67974534  0.42716148  0.90811249  1
  O2-  O165  1  0.67832058  0.92786124  0.24484993  1
  O2-  O166  1  0.68035516  0.92771737  0.57483808  1
  O2-  O167  1  0.68194206  0.92936590  0.89946879  1
  O2-  O168  1  0.42824493  0.32164013  0.08894147  1
  O2-  O169  1  0.42995682  0.32170293  0.42171232  1
  O2-  O170  1  0.43246659  0.31661169  0.76576714  1
  O2-  O171  1  0.43313178  0.82112518  0.09010598  1
  O2-  O172  1  0.42893106  0.82340180  0.42320706  1
  O2-  O173  1  0.43335311  0.82494406  0.75738654  1
  O2-  O174  1  0.92759412  0.32033369  0.10139794  1
  O2-  O175  1  0.92525814  0.31863096  0.42661301  1
  O2-  O176  1  0.92302294  0.31934942  0.75537566  1
  O2-  O177  1  0.92765714  0.82042145  0.09706479  1
  O2-  O178  1  0.93178892  0.82110804  0.43181710  1
  O2-  O179  1  0.92840494  0.81972289  0.76278668  1
  O2-  O180  1  0.32346476  0.07129128  0.23601233  1
  O2-  O181  1  0.32054044  0.06948917  0.56950608  1
  O2-  O182  1  0.32093250  0.06864178  0.90231868  1
  O2-  O183  1  0.32649103  0.56753228  0.24137751  1
  O2-  O184  1  0.32286302  0.56859321  0.56720555  1
  O2-  O185  1  0.32794284  0.56978582  0.91349146  1
  O2-  O186  1  0.81756198  0.07182593  0.23215841  1
  O2-  O187  1  0.82163247  0.07152980  0.57764776  1
  O2-  O188  1  0.81919519  0.07687399  0.90956779  1
  O2-  O189  1  0.82016349  0.57284108  0.23423291  1
  O2-  O190  1  0.81585082  0.57588615  0.58003168  1
  O2-  O191  1  0.81632854  0.56746910  0.90759593  1
  O2-  O192  1  0.03803280  0.08787017  0.26264070  1
  O2-  O193  1  0.03582466  0.09276452  0.60483252  1
  O2-  O194  1  0.05173817  0.08660225  0.93455098  1
  O2-  O195  1  0.04375302  0.58116178  0.27557045  1
  O2-  O196  1  0.04527551  0.58432555  0.60302155  1
  O2-  O197  1  0.03559990  0.58430116  0.92879751  1
  O2-  O198  1  0.54712128  0.08497631  0.27207188  1
  O2-  O199  1  0.55318463  0.08019794  0.60243142  1
  O2-  O200  1  0.54031596  0.08028972  0.93453410  1
  O2-  O201  1  0.53678717  0.58389805  0.26324697  1
  O2-  O202  1  0.54323081  0.58589387  0.60533551  1
  O2-  O203  1  0.54144389  0.58015942  0.93007123  1
  O2-  O204  1  0.16797908  0.21274194  0.26505490  1
  O2-  O205  1  0.16202406  0.20719840  0.60644224  1
  O2-  O206  1  0.16768490  0.20948843  0.93731574  1
  O2-  O207  1  0.16827254  0.69554602  0.27244228  1
  O2-  O208  1  0.17037958  0.69808512  0.60625103  1
  O2-  O209  1  0.17547566  0.69525987  0.93721382  1
  O2-  O210  1  0.66442628  0.20769930  0.27103182  1
  O2-  O211  1  0.66816163  0.20363468  0.60336062  1
  O2-  O212  1  0.66464049  0.20731725  0.92921994  1
  O2-  O213  1  0.66445680  0.70991220  0.26470685  1
  O2-  O214  1  0.65981491  0.71033653  0.60246401  1
  O2-  O215  1  0.66470832  0.71078820  0.92744514  1
  O2-  O216  1  0.07978939  0.46197501  0.06674047  1
  O2-  O217  1  0.08150783  0.45362592  0.40388975  1
  O2-  O218  1  0.07560407  0.45309056  0.73236750  1
  O2-  O219  1  0.08104151  0.95289662  0.05926045  1
  O2-  O220  1  0.08140560  0.96189783  0.39793204  1
  O2-  O221  1  0.08074060  0.96488903  0.73649348  1
  O2-  O222  1  0.58405341  0.45136064  0.05810771  1
  O2-  O223  1  0.57883754  0.45986776  0.39821339  1
  O2-  O224  1  0.58525101  0.46001260  0.73769126  1
  O2-  O225  1  0.58813912  0.95968856  0.07036288  1
  O2-  O226  1  0.58574008  0.95401618  0.39796087  1
  O2-  O227  1  0.58866573  0.95218021  0.72864272  1
  O2-  O228  1  0.21058513  0.33681080  0.07030907  1
  O2-  O229  1  0.21455804  0.33603756  0.40014107  1
  O2-  O230  1  0.20768088  0.33134191  0.73643876  1
  O2-  O231  1  0.20017991  0.83228292  0.06107347  1
  O2-  O232  1  0.20184531  0.82820497  0.39886651  1
  O2-  O233  1  0.19926639  0.82942891  0.73429786  1
  O2-  O234  1  0.70682677  0.33435851  0.05870665  1
  O2-  O235  1  0.70304655  0.33141182  0.40346643  1
  O2-  O236  1  0.71057735  0.33149102  0.73574883  1
  O2-  O237  1  0.71163391  0.82992990  0.06577840  1
  O2-  O238  1  0.70174263  0.83305987  0.39563080  1
  O2-  O239  1  0.71101464  0.83637400  0.72676303  1
  O2-  O240  1  0.45766869  0.41016207  0.26612112  1
  O2-  O241  1  0.46388525  0.41450743  0.59848984  1
  O2-  O242  1  0.45178383  0.41340801  0.93572020  1
  O2-  O243  1  0.45391616  0.91874658  0.27271920  1
  O2-  O244  1  0.46104034  0.91137002  0.60208871  1
  O2-  O245  1  0.46212946  0.91319794  0.93786865  1
  O2-  O246  1  0.94689163  0.41952116  0.27966106  1
  O2-  O247  1  0.94565960  0.41834472  0.60623523  1
  O2-  O248  1  0.95764576  0.41560385  0.93049577  1
  O2-  O249  1  0.95990748  0.91717817  0.26300374  1
  O2-  O250  1  0.95875651  0.92092547  0.59970341  1
  O2-  O251  1  0.95062199  0.92432287  0.93128539  1
  O2-  O252  1  0.33849776  0.29165383  0.26834409  1
  O2-  O253  1  0.33252023  0.28892202  0.59900703  1
  O2-  O254  1  0.33308944  0.29285035  0.93867826  1
  O2-  O255  1  0.33280881  0.80092911  0.27080841  1
  O2-  O256  1  0.33434151  0.79827413  0.60764213  1
  O2-  O257  1  0.33415673  0.80332399  0.94003702  1
  O2-  O258  1  0.83305257  0.29300878  0.27528083  1
  O2-  O259  1  0.83597716  0.28949770  0.60230232  1
  O2-  O260  1  0.83468821  0.28807375  0.92946798  1
  O2-  O261  1  0.83353576  0.79099189  0.26587505  1
  O2-  O262  1  0.83485265  0.78883458  0.59500212  1
  O2-  O263  1  0.83431872  0.78762206  0.92924847  1
  O2-  O264  1  0.41664128  0.03752300  0.06990184  1
  O2-  O265  1  0.42226354  0.04796453  0.40352060  1
  O2-  O266  1  0.42380099  0.04359558  0.73232148  1
  O2-  O267  1  0.41685306  0.54083201  0.06540915  1
  O2-  O268  1  0.41340718  0.53900835  0.39469496  1
  O2-  O269  1  0.41882338  0.53819075  0.73529509  1
  O2-  O270  1  0.91985742  0.05646676  0.05730320  1
  O2-  O271  1  0.91684969  0.04020833  0.39959698  1
  O2-  O272  1  0.91144900  0.04340788  0.73213650  1
  O2-  O273  1  0.90924145  0.54032932  0.06014492  1
  O2-  O274  1  0.91643656  0.54875833  0.40783456  1
  O2-  O275  1  0.91498104  0.55363147  0.72903666  1
  O2-  O276  1  0.29221048  0.16627919  0.07006165  1
  O2-  O277  1  0.29144948  0.16944295  0.40107232  1
  O2-  O278  1  0.29127918  0.16682283  0.73616413  1
  O2-  O279  1  0.30721247  0.66919588  0.06286579  1
  O2-  O280  1  0.30578614  0.66739538  0.39054694  1
  O2-  O281  1  0.30226055  0.67049105  0.73546978  1
  O2-  O282  1  0.79020955  0.16570302  0.06230536  1
  O2-  O283  1  0.78852731  0.16358721  0.40446699  1
  O2-  O284  1  0.79409973  0.16261150  0.73105984  1
  O2-  O285  1  0.78944836  0.66076250  0.05891679  1
  O2-  O286  1  0.78748892  0.67079510  0.40213743  1
  O2-  O287  1  0.78824708  0.66675494  0.73132697  1
