# generated using pymatgen
data_Ca2Al2SiO7
_symmetry_space_group_name_H-M   'P 1'
_cell_length_a   15.46167004
_cell_length_b   15.46213290
_cell_length_c   15.28648481
_cell_angle_alpha   90.01237224
_cell_angle_beta   89.99780511
_cell_angle_gamma   90.00567340
_symmetry_Int_Tables_number   1
_chemical_formula_structural   Ca2Al2SiO7
_chemical_formula_sum   'Ca48 Al48 Si24 O168'
_cell_volume   3654.54588692
_cell_formula_units_Z   24
loop_
 _symmetry_equiv_pos_site_id
 _symmetry_equiv_pos_as_xyz
  1  'x, y, z'
loop_
 _atom_type_symbol
 _atom_type_oxidation_number
  Ca2+  2.0
  Al0+  0.0
  Si0+  0.0
  O2-  -2.0
loop_
 _atom_site_type_symbol
 _atom_site_label
 _atom_site_symmetry_multiplicity
 _atom_site_fract_x
 _atom_site_fract_y
 _atom_site_fract_z
 _atom_site_occupancy
  Ca2+  Ca0  1  0.17176409  0.07194725  0.16671184  1
  Ca2+  Ca1  1  0.16545352  0.07078478  0.50772044  1
  Ca2+  Ca2  1  0.17582989  0.07183472  0.84125464  1
  Ca2+  Ca3  1  0.16974789  0.58266115  0.16753326  1
  Ca2+  Ca4  1  0.16665238  0.57948117  0.51069593  1
  Ca2+  Ca5  1  0.16269413  0.57970247  0.82950396  1
  Ca2+  Ca6  1  0.67499693  0.08892674  0.16573682  1
  Ca2+  Ca7  1  0.67619321  0.09165722  0.50525183  1
  Ca2+  Ca8  1  0.67363324  0.09417306  0.83579453  1
  Ca2+  Ca9  1  0.67552323  0.57496195  0.17160298  1
  Ca2+  Ca10  1  0.67070323  0.57436540  0.50679865  1
  Ca2+  Ca11  1  0.66191218  0.57317787  0.83820008  1
  Ca2+  Ca12  1  0.07333493  0.33139147  0.16381248  1
  Ca2+  Ca13  1  0.06885942  0.33859613  0.49781807  1
  Ca2+  Ca14  1  0.07526377  0.33184374  0.82248184  1
  Ca2+  Ca15  1  0.08089899  0.83711129  0.15971732  1
  Ca2+  Ca16  1  0.08944966  0.83106982  0.50059074  1
  Ca2+  Ca17  1  0.08266199  0.83329030  0.82938342  1
  Ca2+  Ca18  1  0.58503181  0.33137842  0.15737102  1
  Ca2+  Ca19  1  0.58822141  0.33407419  0.50272423  1
  Ca2+  Ca20  1  0.58159866  0.32750619  0.82758256  1
  Ca2+  Ca21  1  0.57809820  0.83176952  0.15609184  1
  Ca2+  Ca22  1  0.58165344  0.82993101  0.50114467  1
  Ca2+  Ca23  1  0.57162325  0.83079905  0.82410398  1
  Ca2+  Ca24  1  0.33559481  0.41429657  0.16730037  1
  Ca2+  Ca25  1  0.32586443  0.41458542  0.51222031  1
  Ca2+  Ca26  1  0.33121725  0.40679923  0.83542894  1
  Ca2+  Ca27  1  0.32832913  0.91743754  0.16727228  1
  Ca2+  Ca28  1  0.32424312  0.91182664  0.50819607  1
  Ca2+  Ca29  1  0.32842323  0.91327610  0.84075587  1
  Ca2+  Ca30  1  0.82264098  0.42215665  0.17251743  1
  Ca2+  Ca31  1  0.82548087  0.41211328  0.50531417  1
  Ca2+  Ca32  1  0.82164420  0.41942980  0.83776204  1
  Ca2+  Ca33  1  0.84096700  0.92763954  0.16724362  1
  Ca2+  Ca34  1  0.83536327  0.93227067  0.50600665  1
  Ca2+  Ca35  1  0.83601733  0.92802007  0.84071366  1
  Ca2+  Ca36  1  0.42551566  0.17109990  0.15094694  1
  Ca2+  Ca37  1  0.42147990  0.17108502  0.50143145  1
  Ca2+  Ca38  1  0.42736481  0.16965504  0.82885360  1
  Ca2+  Ca39  1  0.41955881  0.67344724  0.15846437  1
  Ca2+  Ca40  1  0.42352139  0.66671972  0.50628518  1
  Ca2+  Ca41  1  0.42108063  0.67658009  0.82616475  1
  Ca2+  Ca42  1  0.90915011  0.16873613  0.16442570  1
  Ca2+  Ca43  1  0.90595442  0.17676359  0.49862751  1
  Ca2+  Ca44  1  0.91247459  0.16935247  0.82617255  1
  Ca2+  Ca45  1  0.91194449  0.67049400  0.15856645  1
  Ca2+  Ca46  1  0.92320293  0.66146976  0.49614001  1
  Ca2+  Ca47  1  0.91819930  0.67080005  0.83031685  1
  Al0+  Al48  1  0.00025937  -0.00070314  0.00372170  1
  Al0+  Al49  1  0.00191437  -0.00053286  0.34200115  1
  Al0+  Al50  1  0.00113709  0.00029589  0.67529558  1
  Al0+  Al51  1  0.00045403  0.50031550  0.00363490  1
  Al0+  Al52  1  0.00134982  0.50000247  0.32765105  1
  Al0+  Al53  1  0.00026318  0.50098694  0.66339759  1
  Al0+  Al54  1  0.50060453  0.00119912  -0.00531145  1
  Al0+  Al55  1  0.49926318  0.00086190  0.33193919  1
  Al0+  Al56  1  0.50080142  0.00115898  0.65536338  1
  Al0+  Al57  1  0.49683353  0.49917767  0.00170015  1
  Al0+  Al58  1  0.50037688  0.50129860  0.33553101  1
  Al0+  Al59  1  0.49913100  0.50165196  0.66362593  1
  Al0+  Al60  1  0.24784803  0.24787352  0.00303432  1
  Al0+  Al61  1  0.24969935  0.24844591  0.33212698  1
  Al0+  Al62  1  0.24884214  0.24745523  0.66719626  1
  Al0+  Al63  1  0.24867433  0.74635828  0.00018012  1
  Al0+  Al64  1  0.25012314  0.74950791  0.33546596  1
  Al0+  Al65  1  0.24808744  0.74842002  0.66375054  1
  Al0+  Al66  1  0.75010401  0.25118092  0.00449492  1
  Al0+  Al67  1  0.74909503  0.25096769  0.33408513  1
  Al0+  Al68  1  0.75006413  0.25261359  0.66822484  1
  Al0+  Al69  1  0.75186503  0.75029836  -0.00334691  1
  Al0+  Al70  1  0.75094351  0.74973243  0.33553790  1
  Al0+  Al71  1  0.75082299  0.75286727  0.66176600  1
  Al0+  Al72  1  0.06758967  0.68069729  0.65317144  1
  Al0+  Al73  1  0.93007210  0.32030340  0.65521513  1
  Al0+  Al74  1  0.42798918  0.82142705  0.65033646  1
  Al0+  Al75  1  0.82356055  0.57291878  0.34975131  1
  Al0+  Al76  1  0.81834771  0.07065362  0.68155449  1
  Al0+  Al77  1  0.81933912  0.06947876  0.34736100  1
  Al0+  Al78  1  0.57259026  0.18080726  0.64897849  1
  Al0+  Al79  1  0.67882485  0.43025144  0.35088449  1
  Al0+  Al80  1  0.67727922  0.43015149  0.01481403  1
  Al0+  Al81  1  0.32357716  0.07112028  0.01422022  1
  Al0+  Al82  1  0.57356483  0.18038924  0.98464665  1
  Al0+  Al83  1  0.42849871  0.82062588  0.98783487  1
  Al0+  Al84  1  0.82252353  0.57263342  0.01345136  1
  Al0+  Al85  1  0.42658617  0.32081265  0.65120716  1
  Al0+  Al86  1  0.17770950  0.42753407  0.67923697  1
  Al0+  Al87  1  0.92863972  0.31994916  0.31697377  1
  Al0+  Al88  1  0.18168790  0.92931377  0.34927553  1
  Al0+  Al89  1  0.18160351  0.92741463  0.68305697  1
  Al0+  Al90  1  0.82051726  0.07050441  0.01409344  1
  Al0+  Al91  1  0.18055201  0.92635425  0.01548438  1
  Al0+  Al92  1  0.92960304  0.82196711  0.98693016  1
  Al0+  Al93  1  0.67849743  0.43203971  0.68230267  1
  Al0+  Al94  1  0.57398167  0.67831684  0.65132114  1
  Al0+  Al95  1  0.42594753  0.32243698  0.98583324  1
  Si0+  Si96  1  0.67649351  0.92696897  0.68198693  1
  Si0+  Si97  1  0.57168616  0.67926522  0.31685689  1
  Si0+  Si98  1  0.56991708  0.17970245  0.31680761  1
  Si0+  Si99  1  0.93047807  0.32126513  0.98578909  1
  Si0+  Si100  1  0.82329194  0.57490145  0.68232432  1
  Si0+  Si101  1  0.57212985  0.67778958  0.98543616  1
  Si0+  Si102  1  0.42685321  0.32169497  0.31870660  1
  Si0+  Si103  1  0.67462486  0.92704873  0.34903537  1
  Si0+  Si104  1  0.32389336  0.07287057  0.35132292  1
  Si0+  Si105  1  0.32041500  0.57098179  0.34852069  1
  Si0+  Si106  1  0.32056272  0.57056488  0.68380380  1
  Si0+  Si107  1  0.67746257  0.92672784  0.01318802  1
  Si0+  Si108  1  0.31932879  0.56976323  0.01476102  1
  Si0+  Si109  1  0.06984931  0.17816505  0.98595489  1
  Si0+  Si110  1  0.17716310  0.42662504  0.01608918  1
  Si0+  Si111  1  0.18020643  0.42781655  0.34653056  1
  Si0+  Si112  1  0.07265645  0.67948759  0.31652497  1
  Si0+  Si113  1  0.92885440  0.82602092  0.64900365  1
  Si0+  Si114  1  0.07289589  0.17598339  0.31611720  1
  Si0+  Si115  1  0.07201309  0.67576535  0.98279818  1
  Si0+  Si116  1  0.32441046  0.07181108  0.68239679  1
  Si0+  Si117  1  0.93020282  0.82192836  0.31998868  1
  Si0+  Si118  1  0.42866587  0.81966772  0.31735252  1
  Si0+  Si119  1  0.07151219  0.17579234  0.65139973  1
  O2-  O120  1  0.25501866  -0.00408732  0.06528685  1
  O2-  O121  1  0.25585432  0.00423703  0.39617295  1
  O2-  O122  1  0.25972253  -0.00063510  0.72675138  1
  O2-  O123  1  0.25145022  0.49526306  0.05716582  1
  O2-  O124  1  0.25259686  0.49663183  0.38944763  1
  O2-  O125  1  0.25636533  0.49723344  0.72772693  1
  O2-  O126  1  0.74581863  -0.00518531  0.05955197  1
  O2-  O127  1  0.74385853  -0.00493345  0.39302100  1
  O2-  O128  1  0.74378656  -0.00438294  0.72771395  1
  O2-  O129  1  0.74919861  0.50281700  0.06387529  1
  O2-  O130  1  0.75359948  0.49999443  0.40031744  1
  O2-  O131  1  0.75030900  0.51129374  0.72650453  1
  O2-  O132  1  0.00304527  0.24339677  0.27102660  1
  O2-  O133  1  0.00522359  0.24624246  0.60666451  1
  O2-  O134  1  -0.00040552  0.24919213  0.94264821  1
  O2-  O135  1  -0.00149962  0.74807209  0.27661869  1
  O2-  O136  1  -0.00666884  0.75405690  0.60341351  1
  O2-  O137  1  0.00294450  0.74509726  0.94151846  1
  O2-  O138  1  0.49746189  0.25061624  0.27657173  1
  O2-  O139  1  0.49984015  0.25223228  0.59818515  1
  O2-  O140  1  0.49934782  0.25181324  0.93721683  1
  O2-  O141  1  0.50296635  0.75270458  0.27400715  1
  O2-  O142  1  0.50351614  0.75240782  0.60078462  1
  O2-  O143  1  0.50692874  0.74987073  0.94185892  1
  O2-  O144  1  0.06958100  0.18045934  0.09132599  1
  O2-  O145  1  0.07619223  0.17835349  0.42142867  1
  O2-  O146  1  0.07012792  0.17663875  0.75719372  1
  O2-  O147  1  0.07414316  0.67419633  0.08874253  1
  O2-  O148  1  0.07562973  0.67925320  0.42135738  1
  O2-  O149  1  0.06658182  0.67976352  0.76610654  1
  O2-  O150  1  0.57385691  0.18165774  0.09921242  1
  O2-  O151  1  0.56927425  0.17856686  0.42152845  1
  O2-  O152  1  0.57319587  0.18169120  0.76201767  1
  O2-  O153  1  0.56914382  0.67898822  0.09175173  1
  O2-  O154  1  0.56933413  0.67929620  0.42148642  1
  O2-  O155  1  0.57080855  0.67937770  0.76514922  1
  O2-  O156  1  0.18177488  0.42907974  0.24109819  1
  O2-  O157  1  0.17722326  0.43172782  0.56556301  1
  O2-  O158  1  0.17319988  0.42780083  0.91134161  1
  O2-  O159  1  0.18325123  0.92781115  0.23648846  1
  O2-  O160  1  0.18142563  0.92936216  0.56950789  1
  O2-  O161  1  0.18122463  0.92722570  0.90228940  1
  O2-  O162  1  0.67654353  0.43231061  0.23739040  1
  O2-  O163  1  0.68201875  0.43119552  0.56935368  1
  O2-  O164  1  0.67821448  0.43080479  0.90132551  1
  O2-  O165  1  0.67161265  0.92690765  0.24349012  1
  O2-  O166  1  0.68005185  0.92634735  0.57602224  1
  O2-  O167  1  0.67937686  0.92525068  0.90800344  1
  O2-  O168  1  0.42714389  0.32156959  0.10042528  1
  O2-  O169  1  0.42287752  0.32074935  0.42325722  1
  O2-  O170  1  0.42541439  0.31733648  0.76414580  1
  O2-  O171  1  0.42907758  0.81632963  0.10187929  1
  O2-  O172  1  0.42750528  0.81716211  0.42192812  1
  O2-  O173  1  0.42754513  0.81867538  0.76398527  1
  O2-  O174  1  0.93310420  0.32069175  0.09106831  1
  O2-  O175  1  0.93062352  0.31979820  0.42996334  1
  O2-  O176  1  0.93143394  0.31969582  0.76863727  1
  O2-  O177  1  0.93254265  0.82267261  0.10077783  1
  O2-  O178  1  0.93249472  0.82256542  0.42488600  1
  O2-  O179  1  0.93075197  0.82609540  0.75448288  1
  O2-  O180  1  0.32466158  0.07188843  0.24608903  1
  O2-  O181  1  0.31993537  0.07269828  0.57627435  1
  O2-  O182  1  0.31986032  0.07202875  0.90106289  1
  O2-  O183  1  0.31920316  0.57250447  0.24306390  1
  O2-  O184  1  0.31712878  0.57113048  0.57748725  1
  O2-  O185  1  0.31767695  0.57328039  0.91036504  1
  O2-  O186  1  0.81901099  0.06768421  0.23418804  1
  O2-  O187  1  0.81849020  0.06984606  0.56809290  1
  O2-  O188  1  0.82184434  0.07110605  0.90148983  1
  O2-  O189  1  0.81996543  0.57486271  0.23636877  1
  O2-  O190  1  0.82482117  0.57186273  0.57669193  1
  O2-  O191  1  0.82554644  0.56952762  0.90008271  1
  O2-  O192  1  0.04704259  0.08113259  0.27289698  1
  O2-  O193  1  0.04308877  0.08265478  0.60579068  1
  O2-  O194  1  0.04223301  0.08658977  0.93929785  1
  O2-  O195  1  0.05050868  0.58702829  0.26736208  1
  O2-  O196  1  0.03887131  0.58490259  0.59569897  1
  O2-  O197  1  0.04618605  0.58186253  0.93690500  1
  O2-  O198  1  0.54346913  0.08686756  0.26940730  1
  O2-  O199  1  0.54822831  0.08262436  0.59261397  1
  O2-  O200  1  0.54928785  0.08146307  0.93150183  1
  O2-  O201  1  0.53926164  0.58880132  0.26901056  1
  O2-  O202  1  0.54020841  0.58317249  0.59487351  1
  O2-  O203  1  0.54004898  0.58625273  0.94028379  1
  O2-  O204  1  0.16594148  0.20326810  0.26802683  1
  O2-  O205  1  0.16556301  0.19709119  0.60501650  1
  O2-  O206  1  0.16125535  0.20589138  0.93855171  1
  O2-  O207  1  0.16390907  0.71036445  0.26835023  1
  O2-  O208  1  0.16361491  0.70982057  0.59687568  1
  O2-  O209  1  0.16507898  0.70026039  0.93589208  1
  O2-  O210  1  0.66131109  0.20831365  0.26981255  1
  O2-  O211  1  0.66978320  0.21382746  0.59642659  1
  O2-  O212  1  0.67187853  0.21155039  0.93305557  1
  O2-  O213  1  0.66451973  0.70539338  0.27041102  1
  O2-  O214  1  0.67231447  0.70512877  0.59615065  1
  O2-  O215  1  0.66667354  0.69726373  0.94018450  1
  O2-  O216  1  0.08857454  0.45936812  0.06747538  1
  O2-  O217  1  0.08870020  0.45800817  0.39176961  1
  O2-  O218  1  0.08322441  0.46407374  0.73413815  1
  O2-  O219  1  0.08440892  0.96036833  0.06974945  1
  O2-  O220  1  0.08619605  0.95841936  0.40575315  1
  O2-  O221  1  0.08639266  0.95990703  0.73785305  1
  O2-  O222  1  0.57783734  0.45657463  0.06764045  1
  O2-  O223  1  0.57993159  0.46018556  0.40269949  1
  O2-  O224  1  0.57977530  0.46051903  0.73298824  1
  O2-  O225  1  0.58377329  0.95128649  0.05963865  1
  O2-  O226  1  0.58096214  0.95269834  0.39558618  1
  O2-  O227  1  0.58049788  0.95096170  0.72291747  1
  O2-  O228  1  0.20091633  0.33515698  0.06582084  1
  O2-  O229  1  0.20487236  0.33500114  0.39310501  1
  O2-  O230  1  0.20242344  0.32899541  0.73239441  1
  O2-  O231  1  0.20525584  0.82621919  0.06758224  1
  O2-  O232  1  0.21383541  0.83231021  0.40241550  1
  O2-  O233  1  0.20900670  0.82896948  0.73405423  1
  O2-  O234  1  0.70948314  0.33411629  0.06994973  1
  O2-  O235  1  0.70641428  0.33111088  0.40147500  1
  O2-  O236  1  0.71421244  0.33752533  0.73604155  1
  O2-  O237  1  0.70164580  0.83293394  0.06026029  1
  O2-  O238  1  0.69975748  0.83349751  0.39489194  1
  O2-  O239  1  0.70057476  0.83278405  0.72788544  1
  O2-  O240  1  0.45303524  0.41545821  0.27365645  1
  O2-  O241  1  0.44909005  0.42137642  0.60033377  1
  O2-  O242  1  0.44747307  0.42324909  0.93509763  1
  O2-  O243  1  0.45245916  0.91366448  0.27181418  1
  O2-  O244  1  0.45167458  0.91921808  0.59402946  1
  O2-  O245  1  0.45408067  0.91721464  0.93326146  1
  O2-  O246  1  0.96334659  0.41533927  0.26157592  1
  O2-  O247  1  0.96191962  0.41535038  0.59901081  1
  O2-  O248  1  0.96148705  0.41266763  0.93998579  1
  O2-  O249  1  0.96233152  0.91326119  0.27362493  1
  O2-  O250  1  0.96072984  0.91826630  0.60357592  1
  O2-  O251  1  0.96261514  0.91795939  0.93308517  1
  O2-  O252  1  0.33449739  0.29565316  0.27015213  1
  O2-  O253  1  0.32762713  0.29050144  0.59763764  1
  O2-  O254  1  0.32517128  0.29572164  0.93703819  1
  O2-  O255  1  0.33834861  0.78605899  0.26994715  1
  O2-  O256  1  0.33197341  0.78604780  0.59660202  1
  O2-  O257  1  0.33337255  0.78376751  0.93533903  1
  O2-  O258  1  0.83177647  0.28847864  0.26384115  1
  O2-  O259  1  0.83555561  0.28748189  0.59984995  1
  O2-  O260  1  0.83798849  0.29464180  0.94122116  1
  O2-  O261  1  0.83651735  0.79854855  0.27345706  1
  O2-  O262  1  0.83372620  0.80766828  0.60341250  1
  O2-  O263  1  0.83307205  0.79497928  0.93054895  1
  O2-  O264  1  0.42329127  0.04545774  0.06637689  1
  O2-  O265  1  0.41775693  0.04766529  0.39705726  1
  O2-  O266  1  0.42090866  0.05011406  0.72267851  1
  O2-  O267  1  0.41051067  0.54587476  0.06586408  1
  O2-  O268  1  0.41289983  0.54724207  0.39546600  1
  O2-  O269  1  0.41581941  0.55244913  0.72768847  1
  O2-  O270  1  0.91611485  0.03909009  0.07014935  1
  O2-  O271  1  0.91528891  0.03983740  0.40278903  1
  O2-  O272  1  0.91479095  0.04071987  0.73621128  1
  O2-  O273  1  0.92060448  0.54410312  0.06856996  1
  O2-  O274  1  0.92555589  0.54696995  0.39627842  1
  O2-  O275  1  0.91535812  0.54515480  0.72825041  1
  O2-  O276  1  0.29006817  0.16737599  0.07053450  1
  O2-  O277  1  0.29763862  0.16702358  0.39626457  1
  O2-  O278  1  0.29521116  0.16316665  0.73007520  1
  O2-  O279  1  0.28720589  0.65831725  0.06715711  1
  O2-  O280  1  0.28850719  0.66038906  0.39724575  1
  O2-  O281  1  0.28753784  0.66146042  0.73016600  1
  O2-  O282  1  0.78991603  0.16619867  0.06996870  1
  O2-  O283  1  0.78723367  0.16581563  0.39981926  1
  O2-  O284  1  0.78822591  0.16724354  0.73473577  1
  O2-  O285  1  0.79679439  0.67262188  0.06541693  1
  O2-  O286  1  0.79686805  0.67202239  0.40256351  1
  O2-  O287  1  0.80410870  0.67218535  0.72372355  1
