# generated using pymatgen
data_Ca2Al2SiO7
_symmetry_space_group_name_H-M   'P 1'
_cell_length_a   15.46128407
_cell_length_b   15.46083753
_cell_length_c   15.28641816
_cell_angle_alpha   89.99783770
_cell_angle_beta   90.00957644
_cell_angle_gamma   90.01862201
_symmetry_Int_Tables_number   1
_chemical_formula_structural   Ca2Al2SiO7
_chemical_formula_sum   'Ca48 Al48 Si24 O168'
_cell_volume   3654.13242853
_cell_formula_units_Z   24
loop_
 _symmetry_equiv_pos_site_id
 _symmetry_equiv_pos_as_xyz
  1  'x, y, z'
loop_
 _atom_type_symbol
 _atom_type_oxidation_number
  Ca2+  2.0
  Al0+  0.0
  Si0+  0.0
  O2-  -2.0
loop_
 _atom_site_type_symbol
 _atom_site_label
 _atom_site_symmetry_multiplicity
 _atom_site_fract_x
 _atom_site_fract_y
 _atom_site_fract_z
 _atom_site_occupancy
  Ca2+  Ca0  1  0.17281341  0.08350081  0.17443167  1
  Ca2+  Ca1  1  0.17878586  0.09386617  0.49874432  1
  Ca2+  Ca2  1  0.18060033  0.08859577  0.84232479  1
  Ca2+  Ca3  1  0.16646468  0.57454955  0.17214508  1
  Ca2+  Ca4  1  0.16748204  0.57313578  0.50218021  1
  Ca2+  Ca5  1  0.15584546  0.57576767  0.83761474  1
  Ca2+  Ca6  1  0.66050481  0.07359026  0.16742749  1
  Ca2+  Ca7  1  0.66133485  0.07960133  0.50243768  1
  Ca2+  Ca8  1  0.66426069  0.08321598  0.84286580  1
  Ca2+  Ca9  1  0.67817832  0.57699247  0.17280840  1
  Ca2+  Ca10  1  0.67093648  0.57408841  0.49530946  1
  Ca2+  Ca11  1  0.67385432  0.57506049  0.84688421  1
  Ca2+  Ca12  1  0.09000955  0.32744234  0.16441112  1
  Ca2+  Ca13  1  0.08350050  0.33284127  0.48824794  1
  Ca2+  Ca14  1  0.08965441  0.33381922  0.83515121  1
  Ca2+  Ca15  1  0.08085898  0.82656249  0.15529557  1
  Ca2+  Ca16  1  0.08941591  0.82736802  0.49309577  1
  Ca2+  Ca17  1  0.07949935  0.82038264  0.83133066  1
  Ca2+  Ca18  1  0.57895443  0.33565024  0.16168160  1
  Ca2+  Ca19  1  0.57779404  0.32741286  0.48814804  1
  Ca2+  Ca20  1  0.58772011  0.32172777  0.83026041  1
  Ca2+  Ca21  1  0.58038767  0.83685248  0.15838770  1
  Ca2+  Ca22  1  0.58215700  0.83215503  0.49324731  1
  Ca2+  Ca23  1  0.57844600  0.83960636  0.83735824  1
  Ca2+  Ca24  1  0.32496374  0.41802461  0.17528813  1
  Ca2+  Ca25  1  0.32303399  0.40994644  0.49770330  1
  Ca2+  Ca26  1  0.32025381  0.41642006  0.83897530  1
  Ca2+  Ca27  1  0.33195453  0.92776330  0.17141336  1
  Ca2+  Ca28  1  0.32495317  0.92770790  0.49824492  1
  Ca2+  Ca29  1  0.33725199  0.92718061  0.84031959  1
  Ca2+  Ca30  1  0.82721055  0.42218108  0.17233575  1
  Ca2+  Ca31  1  0.83670121  0.41599033  0.49637763  1
  Ca2+  Ca32  1  0.82747432  0.42254362  0.84571968  1
  Ca2+  Ca33  1  0.82413940  0.91037391  0.16981271  1
  Ca2+  Ca34  1  0.82767798  0.91762443  0.49799748  1
  Ca2+  Ca35  1  0.82683795  0.91484800  0.84341960  1
  Ca2+  Ca36  1  0.41545468  0.16930390  0.16269327  1
  Ca2+  Ca37  1  0.41630548  0.16753425  0.49504864  1
  Ca2+  Ca38  1  0.42473790  0.16047515  0.83265895  1
  Ca2+  Ca39  1  0.41187523  0.67457037  0.16094456  1
  Ca2+  Ca40  1  0.41553715  0.66523000  0.49060766  1
  Ca2+  Ca41  1  0.41329127  0.67663378  0.83266299  1
  Ca2+  Ca42  1  0.92999948  0.17078117  0.16395940  1
  Ca2+  Ca43  1  0.92645455  0.17658631  0.48567305  1
  Ca2+  Ca44  1  0.92547904  0.16665428  0.83281080  1
  Ca2+  Ca45  1  0.91696366  0.66697282  0.15837916  1
  Ca2+  Ca46  1  0.92100787  0.66400974  0.49583940  1
  Ca2+  Ca47  1  0.92288265  0.66371465  0.83767055  1
  Al0+  Al48  1  0.00083070  0.00050759  -0.01104757  1
  Al0+  Al49  1  -0.00189382  -0.00268673  0.33305435  1
  Al0+  Al50  1  -0.00111157  -0.00059145  0.66555218  1
  Al0+  Al51  1  -0.00047497  0.49881252  0.00496168  1
  Al0+  Al52  1  -0.00097585  0.50134276  0.33600386  1
  Al0+  Al53  1  -0.00061962  0.50116269  0.66685355  1
  Al0+  Al54  1  0.50003297  0.00166748  0.00060719  1
  Al0+  Al55  1  0.49880932  -0.00176567  0.34181819  1
  Al0+  Al56  1  0.49965368  -0.00069243  0.66495839  1
  Al0+  Al57  1  0.49736732  0.50060769  -0.00023742  1
  Al0+  Al58  1  0.50325864  0.50023662  0.33455958  1
  Al0+  Al59  1  0.49899654  0.50061509  0.66775843  1
  Al0+  Al60  1  0.25176772  0.25113482  0.00292653  1
  Al0+  Al61  1  0.25331589  0.25027968  0.33271662  1
  Al0+  Al62  1  0.25146186  0.25059703  0.67638252  1
  Al0+  Al63  1  0.24969138  0.75123993  -0.01240006  1
  Al0+  Al64  1  0.25104564  0.75147057  0.33803069  1
  Al0+  Al65  1  0.24926553  0.75042369  0.66108386  1
  Al0+  Al66  1  0.75049560  0.24883617  0.00074251  1
  Al0+  Al67  1  0.75078954  0.24792780  0.33061669  1
  Al0+  Al68  1  0.74983574  0.24779197  0.66184417  1
  Al0+  Al69  1  0.74895229  0.75030615  0.00206349  1
  Al0+  Al70  1  0.74972245  0.74884712  0.34280556  1
  Al0+  Al71  1  0.74902910  0.74991731  0.66693228  1
  Al0+  Al72  1  0.43149433  0.32191905  0.31971331  1
  Al0+  Al73  1  0.57023734  0.18132445  0.98894451  1
  Al0+  Al74  1  0.31989248  0.06886114  0.68310014  1
  Al0+  Al75  1  0.07399017  0.17967309  0.98495663  1
  Al0+  Al76  1  0.32098340  0.06955008  0.01467900  1
  Al0+  Al77  1  0.68060340  0.93168081  0.01228083  1
  Al0+  Al78  1  0.07265151  0.17834552  0.31911671  1
  Al0+  Al79  1  0.67603809  0.42513341  0.01402743  1
  Al0+  Al80  1  0.06883294  0.67924673  0.64947852  1
  Al0+  Al81  1  0.42962761  0.82225872  0.98711604  1
  Al0+  Al82  1  0.17533401  0.92833754  0.34528299  1
  Al0+  Al83  1  0.17903611  0.43139760  0.68188019  1
  Al0+  Al84  1  0.32245419  0.57282725  0.34600782  1
  Al0+  Al85  1  0.07072524  0.67665586  0.98608253  1
  Al0+  Al86  1  0.67917432  0.93006073  0.34820805  1
  Al0+  Al87  1  0.57062151  0.17905425  0.65127474  1
  Al0+  Al88  1  0.92797498  0.32373926  0.31612414  1
  Al0+  Al89  1  0.82153212  0.57064700  0.35096844  1
  Al0+  Al90  1  0.82003666  0.57051367  0.01505585  1
  Al0+  Al91  1  0.18042328  0.43076468  0.01543854  1
  Al0+  Al92  1  0.18031364  0.42940568  0.34746424  1
  Al0+  Al93  1  0.31983103  0.07180110  0.34858806  1
  Al0+  Al94  1  0.92590237  0.82169027  0.98550766  1
  Al0+  Al95  1  0.67934139  0.42527224  0.34863575  1
  Si0+  Si96  1  0.92917080  0.31984734  0.65332644  1
  Si0+  Si97  1  0.32178658  0.57627776  0.01376484  1
  Si0+  Si98  1  0.57139963  0.17450277  0.31655280  1
  Si0+  Si99  1  0.32336954  0.57498256  0.68436153  1
  Si0+  Si100  1  0.42986806  0.82027319  0.31910186  1
  Si0+  Si101  1  0.92555432  0.82270895  0.64723951  1
  Si0+  Si102  1  0.42775939  0.32250849  0.65123757  1
  Si0+  Si103  1  0.67831470  0.42704470  0.68073590  1
  Si0+  Si104  1  0.57115399  0.67756453  0.98416596  1
  Si0+  Si105  1  0.82642811  0.07271648  0.01598356  1
  Si0+  Si106  1  0.81905941  0.57020461  0.68290647  1
  Si0+  Si107  1  0.92611370  0.81942206  0.31964866  1
  Si0+  Si108  1  0.07183177  0.68119019  0.31902891  1
  Si0+  Si109  1  0.92908031  0.32040526  0.98353231  1
  Si0+  Si110  1  0.42737404  0.32454290  0.98205468  1
  Si0+  Si111  1  0.43044733  0.82069074  0.64876996  1
  Si0+  Si112  1  0.17718938  0.92735099  0.01158138  1
  Si0+  Si113  1  0.68015493  0.92952041  0.68289994  1
  Si0+  Si114  1  0.57281245  0.68008945  0.31877225  1
  Si0+  Si115  1  0.07299163  0.17965917  0.65351300  1
  Si0+  Si116  1  0.57179061  0.67780025  0.65120233  1
  Si0+  Si117  1  0.82134952  0.07222786  0.68124823  1
  Si0+  Si118  1  0.17620669  0.92580143  0.68475075  1
  Si0+  Si119  1  0.82301928  0.07132807  0.34953214  1
  O2-  O120  1  0.24291181  -0.00304924  0.05801266  1
  O2-  O121  1  0.24146592  0.00507083  0.39687661  1
  O2-  O122  1  0.24266752  -0.00389818  0.72951620  1
  O2-  O123  1  0.25385834  0.50813036  0.05839085  1
  O2-  O124  1  0.25286405  0.50039740  0.39868280  1
  O2-  O125  1  0.25372437  0.50734935  0.72798773  1
  O2-  O126  1  0.75910545  0.00203535  0.05932504  1
  O2-  O127  1  0.75084313  0.00690260  0.39596773  1
  O2-  O128  1  0.75179726  -0.00005891  0.72416119  1
  O2-  O129  1  0.74652465  0.49892952  0.06246112  1
  O2-  O130  1  0.75435123  0.49333665  0.40049269  1
  O2-  O131  1  0.74765128  0.49905382  0.72406865  1
  O2-  O132  1  0.00295857  0.25295029  0.26885544  1
  O2-  O133  1  0.00147157  0.24987312  0.61148215  1
  O2-  O134  1  -0.00213527  0.25295017  0.93687868  1
  O2-  O135  1  0.00076129  0.75264834  0.27774761  1
  O2-  O136  1  -0.00305822  0.75736148  0.60259330  1
  O2-  O137  1  -0.00142568  0.74970268  0.93640892  1
  O2-  O138  1  0.50721397  0.24739766  0.27352845  1
  O2-  O139  1  0.49817611  0.25599818  0.60623280  1
  O2-  O140  1  0.50052303  0.25949977  0.93917692  1
  O2-  O141  1  0.49916602  0.74807646  0.27640814  1
  O2-  O142  1  0.49810791  0.74560166  0.60763929  1
  O2-  O143  1  0.50221326  0.74553938  0.93855363  1
  O2-  O144  1  0.07358268  0.17871031  0.09740326  1
  O2-  O145  1  0.07028067  0.17991519  0.43389166  1
  O2-  O146  1  0.07123741  0.18053292  0.75856377  1
  O2-  O147  1  0.07303395  0.67953866  0.09966685  1
  O2-  O148  1  0.07095277  0.68270909  0.42448797  1
  O2-  O149  1  0.06442951  0.67823381  0.76218994  1
  O2-  O150  1  0.56675910  0.17797767  0.10139117  1
  O2-  O151  1  0.56872399  0.17380075  0.42275248  1
  O2-  O152  1  0.57256999  0.17912834  0.76431185  1
  O2-  O153  1  0.57053969  0.67871278  0.08950842  1
  O2-  O154  1  0.57256623  0.68310264  0.42466070  1
  O2-  O155  1  0.57339578  0.67875167  0.75608344  1
  O2-  O156  1  0.18154896  0.43103767  0.23427364  1
  O2-  O157  1  0.17901254  0.42961639  0.56935817  1
  O2-  O158  1  0.18125930  0.43168596  0.90170490  1
  O2-  O159  1  0.17921349  0.92462023  0.23177292  1
  O2-  O160  1  0.17787645  0.92553664  0.57930134  1
  O2-  O161  1  0.18050396  0.92822002  0.90571412  1
  O2-  O162  1  0.67755083  0.43051810  0.23577499  1
  O2-  O163  1  0.67917042  0.42765820  0.57616594  1
  O2-  O164  1  0.67961292  0.42632417  0.89895920  1
  O2-  O165  1  0.67871067  0.92884186  0.23548767  1
  O2-  O166  1  0.68071432  0.92877231  0.57778319  1
  O2-  O167  1  0.67957772  0.93425644  0.89854669  1
  O2-  O168  1  0.42639972  0.32422241  0.08735490  1
  O2-  O169  1  0.43164716  0.31956454  0.43344060  1
  O2-  O170  1  0.42973978  0.32301362  0.75678592  1
  O2-  O171  1  0.43056310  0.82152941  0.10020426  1
  O2-  O172  1  0.43225278  0.81958749  0.42464169  1
  O2-  O173  1  0.43325489  0.82185643  0.75397266  1
  O2-  O174  1  0.92912466  0.31866348  0.08831493  1
  O2-  O175  1  0.92993479  0.32024503  0.43115854  1
  O2-  O176  1  0.92620439  0.31798480  0.75835246  1
  O2-  O177  1  0.92661867  0.82142208  0.09930054  1
  O2-  O178  1  0.92447926  0.81728599  0.42511264  1
  O2-  O179  1  0.92214751  0.82185468  0.75225957  1
  O2-  O180  1  0.32408508  0.06781853  0.23546353  1
  O2-  O181  1  0.31926316  0.06924092  0.57038775  1
  O2-  O182  1  0.32249393  0.06748158  0.90108541  1
  O2-  O183  1  0.31803343  0.57703572  0.23254120  1
  O2-  O184  1  0.32551763  0.57460329  0.57923785  1
  O2-  O185  1  0.32338443  0.57470411  0.90784659  1
  O2-  O186  1  0.82458288  0.06747754  0.24442154  1
  O2-  O187  1  0.82104560  0.07177799  0.57644128  1
  O2-  O188  1  0.82376416  0.07356294  0.90956750  1
  O2-  O189  1  0.81753428  0.57672618  0.23840813  1
  O2-  O190  1  0.81838541  0.57031627  0.57820258  1
  O2-  O191  1  0.81829206  0.56806268  0.90020357  1
  O2-  O192  1  0.04161783  0.07914781  0.26819488  1
  O2-  O193  1  0.04698852  0.08649264  0.60771137  1
  O2-  O194  1  0.04539406  0.08455714  0.92604093  1
  O2-  O195  1  0.04409624  0.58922297  0.27354032  1
  O2-  O196  1  0.03442902  0.58328611  0.59607060  1
  O2-  O197  1  0.03781234  0.57898492  0.93294213  1
  O2-  O198  1  0.54057304  0.08095672  0.27325362  1
  O2-  O199  1  0.53900858  0.08208885  0.59828731  1
  O2-  O200  1  0.53574885  0.08672447  0.93227473  1
  O2-  O201  1  0.55108096  0.58732310  0.27233447  1
  O2-  O202  1  0.54695895  0.58472547  0.60423826  1
  O2-  O203  1  0.54642193  0.58405325  0.93613019  1
  O2-  O204  1  0.17194803  0.20371069  0.26816164  1
  O2-  O205  1  0.16550647  0.20935545  0.60936395  1
  O2-  O206  1  0.16971610  0.21478769  0.93108644  1
  O2-  O207  1  0.16396859  0.70979327  0.27329965  1
  O2-  O208  1  0.16719745  0.70663552  0.59654645  1
  O2-  O209  1  0.16698425  0.70384409  0.92692493  1
  O2-  O210  1  0.66762540  0.19144238  0.27374516  1
  O2-  O211  1  0.66792206  0.20638453  0.59610078  1
  O2-  O212  1  0.66883318  0.20609619  0.93329654  1
  O2-  O213  1  0.66341955  0.71378024  0.27344223  1
  O2-  O214  1  0.66212385  0.70982872  0.60281997  1
  O2-  O215  1  0.66357520  0.70484669  0.93663193  1
  O2-  O216  1  0.08351151  0.45729220  0.06877758  1
  O2-  O217  1  0.08222962  0.45805946  0.40021069  1
  O2-  O218  1  0.08150125  0.46202424  0.73503871  1
  O2-  O219  1  0.08144053  0.94955165  0.05366254  1
  O2-  O220  1  0.07441400  0.94533907  0.39810439  1
  O2-  O221  1  0.07992629  0.94742588  0.72721195  1
  O2-  O222  1  0.57569666  0.45160190  0.06271935  1
  O2-  O223  1  0.58407141  0.45982824  0.40478557  1
  O2-  O224  1  0.58573285  0.45344123  0.72745497  1
  O2-  O225  1  0.58602356  0.96563906  0.06719867  1
  O2-  O226  1  0.58382219  0.95803683  0.40621696  1
  O2-  O227  1  0.58794681  0.95760459  0.72834689  1
  O2-  O228  1  0.21446631  0.33569555  0.06866392  1
  O2-  O229  1  0.20983332  0.33153468  0.40067324  1
  O2-  O230  1  0.21102838  0.33638846  0.73865577  1
  O2-  O231  1  0.20393884  0.83293446  0.05471440  1
  O2-  O232  1  0.21248831  0.83499516  0.40377212  1
  O2-  O233  1  0.20427836  0.83191889  0.72888754  1
  O2-  O234  1  0.70433594  0.32738070  0.06675414  1
  O2-  O235  1  0.70282131  0.32447304  0.39960913  1
  O2-  O236  1  0.70847779  0.33475535  0.72619417  1
  O2-  O237  1  0.70494771  0.83376348  0.06589635  1
  O2-  O238  1  0.71271884  0.83626928  0.40638205  1
  O2-  O239  1  0.70703522  0.83698097  0.72979770  1
  O2-  O240  1  0.46131546  0.41920929  0.26590206  1
  O2-  O241  1  0.44947104  0.41786830  0.60660971  1
  O2-  O242  1  0.44613960  0.41986118  0.93533711  1
  O2-  O243  1  0.46081402  0.91186998  0.27380583  1
  O2-  O244  1  0.46394702  0.90980031  0.60027422  1
  O2-  O245  1  0.46671973  0.91579185  0.93073405  1
  O2-  O246  1  0.95148894  0.42471775  0.26749936  1
  O2-  O247  1  0.95527882  0.41236907  0.60729629  1
  O2-  O248  1  0.95463940  0.41416040  0.93765687  1
  O2-  O249  1  0.94575815  0.91284182  0.27298727  1
  O2-  O250  1  0.94693853  0.91842340  0.60240260  1
  O2-  O251  1  0.95138459  0.91901386  0.92786134  1
  O2-  O252  1  0.33597163  0.29109961  0.26470132  1
  O2-  O253  1  0.33426571  0.29231650  0.60750768  1
  O2-  O254  1  0.33643231  0.29271809  0.93440663  1
  O2-  O255  1  0.33778544  0.79374651  0.27213700  1
  O2-  O256  1  0.33736621  0.79742691  0.60224048  1
  O2-  O257  1  0.33561378  0.79427600  0.92585353  1
  O2-  O258  1  0.82983090  0.29322854  0.26379057  1
  O2-  O259  1  0.83892802  0.29060220  0.60335218  1
  O2-  O260  1  0.83571796  0.29432944  0.93585576  1
  O2-  O261  1  0.83477058  0.78697791  0.27405502  1
  O2-  O262  1  0.83227341  0.79331050  0.60105014  1
  O2-  O263  1  0.82752809  0.79245253  0.93120180  1
  O2-  O264  1  0.41518233  0.03486927  0.06900572  1
  O2-  O265  1  0.41420692  0.03626836  0.40569700  1
  O2-  O266  1  0.41691566  0.03360001  0.73453325  1
  O2-  O267  1  0.41592498  0.55396917  0.05984528  1
  O2-  O268  1  0.42263760  0.54954316  0.39729349  1
  O2-  O269  1  0.41763081  0.55091388  0.73134836  1
  O2-  O270  1  0.92155533  0.04863056  0.05844569  1
  O2-  O271  1  0.91370021  0.04148421  0.39976871  1
  O2-  O272  1  0.91431627  0.04677857  0.72848921  1
  O2-  O273  1  0.91711192  0.54262486  0.06853590  1
  O2-  O274  1  0.92016762  0.54635118  0.40510323  1
  O2-  O275  1  0.91024434  0.54138009  0.72989790  1
  O2-  O276  1  0.29315587  0.16685951  0.06643375  1
  O2-  O277  1  0.29556848  0.17020428  0.40304016  1
  O2-  O278  1  0.29214378  0.16520844  0.73892500  1
  O2-  O279  1  0.29712751  0.67158058  0.05623051  1
  O2-  O280  1  0.29417490  0.66973582  0.40255511  1
  O2-  O281  1  0.29850109  0.67021519  0.72761734  1
  O2-  O282  1  0.79987507  0.16505829  0.06235354  1
  O2-  O283  1  0.80150996  0.16590694  0.39496092  1
  O2-  O284  1  0.79229706  0.16349631  0.72931720  1
  O2-  O285  1  0.79202031  0.66878999  0.06702234  1
  O2-  O286  1  0.78612492  0.66489315  0.40932566  1
  O2-  O287  1  0.79015546  0.66251989  0.72888451  1
