# generated using pymatgen
data_Ca2Al2SiO7
_symmetry_space_group_name_H-M   'P 1'
_cell_length_a   15.45383905
_cell_length_b   15.45312440
_cell_length_c   15.28019289
_cell_angle_alpha   89.99859855
_cell_angle_beta   90.00740998
_cell_angle_gamma   89.99703475
_symmetry_Int_Tables_number   1
_chemical_formula_structural   Ca2Al2SiO7
_chemical_formula_sum   'Ca48 Al48 Si24 O168'
_cell_volume   3649.06431571
_cell_formula_units_Z   24
loop_
 _symmetry_equiv_pos_site_id
 _symmetry_equiv_pos_as_xyz
  1  'x, y, z'
loop_
 _atom_type_symbol
 _atom_type_oxidation_number
  Ca2+  2.0
  Al0+  0.0
  Si0+  0.0
  O2-  -2.0
loop_
 _atom_site_type_symbol
 _atom_site_label
 _atom_site_symmetry_multiplicity
 _atom_site_fract_x
 _atom_site_fract_y
 _atom_site_fract_z
 _atom_site_occupancy
  Ca2+  Ca0  1  0.18002523  0.08734285  0.16849230  1
  Ca2+  Ca1  1  0.17209278  0.07971487  0.50716876  1
  Ca2+  Ca2  1  0.16751873  0.08232177  0.83958672  1
  Ca2+  Ca3  1  0.16229206  0.57767876  0.17494317  1
  Ca2+  Ca4  1  0.17305853  0.57872974  0.50461697  1
  Ca2+  Ca5  1  0.16843101  0.57468912  0.83846326  1
  Ca2+  Ca6  1  0.66925569  0.08290335  0.17375432  1
  Ca2+  Ca7  1  0.66112474  0.07272469  0.50082019  1
  Ca2+  Ca8  1  0.67079122  0.07680625  0.84096956  1
  Ca2+  Ca9  1  0.66429469  0.57957634  0.17082578  1
  Ca2+  Ca10  1  0.66428171  0.57753244  0.50224016  1
  Ca2+  Ca11  1  0.66516408  0.58545996  0.83882528  1
  Ca2+  Ca12  1  0.08818447  0.33296614  0.16028376  1
  Ca2+  Ca13  1  0.09239675  0.33278429  0.49993426  1
  Ca2+  Ca14  1  0.09731614  0.32304095  0.83125765  1
  Ca2+  Ca15  1  0.08210984  0.81872361  0.15875126  1
  Ca2+  Ca16  1  0.08317414  0.83086968  0.49624412  1
  Ca2+  Ca17  1  0.07336863  0.83937011  0.82664362  1
  Ca2+  Ca18  1  0.58485468  0.32280259  0.16186050  1
  Ca2+  Ca19  1  0.57651946  0.32925055  0.49267366  1
  Ca2+  Ca20  1  0.57608423  0.32385048  0.82701568  1
  Ca2+  Ca21  1  0.57941170  0.83266242  0.16590204  1
  Ca2+  Ca22  1  0.57328215  0.84044471  0.49487961  1
  Ca2+  Ca23  1  0.57838170  0.83036668  0.82723433  1
  Ca2+  Ca24  1  0.32129288  0.42552117  0.17512296  1
  Ca2+  Ca25  1  0.32799953  0.42692502  0.50802815  1
  Ca2+  Ca26  1  0.32775062  0.41595452  0.83340974  1
  Ca2+  Ca27  1  0.34083471  0.92640463  0.17172884  1
  Ca2+  Ca28  1  0.33459186  0.91977145  0.50563030  1
  Ca2+  Ca29  1  0.32804897  0.91804841  0.83382945  1
  Ca2+  Ca30  1  0.82659248  0.41756109  0.17351136  1
  Ca2+  Ca31  1  0.82641060  0.41532297  0.49890655  1
  Ca2+  Ca32  1  0.83234334  0.41871998  0.83729872  1
  Ca2+  Ca33  1  0.83057639  0.91823135  0.16701215  1
  Ca2+  Ca34  1  0.82091167  0.91034856  0.50708673  1
  Ca2+  Ca35  1  0.83287049  0.91573298  0.83814520  1
  Ca2+  Ca36  1  0.42624284  0.15848324  0.16283783  1
  Ca2+  Ca37  1  0.41651149  0.17240844  0.49328635  1
  Ca2+  Ca38  1  0.41501498  0.16955533  0.83144419  1
  Ca2+  Ca39  1  0.41606767  0.67143116  0.16614193  1
  Ca2+  Ca40  1  0.40191576  0.67763524  0.49715023  1
  Ca2+  Ca41  1  0.42089306  0.66688681  0.82636073  1
  Ca2+  Ca42  1  0.92276251  0.16706702  0.15694246  1
  Ca2+  Ca43  1  0.92592299  0.16506529  0.50024570  1
  Ca2+  Ca44  1  0.92916589  0.15872989  0.83215879  1
  Ca2+  Ca45  1  0.92691016  0.67059270  0.15942464  1
  Ca2+  Ca46  1  0.92412599  0.67174824  0.49550235  1
  Ca2+  Ca47  1  0.92309088  0.67773182  0.83174751  1
  Al0+  Al48  1  -0.00102947  0.00033776  0.00000438  1
  Al0+  Al49  1  -0.00032581  0.00180257  0.33047271  1
  Al0+  Al50  1  -0.00036245  0.00025096  0.65834798  1
  Al0+  Al51  1  -0.00185096  0.50075084  0.00006091  1
  Al0+  Al52  1  -0.00138426  0.49944926  0.33430790  1
  Al0+  Al53  1  -0.00133994  0.49805567  0.67064605  1
  Al0+  Al54  1  0.50046439  -0.00041327  -0.00222708  1
  Al0+  Al55  1  0.50100042  0.00115886  0.33310744  1
  Al0+  Al56  1  0.50236994  -0.00203584  0.67006896  1
  Al0+  Al57  1  0.49823571  0.50042150  -0.00288435  1
  Al0+  Al58  1  0.49864682  0.50103986  0.34099131  1
  Al0+  Al59  1  0.50054266  0.49791448  0.66670216  1
  Al0+  Al60  1  0.25049156  0.25084123  0.00650141  1
  Al0+  Al61  1  0.25115120  0.25038923  0.33939130  1
  Al0+  Al62  1  0.25213667  0.25055941  0.65980161  1
  Al0+  Al63  1  0.25053289  0.74847748  -0.00415640  1
  Al0+  Al64  1  0.24846581  0.75155997  0.32394232  1
  Al0+  Al65  1  0.25092547  0.75055290  0.67306727  1
  Al0+  Al66  1  0.74941232  0.24802201  -0.00170942  1
  Al0+  Al67  1  0.75157493  0.25003112  0.33532129  1
  Al0+  Al68  1  0.75255927  0.24919924  0.66672122  1
  Al0+  Al69  1  0.74855366  0.74896307  -0.00513542  1
  Al0+  Al70  1  0.74908351  0.75102370  0.33663179  1
  Al0+  Al71  1  0.75024005  0.74899907  0.66678577  1
  Al0+  Al72  1  0.07116515  0.18025423  0.65220920  1
  Al0+  Al73  1  0.82134504  0.07052180  0.01369784  1
  Al0+  Al74  1  0.67900198  0.92837488  0.68260442  1
  Al0+  Al75  1  0.68106571  0.93025244  0.34600923  1
  Al0+  Al76  1  0.67827304  0.42767727  0.34591604  1
  Al0+  Al77  1  0.93025291  0.82111091  0.98531680  1
  Al0+  Al78  1  0.42915073  0.82004792  0.65382430  1
  Al0+  Al79  1  0.07279247  0.67596917  0.98225477  1
  Al0+  Al80  1  0.43037403  0.31997947  0.65164440  1
  Al0+  Al81  1  0.56883447  0.67829955  0.98768026  1
  Al0+  Al82  1  0.56998838  0.18111921  0.32038351  1
  Al0+  Al83  1  0.57239300  0.17761619  0.98515003  1
  Al0+  Al84  1  0.42938665  0.82134198  0.31939704  1
  Al0+  Al85  1  0.17685724  0.42939973  0.35023374  1
  Al0+  Al86  1  0.32060183  0.06938224  0.01291468  1
  Al0+  Al87  1  0.06936411  0.67986453  0.32086743  1
  Al0+  Al88  1  0.17770908  0.93017223  0.67863703  1
  Al0+  Al89  1  0.32010997  0.57486972  0.34786585  1
  Al0+  Al90  1  0.17942130  0.43125670  0.01473678  1
  Al0+  Al91  1  0.32199036  0.57216739  0.68445796  1
  Al0+  Al92  1  0.17883646  0.42786127  0.68375726  1
  Al0+  Al93  1  0.32186664  0.06933090  0.34792565  1
  Al0+  Al94  1  0.07207261  0.18177289  0.98923389  1
  Al0+  Al95  1  0.92869403  0.82071603  0.65027008  1
  Si0+  Si96  1  0.67751720  0.42859841  0.01271813  1
  Si0+  Si97  1  0.32413276  0.57337039  0.01756036  1
  Si0+  Si98  1  0.57381271  0.67663732  0.31884731  1
  Si0+  Si99  1  0.42900210  0.32115937  0.98530897  1
  Si0+  Si100  1  0.81874094  0.57149430  0.01467474  1
  Si0+  Si101  1  0.17668749  0.92638157  0.01638377  1
  Si0+  Si102  1  0.92596040  0.32392918  0.64867674  1
  Si0+  Si103  1  0.67957763  0.42726691  0.68286801  1
  Si0+  Si104  1  0.92481538  0.82296818  0.31634299  1
  Si0+  Si105  1  0.57235135  0.67706784  0.64859840  1
  Si0+  Si106  1  0.92929796  0.31993986  0.31833260  1
  Si0+  Si107  1  0.82484520  0.07324890  0.35156784  1
  Si0+  Si108  1  0.92601072  0.32236453  0.98415014  1
  Si0+  Si109  1  0.07118010  0.67672834  0.65132687  1
  Si0+  Si110  1  0.82093668  0.57187032  0.34972454  1
  Si0+  Si111  1  0.32245463  0.07206883  0.68243854  1
  Si0+  Si112  1  0.82027157  0.57053168  0.68289006  1
  Si0+  Si113  1  0.57457234  0.17764988  0.65009896  1
  Si0+  Si114  1  0.42714987  0.32423194  0.31594720  1
  Si0+  Si115  1  0.67842562  0.92668801  0.01707165  1
  Si0+  Si116  1  0.07297503  0.17916422  0.31710152  1
  Si0+  Si117  1  0.82239355  0.07179742  0.68295410  1
  Si0+  Si118  1  0.42819120  0.82359100  0.98197069  1
  Si0+  Si119  1  0.17664364  0.92915259  0.34657380  1
  O2-  O120  1  0.24778578  -0.00726809  0.06071872  1
  O2-  O121  1  0.24491099  -0.00335586  0.39316185  1
  O2-  O122  1  0.25242473  0.00474762  0.72627353  1
  O2-  O123  1  0.24960024  0.51057344  0.06082754  1
  O2-  O124  1  0.24973148  0.50134980  0.39789581  1
  O2-  O125  1  0.24900581  0.50105117  0.73432618  1
  O2-  O126  1  0.74592989  -0.00323073  0.06102225  1
  O2-  O127  1  0.75830420  0.00202069  0.39436464  1
  O2-  O128  1  0.75363546  0.00372312  0.72771243  1
  O2-  O129  1  0.74853447  0.49903608  0.05631291  1
  O2-  O130  1  0.74947928  0.50569147  0.39377965  1
  O2-  O131  1  0.74913260  0.49918333  0.72572639  1
  O2-  O132  1  0.00261188  0.25165465  0.27599210  1
  O2-  O133  1  -0.00209848  0.25781838  0.60614558  1
  O2-  O134  1  -0.00326953  0.25556920  0.94099252  1
  O2-  O135  1  -0.00509995  0.75541098  0.27374297  1
  O2-  O136  1  0.00527114  0.74728582  0.60486330  1
  O2-  O137  1  0.00630685  0.75395791  0.93381556  1
  O2-  O138  1  0.49687443  0.25667536  0.27105651  1
  O2-  O139  1  0.50528179  0.24492958  0.60551240  1
  O2-  O140  1  0.49715974  0.25204893  0.93999722  1
  O2-  O141  1  0.50328755  0.74368418  0.27523779  1
  O2-  O142  1  0.50231394  0.74419761  0.60503834  1
  O2-  O143  1  0.49404063  0.75131055  0.93964607  1
  O2-  O144  1  0.07133961  0.18440755  0.10258286  1
  O2-  O145  1  0.07039309  0.17691807  0.42214546  1
  O2-  O146  1  0.07030265  0.17974732  0.76552006  1
  O2-  O147  1  0.06782593  0.67475561  0.09624241  1
  O2-  O148  1  0.06713078  0.68111528  0.43420106  1
  O2-  O149  1  0.06626352  0.67609774  0.75656685  1
  O2-  O150  1  0.57384520  0.17932503  0.09837098  1
  O2-  O151  1  0.56887008  0.18211988  0.43355877  1
  O2-  O152  1  0.57600449  0.18052324  0.75588982  1
  O2-  O153  1  0.56933257  0.67707494  0.10082826  1
  O2-  O154  1  0.57860910  0.67819495  0.42400174  1
  O2-  O155  1  0.57320332  0.67795634  0.75465138  1
  O2-  O156  1  0.17604941  0.43029880  0.23626322  1
  O2-  O157  1  0.17911904  0.43075625  0.57053365  1
  O2-  O158  1  0.18338639  0.42795618  0.90212969  1
  O2-  O159  1  0.17561994  0.93244988  0.24096397  1
  O2-  O160  1  0.17862960  0.93122411  0.56521736  1
  O2-  O161  1  0.17640171  0.92979039  0.91058495  1
  O2-  O162  1  0.68210478  0.42720795  0.23234486  1
  O2-  O163  1  0.68161483  0.42721747  0.57771302  1
  O2-  O164  1  0.67938686  0.42996032  0.90735086  1
  O2-  O165  1  0.68276481  0.93041609  0.23279246  1
  O2-  O166  1  0.67839625  0.93023906  0.56930664  1
  O2-  O167  1  0.67933095  0.92701947  0.91143535  1
  O2-  O168  1  0.43271470  0.32322778  0.09075866  1
  O2-  O169  1  0.42944612  0.32181446  0.42159527  1
  O2-  O170  1  0.43236405  0.31761053  0.76534467  1
  O2-  O171  1  0.43088021  0.82536504  0.08776397  1
  O2-  O172  1  0.42969310  0.82243359  0.43242408  1
  O2-  O173  1  0.43274827  0.82095636  0.76685323  1
  O2-  O174  1  0.92337007  0.32186276  0.09009137  1
  O2-  O175  1  0.92666159  0.31851391  0.42339465  1
  O2-  O176  1  0.91905272  0.32340516  0.75373663  1
  O2-  O177  1  0.92848857  0.81704357  0.09928032  1
  O2-  O178  1  0.92385794  0.82123054  0.42196819  1
  O2-  O179  1  0.92825115  0.81998310  0.76311386  1
  O2-  O180  1  0.32196156  0.06898882  0.23452247  1
  O2-  O181  1  0.32256449  0.07036353  0.57665080  1
  O2-  O182  1  0.31890301  0.07032428  0.89974543  1
  O2-  O183  1  0.32006815  0.57277716  0.23389165  1
  O2-  O184  1  0.31964047  0.57289775  0.57103745  1
  O2-  O185  1  0.32860995  0.56969794  0.91246187  1
  O2-  O186  1  0.82547175  0.07462783  0.24591734  1
  O2-  O187  1  0.82057264  0.07340011  0.57717824  1
  O2-  O188  1  0.82033999  0.07061272  0.90068766  1
  O2-  O189  1  0.82116505  0.57012936  0.24392809  1
  O2-  O190  1  0.81923086  0.56934206  0.57762422  1
  O2-  O191  1  0.81745330  0.57040397  0.90936781  1
  O2-  O192  1  0.04430415  0.08806269  0.26828397  1
  O2-  O193  1  0.03694452  0.08698479  0.59343140  1
  O2-  O194  1  0.04161927  0.08496289  0.93602004  1
  O2-  O195  1  0.03521504  0.58339135  0.26748478  1
  O2-  O196  1  0.04117071  0.58354861  0.60604830  1
  O2-  O197  1  0.03648417  0.58001323  0.92931355  1
  O2-  O198  1  0.53886504  0.08562372  0.26506982  1
  O2-  O199  1  0.54970596  0.08279651  0.60746412  1
  O2-  O200  1  0.54263431  0.08117581  0.93104547  1
  O2-  O201  1  0.55067006  0.58128160  0.27470197  1
  O2-  O202  1  0.55089191  0.58147971  0.60535260  1
  O2-  O203  1  0.54097945  0.58160471  0.93070886  1
  O2-  O204  1  0.16600837  0.20665638  0.27226350  1
  O2-  O205  1  0.16717791  0.20835896  0.59620758  1
  O2-  O206  1  0.16856512  0.21342438  0.93557921  1
  O2-  O207  1  0.16286975  0.70997356  0.26087338  1
  O2-  O208  1  0.16618780  0.70155509  0.60936016  1
  O2-  O209  1  0.17432360  0.69532675  0.93301698  1
  O2-  O210  1  0.66862464  0.21096840  0.26850032  1
  O2-  O211  1  0.66805488  0.20449283  0.60423938  1
  O2-  O212  1  0.66750456  0.21020547  0.92931673  1
  O2-  O213  1  0.66701539  0.70367379  0.27109292  1
  O2-  O214  1  0.66615241  0.70204928  0.60325912  1
  O2-  O215  1  0.66445416  0.70748183  0.93078714  1
  O2-  O216  1  0.07936363  0.45677374  0.06595357  1
  O2-  O217  1  0.07706736  0.45526186  0.40190845  1
  O2-  O218  1  0.07750569  0.44974020  0.73480181  1
  O2-  O219  1  0.08379852  0.95210422  0.06292005  1
  O2-  O220  1  0.08238396  0.95444999  0.39271240  1
  O2-  O221  1  0.08031447  0.96288230  0.73018522  1
  O2-  O222  1  0.58590868  0.45686113  0.05981880  1
  O2-  O223  1  0.58259193  0.45470609  0.40278270  1
  O2-  O224  1  0.58810719  0.45342902  0.73083961  1
  O2-  O225  1  0.58428537  0.95193872  0.06149280  1
  O2-  O226  1  0.58652875  0.96543470  0.40063581  1
  O2-  O227  1  0.58382106  0.95908101  0.73951281  1
  O2-  O228  1  0.21320320  0.33689654  0.07156633  1
  O2-  O229  1  0.20477336  0.33090584  0.40226446  1
  O2-  O230  1  0.21287344  0.32883611  0.73264671  1
  O2-  O231  1  0.20053840  0.83060065  0.05940694  1
  O2-  O232  1  0.20063471  0.83462045  0.38955382  1
  O2-  O233  1  0.20627844  0.83503508  0.73581480  1
  O2-  O234  1  0.70573925  0.33694663  0.05989884  1
  O2-  O235  1  0.71526381  0.33436310  0.40286807  1
  O2-  O236  1  0.70929806  0.33568101  0.73029399  1
  O2-  O237  1  0.70531288  0.83279450  0.06223208  1
  O2-  O238  1  0.70773761  0.83313259  0.40207799  1
  O2-  O239  1  0.70977647  0.83076166  0.73444444  1
  O2-  O240  1  0.45169845  0.41937483  0.27284698  1
  O2-  O241  1  0.46370313  0.41587366  0.59760076  1
  O2-  O242  1  0.45490001  0.41344551  0.93667399  1
  O2-  O243  1  0.46611731  0.91559606  0.26441975  1
  O2-  O244  1  0.46203998  0.91721508  0.60092287  1
  O2-  O245  1  0.45702327  0.91480711  0.93342690  1
  O2-  O246  1  0.95220074  0.41306793  0.27096643  1
  O2-  O247  1  0.94767568  0.41875338  0.60298557  1
  O2-  O248  1  0.94760082  0.41696622  0.93916285  1
  O2-  O249  1  0.94806495  0.91814024  0.27199211  1
  O2-  O250  1  0.95553776  0.91678200  0.59403946  1
  O2-  O251  1  0.95419872  0.92064187  0.93269378  1
  O2-  O252  1  0.33292703  0.29725975  0.27199428  1
  O2-  O253  1  0.33602634  0.29034344  0.59393417  1
  O2-  O254  1  0.33612003  0.29250818  0.94045033  1
  O2-  O255  1  0.33389274  0.79476403  0.26094916  1
  O2-  O256  1  0.33067178  0.79235165  0.60130524  1
  O2-  O257  1  0.33306784  0.80252028  0.93766132  1
  O2-  O258  1  0.83872728  0.29039332  0.26894649  1
  O2-  O259  1  0.83403310  0.29420910  0.59936337  1
  O2-  O260  1  0.83348466  0.29623424  0.93606275  1
  O2-  O261  1  0.83179208  0.79554564  0.26996677  1
  O2-  O262  1  0.83282873  0.78485675  0.59709685  1
  O2-  O263  1  0.83316163  0.78844073  0.93180335  1
  O2-  O264  1  0.41838238  0.03851324  0.06611509  1
  O2-  O265  1  0.41731549  0.03804319  0.40234069  1
  O2-  O266  1  0.41584363  0.04633135  0.72885000  1
  O2-  O267  1  0.41588875  0.54226286  0.06554490  1
  O2-  O268  1  0.41925353  0.55204628  0.40195925  1
  O2-  O269  1  0.42167315  0.54102228  0.73492064  1
  O2-  O270  1  0.91755122  0.04088437  0.07002392  1
  O2-  O271  1  0.91953622  0.04963060  0.39684176  1
  O2-  O272  1  0.91618698  0.04426192  0.72640155  1
  O2-  O273  1  0.90969653  0.54376232  0.06363509  1
  O2-  O274  1  0.91154556  0.54138416  0.39853461  1
  O2-  O275  1  0.91063667  0.54210824  0.73242863  1
  O2-  O276  1  0.28984685  0.16445703  0.07003612  1
  O2-  O277  1  0.29257431  0.16581917  0.40226909  1
  O2-  O278  1  0.29717834  0.16628284  0.72607269  1
  O2-  O279  1  0.30554055  0.67029597  0.05978709  1
  O2-  O280  1  0.28808144  0.67405826  0.39696793  1
  O2-  O281  1  0.29729979  0.67041091  0.73887099  1
  O2-  O282  1  0.79117409  0.16812305  0.06756252  1
  O2-  O283  1  0.79830465  0.16580622  0.39866008  1
  O2-  O284  1  0.79915968  0.16618417  0.72944682  1
  O2-  O285  1  0.78850908  0.66211027  0.06265795  1
  O2-  O286  1  0.79822139  0.66573463  0.39633383  1
  O2-  O287  1  0.79113688  0.66109636  0.73150647  1
