# generated using pymatgen
data_Ca2Al2SiO7
_symmetry_space_group_name_H-M   'P 1'
_cell_length_a   15.46440496
_cell_length_b   15.46742845
_cell_length_c   15.28920386
_cell_angle_alpha   89.99906680
_cell_angle_beta   90.00269829
_cell_angle_gamma   90.01091898
_symmetry_Int_Tables_number   1
_chemical_formula_structural   Ca2Al2SiO7
_chemical_formula_sum   'Ca48 Al48 Si24 O168'
_cell_volume   3657.09458161
_cell_formula_units_Z   24
loop_
 _symmetry_equiv_pos_site_id
 _symmetry_equiv_pos_as_xyz
  1  'x, y, z'
loop_
 _atom_type_symbol
 _atom_type_oxidation_number
  Ca2+  2.0
  Al0+  0.0
  Si0+  0.0
  O2-  -2.0
loop_
 _atom_site_type_symbol
 _atom_site_label
 _atom_site_symmetry_multiplicity
 _atom_site_fract_x
 _atom_site_fract_y
 _atom_site_fract_z
 _atom_site_occupancy
  Ca2+  Ca0  1  0.17479900  0.08835832  0.17713764  1
  Ca2+  Ca1  1  0.16454342  0.08254734  0.50044042  1
  Ca2+  Ca2  1  0.16964621  0.09130993  0.83774599  1
  Ca2+  Ca3  1  0.16485028  0.57278582  0.17350104  1
  Ca2+  Ca4  1  0.16896432  0.58063729  0.50664010  1
  Ca2+  Ca5  1  0.17134519  0.58921424  0.83220301  1
  Ca2+  Ca6  1  0.68096134  0.09343565  0.16850828  1
  Ca2+  Ca7  1  0.68018955  0.07926297  0.51026278  1
  Ca2+  Ca8  1  0.67593271  0.09189318  0.83516590  1
  Ca2+  Ca9  1  0.66771291  0.56919965  0.17104869  1
  Ca2+  Ca10  1  0.66982128  0.57387480  0.50814336  1
  Ca2+  Ca11  1  0.67250738  0.57081959  0.83269602  1
  Ca2+  Ca12  1  0.07965606  0.32352270  0.16085441  1
  Ca2+  Ca13  1  0.08579869  0.32249164  0.49461194  1
  Ca2+  Ca14  1  0.07671449  0.32145441  0.82942796  1
  Ca2+  Ca15  1  0.08095887  0.84073236  0.17130388  1
  Ca2+  Ca16  1  0.07355925  0.83030073  0.49600867  1
  Ca2+  Ca17  1  0.07465218  0.82794472  0.82119700  1
  Ca2+  Ca18  1  0.58521752  0.33009613  0.15975111  1
  Ca2+  Ca19  1  0.58327107  0.33639901  0.50117627  1
  Ca2+  Ca20  1  0.58494404  0.32601034  0.82672414  1
  Ca2+  Ca21  1  0.57612376  0.83650059  0.16640528  1
  Ca2+  Ca22  1  0.58106180  0.83541943  0.49449239  1
  Ca2+  Ca23  1  0.58479563  0.83474826  0.82516641  1
  Ca2+  Ca24  1  0.32362521  0.41464558  0.17504565  1
  Ca2+  Ca25  1  0.32834791  0.41734615  0.50759406  1
  Ca2+  Ca26  1  0.33771633  0.41695377  0.82904518  1
  Ca2+  Ca27  1  0.32786072  0.92936469  0.17646792  1
  Ca2+  Ca28  1  0.32999512  0.91867798  0.49785555  1
  Ca2+  Ca29  1  0.32897431  0.92634217  0.84002624  1
  Ca2+  Ca30  1  0.82329952  0.40382809  0.16873622  1
  Ca2+  Ca31  1  0.82166702  0.41965322  0.50899403  1
  Ca2+  Ca32  1  0.82508346  0.40789055  0.83658078  1
  Ca2+  Ca33  1  0.83853800  0.92964024  0.17295743  1
  Ca2+  Ca34  1  0.83707645  0.92213177  0.50707585  1
  Ca2+  Ca35  1  0.83224206  0.92559487  0.82997681  1
  Ca2+  Ca36  1  0.42170277  0.16098377  0.15979408  1
  Ca2+  Ca37  1  0.42474948  0.16630829  0.49918083  1
  Ca2+  Ca38  1  0.42911236  0.16848474  0.82596326  1
  Ca2+  Ca39  1  0.41289681  0.67545328  0.16673961  1
  Ca2+  Ca40  1  0.41446542  0.67156250  0.49524912  1
  Ca2+  Ca41  1  0.41699522  0.66728130  0.82416963  1
  Ca2+  Ca42  1  0.92679966  0.16387250  0.16049106  1
  Ca2+  Ca43  1  0.92497380  0.15601868  0.49638394  1
  Ca2+  Ca44  1  0.92081423  0.16298201  0.83106592  1
  Ca2+  Ca45  1  0.91405095  0.67568148  0.16567413  1
  Ca2+  Ca46  1  0.90513215  0.67874831  0.50010883  1
  Ca2+  Ca47  1  0.91764845  0.67247441  0.81955707  1
  Al0+  Al48  1  -0.00022555  -0.00292433  -0.00149139  1
  Al0+  Al49  1  0.00265824  -0.00055710  0.33127713  1
  Al0+  Al50  1  0.00021657  -0.00209326  0.66429288  1
  Al0+  Al51  1  -0.00020086  0.50217009  -0.00330353  1
  Al0+  Al52  1  -0.00185718  0.50077160  0.33758817  1
  Al0+  Al53  1  0.00234942  0.49814542  0.66694449  1
  Al0+  Al54  1  0.49844940  -0.00065010  -0.00112728  1
  Al0+  Al55  1  0.50068445  0.00023092  0.33039233  1
  Al0+  Al56  1  0.49889231  0.00050311  0.66493563  1
  Al0+  Al57  1  0.50083406  0.50290663  0.00503981  1
  Al0+  Al58  1  0.50076560  0.49940546  0.33425398  1
  Al0+  Al59  1  0.49802611  0.50131696  0.67077251  1
  Al0+  Al60  1  0.25077039  0.25235367  0.00066840  1
  Al0+  Al61  1  0.25266837  0.25123461  0.33867107  1
  Al0+  Al62  1  0.25061700  0.25061787  0.66042300  1
  Al0+  Al63  1  0.25012747  0.75121443  0.00118026  1
  Al0+  Al64  1  0.25016501  0.75128795  0.32903143  1
  Al0+  Al65  1  0.24861447  0.74934420  0.66755671  1
  Al0+  Al66  1  0.74927955  0.24918235  0.00196494  1
  Al0+  Al67  1  0.75001110  0.24953291  0.34439879  1
  Al0+  Al68  1  0.75082986  0.24792624  0.66970570  1
  Al0+  Al69  1  0.74801537  0.74859757  0.00023845  1
  Al0+  Al70  1  0.74913012  0.74924024  0.32352079  1
  Al0+  Al71  1  0.74799076  0.74986789  0.66932300  1
  Al0+  Al72  1  0.92905063  0.82095352  0.31741705  1
  Al0+  Al73  1  0.31800540  0.57132608  0.67966778  1
  Al0+  Al74  1  0.67886393  0.42859323  0.68361458  1
  Al0+  Al75  1  0.82353619  0.06963595  0.68315170  1
  Al0+  Al76  1  0.92744755  0.81801402  0.65145505  1
  Al0+  Al77  1  0.32008958  0.07234809  0.01175624  1
  Al0+  Al78  1  0.67910444  0.42889499  0.34861997  1
  Al0+  Al79  1  0.67583816  0.92917239  0.68011794  1
  Al0+  Al80  1  0.07160558  0.18120158  0.31980949  1
  Al0+  Al81  1  0.92849468  0.32094250  0.98634259  1
  Al0+  Al82  1  0.07297652  0.67628496  0.65107482  1
  Al0+  Al83  1  0.43130375  0.32222231  0.65092593  1
  Al0+  Al84  1  0.17957768  0.92907623  0.34967914  1
  Al0+  Al85  1  0.42865742  0.82183446  0.31825791  1
  Al0+  Al86  1  0.32433733  0.07266419  0.35116518  1
  Al0+  Al87  1  0.82060881  0.06874145  0.01484870  1
  Al0+  Al88  1  0.17720587  0.42880842  0.34710379  1
  Al0+  Al89  1  0.82320995  0.57083656  0.68079744  1
  Al0+  Al90  1  0.82181922  0.06906825  0.34677851  1
  Al0+  Al91  1  0.68091071  0.42960281  0.01457288  1
  Al0+  Al92  1  0.07288483  0.17716252  0.98587361  1
  Al0+  Al93  1  0.57341452  0.17774130  0.64959350  1
  Al0+  Al94  1  0.07000331  0.17909108  0.65159469  1
  Al0+  Al95  1  0.56925206  0.17938609  0.98810252  1
  Si0+  Si96  1  0.42681581  0.82202410  0.65255778  1
  Si0+  Si97  1  0.92733566  0.81988223  0.98401137  1
  Si0+  Si98  1  0.32100191  0.57155551  0.34754724  1
  Si0+  Si99  1  0.07184792  0.67956157  0.98547294  1
  Si0+  Si100  1  0.56906106  0.68018449  0.65280806  1
  Si0+  Si101  1  0.42902486  0.81942389  0.98309426  1
  Si0+  Si102  1  0.92626517  0.32313179  0.32008869  1
  Si0+  Si103  1  0.67859360  0.92645128  0.34583728  1
  Si0+  Si104  1  0.17814771  0.43127177  0.01359049  1
  Si0+  Si105  1  0.82348140  0.57407558  0.01795306  1
  Si0+  Si106  1  0.17894434  0.92655051  0.01606926  1
  Si0+  Si107  1  0.32085143  0.57352034  0.01659495  1
  Si0+  Si108  1  0.43083625  0.32256084  0.31796670  1
  Si0+  Si109  1  0.42722422  0.32621403  0.98570741  1
  Si0+  Si110  1  0.82049523  0.57525968  0.34861734  1
  Si0+  Si111  1  0.92695274  0.32222291  0.64959795  1
  Si0+  Si112  1  0.67693249  0.92502039  0.01790715  1
  Si0+  Si113  1  0.17849504  0.42439579  0.68542958  1
  Si0+  Si114  1  0.07235782  0.67637065  0.31522936  1
  Si0+  Si115  1  0.32043158  0.07208567  0.68140816  1
  Si0+  Si116  1  0.18034640  0.92932065  0.68149558  1
  Si0+  Si117  1  0.56984339  0.67826221  0.98333009  1
  Si0+  Si118  1  0.57222868  0.18014157  0.31864477  1
  Si0+  Si119  1  0.57087467  0.67608973  0.31401425  1
  O2-  O120  1  0.24133470  0.00174344  0.05826109  1
  O2-  O121  1  0.25036953  0.00200759  0.40031725  1
  O2-  O122  1  0.24860085  0.00239202  0.72466662  1
  O2-  O123  1  0.25134857  0.50072268  0.05693058  1
  O2-  O124  1  0.25099298  0.50547402  0.39197607  1
  O2-  O125  1  0.24365208  0.49752818  0.72912066  1
  O2-  O126  1  0.74529023  -0.00629488  0.06195016  1
  O2-  O127  1  0.74903886  -0.00871729  0.39095414  1
  O2-  O128  1  0.74540508  0.00244187  0.73142772  1
  O2-  O129  1  0.75907169  0.50123778  0.06194990  1
  O2-  O130  1  0.75450897  0.50403833  0.39178766  1
  O2-  O131  1  0.75676433  0.49503833  0.73306538  1
  O2-  O132  1  -0.00297511  0.25711497  0.27473210  1
  O2-  O133  1  -0.00570590  0.25269207  0.60490668  1
  O2-  O134  1  -0.00131714  0.24703708  0.93631676  1
  O2-  O135  1  0.00378143  0.74516299  0.27051373  1
  O2-  O136  1  -0.00410564  0.74223376  0.60136101  1
  O2-  O137  1  -0.00082444  0.74859548  0.94379657  1
  O2-  O138  1  0.50026873  0.25040514  0.27544903  1
  O2-  O139  1  0.50431412  0.25255189  0.59911391  1
  O2-  O140  1  0.49396588  0.25511484  0.94347190  1
  O2-  O141  1  0.50290223  0.74638355  0.27045952  1
  O2-  O142  1  0.50070086  0.75386100  0.61082929  1
  O2-  O143  1  0.50066294  0.75032879  0.93946518  1
  O2-  O144  1  0.07482572  0.18006352  0.09950087  1
  O2-  O145  1  0.07002223  0.18120734  0.43269799  1
  O2-  O146  1  0.07264188  0.18061876  0.76478137  1
  O2-  O147  1  0.07335442  0.67870785  0.09055176  1
  O2-  O148  1  0.07469794  0.67610978  0.41988397  1
  O2-  O149  1  0.07663424  0.68456830  0.76532361  1
  O2-  O150  1  0.56889888  0.18124505  0.10184379  1
  O2-  O151  1  0.57144101  0.18012958  0.42312089  1
  O2-  O152  1  0.56919082  0.17692917  0.76352120  1
  O2-  O153  1  0.56741677  0.67791189  0.08834698  1
  O2-  O154  1  0.57077809  0.67525828  0.41943169  1
  O2-  O155  1  0.56616224  0.68051950  0.75833852  1
  O2-  O156  1  0.17946073  0.43006161  0.23295830  1
  O2-  O157  1  0.18199592  0.42339268  0.57989028  1
  O2-  O158  1  0.17865764  0.43323347  0.90904020  1
  O2-  O159  1  0.18181473  0.93076340  0.23545141  1
  O2-  O160  1  0.18278694  0.92764340  0.57695041  1
  O2-  O161  1  0.18378017  0.91969624  0.91060949  1
  O2-  O162  1  0.67878301  0.42863495  0.23507584  1
  O2-  O163  1  0.67747704  0.43368009  0.56998006  1
  O2-  O164  1  0.67774138  0.43271558  0.90243590  1
  O2-  O165  1  0.67822914  0.92838457  0.23994123  1
  O2-  O166  1  0.67489297  0.92826017  0.56634744  1
  O2-  O167  1  0.67787037  0.92120124  0.91290286  1
  O2-  O168  1  0.42682020  0.32814811  0.09161046  1
  O2-  O169  1  0.43302047  0.32701663  0.42233974  1
  O2-  O170  1  0.43026534  0.31952346  0.76515798  1
  O2-  O171  1  0.42860038  0.81692508  0.08795366  1
  O2-  O172  1  0.43052274  0.81863158  0.43146974  1
  O2-  O173  1  0.42525562  0.81995485  0.75815978  1
  O2-  O174  1  0.93163474  0.32141236  0.10039205  1
  O2-  O175  1  0.92667754  0.32325887  0.42528476  1
  O2-  O176  1  0.92950623  0.32197789  0.75536777  1
  O2-  O177  1  0.92788207  0.81940742  0.08926787  1
  O2-  O178  1  0.92597897  0.81775700  0.42956306  1
  O2-  O179  1  0.93087661  0.81902892  0.76568622  1
  O2-  O180  1  0.32474744  0.07181780  0.23696092  1
  O2-  O181  1  0.32169457  0.06927690  0.57679297  1
  O2-  O182  1  0.32128285  0.06856091  0.89838422  1
  O2-  O183  1  0.32076985  0.56913035  0.24117642  1
  O2-  O184  1  0.31792822  0.57302700  0.56675622  1
  O2-  O185  1  0.32040047  0.57728555  0.91187613  1
  O2-  O186  1  0.82008660  0.07115205  0.23324134  1
  O2-  O187  1  0.82555116  0.06495919  0.56962285  1
  O2-  O188  1  0.82131105  0.06667482  0.90247999  1
  O2-  O189  1  0.81895879  0.57705668  0.24272491  1
  O2-  O190  1  0.81579232  0.57211703  0.56703709  1
  O2-  O191  1  0.82095146  0.57881087  0.91320290  1
  O2-  O192  1  0.04284740  0.08454343  0.26551275  1
  O2-  O193  1  0.04157269  0.08153862  0.59916799  1
  O2-  O194  1  0.04875817  0.07657356  0.93503000  1
  O2-  O195  1  0.04451397  0.58267344  0.26859622  1
  O2-  O196  1  0.05695739  0.57365999  0.60327689  1
  O2-  O197  1  0.04861163  0.58788567  0.93646868  1
  O2-  O198  1  0.54659414  0.08832896  0.27003722  1
  O2-  O199  1  0.53960506  0.08057573  0.59643450  1
  O2-  O200  1  0.53910482  0.08242240  0.93417628  1
  O2-  O201  1  0.54139113  0.58372530  0.26628965  1
  O2-  O202  1  0.53717888  0.59032913  0.60499220  1
  O2-  O203  1  0.53874902  0.58767112  0.93582874  1
  O2-  O204  1  0.17033538  0.21281565  0.26933460  1
  O2-  O205  1  0.16587002  0.21062237  0.59700003  1
  O2-  O206  1  0.17080877  0.20986657  0.93319595  1
  O2-  O207  1  0.16563640  0.70111611  0.26689826  1
  O2-  O208  1  0.16932550  0.71095835  0.59740856  1
  O2-  O209  1  0.16389294  0.70962337  0.93871996  1
  O2-  O210  1  0.66448699  0.21152172  0.27365883  1
  O2-  O211  1  0.67395284  0.20139428  0.59991444  1
  O2-  O212  1  0.66509821  0.21080141  0.93493943  1
  O2-  O213  1  0.66299713  0.70018409  0.26409693  1
  O2-  O214  1  0.66044129  0.70553481  0.60464760  1
  O2-  O215  1  0.66255644  0.70395910  0.93699626  1
  O2-  O216  1  0.08759747  0.46233495  0.06213008  1
  O2-  O217  1  0.08041029  0.45672858  0.40137131  1
  O2-  O218  1  0.08357050  0.44423152  0.73011385  1
  O2-  O219  1  0.08256460  0.94385118  0.05837416  1
  O2-  O220  1  0.08108713  0.95517291  0.40141515  1
  O2-  O221  1  0.08835217  0.95478116  0.72882474  1
  O2-  O222  1  0.58518712  0.46492966  0.07006474  1
  O2-  O223  1  0.58280659  0.46219252  0.40138300  1
  O2-  O224  1  0.58257507  0.46360781  0.73650070  1
  O2-  O225  1  0.58188323  0.94979503  0.06131005  1
  O2-  O226  1  0.58532024  0.95213443  0.39117238  1
  O2-  O227  1  0.57519654  0.95236599  0.73274583  1
  O2-  O228  1  0.20554192  0.34016927  0.06259435  1
  O2-  O229  1  0.21216815  0.33576005  0.40331583  1
  O2-  O230  1  0.21114266  0.33322352  0.73268655  1
  O2-  O231  1  0.21099976  0.83598066  0.06588897  1
  O2-  O232  1  0.20948501  0.82952473  0.39932899  1
  O2-  O233  1  0.21125559  0.83934061  0.73108863  1
  O2-  O234  1  0.70910098  0.33321123  0.07021664  1
  O2-  O235  1  0.70852530  0.33473440  0.40615760  1
  O2-  O236  1  0.70309293  0.32856286  0.73421071  1
  O2-  O237  1  0.70089611  0.83073083  0.06475972  1
  O2-  O238  1  0.69903362  0.82983099  0.38742666  1
  O2-  O239  1  0.70354442  0.83122538  0.73471740  1
  O2-  O240  1  0.45833073  0.41409687  0.26827266  1
  O2-  O241  1  0.45613348  0.42284505  0.60016720  1
  O2-  O242  1  0.45410538  0.42039228  0.94102217  1
  O2-  O243  1  0.46158790  0.91704778  0.26154895  1
  O2-  O244  1  0.45050237  0.91379618  0.60440823  1
  O2-  O245  1  0.45454480  0.91134622  0.93551723  1
  O2-  O246  1  0.94659620  0.41880937  0.27485634  1
  O2-  O247  1  0.95167338  0.41615396  0.60384521  1
  O2-  O248  1  0.95624936  0.42022401  0.93370358  1
  O2-  O249  1  0.96376794  0.91538568  0.26150157  1
  O2-  O250  1  0.96193973  0.91379039  0.59846113  1
  O2-  O251  1  0.95510439  0.91047620  0.93541512  1
  O2-  O252  1  0.33809455  0.29651132  0.27168396  1
  O2-  O253  1  0.33377226  0.29314795  0.59721044  1
  O2-  O254  1  0.33308684  0.30470016  0.93968029  1
  O2-  O255  1  0.33361716  0.78990296  0.26055550  1
  O2-  O256  1  0.33738109  0.78927820  0.60462384  1
  O2-  O257  1  0.33729353  0.78920789  0.93622048  1
  O2-  O258  1  0.83254059  0.29325922  0.27587201  1
  O2-  O259  1  0.83222321  0.29941045  0.60572726  1
  O2-  O260  1  0.82992071  0.29311666  0.93522369  1
  O2-  O261  1  0.83337600  0.79035191  0.25931532  1
  O2-  O262  1  0.82762428  0.79172297  0.59960695  1
  O2-  O263  1  0.83494421  0.79117749  0.93875874  1
  O2-  O264  1  0.41493729  0.03594367  0.06667022  1
  O2-  O265  1  0.42239643  0.03941614  0.40183430  1
  O2-  O266  1  0.41117238  0.04207362  0.72940759  1
  O2-  O267  1  0.41291771  0.54953926  0.06490053  1
  O2-  O268  1  0.41445446  0.54604716  0.39295314  1
  O2-  O269  1  0.41342280  0.54190695  0.73723267  1
  O2-  O270  1  0.91803049  0.03593047  0.06759890  1
  O2-  O271  1  0.91850248  0.03794323  0.39779232  1
  O2-  O272  1  0.92034472  0.03489963  0.73651740  1
  O2-  O273  1  0.91970291  0.55475166  0.06157896  1
  O2-  O274  1  0.91511032  0.55596773  0.39383295  1
  O2-  O275  1  0.92531155  0.55151047  0.73024866  1
  O2-  O276  1  0.29671792  0.17125470  0.06546001  1
  O2-  O277  1  0.30070787  0.17165821  0.40307785  1
  O2-  O278  1  0.29247287  0.16434947  0.72696158  1
  O2-  O279  1  0.29011763  0.66425636  0.06547839  1
  O2-  O280  1  0.29870834  0.66658319  0.39045501  1
  O2-  O281  1  0.28753921  0.66742334  0.73736662  1
  O2-  O282  1  0.78911576  0.16482530  0.06922658  1
  O2-  O283  1  0.79018006  0.16289882  0.40405189  1
  O2-  O284  1  0.79976005  0.16915544  0.73524673  1
  O2-  O285  1  0.79133593  0.66542035  0.06659203  1
  O2-  O286  1  0.78928089  0.66775800  0.39349503  1
  O2-  O287  1  0.78941661  0.66696382  0.73524679  1
