# generated using pymatgen
data_Ca2Al2SiO7
_symmetry_space_group_name_H-M   'P 1'
_cell_length_a   15.45696504
_cell_length_b   15.45695162
_cell_length_c   15.28351169
_cell_angle_alpha   90.00265555
_cell_angle_beta   89.99305353
_cell_angle_gamma   89.99273893
_symmetry_Int_Tables_number   1
_chemical_formula_structural   Ca2Al2SiO7
_chemical_formula_sum   'Ca48 Al48 Si24 O168'
_cell_volume   3651.49927313
_cell_formula_units_Z   24
loop_
 _symmetry_equiv_pos_site_id
 _symmetry_equiv_pos_as_xyz
  1  'x, y, z'
loop_
 _atom_type_symbol
 _atom_type_oxidation_number
  Ca2+  2.0
  Al0+  0.0
  Si0+  0.0
  O2-  -2.0
loop_
 _atom_site_type_symbol
 _atom_site_label
 _atom_site_symmetry_multiplicity
 _atom_site_fract_x
 _atom_site_fract_y
 _atom_site_fract_z
 _atom_site_occupancy
  Ca2+  Ca0  1  0.16843665  0.07959014  0.16957195  1
  Ca2+  Ca1  1  0.16594489  0.08403938  0.50633355  1
  Ca2+  Ca2  1  0.16396603  0.08533453  0.83450030  1
  Ca2+  Ca3  1  0.17390459  0.57688667  0.17405186  1
  Ca2+  Ca4  1  0.16510625  0.58472286  0.49969978  1
  Ca2+  Ca5  1  0.17069101  0.57871392  0.84164740  1
  Ca2+  Ca6  1  0.67687770  0.07882088  0.16877177  1
  Ca2+  Ca7  1  0.67622643  0.07972568  0.51081522  1
  Ca2+  Ca8  1  0.67301798  0.07690444  0.83633897  1
  Ca2+  Ca9  1  0.66637723  0.58390870  0.17005498  1
  Ca2+  Ca10  1  0.67097530  0.58110016  0.50992570  1
  Ca2+  Ca11  1  0.67202875  0.57996001  0.83053446  1
  Ca2+  Ca12  1  0.07613977  0.34107524  0.16353982  1
  Ca2+  Ca13  1  0.07690027  0.33044965  0.49442065  1
  Ca2+  Ca14  1  0.08049789  0.33019349  0.83063725  1
  Ca2+  Ca15  1  0.08024619  0.82538919  0.16245462  1
  Ca2+  Ca16  1  0.07663747  0.82151903  0.49978848  1
  Ca2+  Ca17  1  0.06900227  0.82906423  0.82496868  1
  Ca2+  Ca18  1  0.57631093  0.33170216  0.15848158  1
  Ca2+  Ca19  1  0.58625524  0.33340895  0.50231486  1
  Ca2+  Ca20  1  0.57343247  0.33314576  0.82339178  1
  Ca2+  Ca21  1  0.57666793  0.82962493  0.16192215  1
  Ca2+  Ca22  1  0.58305513  0.82907926  0.49321602  1
  Ca2+  Ca23  1  0.58325068  0.84140721  0.83203438  1
  Ca2+  Ca24  1  0.32433960  0.42349729  0.17137955  1
  Ca2+  Ca25  1  0.33059285  0.42133660  0.50333546  1
  Ca2+  Ca26  1  0.33008213  0.41850154  0.84422100  1
  Ca2+  Ca27  1  0.33843221  0.91177143  0.17008651  1
  Ca2+  Ca28  1  0.33389297  0.91307527  0.50135710  1
  Ca2+  Ca29  1  0.33247302  0.91729937  0.84017020  1
  Ca2+  Ca30  1  0.83616663  0.41211502  0.17230634  1
  Ca2+  Ca31  1  0.82995350  0.42167658  0.50756312  1
  Ca2+  Ca32  1  0.83234267  0.41750487  0.83513693  1
  Ca2+  Ca33  1  0.83691558  0.92577522  0.16783407  1
  Ca2+  Ca34  1  0.83026943  0.92420957  0.51260121  1
  Ca2+  Ca35  1  0.82967775  0.92201429  0.84024335  1
  Ca2+  Ca36  1  0.41914452  0.17342377  0.15792063  1
  Ca2+  Ca37  1  0.42494434  0.17235575  0.50258792  1
  Ca2+  Ca38  1  0.42230976  0.17934413  0.82424732  1
  Ca2+  Ca39  1  0.41569292  0.66814643  0.16510243  1
  Ca2+  Ca40  1  0.42433129  0.67039257  0.48762140  1
  Ca2+  Ca41  1  0.41422906  0.66942043  0.83332450  1
  Ca2+  Ca42  1  0.91035006  0.17441848  0.16286657  1
  Ca2+  Ca43  1  0.91471061  0.16658842  0.49659795  1
  Ca2+  Ca44  1  0.91611812  0.16601586  0.82975585  1
  Ca2+  Ca45  1  0.92567750  0.66857275  0.16002520  1
  Ca2+  Ca46  1  0.92130923  0.66500897  0.49837627  1
  Ca2+  Ca47  1  0.91643447  0.67585452  0.82376614  1
  Al0+  Al48  1  0.00053857  -0.00034788  0.00185962  1
  Al0+  Al49  1  0.00196975  0.00144505  0.33787229  1
  Al0+  Al50  1  0.00087087  -0.00077252  0.66246446  1
  Al0+  Al51  1  0.00003129  0.49784619  -0.00193569  1
  Al0+  Al52  1  -0.00037312  0.49899394  0.32934679  1
  Al0+  Al53  1  0.00248412  0.49986875  0.66824918  1
  Al0+  Al54  1  0.50128486  -0.00222600  0.00042974  1
  Al0+  Al55  1  0.50085088  0.00094447  0.33049803  1
  Al0+  Al56  1  0.49885504  0.00369896  0.66596753  1
  Al0+  Al57  1  0.50090298  0.50119496  -0.00050756  1
  Al0+  Al58  1  0.49915359  0.49970155  0.33267137  1
  Al0+  Al59  1  0.49748482  0.50269487  0.66687885  1
  Al0+  Al60  1  0.24929777  0.24978856  0.00166610  1
  Al0+  Al61  1  0.24914952  0.24888559  0.33756582  1
  Al0+  Al62  1  0.24934141  0.25139484  0.65841419  1
  Al0+  Al63  1  0.25273815  0.74932199  -0.00070893  1
  Al0+  Al64  1  0.24924226  0.75019527  0.33048491  1
  Al0+  Al65  1  0.24868822  0.75009426  0.66442167  1
  Al0+  Al66  1  0.75137456  0.24936593  -0.00113126  1
  Al0+  Al67  1  0.75051712  0.24879981  0.33382554  1
  Al0+  Al68  1  0.74796595  0.24976103  0.67158919  1
  Al0+  Al69  1  0.74921038  0.74938917  0.00120446  1
  Al0+  Al70  1  0.74895458  0.75067793  0.32864335  1
  Al0+  Al71  1  0.74797987  0.75098275  0.67018929  1
  Al0+  Al72  1  0.43004666  0.82008837  0.98419621  1
  Al0+  Al73  1  0.42992545  0.82161592  0.31864485  1
  Al0+  Al74  1  0.82362747  0.57061260  0.68124549  1
  Al0+  Al75  1  0.32257661  0.57198341  0.01607607  1
  Al0+  Al76  1  0.42875658  0.32126161  0.98824262  1
  Al0+  Al77  1  0.82414535  0.07096380  0.68337004  1
  Al0+  Al78  1  0.82255362  0.07117281  0.01719546  1
  Al0+  Al79  1  0.67635208  0.92893974  0.68138471  1
  Al0+  Al80  1  0.92968012  0.31812589  0.32145754  1
  Al0+  Al81  1  0.67785007  0.92693225  0.01885029  1
  Al0+  Al82  1  0.92554755  0.82002094  0.65121914  1
  Al0+  Al83  1  0.06974104  0.17934456  0.65300062  1
  Al0+  Al84  1  0.57190645  0.17960776  0.65167400  1
  Al0+  Al85  1  0.42851995  0.32458200  0.64949448  1
  Al0+  Al86  1  0.07170174  0.67728786  0.65225630  1
  Al0+  Al87  1  0.32046623  0.57157612  0.35069562  1
  Al0+  Al88  1  0.57300744  0.67633060  0.31784410  1
  Al0+  Al89  1  0.06891469  0.67890970  0.31773159  1
  Al0+  Al90  1  0.82074417  0.07067908  0.34917650  1
  Al0+  Al91  1  0.92937436  0.82090736  0.98759425  1
  Al0+  Al92  1  0.67716448  0.42936943  0.68191053  1
  Al0+  Al93  1  0.92856460  0.32109678  0.98473714  1
  Al0+  Al94  1  0.17680588  0.42881935  0.35161739  1
  Al0+  Al95  1  0.17783435  0.42724098  0.01545977  1
  Si0+  Si96  1  0.17968720  0.92866586  0.01381519  1
  Si0+  Si97  1  0.07204355  0.67807479  0.98359755  1
  Si0+  Si98  1  0.31971976  0.57298017  0.68189657  1
  Si0+  Si99  1  0.18103782  0.92810985  0.68128800  1
  Si0+  Si100  1  0.67794450  0.92878992  0.34956608  1
  Si0+  Si101  1  0.82047344  0.57185409  0.34457726  1
  Si0+  Si102  1  0.57345324  0.67698162  0.97984757  1
  Si0+  Si103  1  0.31934071  0.07252020  0.68089605  1
  Si0+  Si104  1  0.18050933  0.42733285  0.68178133  1
  Si0+  Si105  1  0.82113421  0.57026366  0.01535099  1
  Si0+  Si106  1  0.92710424  0.32222380  0.65167071  1
  Si0+  Si107  1  0.67985661  0.42901674  0.01478148  1
  Si0+  Si108  1  0.42770736  0.82252754  0.65297689  1
  Si0+  Si109  1  0.32318803  0.07159301  0.34922787  1
  Si0+  Si110  1  0.42749438  0.32018890  0.31778792  1
  Si0+  Si111  1  0.67850420  0.42834750  0.34582911  1
  Si0+  Si112  1  0.57180030  0.17801050  0.98378691  1
  Si0+  Si113  1  0.57116732  0.18037886  0.31718387  1
  Si0+  Si114  1  0.07239828  0.17699049  0.98528086  1
  Si0+  Si115  1  0.07410310  0.17647465  0.31568346  1
  Si0+  Si116  1  0.32134047  0.07045313  0.01327227  1
  Si0+  Si117  1  0.56918474  0.68023340  0.65355520  1
  Si0+  Si118  1  0.92825709  0.82448901  0.31694188  1
  Si0+  Si119  1  0.17965277  0.92902671  0.34941228  1
  O2-  O120  1  0.25223727  -0.00181156  0.05675729  1
  O2-  O121  1  0.25248122  -0.00039148  0.39055699  1
  O2-  O122  1  0.24969405  0.00104608  0.72468571  1
  O2-  O123  1  0.25003417  0.49965394  0.06429857  1
  O2-  O124  1  0.24902525  0.50013230  0.40286408  1
  O2-  O125  1  0.25002657  0.50033972  0.72310405  1
  O2-  O126  1  0.75162718  -0.00209048  0.06757002  1
  O2-  O127  1  0.74977189  -0.00744335  0.39506465  1
  O2-  O128  1  0.75163425  -0.00209325  0.73095413  1
  O2-  O129  1  0.75185181  0.49794464  0.05881344  1
  O2-  O130  1  0.74579148  0.50396711  0.38590365  1
  O2-  O131  1  0.75339294  0.49686709  0.73230389  1
  O2-  O132  1  0.00579389  0.24511839  0.27274880  1
  O2-  O133  1  -0.00847542  0.25005128  0.60651293  1
  O2-  O134  1  0.00390444  0.24564318  0.94138064  1
  O2-  O135  1  -0.00646696  0.75335789  0.27133735  1
  O2-  O136  1  -0.00537022  0.74423713  0.60246978  1
  O2-  O137  1  0.00263077  0.74546358  0.93958243  1
  O2-  O138  1  0.49878848  0.24987762  0.27455886  1
  O2-  O139  1  0.50428718  0.25571096  0.60023162  1
  O2-  O140  1  0.50321603  0.24731795  0.94055736  1
  O2-  O141  1  0.50018092  0.74808623  0.26886811  1
  O2-  O142  1  0.50171943  0.75504577  0.61189166  1
  O2-  O143  1  0.50476618  0.74656003  0.93623939  1
  O2-  O144  1  0.07451706  0.17466158  0.09067864  1
  O2-  O145  1  0.07441991  0.17547207  0.42113456  1
  O2-  O146  1  0.07491109  0.18269169  0.76600860  1
  O2-  O147  1  0.07048186  0.67981732  0.08947006  1
  O2-  O148  1  0.06662736  0.68036553  0.43058050  1
  O2-  O149  1  0.07635687  0.68230429  0.76574157  1
  O2-  O150  1  0.56959107  0.18055120  0.09040669  1
  O2-  O151  1  0.57069027  0.18091092  0.42188649  1
  O2-  O152  1  0.56518732  0.17751520  0.76502519  1
  O2-  O153  1  0.57348398  0.67541149  0.08531853  1
  O2-  O154  1  0.57460372  0.67778795  0.43191072  1
  O2-  O155  1  0.56587394  0.67696476  0.75838493  1
  O2-  O156  1  0.17879481  0.42876893  0.23824934  1
  O2-  O157  1  0.18070173  0.42642492  0.57696055  1
  O2-  O158  1  0.17953931  0.42695810  0.90124951  1
  O2-  O159  1  0.17786955  0.93161889  0.24393920  1
  O2-  O160  1  0.18493231  0.92681397  0.57608614  1
  O2-  O161  1  0.18000269  0.93070957  0.90862486  1
  O2-  O162  1  0.67976587  0.42573917  0.24033926  1
  O2-  O163  1  0.67747338  0.43394992  0.56753986  1
  O2-  O164  1  0.67923740  0.43084026  0.91021813  1
  O2-  O165  1  0.67658395  0.93166217  0.24437546  1
  O2-  O166  1  0.67462666  0.92979894  0.56734344  1
  O2-  O167  1  0.67665302  0.93084581  0.90563688  1
  O2-  O168  1  0.43075876  0.31767078  0.10192199  1
  O2-  O169  1  0.42894314  0.31904313  0.42261077  1
  O2-  O170  1  0.42612207  0.32204976  0.76332507  1
  O2-  O171  1  0.42970578  0.82059164  0.09664415  1
  O2-  O172  1  0.43296664  0.82343347  0.43291888  1
  O2-  O173  1  0.42441625  0.82052653  0.75795871  1
  O2-  O174  1  0.92792790  0.32073943  0.09795283  1
  O2-  O175  1  0.92764705  0.31711497  0.43439846  1
  O2-  O176  1  0.93163941  0.32342440  0.75720877  1
  O2-  O177  1  0.93445328  0.81945370  0.10114307  1
  O2-  O178  1  0.92945356  0.82392685  0.42223258  1
  O2-  O179  1  0.92944303  0.82069506  0.76496996  1
  O2-  O180  1  0.32242005  0.07349945  0.24378610  1
  O2-  O181  1  0.31904314  0.06986244  0.57552024  1
  O2-  O182  1  0.31928691  0.07081475  0.90815712  1
  O2-  O183  1  0.32036867  0.56905218  0.23746633  1
  O2-  O184  1  0.32019747  0.57492507  0.57716684  1
  O2-  O185  1  0.31991872  0.57218266  0.90167591  1
  O2-  O186  1  0.81873163  0.07186768  0.23632398  1
  O2-  O187  1  0.82258574  0.06931632  0.56931951  1
  O2-  O188  1  0.82332103  0.07074380  0.90431188  1
  O2-  O189  1  0.82065718  0.57009883  0.23913204  1
  O2-  O190  1  0.82130523  0.56920949  0.56679730  1
  O2-  O191  1  0.82002400  0.57017525  0.91061155  1
  O2-  O192  1  0.04964306  0.08198631  0.27028841  1
  O2-  O193  1  0.04658913  0.08141431  0.59789911  1
  O2-  O194  1  0.04780046  0.08353014  0.93818267  1
  O2-  O195  1  0.03766758  0.58353351  0.26236699  1
  O2-  O196  1  0.04935623  0.57713360  0.60037061  1
  O2-  O197  1  0.04748636  0.58406278  0.93879084  1
  O2-  O198  1  0.54312436  0.08911680  0.26897935  1
  O2-  O199  1  0.53571174  0.08434293  0.59515897  1
  O2-  O200  1  0.54474751  0.08477658  0.93970890  1
  O2-  O201  1  0.54593681  0.57722829  0.26469460  1
  O2-  O202  1  0.53780725  0.59101803  0.60347619  1
  O2-  O203  1  0.54690670  0.58391540  0.93318837  1
  O2-  O204  1  0.16920332  0.19951622  0.27062889  1
  O2-  O205  1  0.16425394  0.21142921  0.59515672  1
  O2-  O206  1  0.16601850  0.20174715  0.93817792  1
  O2-  O207  1  0.16446596  0.71233559  0.26400502  1
  O2-  O208  1  0.16721901  0.71346668  0.59650716  1
  O2-  O209  1  0.16579926  0.70435044  0.93922029  1
  O2-  O210  1  0.66133721  0.21096719  0.26880171  1
  O2-  O211  1  0.67154625  0.20478416  0.59942537  1
  O2-  O212  1  0.66512182  0.20326242  0.93909931  1
  O2-  O213  1  0.67086822  0.70398211  0.26208973  1
  O2-  O214  1  0.66186459  0.70372105  0.60643902  1
  O2-  O215  1  0.66726063  0.70181386  0.93452456  1
  O2-  O216  1  0.07883879  0.45624298  0.06711721  1
  O2-  O217  1  0.07730571  0.45794548  0.40199831  1
  O2-  O218  1  0.08862437  0.45242808  0.73000422  1
  O2-  O219  1  0.09034096  0.95813494  0.06480310  1
  O2-  O220  1  0.08985959  0.95863406  0.39975485  1
  O2-  O221  1  0.08898447  0.95521609  0.72734439  1
  O2-  O222  1  0.58878319  0.45807334  0.06361639  1
  O2-  O223  1  0.58561637  0.45096033  0.39278931  1
  O2-  O224  1  0.57956778  0.46347668  0.73442723  1
  O2-  O225  1  0.57917712  0.95736972  0.07157345  1
  O2-  O226  1  0.58488255  0.95797683  0.39535956  1
  O2-  O227  1  0.57756510  0.96043970  0.73383099  1
  O2-  O228  1  0.20490863  0.32837759  0.06904931  1
  O2-  O229  1  0.20409704  0.32857189  0.40252439  1
  O2-  O230  1  0.21111894  0.33586060  0.72827235  1
  O2-  O231  1  0.20723657  0.83703047  0.06116570  1
  O2-  O232  1  0.20729646  0.83786880  0.39711594  1
  O2-  O233  1  0.21206923  0.83816027  0.73065898  1
  O2-  O234  1  0.70517821  0.33643366  0.06205866  1
  O2-  O235  1  0.71021850  0.33872889  0.39486493  1
  O2-  O236  1  0.69790943  0.32993343  0.73487398  1
  O2-  O237  1  0.70322799  0.82677600  0.06966833  1
  O2-  O238  1  0.69881163  0.83231850  0.39226502  1
  O2-  O239  1  0.69745403  0.82928338  0.73426051  1
  O2-  O240  1  0.45508036  0.41163169  0.27074692  1
  O2-  O241  1  0.45410210  0.42416053  0.59777351  1
  O2-  O242  1  0.45920864  0.41778541  0.93480085  1
  O2-  O243  1  0.45733966  0.92081351  0.26507406  1
  O2-  O244  1  0.44968231  0.91612924  0.60705773  1
  O2-  O245  1  0.45761751  0.91848056  0.93089813  1
  O2-  O246  1  0.95748106  0.41448588  0.26542181  1
  O2-  O247  1  0.95711980  0.41436602  0.60509674  1
  O2-  O248  1  0.95859474  0.41739006  0.92946768  1
  O2-  O249  1  0.95999696  0.91718677  0.27202873  1
  O2-  O250  1  0.96072863  0.91558514  0.59710087  1
  O2-  O251  1  0.96306027  0.91680719  0.93438685  1
  O2-  O252  1  0.33563149  0.28940092  0.27228665  1
  O2-  O253  1  0.33366960  0.28989742  0.59372804  1
  O2-  O254  1  0.33228928  0.28908186  0.93509392  1
  O2-  O255  1  0.33021326  0.79784262  0.26709555  1
  O2-  O256  1  0.33771504  0.79178083  0.60376811  1
  O2-  O257  1  0.33262784  0.79106753  0.92918737  1
  O2-  O258  1  0.83336040  0.28630713  0.26590831  1
  O2-  O259  1  0.83081634  0.30321659  0.60945229  1
  O2-  O260  1  0.83166165  0.29176335  0.93082373  1
  O2-  O261  1  0.83337151  0.80371271  0.27209086  1
  O2-  O262  1  0.82563584  0.79546689  0.59973616  1
  O2-  O263  1  0.83199785  0.79099511  0.93611676  1
  O2-  O264  1  0.41302546  0.04441791  0.06146764  1
  O2-  O265  1  0.41529018  0.04392027  0.39640393  1
  O2-  O266  1  0.41034517  0.04603583  0.72953159  1
  O2-  O267  1  0.42202041  0.54466408  0.06725348  1
  O2-  O268  1  0.42026710  0.54240562  0.40196300  1
  O2-  O269  1  0.41129046  0.54746789  0.73030364  1
  O2-  O270  1  0.92174367  0.04321470  0.07049450  1
  O2-  O271  1  0.92000530  0.04556500  0.40073948  1
  O2-  O272  1  0.92441381  0.04347505  0.73347397  1
  O2-  O273  1  0.91364317  0.54324637  0.06170638  1
  O2-  O274  1  0.91033075  0.54070152  0.39243963  1
  O2-  O275  1  0.92284261  0.54539331  0.73465321  1
  O2-  O276  1  0.29217143  0.16042275  0.06391558  1
  O2-  O277  1  0.29480256  0.16179178  0.39917710  1
  O2-  O278  1  0.28917773  0.16451983  0.72635803  1
  O2-  O279  1  0.29465877  0.67100040  0.06825763  1
  O2-  O280  1  0.29317506  0.67193426  0.40064820  1
  O2-  O281  1  0.29014652  0.66458485  0.72975169  1
  O2-  O282  1  0.79087767  0.16987076  0.06935847  1
  O2-  O283  1  0.78547793  0.16610102  0.40269089  1
  O2-  O284  1  0.79736592  0.17001336  0.73491307  1
  O2-  O285  1  0.79273695  0.66093139  0.06447029  1
  O2-  O286  1  0.79661871  0.66542815  0.39091927  1
  O2-  O287  1  0.79119516  0.66748813  0.73458711  1
