# generated using pymatgen
data_Ca2Al2SiO7
_symmetry_space_group_name_H-M   'P 1'
_cell_length_a   15.45886822
_cell_length_b   15.45971565
_cell_length_c   15.28468694
_cell_angle_alpha   89.98742546
_cell_angle_beta   89.99987375
_cell_angle_gamma   90.02436941
_symmetry_Int_Tables_number   1
_chemical_formula_structural   Ca2Al2SiO7
_chemical_formula_sum   'Ca48 Al48 Si24 O168'
_cell_volume   3652.88243503
_cell_formula_units_Z   24
loop_
 _symmetry_equiv_pos_site_id
 _symmetry_equiv_pos_as_xyz
  1  'x, y, z'
loop_
 _atom_type_symbol
 _atom_type_oxidation_number
  Ca2+  2.0
  Al0+  0.0
  Si0+  0.0
  O2-  -2.0
loop_
 _atom_site_type_symbol
 _atom_site_label
 _atom_site_symmetry_multiplicity
 _atom_site_fract_x
 _atom_site_fract_y
 _atom_site_fract_z
 _atom_site_occupancy
  Ca2+  Ca0  1  0.17607109  0.07063240  0.17169735  1
  Ca2+  Ca1  1  0.17056355  0.08015234  0.49914305  1
  Ca2+  Ca2  1  0.17480251  0.07451393  0.84563564  1
  Ca2+  Ca3  1  0.17363096  0.58722291  0.16968224  1
  Ca2+  Ca4  1  0.17946456  0.58226994  0.51026898  1
  Ca2+  Ca5  1  0.16364800  0.58318740  0.83262680  1
  Ca2+  Ca6  1  0.66833031  0.07679896  0.16769714  1
  Ca2+  Ca7  1  0.66348428  0.08018647  0.50084058  1
  Ca2+  Ca8  1  0.66592134  0.08117564  0.84486025  1
  Ca2+  Ca9  1  0.67462077  0.58592163  0.17357793  1
  Ca2+  Ca10  1  0.67382301  0.57877200  0.50614340  1
  Ca2+  Ca11  1  0.67520498  0.59292621  0.83796148  1
  Ca2+  Ca12  1  0.08002881  0.32948763  0.16167963  1
  Ca2+  Ca13  1  0.07829475  0.34251597  0.50025142  1
  Ca2+  Ca14  1  0.07714099  0.33496751  0.82394548  1
  Ca2+  Ca15  1  0.08609804  0.83173993  0.15954856  1
  Ca2+  Ca16  1  0.08406305  0.82941828  0.49548470  1
  Ca2+  Ca17  1  0.08676160  0.82251179  0.83172755  1
  Ca2+  Ca18  1  0.58039080  0.33125945  0.16502992  1
  Ca2+  Ca19  1  0.58184092  0.33006072  0.49151576  1
  Ca2+  Ca20  1  0.58709209  0.31841926  0.82933320  1
  Ca2+  Ca21  1  0.58033264  0.83521539  0.15701419  1
  Ca2+  Ca22  1  0.58641642  0.82660237  0.49774431  1
  Ca2+  Ca23  1  0.58281695  0.82850067  0.83430490  1
  Ca2+  Ca24  1  0.33689851  0.42306768  0.17593402  1
  Ca2+  Ca25  1  0.33354896  0.42460448  0.50479334  1
  Ca2+  Ca26  1  0.33063451  0.42212159  0.83075093  1
  Ca2+  Ca27  1  0.33034109  0.92079306  0.16846272  1
  Ca2+  Ca28  1  0.33168712  0.92034523  0.49792535  1
  Ca2+  Ca29  1  0.33096214  0.91774350  0.84439144  1
  Ca2+  Ca30  1  0.82393286  0.42817359  0.17118185  1
  Ca2+  Ca31  1  0.83124261  0.42318646  0.50358892  1
  Ca2+  Ca32  1  0.83661467  0.42556888  0.83405764  1
  Ca2+  Ca33  1  0.81910340  0.92199996  0.17147940  1
  Ca2+  Ca34  1  0.82882933  0.92093869  0.49749930  1
  Ca2+  Ca35  1  0.82556629  0.92471718  0.84445711  1
  Ca2+  Ca36  1  0.41503923  0.16802465  0.16097283  1
  Ca2+  Ca37  1  0.41897350  0.17287224  0.49176966  1
  Ca2+  Ca38  1  0.42813932  0.15790333  0.83193291  1
  Ca2+  Ca39  1  0.42382887  0.67283917  0.15693173  1
  Ca2+  Ca40  1  0.42021107  0.65751121  0.49595804  1
  Ca2+  Ca41  1  0.42622809  0.67167873  0.82942225  1
  Ca2+  Ca42  1  0.90960528  0.16279463  0.16322974  1
  Ca2+  Ca43  1  0.91517750  0.17201619  0.49425039  1
  Ca2+  Ca44  1  0.91283393  0.17376240  0.82617240  1
  Ca2+  Ca45  1  0.91974012  0.66466133  0.15880176  1
  Ca2+  Ca46  1  0.92201325  0.65631517  0.49868819  1
  Ca2+  Ca47  1  0.92453832  0.65915117  0.82849000  1
  Al0+  Al48  1  0.00139084  0.00060921  0.00496868  1
  Al0+  Al49  1  -0.00092286  -0.00174935  0.33902365  1
  Al0+  Al50  1  -0.00043992  0.00009481  0.66733234  1
  Al0+  Al51  1  -0.00091993  0.49935440  0.00152446  1
  Al0+  Al52  1  0.00032589  0.49916180  0.33068828  1
  Al0+  Al53  1  -0.00007370  0.49986947  0.66395339  1
  Al0+  Al54  1  0.49887555  0.00165675  -0.00053568  1
  Al0+  Al55  1  0.49945222  -0.00142396  0.34059920  1
  Al0+  Al56  1  0.50038608  -0.00121060  0.66113867  1
  Al0+  Al57  1  0.49938789  0.49896597  -0.00630222  1
  Al0+  Al58  1  0.50119348  0.49841340  0.33459454  1
  Al0+  Al59  1  0.50064872  0.49880814  0.66982568  1
  Al0+  Al60  1  0.24747299  0.25164200  0.00084951  1
  Al0+  Al61  1  0.24872344  0.24949006  0.33099831  1
  Al0+  Al62  1  0.25055230  0.24863981  0.67163572  1
  Al0+  Al63  1  0.24955728  0.74770858  -0.00555936  1
  Al0+  Al64  1  0.25128365  0.74920243  0.34013948  1
  Al0+  Al65  1  0.25050463  0.75132476  0.66599155  1
  Al0+  Al66  1  0.74861285  0.25361808  -0.00052811  1
  Al0+  Al67  1  0.74985772  0.25043352  0.33628899  1
  Al0+  Al68  1  0.75086623  0.25019265  0.65619731  1
  Al0+  Al69  1  0.75260657  0.75157946  0.00451964  1
  Al0+  Al70  1  0.75379916  0.75105857  0.34044176  1
  Al0+  Al71  1  0.74894765  0.75181998  0.66640127  1
  Al0+  Al72  1  0.82115115  0.07569274  0.01217160  1
  Al0+  Al73  1  0.32065024  0.07302392  0.34944581  1
  Al0+  Al74  1  0.17990115  0.92504195  0.01386991  1
  Al0+  Al75  1  0.82048715  0.07146541  0.34978622  1
  Al0+  Al76  1  0.67847639  0.43015626  0.34787345  1
  Al0+  Al77  1  0.32093558  0.56988982  0.34408249  1
  Al0+  Al78  1  0.42867356  0.32100605  0.31986436  1
  Al0+  Al79  1  0.42917646  0.82145579  0.98651075  1
  Al0+  Al80  1  0.93128924  0.32055812  0.65109074  1
  Al0+  Al81  1  0.67840163  0.92917130  0.01326785  1
  Al0+  Al82  1  0.32166681  0.07272674  0.01426614  1
  Al0+  Al83  1  0.17926767  0.42948397  0.68147490  1
  Al0+  Al84  1  0.57042037  0.17820762  0.65051198  1
  Al0+  Al85  1  0.06941425  0.67829899  0.98667652  1
  Al0+  Al86  1  0.57484696  0.67789480  0.98686859  1
  Al0+  Al87  1  0.32400676  0.57343545  0.68529986  1
  Al0+  Al88  1  0.57149207  0.67852649  0.65195448  1
  Al0+  Al89  1  0.17912255  0.92750256  0.35003670  1
  Al0+  Al90  1  0.81896155  0.57068629  0.68133774  1
  Al0+  Al91  1  0.82337796  0.57135568  0.34944476  1
  Al0+  Al92  1  0.67693343  0.92821060  0.35080979  1
  Al0+  Al93  1  0.56896665  0.18190296  0.98917521  1
  Al0+  Al94  1  0.82079313  0.57060366  0.01273520  1
  Al0+  Al95  1  0.06995714  0.68063116  0.65109253  1
  Si0+  Si96  1  0.07203289  0.67936409  0.31842030  1
  Si0+  Si97  1  0.67837562  0.42512538  0.68423587  1
  Si0+  Si98  1  0.06936985  0.17679935  0.31708569  1
  Si0+  Si99  1  0.42318494  0.32377830  0.98066800  1
  Si0+  Si100  1  0.57141051  0.17635435  0.31556342  1
  Si0+  Si101  1  0.17724040  0.42981671  0.01572967  1
  Si0+  Si102  1  0.17741236  0.92975977  0.68292195  1
  Si0+  Si103  1  0.42881541  0.82017566  0.31952449  1
  Si0+  Si104  1  0.67825325  0.93055028  0.68314658  1
  Si0+  Si105  1  0.82042105  0.07201186  0.68059923  1
  Si0+  Si106  1  0.42817307  0.82134230  0.64723379  1
  Si0+  Si107  1  0.92875040  0.82454842  0.98485675  1
  Si0+  Si108  1  0.32164832  0.56893412  0.01356201  1
  Si0+  Si109  1  0.92991889  0.31987826  0.98573642  1
  Si0+  Si110  1  0.32188905  0.06929163  0.68188330  1
  Si0+  Si111  1  0.92967358  0.82169639  0.31736494  1
  Si0+  Si112  1  0.57281748  0.67958689  0.32056297  1
  Si0+  Si113  1  0.67597141  0.42833947  0.01452580  1
  Si0+  Si114  1  0.07143269  0.17823532  0.98579106  1
  Si0+  Si115  1  0.42672276  0.32049069  0.65092800  1
  Si0+  Si116  1  0.92749531  0.82478343  0.64917778  1
  Si0+  Si117  1  0.17728388  0.42681823  0.34714147  1
  Si0+  Si118  1  0.92849577  0.32124997  0.31506415  1
  Si0+  Si119  1  0.07341256  0.17597403  0.65054253  1
  O2-  O120  1  0.25190903  -0.00234350  0.06254230  1
  O2-  O121  1  0.24946952  0.00080751  0.40073431  1
  O2-  O122  1  0.24911706  0.00029999  0.72403261  1
  O2-  O123  1  0.25183325  0.49702585  0.05715617  1
  O2-  O124  1  0.24709175  0.49412788  0.39008099  1
  O2-  O125  1  0.24940641  0.50228651  0.73351262  1
  O2-  O126  1  0.75083527  0.00212203  0.06138256  1
  O2-  O127  1  0.74587840  0.00337719  0.40115077  1
  O2-  O128  1  0.74912016  0.00260200  0.72399098  1
  O2-  O129  1  0.73819957  0.50369309  0.05732633  1
  O2-  O130  1  0.75037042  0.50100297  0.39934208  1
  O2-  O131  1  0.74246917  0.49783293  0.72912317  1
  O2-  O132  1  -0.00233520  0.24754394  0.27373826  1
  O2-  O133  1  0.00752609  0.24636366  0.60487562  1
  O2-  O134  1  -0.00357522  0.24463860  0.94315067  1
  O2-  O135  1  0.00036727  0.74941294  0.27580697  1
  O2-  O136  1  -0.00526522  0.75483386  0.60404488  1
  O2-  O137  1  -0.00395528  0.75466987  0.94004873  1
  O2-  O138  1  0.50092168  0.24400464  0.27234116  1
  O2-  O139  1  0.49677023  0.25428416  0.60544049  1
  O2-  O140  1  0.49165408  0.25329781  0.93944181  1
  O2-  O141  1  0.50304277  0.75188583  0.27803162  1
  O2-  O142  1  0.49233912  0.74796781  0.60347398  1
  O2-  O143  1  0.50323545  0.75082806  0.93722532  1
  O2-  O144  1  0.07369658  0.18240928  0.09078440  1
  O2-  O145  1  0.06934563  0.17860280  0.42235387  1
  O2-  O146  1  0.07013459  0.17378630  0.75624662  1
  O2-  O147  1  0.06914062  0.67641160  0.10018500  1
  O2-  O148  1  0.07126369  0.67922885  0.42340283  1
  O2-  O149  1  0.06815263  0.68163074  0.76433369  1
  O2-  O150  1  0.57064255  0.18574369  0.10184307  1
  O2-  O151  1  0.57015297  0.17862590  0.42147496  1
  O2-  O152  1  0.57050460  0.17661287  0.76390682  1
  O2-  O153  1  0.57127654  0.67597068  0.10106550  1
  O2-  O154  1  0.57021709  0.67966810  0.42579973  1
  O2-  O155  1  0.57408274  0.68459627  0.76465677  1
  O2-  O156  1  0.17562629  0.42827432  0.24106860  1
  O2-  O157  1  0.18153400  0.42985010  0.56766641  1
  O2-  O158  1  0.17460614  0.42964732  0.91107442  1
  O2-  O159  1  0.18076960  0.92615589  0.23682723  1
  O2-  O160  1  0.17609020  0.93153982  0.57799465  1
  O2-  O161  1  0.17965541  0.92805364  0.89968876  1
  O2-  O162  1  0.67938692  0.43251476  0.23379340  1
  O2-  O163  1  0.68021861  0.42481762  0.57878242  1
  O2-  O164  1  0.68028285  0.42240350  0.90922851  1
  O2-  O165  1  0.67707707  0.92704884  0.23758073  1
  O2-  O166  1  0.67872604  0.93097399  0.57816693  1
  O2-  O167  1  0.68069752  0.93072098  0.89906030  1
  O2-  O168  1  0.42263923  0.32657002  0.08625298  1
  O2-  O169  1  0.42941925  0.32075893  0.43296865  1
  O2-  O170  1  0.42605764  0.31697113  0.75660349  1
  O2-  O171  1  0.42777514  0.81815525  0.10066390  1
  O2-  O172  1  0.42737726  0.81797852  0.42470864  1
  O2-  O173  1  0.43054766  0.82555259  0.75251629  1
  O2-  O174  1  0.93282356  0.32128791  0.09088952  1
  O2-  O175  1  0.93187429  0.32327582  0.41993654  1
  O2-  O176  1  0.93068255  0.31761943  0.76484349  1
  O2-  O177  1  0.92968323  0.82349727  0.09050931  1
  O2-  O178  1  0.93085090  0.82268792  0.42258396  1
  O2-  O179  1  0.92994459  0.82909168  0.75456767  1
  O2-  O180  1  0.31907578  0.07233043  0.23632682  1
  O2-  O181  1  0.32034294  0.06920546  0.57695085  1
  O2-  O182  1  0.31864281  0.07275608  0.89994089  1
  O2-  O183  1  0.31919734  0.57137428  0.23043171  1
  O2-  O184  1  0.32318895  0.57039247  0.57134292  1
  O2-  O185  1  0.32098030  0.56740916  0.90896603  1
  O2-  O186  1  0.82020193  0.06892835  0.23641670  1
  O2-  O187  1  0.82189975  0.06955610  0.57593806  1
  O2-  O188  1  0.81945607  0.07633133  0.89787352  1
  O2-  O189  1  0.82414316  0.57011723  0.23552652  1
  O2-  O190  1  0.81892199  0.56747894  0.56860755  1
  O2-  O191  1  0.82480296  0.56598112  0.89975730  1
  O2-  O192  1  0.04128401  0.08422622  0.27157444  1
  O2-  O193  1  0.04503471  0.08353012  0.60300799  1
  O2-  O194  1  0.04966474  0.08454154  0.93930992  1
  O2-  O195  1  0.04627030  0.58674076  0.27044275  1
  O2-  O196  1  0.04013541  0.58422960  0.59701118  1
  O2-  O197  1  0.03570397  0.58187449  0.93296696  1
  O2-  O198  1  0.54688867  0.08073443  0.27379677  1
  O2-  O199  1  0.53786961  0.08265891  0.59557245  1
  O2-  O200  1  0.54117130  0.08557486  0.93276432  1
  O2-  O201  1  0.54446560  0.58823480  0.27332672  1
  O2-  O202  1  0.54574084  0.57850248  0.60176891  1
  O2-  O203  1  0.54713656  0.57973202  0.93214007  1
  O2-  O204  1  0.16013818  0.20576341  0.26816088  1
  O2-  O205  1  0.16878310  0.19878894  0.60703991  1
  O2-  O206  1  0.16088197  0.21049780  0.93560396  1
  O2-  O207  1  0.16462239  0.70838210  0.27274811  1
  O2-  O208  1  0.16740156  0.71198223  0.59848475  1
  O2-  O209  1  0.16520762  0.70586130  0.92991381  1
  O2-  O210  1  0.66566409  0.20353281  0.27173188  1
  O2-  O211  1  0.66626053  0.20702325  0.59476069  1
  O2-  O212  1  0.66463551  0.21576834  0.93249023  1
  O2-  O213  1  0.66692670  0.70613486  0.27711466  1
  O2-  O214  1  0.66655851  0.71407142  0.59695494  1
  O2-  O215  1  0.67416835  0.70675086  0.93567141  1
  O2-  O216  1  0.08764240  0.46005140  0.06597276  1
  O2-  O217  1  0.08440432  0.45397743  0.39290041  1
  O2-  O218  1  0.08048615  0.45750961  0.73355733  1
  O2-  O219  1  0.08240653  0.95418789  0.06787265  1
  O2-  O220  1  0.08135790  0.95533463  0.40370572  1
  O2-  O221  1  0.08573709  0.95786623  0.73075536  1
  O2-  O222  1  0.57914557  0.44605999  0.05705880  1
  O2-  O223  1  0.58137149  0.45726161  0.40292172  1
  O2-  O224  1  0.58297672  0.44284889  0.72892790  1
  O2-  O225  1  0.58040021  0.95739346  0.06528593  1
  O2-  O226  1  0.57886558  0.95177985  0.40627362  1
  O2-  O227  1  0.58562243  0.95895931  0.72812554  1
  O2-  O228  1  0.20086985  0.33702941  0.06327515  1
  O2-  O229  1  0.19828113  0.33263592  0.39256103  1
  O2-  O230  1  0.20552099  0.32994149  0.73589078  1
  O2-  O231  1  0.20682332  0.82570742  0.06528262  1
  O2-  O232  1  0.20976674  0.83124757  0.40575758  1
  O2-  O233  1  0.20510877  0.83783528  0.72890294  1
  O2-  O234  1  0.70930845  0.33958509  0.06534747  1
  O2-  O235  1  0.70547961  0.33164995  0.40014130  1
  O2-  O236  1  0.71099633  0.33207158  0.72828786  1
  O2-  O237  1  0.70725023  0.83256857  0.06929691  1
  O2-  O238  1  0.71166332  0.83283183  0.40613144  1
  O2-  O239  1  0.70683384  0.83950137  0.73043231  1
  O2-  O240  1  0.46222197  0.41676377  0.26372112  1
  O2-  O241  1  0.44943252  0.41577884  0.60780706  1
  O2-  O242  1  0.44960878  0.41577460  0.93194179  1
  O2-  O243  1  0.45390797  0.91382746  0.27454834  1
  O2-  O244  1  0.45934753  0.91222406  0.59814156  1
  O2-  O245  1  0.45358325  0.92053812  0.93290492  1
  O2-  O246  1  0.95989377  0.41153039  0.26526305  1
  O2-  O247  1  0.96305233  0.41548711  0.59507431  1
  O2-  O248  1  0.96421871  0.40905730  0.93728800  1
  O2-  O249  1  0.95800534  0.91344847  0.27022572  1
  O2-  O250  1  0.95605598  0.91756414  0.60121275  1
  O2-  O251  1  0.95419839  0.91861764  0.93828119  1
  O2-  O252  1  0.33021361  0.29479007  0.26543201  1
  O2-  O253  1  0.33326023  0.29275832  0.60509682  1
  O2-  O254  1  0.32850764  0.30000590  0.93551454  1
  O2-  O255  1  0.33742119  0.78916328  0.27302966  1
  O2-  O256  1  0.33253404  0.80225387  0.60289205  1
  O2-  O257  1  0.33294768  0.79010525  0.93043026  1
  O2-  O258  1  0.83552088  0.29550933  0.26908408  1
  O2-  O259  1  0.83706963  0.28904598  0.59357777  1
  O2-  O260  1  0.83732826  0.29751504  0.93767367  1
  O2-  O261  1  0.83735073  0.79368061  0.27070329  1
  O2-  O262  1  0.83310004  0.80148775  0.60456491  1
  O2-  O263  1  0.83489202  0.80091839  0.93894799  1
  O2-  O264  1  0.42015159  0.04890779  0.06682597  1
  O2-  O265  1  0.41783861  0.04496981  0.40389168  1
  O2-  O266  1  0.41361336  0.03757739  0.72715668  1
  O2-  O267  1  0.41428989  0.54200075  0.06024889  1
  O2-  O268  1  0.41632536  0.53875239  0.39863134  1
  O2-  O269  1  0.42171520  0.54271642  0.73890409  1
  O2-  O270  1  0.92090916  0.05226806  0.06384253  1
  O2-  O271  1  0.91736471  0.04095360  0.40455849  1
  O2-  O272  1  0.91278136  0.04509402  0.72836824  1
  O2-  O273  1  0.91399991  0.53173574  0.06896163  1
  O2-  O274  1  0.92179856  0.53867810  0.39991969  1
  O2-  O275  1  0.91549178  0.53643665  0.73288924  1
  O2-  O276  1  0.29001968  0.17111288  0.06595323  1
  O2-  O277  1  0.28923529  0.17099874  0.40214913  1
  O2-  O278  1  0.29792660  0.16118848  0.73033513  1
  O2-  O279  1  0.29153774  0.65998072  0.06004315  1
  O2-  O280  1  0.29029643  0.66344496  0.40259490  1
  O2-  O281  1  0.29619805  0.67358213  0.73418518  1
  O2-  O282  1  0.79239671  0.17364709  0.06577128  1
  O2-  O283  1  0.79791983  0.17156262  0.40098682  1
  O2-  O284  1  0.79395929  0.16565447  0.72416717  1
  O2-  O285  1  0.79956072  0.66877526  0.06687408  1
  O2-  O286  1  0.80111672  0.66997012  0.40249600  1
  O2-  O287  1  0.79151953  0.66966946  0.73280537  1
