# generated using pymatgen
data_Ca2Al2SiO7
_symmetry_space_group_name_H-M   'P 1'
_cell_length_a   15.46152489
_cell_length_b   15.46362184
_cell_length_c   15.28718807
_cell_angle_alpha   89.98026211
_cell_angle_beta   90.00552493
_cell_angle_gamma   89.99048842
_symmetry_Int_Tables_number   1
_chemical_formula_structural   Ca2Al2SiO7
_chemical_formula_sum   'Ca48 Al48 Si24 O168'
_cell_volume   3655.03146024
_cell_formula_units_Z   24
loop_
 _symmetry_equiv_pos_site_id
 _symmetry_equiv_pos_as_xyz
  1  'x, y, z'
loop_
 _atom_type_symbol
 _atom_type_oxidation_number
  Ca2+  2.0
  Al0+  0.0
  Si0+  0.0
  O2-  -2.0
loop_
 _atom_site_type_symbol
 _atom_site_label
 _atom_site_symmetry_multiplicity
 _atom_site_fract_x
 _atom_site_fract_y
 _atom_site_fract_z
 _atom_site_occupancy
  Ca2+  Ca0  1  0.17166636  0.08407426  0.17127558  1
  Ca2+  Ca1  1  0.17001249  0.08567858  0.50526182  1
  Ca2+  Ca2  1  0.16448353  0.08561126  0.84120437  1
  Ca2+  Ca3  1  0.16715007  0.58816779  0.16908293  1
  Ca2+  Ca4  1  0.17438472  0.59458086  0.50499723  1
  Ca2+  Ca5  1  0.16804104  0.58641225  0.83943012  1
  Ca2+  Ca6  1  0.66101654  0.07052227  0.16931655  1
  Ca2+  Ca7  1  0.66658877  0.07654688  0.50261505  1
  Ca2+  Ca8  1  0.66255767  0.08005819  0.84169440  1
  Ca2+  Ca9  1  0.67669827  0.58250233  0.17128916  1
  Ca2+  Ca10  1  0.68091826  0.58327047  0.50662792  1
  Ca2+  Ca11  1  0.67446681  0.58770626  0.84239347  1
  Ca2+  Ca12  1  0.07855520  0.33435967  0.16074112  1
  Ca2+  Ca13  1  0.07807600  0.33005663  0.49554524  1
  Ca2+  Ca14  1  0.08956727  0.32667886  0.83318649  1
  Ca2+  Ca15  1  0.07116444  0.82163451  0.16126531  1
  Ca2+  Ca16  1  0.07441461  0.82167265  0.49208250  1
  Ca2+  Ca17  1  0.07706237  0.82066590  0.83310666  1
  Ca2+  Ca18  1  0.58837156  0.33211712  0.16011204  1
  Ca2+  Ca19  1  0.59037201  0.32842301  0.49449794  1
  Ca2+  Ca20  1  0.59562461  0.32390985  0.83180641  1
  Ca2+  Ca21  1  0.58117011  0.83166946  0.15636835  1
  Ca2+  Ca22  1  0.58573199  0.82626965  0.49794131  1
  Ca2+  Ca23  1  0.58418546  0.82327588  0.83873679  1
  Ca2+  Ca24  1  0.32461807  0.42239796  0.17004209  1
  Ca2+  Ca25  1  0.33056984  0.42933184  0.50260073  1
  Ca2+  Ca26  1  0.32680259  0.42233199  0.83637685  1
  Ca2+  Ca27  1  0.33491792  0.92057783  0.17241232  1
  Ca2+  Ca28  1  0.33141117  0.92207931  0.50111363  1
  Ca2+  Ca29  1  0.33508422  0.91689480  0.83958623  1
  Ca2+  Ca30  1  0.82624626  0.42518331  0.17118344  1
  Ca2+  Ca31  1  0.83608481  0.42337746  0.49793453  1
  Ca2+  Ca32  1  0.82984693  0.43029588  0.84146883  1
  Ca2+  Ca33  1  0.82484997  0.90630136  0.16901913  1
  Ca2+  Ca34  1  0.82885125  0.90713544  0.49812780  1
  Ca2+  Ca35  1  0.82911671  0.91736333  0.84345886  1
  Ca2+  Ca36  1  0.42061033  0.16734765  0.15996600  1
  Ca2+  Ca37  1  0.42046843  0.16732786  0.49634308  1
  Ca2+  Ca38  1  0.42931058  0.17123159  0.83120173  1
  Ca2+  Ca39  1  0.42314418  0.67046873  0.15812226  1
  Ca2+  Ca40  1  0.42123830  0.65701334  0.49703190  1
  Ca2+  Ca41  1  0.42764369  0.66455356  0.82920824  1
  Ca2+  Ca42  1  0.91727300  0.17640380  0.16167906  1
  Ca2+  Ca43  1  0.92070176  0.17408412  0.49369836  1
  Ca2+  Ca44  1  0.92762683  0.16839518  0.82956469  1
  Ca2+  Ca45  1  0.91501618  0.66976105  0.16114739  1
  Ca2+  Ca46  1  0.92523864  0.65981099  0.49159656  1
  Ca2+  Ca47  1  0.91929133  0.66233915  0.83159785  1
  Al0+  Al48  1  0.00087904  0.00054202  -0.00489040  1
  Al0+  Al49  1  0.00005711  -0.00193605  0.32959664  1
  Al0+  Al50  1  -0.00016198  0.00044171  0.66181260  1
  Al0+  Al51  1  0.00101857  0.49971477  0.00423470  1
  Al0+  Al52  1  0.00091155  0.49556949  0.32766127  1
  Al0+  Al53  1  -0.00020824  0.49933060  0.66707298  1
  Al0+  Al54  1  0.50027184  0.00261088  -0.00437989  1
  Al0+  Al55  1  0.50065206  -0.00073179  0.34370655  1
  Al0+  Al56  1  0.49904078  0.00150304  0.66336554  1
  Al0+  Al57  1  0.49795964  0.49938432  -0.00108883  1
  Al0+  Al58  1  0.49832425  0.49595805  0.33844480  1
  Al0+  Al59  1  0.49875590  0.49911981  0.66763290  1
  Al0+  Al60  1  0.25124411  0.25169758  0.00055546  1
  Al0+  Al61  1  0.25394125  0.25057283  0.33885782  1
  Al0+  Al62  1  0.25183127  0.24954656  0.66294763  1
  Al0+  Al63  1  0.24776721  0.75403971  -0.00489400  1
  Al0+  Al64  1  0.25091141  0.75198928  0.33471677  1
  Al0+  Al65  1  0.24912405  0.75294363  0.66869820  1
  Al0+  Al66  1  0.75191410  0.25079090  -0.00241081  1
  Al0+  Al67  1  0.75113815  0.24667799  0.33099195  1
  Al0+  Al68  1  0.75092751  0.24748121  0.66130103  1
  Al0+  Al69  1  0.74821249  0.75301364  0.00115471  1
  Al0+  Al70  1  0.74959607  0.74826010  0.33999452  1
  Al0+  Al71  1  0.74675181  0.75072092  0.66843727  1
  Al0+  Al72  1  0.81979976  0.57292715  0.01578116  1
  Al0+  Al73  1  0.32089031  0.57292849  0.68242630  1
  Al0+  Al74  1  0.67980915  0.92820683  0.34894355  1
  Al0+  Al75  1  0.67694794  0.42681295  0.01317167  1
  Al0+  Al76  1  0.07022444  0.67869256  0.65303665  1
  Al0+  Al77  1  0.07365027  0.67757695  0.31804425  1
  Al0+  Al78  1  0.92613518  0.81956376  0.31784200  1
  Al0+  Al79  1  0.67908335  0.93279198  0.01217375  1
  Al0+  Al80  1  0.57177146  0.18193878  0.98865514  1
  Al0+  Al81  1  0.92865978  0.31887883  0.31745670  1
  Al0+  Al82  1  0.07190157  0.17828321  0.65175685  1
  Al0+  Al83  1  0.06964317  0.67697997  0.98416136  1
  Al0+  Al84  1  0.31917369  0.57242612  0.34537245  1
  Al0+  Al85  1  0.07223343  0.18087078  0.98871081  1
  Al0+  Al86  1  0.56989093  0.67850038  0.65172998  1
  Al0+  Al87  1  0.57148303  0.17922977  0.64990321  1
  Al0+  Al88  1  0.82176686  0.56952592  0.34915984  1
  Al0+  Al89  1  0.42806511  0.82359485  0.98681119  1
  Al0+  Al90  1  0.92655734  0.82088796  0.98423269  1
  Al0+  Al91  1  0.18062439  0.42900554  0.01349790  1
  Al0+  Al92  1  0.67856294  0.42579966  0.34872558  1
  Al0+  Al93  1  0.32051153  0.07105122  0.34797698  1
  Al0+  Al94  1  0.82104344  0.57086700  0.68134501  1
  Al0+  Al95  1  0.56999559  0.67696586  0.98806088  1
  Si0+  Si96  1  0.92847645  0.32250114  0.98166726  1
  Si0+  Si97  1  0.67854020  0.42587238  0.68192130  1
  Si0+  Si98  1  0.32002142  0.07026098  0.01311828  1
  Si0+  Si99  1  0.56906172  0.67674960  0.32159037  1
  Si0+  Si100  1  0.56954895  0.17710004  0.31825249  1
  Si0+  Si101  1  0.92843150  0.32118735  0.64988382  1
  Si0+  Si102  1  0.32095551  0.07170699  0.68445029  1
  Si0+  Si103  1  0.43122255  0.82259705  0.32151809  1
  Si0+  Si104  1  0.17848530  0.42669969  0.35067696  1
  Si0+  Si105  1  0.42638368  0.32250409  0.98368241  1
  Si0+  Si106  1  0.17696645  0.92932079  0.01534453  1
  Si0+  Si107  1  0.17863151  0.42711420  0.68222816  1
  Si0+  Si108  1  0.42935103  0.32068584  0.31726774  1
  Si0+  Si109  1  0.82173709  0.07100407  0.68091198  1
  Si0+  Si110  1  0.17697299  0.92908728  0.35052497  1
  Si0+  Si111  1  0.32069882  0.57580916  0.01519957  1
  Si0+  Si112  1  0.42793074  0.32152254  0.64757391  1
  Si0+  Si113  1  0.17789725  0.93167689  0.68315979  1
  Si0+  Si114  1  0.92663858  0.82182865  0.65046080  1
  Si0+  Si115  1  0.82553557  0.07260186  0.01553758  1
  Si0+  Si116  1  0.42730440  0.82251431  0.64837329  1
  Si0+  Si117  1  0.82365235  0.07148471  0.34912466  1
  Si0+  Si118  1  0.67769280  0.93080449  0.68385610  1
  Si0+  Si119  1  0.07539289  0.17832956  0.31774366  1
  O2-  O120  1  0.25003795  -0.00071519  0.05664541  1
  O2-  O121  1  0.24189711  0.00124459  0.39609311  1
  O2-  O122  1  0.24888189  0.00269502  0.72722144  1
  O2-  O123  1  0.25161426  0.50765912  0.05958653  1
  O2-  O124  1  0.23983278  0.50267107  0.39342346  1
  O2-  O125  1  0.24328358  0.49969432  0.72652427  1
  O2-  O126  1  0.75562682  0.00536393  0.05974888  1
  O2-  O127  1  0.75895963  -0.00061022  0.39450293  1
  O2-  O128  1  0.75065260  0.00091248  0.72439653  1
  O2-  O129  1  0.74514319  0.50169227  0.06348130  1
  O2-  O130  1  0.74871111  0.49833282  0.39991957  1
  O2-  O131  1  0.74374508  0.49731421  0.72611235  1
  O2-  O132  1  0.00549411  0.24435424  0.27273748  1
  O2-  O133  1  -0.00115225  0.25355732  0.60573449  1
  O2-  O134  1  -0.00167536  0.25401974  0.93843918  1
  O2-  O135  1  -0.00325693  0.74536320  0.26953828  1
  O2-  O136  1  -0.00850920  0.74943138  0.60691756  1
  O2-  O137  1  -0.00595329  0.74517399  0.93379244  1
  O2-  O138  1  0.50158327  0.25052284  0.27547212  1
  O2-  O139  1  0.50031158  0.25665652  0.60276951  1
  O2-  O140  1  0.50335686  0.26216827  0.94066189  1
  O2-  O141  1  0.49873282  0.74888688  0.27949826  1
  O2-  O142  1  0.49231947  0.75068466  0.60383215  1
  O2-  O143  1  0.49476636  0.74651037  0.93783867  1
  O2-  O144  1  0.07340984  0.18201055  0.10165339  1
  O2-  O145  1  0.07482718  0.18059857  0.42369627  1
  O2-  O146  1  0.07159154  0.17873498  0.76478663  1
  O2-  O147  1  0.07355777  0.68134171  0.09710861  1
  O2-  O148  1  0.07504636  0.68203807  0.43216193  1
  O2-  O149  1  0.07104107  0.68047116  0.76559380  1
  O2-  O150  1  0.56604226  0.17736661  0.10163521  1
  O2-  O151  1  0.56733706  0.17736261  0.42356630  1
  O2-  O152  1  0.57019925  0.17851001  0.76299003  1
  O2-  O153  1  0.56845107  0.67899591  0.10226572  1
  O2-  O154  1  0.56699788  0.67863159  0.42696318  1
  O2-  O155  1  0.57105486  0.68159438  0.76435583  1
  O2-  O156  1  0.18445952  0.41974960  0.24558109  1
  O2-  O157  1  0.18080437  0.42444706  0.57670422  1
  O2-  O158  1  0.18559577  0.42395434  0.90036365  1
  O2-  O159  1  0.18027863  0.93002661  0.24504219  1
  O2-  O160  1  0.18004396  0.93404664  0.57800708  1
  O2-  O161  1  0.17695655  0.93201382  0.90999564  1
  O2-  O162  1  0.67773709  0.42712606  0.23564417  1
  O2-  O163  1  0.68128617  0.42480690  0.57643082  1
  O2-  O164  1  0.68281112  0.42356170  0.89939300  1
  O2-  O165  1  0.67339013  0.93145444  0.23640950  1
  O2-  O166  1  0.67826872  0.93125121  0.57852542  1
  O2-  O167  1  0.67792289  0.93617932  0.89879356  1
  O2-  O168  1  0.42142100  0.31730806  0.08918923  1
  O2-  O169  1  0.42767650  0.31878243  0.42225211  1
  O2-  O170  1  0.42422918  0.31742470  0.75303059  1
  O2-  O171  1  0.42958631  0.82550890  0.10108761  1
  O2-  O172  1  0.43228230  0.82416875  0.42666671  1
  O2-  O173  1  0.42924079  0.82568318  0.75359019  1
  O2-  O174  1  0.92786618  0.31902936  0.08715053  1
  O2-  O175  1  0.93071827  0.31624610  0.43108793  1
  O2-  O176  1  0.92701570  0.31838278  0.75523034  1
  O2-  O177  1  0.92909146  0.82241402  0.09738225  1
  O2-  O178  1  0.92916691  0.82080596  0.43192379  1
  O2-  O179  1  0.92907063  0.82589718  0.75564037  1
  O2-  O180  1  0.32230408  0.06930465  0.23458087  1
  O2-  O181  1  0.32075716  0.07037289  0.57928473  1
  O2-  O182  1  0.31902417  0.07043991  0.90780867  1
  O2-  O183  1  0.32210227  0.57018605  0.23244234  1
  O2-  O184  1  0.31969619  0.57093122  0.56903945  1
  O2-  O185  1  0.32020539  0.57402759  0.90954043  1
  O2-  O186  1  0.82049346  0.07482395  0.24391236  1
  O2-  O187  1  0.82121422  0.07067519  0.57587076  1
  O2-  O188  1  0.82576390  0.07176013  0.90933395  1
  O2-  O189  1  0.81842682  0.57136093  0.23621771  1
  O2-  O190  1  0.82310218  0.56888810  0.56851129  1
  O2-  O191  1  0.81960520  0.57069302  0.90165868  1
  O2-  O192  1  0.05472120  0.08294501  0.27405752  1
  O2-  O193  1  0.04022824  0.08303586  0.59547493  1
  O2-  O194  1  0.04325955  0.08530024  0.93205425  1
  O2-  O195  1  0.05555100  0.57567058  0.26990290  1
  O2-  O196  1  0.04541020  0.57975784  0.60073311  1
  O2-  O197  1  0.04792478  0.57601795  0.93383862  1
  O2-  O198  1  0.53593402  0.08562156  0.27402109  1
  O2-  O199  1  0.53584981  0.08424688  0.59530807  1
  O2-  O200  1  0.53420164  0.08987596  0.93029036  1
  O2-  O201  1  0.53972014  0.58479843  0.27635773  1
  O2-  O202  1  0.54142331  0.58026998  0.59978515  1
  O2-  O203  1  0.54526782  0.57817945  0.93307635  1
  O2-  O204  1  0.17004610  0.20529149  0.27466135  1
  O2-  O205  1  0.16940080  0.20694036  0.59837740  1
  O2-  O206  1  0.16853723  0.21206816  0.93340785  1
  O2-  O207  1  0.17122160  0.71219843  0.26581524  1
  O2-  O208  1  0.16620032  0.71540565  0.60064948  1
  O2-  O209  1  0.16605165  0.71165494  0.92990856  1
  O2-  O210  1  0.66259945  0.19900106  0.27208817  1
  O2-  O211  1  0.66921251  0.20466542  0.59514143  1
  O2-  O212  1  0.66970150  0.20567362  0.93269449  1
  O2-  O213  1  0.66144909  0.70458164  0.27749752  1
  O2-  O214  1  0.66507159  0.71442176  0.59723629  1
  O2-  O215  1  0.66545057  0.71182798  0.93405686  1
  O2-  O216  1  0.08350548  0.45331930  0.06825702  1
  O2-  O217  1  0.08200543  0.44236827  0.39284157  1
  O2-  O218  1  0.08355555  0.44620038  0.72695135  1
  O2-  O219  1  0.08673165  0.96065270  0.06324827  1
  O2-  O220  1  0.08209187  0.95064793  0.39598871  1
  O2-  O221  1  0.08561224  0.96075520  0.72868800  1
  O2-  O222  1  0.57418625  0.44537782  0.06182118  1
  O2-  O223  1  0.57860434  0.44814411  0.40138053  1
  O2-  O224  1  0.58248167  0.44447372  0.72496403  1
  O2-  O225  1  0.58291964  0.96764678  0.06594170  1
  O2-  O226  1  0.58700180  0.96377866  0.40805930  1
  O2-  O227  1  0.58584778  0.96271230  0.72819684  1
  O2-  O228  1  0.21659114  0.33450698  0.06990115  1
  O2-  O229  1  0.21231321  0.33718097  0.40142497  1
  O2-  O230  1  0.21073277  0.33446009  0.72832226  1
  O2-  O231  1  0.20421101  0.83809329  0.06363946  1
  O2-  O232  1  0.20844557  0.83852010  0.39935982  1
  O2-  O233  1  0.20613200  0.84096475  0.73183760  1
  O2-  O234  1  0.70784046  0.32841374  0.06630699  1
  O2-  O235  1  0.70839953  0.32601557  0.39931443  1
  O2-  O236  1  0.70761021  0.33151961  0.72596686  1
  O2-  O237  1  0.70544698  0.83654801  0.06776202  1
  O2-  O238  1  0.70754863  0.83234984  0.40614172  1
  O2-  O239  1  0.70315835  0.83881596  0.73096599  1
  O2-  O240  1  0.45487875  0.41234357  0.26883092  1
  O2-  O241  1  0.44892703  0.41652205  0.60335286  1
  O2-  O242  1  0.44055392  0.41855112  0.93948621  1
  O2-  O243  1  0.46215017  0.91410756  0.27517321  1
  O2-  O244  1  0.45638754  0.91515673  0.60117272  1
  O2-  O245  1  0.46026247  0.91933166  0.93025076  1
  O2-  O246  1  0.95826992  0.41349880  0.26051311  1
  O2-  O247  1  0.95454898  0.41403812  0.60330272  1
  O2-  O248  1  0.95550618  0.41558934  0.93706375  1
  O2-  O249  1  0.95308240  0.91910722  0.26530001  1
  O2-  O250  1  0.95586368  0.91362819  0.60190115  1
  O2-  O251  1  0.95916326  0.91821689  0.93024639  1
  O2-  O252  1  0.33816078  0.28987531  0.26983606  1
  O2-  O253  1  0.33718889  0.29052834  0.59833909  1
  O2-  O254  1  0.33856498  0.28603102  0.93285299  1
  O2-  O255  1  0.33786029  0.80063804  0.27515733  1
  O2-  O256  1  0.33179401  0.80249152  0.60425672  1
  O2-  O257  1  0.32816460  0.80383895  0.93383898  1
  O2-  O258  1  0.83371752  0.28380781  0.26234389  1
  O2-  O259  1  0.83723678  0.29202519  0.60096210  1
  O2-  O260  1  0.83674014  0.29536811  0.93299638  1
  O2-  O261  1  0.82547269  0.79311055  0.26873321  1
  O2-  O262  1  0.83074753  0.80101840  0.60798744  1
  O2-  O263  1  0.82640920  0.80002177  0.93267158  1
  O2-  O264  1  0.41150614  0.04254013  0.06056651  1
  O2-  O265  1  0.41344612  0.03616992  0.40678898  1
  O2-  O266  1  0.41304797  0.04191419  0.73048648  1
  O2-  O267  1  0.41421833  0.54994560  0.06103262  1
  O2-  O268  1  0.41234139  0.53454792  0.40233164  1
  O2-  O269  1  0.41666145  0.53855710  0.73665026  1
  O2-  O270  1  0.91911968  0.04796315  0.06175165  1
  O2-  O271  1  0.91972391  0.05114757  0.39329639  1
  O2-  O272  1  0.91439605  0.04349233  0.72740094  1
  O2-  O273  1  0.91809894  0.54354086  0.06738304  1
  O2-  O274  1  0.92155520  0.53726729  0.39814352  1
  O2-  O275  1  0.91751760  0.53831985  0.73521108  1
  O2-  O276  1  0.29189867  0.16125521  0.06169601  1
  O2-  O277  1  0.29455704  0.16783593  0.40477196  1
  O2-  O278  1  0.29501639  0.16470742  0.72994525  1
  O2-  O279  1  0.29566865  0.67050616  0.05940620  1
  O2-  O280  1  0.29545182  0.67068214  0.40060400  1
  O2-  O281  1  0.29359509  0.67140779  0.73411696  1
  O2-  O282  1  0.80089882  0.16689226  0.05952050  1
  O2-  O283  1  0.79315207  0.16208294  0.39866035  1
  O2-  O284  1  0.79492645  0.16331410  0.72782662  1
  O2-  O285  1  0.79172689  0.67157884  0.06732675  1
  O2-  O286  1  0.79390825  0.66669171  0.40500932  1
  O2-  O287  1  0.78987540  0.66852084  0.73317525  1
