# generated using pymatgen
data_Ca2Al2SiO7
_symmetry_space_group_name_H-M   'P 1'
_cell_length_a   15.46284036
_cell_length_b   15.46402465
_cell_length_c   15.28810548
_cell_angle_alpha   90.00937306
_cell_angle_beta   89.99872668
_cell_angle_gamma   90.01376593
_symmetry_Int_Tables_number   1
_chemical_formula_structural   Ca2Al2SiO7
_chemical_formula_sum   'Ca48 Al48 Si24 O168'
_cell_volume   3655.65714467
_cell_formula_units_Z   24
loop_
 _symmetry_equiv_pos_site_id
 _symmetry_equiv_pos_as_xyz
  1  'x, y, z'
loop_
 _atom_type_symbol
 _atom_type_oxidation_number
  Ca2+  2.0
  Al0+  0.0
  Si0+  0.0
  O2-  -2.0
loop_
 _atom_site_type_symbol
 _atom_site_label
 _atom_site_symmetry_multiplicity
 _atom_site_fract_x
 _atom_site_fract_y
 _atom_site_fract_z
 _atom_site_occupancy
  Ca2+  Ca0  1  0.17104306  0.07151118  0.17361063  1
  Ca2+  Ca1  1  0.17259813  0.07525578  0.49961246  1
  Ca2+  Ca2  1  0.16868783  0.07067910  0.83780527  1
  Ca2+  Ca3  1  0.18141474  0.58229004  0.17562922  1
  Ca2+  Ca4  1  0.17516566  0.57753819  0.50054845  1
  Ca2+  Ca5  1  0.18303440  0.58441867  0.83557154  1
  Ca2+  Ca6  1  0.66749999  0.07701736  0.17099383  1
  Ca2+  Ca7  1  0.67543658  0.08875027  0.50067640  1
  Ca2+  Ca8  1  0.66452432  0.07364786  0.83998843  1
  Ca2+  Ca9  1  0.66923949  0.58487180  0.17186200  1
  Ca2+  Ca10  1  0.65609852  0.57461205  0.50112097  1
  Ca2+  Ca11  1  0.66604851  0.58589941  0.83850447  1
  Ca2+  Ca12  1  0.07240099  0.34252984  0.16341480  1
  Ca2+  Ca13  1  0.07906220  0.34267157  0.48932327  1
  Ca2+  Ca14  1  0.07789904  0.34074074  0.82971360  1
  Ca2+  Ca15  1  0.09192383  0.83006742  0.16605777  1
  Ca2+  Ca16  1  0.09063399  0.82969938  0.49355659  1
  Ca2+  Ca17  1  0.08661679  0.83617026  0.82957913  1
  Ca2+  Ca18  1  0.57240988  0.33682656  0.16742612  1
  Ca2+  Ca19  1  0.57883264  0.33961007  0.49058833  1
  Ca2+  Ca20  1  0.57815418  0.33919520  0.83268524  1
  Ca2+  Ca21  1  0.57736349  0.82378350  0.15594771  1
  Ca2+  Ca22  1  0.57531612  0.81852277  0.49478415  1
  Ca2+  Ca23  1  0.57570457  0.82320670  0.82707319  1
  Ca2+  Ca24  1  0.33579572  0.42355638  0.17600129  1
  Ca2+  Ca25  1  0.33139472  0.42721377  0.50298996  1
  Ca2+  Ca26  1  0.33667609  0.42891573  0.83848079  1
  Ca2+  Ca27  1  0.32746276  0.91612623  0.17223644  1
  Ca2+  Ca28  1  0.32560901  0.91239807  0.50304951  1
  Ca2+  Ca29  1  0.32825732  0.90445694  0.83862922  1
  Ca2+  Ca30  1  0.82978081  0.41606294  0.17123429  1
  Ca2+  Ca31  1  0.82087863  0.41194883  0.50067498  1
  Ca2+  Ca32  1  0.82669560  0.42295313  0.83996344  1
  Ca2+  Ca33  1  0.82478795  0.92082969  0.17105928  1
  Ca2+  Ca34  1  0.83598540  0.92396229  0.49945594  1
  Ca2+  Ca35  1  0.82370849  0.91625650  0.84308395  1
  Ca2+  Ca36  1  0.40329516  0.17968519  0.16647287  1
  Ca2+  Ca37  1  0.41336242  0.17464224  0.49107076  1
  Ca2+  Ca38  1  0.41474752  0.17402040  0.83369967  1
  Ca2+  Ca39  1  0.42572954  0.66216654  0.15998882  1
  Ca2+  Ca40  1  0.41964923  0.65979858  0.49704838  1
  Ca2+  Ca41  1  0.41959723  0.67061830  0.83070867  1
  Ca2+  Ca42  1  0.91296933  0.17616954  0.16544290  1
  Ca2+  Ca43  1  0.92002578  0.17217572  0.48815044  1
  Ca2+  Ca44  1  0.91720394  0.17360064  0.83234183  1
  Ca2+  Ca45  1  0.92681882  0.65870160  0.16277521  1
  Ca2+  Ca46  1  0.92863772  0.66720294  0.49068510  1
  Ca2+  Ca47  1  0.91669429  0.66495490  0.83234360  1
  Al0+  Al48  1  0.00100383  0.00020360  0.00360891  1
  Al0+  Al49  1  -0.00202520  0.00042817  0.33935245  1
  Al0+  Al50  1  0.00113410  0.00324393  0.67041433  1
  Al0+  Al51  1  -0.00157183  0.50011431  -0.00450587  1
  Al0+  Al52  1  -0.00052082  0.50275234  0.32631401  1
  Al0+  Al53  1  -0.00228392  0.50089013  0.66722449  1
  Al0+  Al54  1  0.49796212  0.00109538  0.00208491  1
  Al0+  Al55  1  0.50086351  -0.00059025  0.33788203  1
  Al0+  Al56  1  0.50100546  0.00124750  0.66098899  1
  Al0+  Al57  1  0.50155951  0.49830677  -0.00453433  1
  Al0+  Al58  1  0.50160818  0.49939476  0.33161040  1
  Al0+  Al59  1  0.50053334  0.49886094  0.67252713  1
  Al0+  Al60  1  0.24720871  0.24842417  -0.00759951  1
  Al0+  Al61  1  0.24673864  0.24759801  0.33488923  1
  Al0+  Al62  1  0.24774427  0.24738123  0.66977612  1
  Al0+  Al63  1  0.25054434  0.74688348  0.00555461  1
  Al0+  Al64  1  0.25098387  0.74902412  0.33626229  1
  Al0+  Al65  1  0.24855956  0.75033789  0.67074589  1
  Al0+  Al66  1  0.75139726  0.25029364  -0.00660725  1
  Al0+  Al67  1  0.74997359  0.24954655  0.33554809  1
  Al0+  Al68  1  0.75101008  0.25172215  0.67253581  1
  Al0+  Al69  1  0.75228825  0.74977290  0.00628544  1
  Al0+  Al70  1  0.75064442  0.75036253  0.33122983  1
  Al0+  Al71  1  0.74995006  0.75154591  0.65949898  1
  Al0+  Al72  1  0.18023789  0.92830344  0.34916062  1
  Al0+  Al73  1  0.42805731  0.32065909  0.98566470  1
  Al0+  Al74  1  0.42748585  0.31886454  0.32256422  1
  Al0+  Al75  1  0.07202940  0.68098133  0.31876507  1
  Al0+  Al76  1  0.42659043  0.82137058  0.65003002  1
  Al0+  Al77  1  0.68150467  0.43096510  0.34416353  1
  Al0+  Al78  1  0.17575453  0.42909538  0.34383785  1
  Al0+  Al79  1  0.32079335  0.56979179  0.68362306  1
  Al0+  Al80  1  0.32370001  0.56911842  0.34780780  1
  Al0+  Al81  1  0.81802568  0.07017347  0.34609649  1
  Al0+  Al82  1  0.67692192  0.92907445  0.01274030  1
  Al0+  Al83  1  0.42739366  0.82118434  0.98711954  1
  Al0+  Al84  1  0.67979359  0.42959384  0.68195137  1
  Al0+  Al85  1  0.92930083  0.32146790  0.98294051  1
  Al0+  Al86  1  0.57053564  0.67840672  0.31789630  1
  Al0+  Al87  1  0.57428559  0.67947769  0.98494501  1
  Al0+  Al88  1  0.18086485  0.93075755  0.68167456  1
  Al0+  Al89  1  0.92857260  0.32067298  0.31997850  1
  Al0+  Al90  1  0.17598997  0.42697429  0.68189551  1
  Al0+  Al91  1  0.57138950  0.67724112  0.64963983  1
  Al0+  Al92  1  0.82140574  0.57065478  0.01429208  1
  Al0+  Al93  1  0.32307231  0.07249496  0.34816768  1
  Al0+  Al94  1  0.32254835  0.56762164  0.01548087  1
  Al0+  Al95  1  0.18014502  0.92835476  0.01491164  1
  Si0+  Si96  1  0.82193609  0.57467322  0.68079884  1
  Si0+  Si97  1  0.82156108  0.07241182  0.01563815  1
  Si0+  Si98  1  0.32144291  0.07519800  0.01603178  1
  Si0+  Si99  1  0.32511899  0.07247764  0.68500578  1
  Si0+  Si100  1  0.67928825  0.42627567  0.01742600  1
  Si0+  Si101  1  0.92805689  0.82429459  0.31568623  1
  Si0+  Si102  1  0.67993992  0.92963848  0.67947474  1
  Si0+  Si103  1  0.93060176  0.82266932  0.98666188  1
  Si0+  Si104  1  0.07016882  0.17550148  0.98097294  1
  Si0+  Si105  1  0.57302349  0.17764203  0.98365089  1
  Si0+  Si106  1  0.57357033  0.17942239  0.65177421  1
  Si0+  Si107  1  0.07051632  0.17541564  0.31610224  1
  Si0+  Si108  1  0.82307957  0.57417987  0.34968639  1
  Si0+  Si109  1  0.06962281  0.17789682  0.65023013  1
  Si0+  Si110  1  0.17761559  0.42682443  0.01446314  1
  Si0+  Si111  1  0.67735177  0.92497522  0.35266489  1
  Si0+  Si112  1  0.57302029  0.17681767  0.31824842  1
  Si0+  Si113  1  0.92942750  0.32073746  0.65024968  1
  Si0+  Si114  1  0.42844694  0.82317643  0.31691855  1
  Si0+  Si115  1  0.07095589  0.67961610  0.98370378  1
  Si0+  Si116  1  0.82113990  0.07141487  0.68397261  1
  Si0+  Si117  1  0.42902307  0.31886837  0.65272820  1
  Si0+  Si118  1  0.92841064  0.82492435  0.65257404  1
  Si0+  Si119  1  0.06880116  0.68016232  0.65320331  1
  O2-  O120  1  0.25724021  0.00165609  0.05853132  1
  O2-  O121  1  0.25434039  -0.00191897  0.39923040  1
  O2-  O122  1  0.26066967  -0.00031287  0.72901401  1
  O2-  O123  1  0.25054812  0.48897207  0.05990601  1
  O2-  O124  1  0.25080772  0.49628394  0.39556279  1
  O2-  O125  1  0.24972322  0.49566131  0.73320606  1
  O2-  O126  1  0.75055791  0.00602670  0.05862266  1
  O2-  O127  1  0.74453449  -0.00400559  0.39644131  1
  O2-  O128  1  0.75081093  -0.00029266  0.72489054  1
  O2-  O129  1  0.74554090  0.49741173  0.06068628  1
  O2-  O130  1  0.75407755  0.50653277  0.39406357  1
  O2-  O131  1  0.75071082  0.50923404  0.72543084  1
  O2-  O132  1  0.00649286  0.24914060  0.27268168  1
  O2-  O133  1  0.00446759  0.25441576  0.60783933  1
  O2-  O134  1  0.00476623  0.24743401  0.93602652  1
  O2-  O135  1  -0.00260079  0.75668736  0.27152763  1
  O2-  O136  1  -0.00125797  0.75317439  0.61140966  1
  O2-  O137  1  0.00114140  0.75274518  0.94179134  1
  O2-  O138  1  0.49850150  0.23951592  0.27538463  1
  O2-  O139  1  0.50109162  0.24868152  0.60999868  1
  O2-  O140  1  0.50392086  0.24586084  0.93929589  1
  O2-  O141  1  0.49756010  0.75521665  0.27286448  1
  O2-  O142  1  0.49591611  0.74642681  0.60048607  1
  O2-  O143  1  0.50168174  0.75173897  0.93629933  1
  O2-  O144  1  0.06831635  0.17286136  0.08601614  1
  O2-  O145  1  0.06649080  0.17278345  0.42196944  1
  O2-  O146  1  0.06420070  0.17369045  0.75513537  1
  O2-  O147  1  0.06954737  0.67942286  0.08851743  1
  O2-  O148  1  0.06922559  0.68119933  0.43254826  1
  O2-  O149  1  0.06629839  0.68075538  0.75862013  1
  O2-  O150  1  0.57723796  0.17837352  0.08872383  1
  O2-  O151  1  0.57673163  0.18091575  0.42415470  1
  O2-  O152  1  0.57421682  0.17776327  0.75686027  1
  O2-  O153  1  0.57382317  0.68015213  0.09854027  1
  O2-  O154  1  0.57004997  0.67823659  0.43091355  1
  O2-  O155  1  0.57739181  0.68222614  0.76265561  1
  O2-  O156  1  0.17556753  0.43207888  0.23020086  1
  O2-  O157  1  0.17418416  0.42959346  0.56872202  1
  O2-  O158  1  0.17750839  0.43095766  0.90872917  1
  O2-  O159  1  0.18001783  0.93010896  0.23557924  1
  O2-  O160  1  0.17593645  0.93418393  0.56943059  1
  O2-  O161  1  0.17715263  0.93103073  0.90165053  1
  O2-  O162  1  0.68232926  0.42959287  0.23142761  1
  O2-  O163  1  0.68207329  0.42411987  0.56903285  1
  O2-  O164  1  0.68221741  0.42537029  0.91148758  1
  O2-  O165  1  0.67902577  0.92608541  0.24697896  1
  O2-  O166  1  0.68400985  0.93245170  0.57473549  1
  O2-  O167  1  0.68105639  0.93067256  0.89887243  1
  O2-  O168  1  0.42756040  0.31909620  0.09859210  1
  O2-  O169  1  0.43101425  0.31969648  0.43603917  1
  O2-  O170  1  0.43078568  0.31605887  0.75800946  1
  O2-  O171  1  0.42857375  0.82068545  0.10055822  1
  O2-  O172  1  0.43000494  0.82349097  0.42251923  1
  O2-  O173  1  0.43026221  0.82256202  0.76354400  1
  O2-  O174  1  0.92834811  0.31963280  0.09583484  1
  O2-  O175  1  0.92744141  0.31789553  0.43359177  1
  O2-  O176  1  0.92846854  0.31804573  0.75536045  1
  O2-  O177  1  0.93168282  0.82463124  0.09121422  1
  O2-  O178  1  0.92757680  0.82309789  0.42192105  1
  O2-  O179  1  0.92643268  0.82526265  0.75792032  1
  O2-  O180  1  0.31999103  0.07218616  0.23449766  1
  O2-  O181  1  0.32214009  0.07640393  0.57996028  1
  O2-  O182  1  0.31915962  0.07809896  0.91033658  1
  O2-  O183  1  0.32427163  0.56786000  0.23419124  1
  O2-  O184  1  0.32002532  0.56795958  0.57030143  1
  O2-  O185  1  0.31998472  0.56996087  0.90246103  1
  O2-  O186  1  0.81524970  0.07005562  0.23307053  1
  O2-  O187  1  0.82126521  0.07271645  0.57901694  1
  O2-  O188  1  0.82197162  0.07011386  0.90942808  1
  O2-  O189  1  0.82276613  0.57296935  0.24413142  1
  O2-  O190  1  0.82739374  0.57205365  0.57569842  1
  O2-  O191  1  0.82282319  0.56972530  0.90063926  1
  O2-  O192  1  0.03741798  0.08396394  0.26960618  1
  O2-  O193  1  0.03475323  0.08904017  0.60092034  1
  O2-  O194  1  0.03875575  0.08352183  0.93302752  1
  O2-  O195  1  0.03888612  0.58730145  0.26053125  1
  O2-  O196  1  0.03806073  0.58954442  0.60478948  1
  O2-  O197  1  0.03978153  0.58996778  0.93429173  1
  O2-  O198  1  0.55546790  0.07988070  0.27574643  1
  O2-  O199  1  0.55081806  0.08782699  0.60169337  1
  O2-  O200  1  0.54642308  0.08446216  0.93645140  1
  O2-  O201  1  0.54075643  0.58238008  0.26328291  1
  O2-  O202  1  0.54417257  0.57602690  0.60151321  1
  O2-  O203  1  0.54863996  0.58015103  0.93325064  1
  O2-  O204  1  0.16554228  0.19356495  0.27119489  1
  O2-  O205  1  0.16456599  0.19744302  0.60601257  1
  O2-  O206  1  0.16356258  0.19650894  0.93247770  1
  O2-  O207  1  0.16888305  0.71149455  0.26503973  1
  O2-  O208  1  0.16032974  0.70755608  0.60685613  1
  O2-  O209  1  0.16255210  0.70787665  0.93718656  1
  O2-  O210  1  0.66365351  0.20785619  0.26977450  1
  O2-  O211  1  0.66635401  0.20926155  0.60649538  1
  O2-  O212  1  0.66580955  0.20191714  0.93382699  1
  O2-  O213  1  0.66932771  0.70752114  0.26664687  1
  O2-  O214  1  0.66937590  0.70781223  0.59462385  1
  O2-  O215  1  0.67426577  0.70879406  0.93476210  1
  O2-  O216  1  0.08441387  0.45683528  0.05790968  1
  O2-  O217  1  0.07827706  0.46247492  0.39686467  1
  O2-  O218  1  0.07690274  0.45739475  0.73369012  1
  O2-  O219  1  0.08377994  0.96069883  0.06889607  1
  O2-  O220  1  0.08127903  0.95654440  0.40130708  1
  O2-  O221  1  0.08485445  0.96637696  0.73645130  1
  O2-  O222  1  0.58405278  0.44784692  0.05992078  1
  O2-  O223  1  0.58598772  0.46123561  0.39968293  1
  O2-  O224  1  0.58337709  0.45495242  0.73746481  1
  O2-  O225  1  0.58128219  0.95978164  0.06822934  1
  O2-  O226  1  0.58384169  0.94779872  0.39891021  1
  O2-  O227  1  0.58832769  0.95944227  0.72571896  1
  O2-  O228  1  0.19436410  0.32908032  0.05433762  1
  O2-  O229  1  0.19345831  0.32764005  0.39379932  1
  O2-  O230  1  0.19757491  0.32572504  0.73272658  1
  O2-  O231  1  0.20777440  0.83158945  0.06857715  1
  O2-  O232  1  0.20766857  0.83043825  0.40292423  1
  O2-  O233  1  0.20393381  0.83290725  0.73616810  1
  O2-  O234  1  0.70865492  0.33252039  0.06076224  1
  O2-  O235  1  0.71278212  0.33539728  0.40045513  1
  O2-  O236  1  0.71494417  0.33517790  0.73890867  1
  O2-  O237  1  0.71263683  0.83619386  0.06947354  1
  O2-  O238  1  0.70787063  0.83308225  0.39939134  1
  O2-  O239  1  0.70920504  0.83780941  0.72575476  1
  O2-  O240  1  0.46440300  0.41213329  0.26684309  1
  O2-  O241  1  0.45712542  0.41109028  0.60805245  1
  O2-  O242  1  0.46187147  0.41430617  0.92820367  1
  O2-  O243  1  0.45318150  0.91819631  0.27242204  1
  O2-  O244  1  0.45669943  0.92012195  0.59722973  1
  O2-  O245  1  0.44922663  0.92291814  0.93683782  1
  O2-  O246  1  0.95488208  0.41758454  0.26469120  1
  O2-  O247  1  0.95092052  0.41479483  0.60470515  1
  O2-  O248  1  0.95994366  0.41742333  0.92675697  1
  O2-  O249  1  0.95111663  0.91916267  0.27147831  1
  O2-  O250  1  0.95729861  0.91739252  0.60674314  1
  O2-  O251  1  0.95676113  0.91485674  0.93781237  1
  O2-  O252  1  0.32986304  0.29039285  0.26848473  1
  O2-  O253  1  0.33621144  0.29016176  0.60798622  1
  O2-  O254  1  0.33213271  0.28961174  0.92925804  1
  O2-  O255  1  0.33410900  0.79876317  0.27333741  1
  O2-  O256  1  0.32535061  0.79646777  0.60143204  1
  O2-  O257  1  0.32936460  0.78812065  0.93503204  1
  O2-  O258  1  0.83367399  0.28410636  0.26590753  1
  O2-  O259  1  0.83824725  0.28684086  0.60499381  1
  O2-  O260  1  0.83424160  0.28867714  0.92579292  1
  O2-  O261  1  0.83429468  0.79968925  0.26975394  1
  O2-  O262  1  0.83775189  0.80046199  0.60149137  1
  O2-  O263  1  0.83916224  0.79379809  0.93903682  1
  O2-  O264  1  0.41686409  0.05832780  0.06071714  1
  O2-  O265  1  0.42394429  0.05216564  0.40056238  1
  O2-  O266  1  0.42186660  0.05313496  0.72737159  1
  O2-  O267  1  0.42093802  0.53767700  0.06537080  1
  O2-  O268  1  0.42030892  0.53771493  0.40153996  1
  O2-  O269  1  0.41842949  0.54143061  0.73748763  1
  O2-  O270  1  0.91354125  0.04504341  0.06265852  1
  O2-  O271  1  0.91281400  0.03999304  0.40454422  1
  O2-  O272  1  0.91207312  0.04380357  0.73254607  1
  O2-  O273  1  0.91808935  0.53683829  0.06678093  1
  O2-  O274  1  0.91654712  0.54767473  0.39438515  1
  O2-  O275  1  0.91318797  0.54615286  0.73050313  1
  O2-  O276  1  0.28833050  0.16677134  0.06247500  1
  O2-  O277  1  0.29064886  0.16851508  0.40418634  1
  O2-  O278  1  0.29399004  0.16341228  0.73400757  1
  O2-  O279  1  0.28771019  0.66167578  0.07069229  1
  O2-  O280  1  0.29493838  0.66686415  0.40033427  1
  O2-  O281  1  0.28822659  0.66698589  0.73658119  1
  O2-  O282  1  0.79720327  0.16735187  0.05853305  1
  O2-  O283  1  0.78645849  0.16476566  0.40402823  1
  O2-  O284  1  0.79209653  0.16194954  0.73304475  1
  O2-  O285  1  0.79805267  0.66762731  0.07038836  1
  O2-  O286  1  0.80127935  0.66911928  0.39485638  1
  O2-  O287  1  0.80047961  0.67085458  0.72430297  1
