# generated using pymatgen
data_Ca2Al2SiO7
_symmetry_space_group_name_H-M   'P 1'
_cell_length_a   15.45650356
_cell_length_b   15.45532115
_cell_length_c   15.28220598
_cell_angle_alpha   89.99888639
_cell_angle_beta   89.99826324
_cell_angle_gamma   90.01242522
_symmetry_Int_Tables_number   1
_chemical_formula_structural   Ca2Al2SiO7
_chemical_formula_sum   'Ca48 Al48 Si24 O168'
_cell_volume   3650.69314807
_cell_formula_units_Z   24
loop_
 _symmetry_equiv_pos_site_id
 _symmetry_equiv_pos_as_xyz
  1  'x, y, z'
loop_
 _atom_type_symbol
 _atom_type_oxidation_number
  Ca2+  2.0
  Al0+  0.0
  Si0+  0.0
  O2-  -2.0
loop_
 _atom_site_type_symbol
 _atom_site_label
 _atom_site_symmetry_multiplicity
 _atom_site_fract_x
 _atom_site_fract_y
 _atom_site_fract_z
 _atom_site_occupancy
  Ca2+  Ca0  1  0.16679723  0.07228557  0.17362716  1
  Ca2+  Ca1  1  0.16721863  0.07947400  0.50252866  1
  Ca2+  Ca2  1  0.18167762  0.07777287  0.83793503  1
  Ca2+  Ca3  1  0.17030754  0.58508437  0.17252865  1
  Ca2+  Ca4  1  0.16875507  0.57214042  0.50596407  1
  Ca2+  Ca5  1  0.17662787  0.58196207  0.83645343  1
  Ca2+  Ca6  1  0.67429513  0.08069117  0.17325176  1
  Ca2+  Ca7  1  0.67677141  0.08064318  0.50889801  1
  Ca2+  Ca8  1  0.66838622  0.07979963  0.83160703  1
  Ca2+  Ca9  1  0.66874159  0.58110333  0.17367830  1
  Ca2+  Ca10  1  0.66697255  0.58572405  0.50504118  1
  Ca2+  Ca11  1  0.65505591  0.57139318  0.83256471  1
  Ca2+  Ca12  1  0.08710711  0.32940786  0.16852011  1
  Ca2+  Ca13  1  0.08419552  0.33068646  0.49368611  1
  Ca2+  Ca14  1  0.07680987  0.33512880  0.82245711  1
  Ca2+  Ca15  1  0.09268341  0.82537224  0.16255440  1
  Ca2+  Ca16  1  0.08508794  0.82723586  0.49105795  1
  Ca2+  Ca17  1  0.09320195  0.82773832  0.83509887  1
  Ca2+  Ca18  1  0.57896642  0.33501314  0.16488032  1
  Ca2+  Ca19  1  0.56931041  0.34281362  0.49985712  1
  Ca2+  Ca20  1  0.58120351  0.33474383  0.82347076  1
  Ca2+  Ca21  1  0.57847016  0.82580735  0.16136366  1
  Ca2+  Ca22  1  0.58169850  0.82809271  0.49946403  1
  Ca2+  Ca23  1  0.57296312  0.82825957  0.82067224  1
  Ca2+  Ca24  1  0.33042554  0.42397103  0.17395581  1
  Ca2+  Ca25  1  0.32534608  0.41527616  0.50873008  1
  Ca2+  Ca26  1  0.33976074  0.43006646  0.83202045  1
  Ca2+  Ca27  1  0.32620751  0.91533528  0.16480372  1
  Ca2+  Ca28  1  0.32977859  0.91877107  0.50676987  1
  Ca2+  Ca29  1  0.33962923  0.92312538  0.84074912  1
  Ca2+  Ca30  1  0.82618614  0.42224072  0.17184836  1
  Ca2+  Ca31  1  0.83061008  0.42261098  0.50768760  1
  Ca2+  Ca32  1  0.82155361  0.41066044  0.83352093  1
  Ca2+  Ca33  1  0.83334468  0.92113947  0.17569028  1
  Ca2+  Ca34  1  0.83041753  0.92815958  0.50693020  1
  Ca2+  Ca35  1  0.82697642  0.91717575  0.82928534  1
  Ca2+  Ca36  1  0.40962320  0.17419475  0.16452639  1
  Ca2+  Ca37  1  0.40717686  0.17833788  0.49889582  1
  Ca2+  Ca38  1  0.41228842  0.17003159  0.82382803  1
  Ca2+  Ca39  1  0.41703085  0.67072032  0.16039972  1
  Ca2+  Ca40  1  0.42644795  0.66307692  0.50168758  1
  Ca2+  Ca41  1  0.41219291  0.67570754  0.82507360  1
  Ca2+  Ca42  1  0.92433561  0.15982978  0.16740648  1
  Ca2+  Ca43  1  0.91599559  0.17033658  0.49537971  1
  Ca2+  Ca44  1  0.91884897  0.17129084  0.82299241  1
  Ca2+  Ca45  1  0.92941018  0.65849407  0.16629937  1
  Ca2+  Ca46  1  0.92081780  0.66600694  0.49055721  1
  Ca2+  Ca47  1  0.92609639  0.66453978  0.83112256  1
  Al0+  Al48  1  -0.00020159  -0.00061772  -0.00034368  1
  Al0+  Al49  1  -0.00010468  0.00083474  0.33834465  1
  Al0+  Al50  1  0.00079381  -0.00106254  0.67183857  1
  Al0+  Al51  1  -0.00114992  0.49936191  -0.00641155  1
  Al0+  Al52  1  -0.00116137  0.49971977  0.33579027  1
  Al0+  Al53  1  -0.00101312  0.49850685  0.66590770  1
  Al0+  Al54  1  0.50217656  0.00188505  0.00317091  1
  Al0+  Al55  1  0.49927150  0.00149896  0.33212727  1
  Al0+  Al56  1  0.50033091  -0.00052879  0.66767713  1
  Al0+  Al57  1  0.49962372  0.49841766  0.00997227  1
  Al0+  Al58  1  0.49971769  0.50124639  0.32319554  1
  Al0+  Al59  1  0.49971536  0.50039093  0.66570267  1
  Al0+  Al60  1  0.24980330  0.25061726  -0.00001122  1
  Al0+  Al61  1  0.24817190  0.25110611  0.32614078  1
  Al0+  Al62  1  0.24728953  0.24733965  0.67086647  1
  Al0+  Al63  1  0.25126337  0.74955037  -0.00155016  1
  Al0+  Al64  1  0.25116551  0.75081051  0.33512770  1
  Al0+  Al65  1  0.25016359  0.74862555  0.66265124  1
  Al0+  Al66  1  0.74882957  0.25031966  0.00561714  1
  Al0+  Al67  1  0.74752569  0.25108591  0.33658072  1
  Al0+  Al68  1  0.75220695  0.25150076  0.66821074  1
  Al0+  Al69  1  0.75214338  0.74860071  -0.00105248  1
  Al0+  Al70  1  0.74910000  0.74952456  0.33167008  1
  Al0+  Al71  1  0.75263276  0.75093345  0.66800054  1
  Al0+  Al72  1  0.42826742  0.31961403  0.65557697  1
  Al0+  Al73  1  0.92825124  0.32075464  0.65174304  1
  Al0+  Al74  1  0.42723411  0.82365222  0.64968865  1
  Al0+  Al75  1  0.57187943  0.67873357  0.65290641  1
  Al0+  Al76  1  0.42840100  0.32006778  0.31827201  1
  Al0+  Al77  1  0.07119484  0.67795859  0.32130397  1
  Al0+  Al78  1  0.18067525  0.92827863  0.34815255  1
  Al0+  Al79  1  0.07114827  0.67943770  0.98520384  1
  Al0+  Al80  1  0.81989622  0.57049448  0.34631163  1
  Al0+  Al81  1  0.32059382  0.06973368  0.67769423  1
  Al0+  Al82  1  0.67960709  0.43195555  0.67747717  1
  Al0+  Al83  1  0.18024411  0.42933338  0.34548757  1
  Al0+  Al84  1  0.82042971  0.07133799  0.34726536  1
  Al0+  Al85  1  0.17965408  0.93000523  0.01476358  1
  Al0+  Al86  1  0.32075817  0.57009538  0.67985030  1
  Al0+  Al87  1  0.82224287  0.07212557  0.68325670  1
  Al0+  Al88  1  0.06867766  0.17879467  0.31950533  1
  Al0+  Al89  1  0.43191093  0.82043126  0.98693911  1
  Al0+  Al90  1  0.17693656  0.42722963  0.68211317  1
  Al0+  Al91  1  0.32400788  0.07382613  0.01732034  1
  Al0+  Al92  1  0.31911564  0.57046885  0.01492949  1
  Al0+  Al93  1  0.57130278  0.68102349  0.31738916  1
  Al0+  Al94  1  0.67939742  0.42902369  0.01587729  1
  Al0+  Al95  1  0.67897886  0.92772796  0.68132265  1
  Si0+  Si96  1  0.32397517  0.57276889  0.35011744  1
  Si0+  Si97  1  0.93022194  0.82164503  0.65125066  1
  Si0+  Si98  1  0.17434157  0.42845621  0.01613313  1
  Si0+  Si99  1  0.57308467  0.18079458  0.98544530  1
  Si0+  Si100  1  0.57375011  0.67623362  0.98366768  1
  Si0+  Si101  1  0.67566445  0.42943189  0.35121930  1
  Si0+  Si102  1  0.92792726  0.31856329  0.98591532  1
  Si0+  Si103  1  0.57330054  0.17784999  0.65088661  1
  Si0+  Si104  1  0.42913646  0.32107595  0.98439834  1
  Si0+  Si105  1  0.82006574  0.07074995  0.01544834  1
  Si0+  Si106  1  0.07066600  0.67858609  0.65020899  1
  Si0+  Si107  1  0.42755571  0.82509373  0.31495581  1
  Si0+  Si108  1  0.07097909  0.17733523  0.98387115  1
  Si0+  Si109  1  0.82396748  0.57391461  0.68449203  1
  Si0+  Si110  1  0.92605291  0.82447810  0.98168784  1
  Si0+  Si111  1  0.92929092  0.82200000  0.31838228  1
  Si0+  Si112  1  0.57321077  0.17728568  0.31681445  1
  Si0+  Si113  1  0.67636438  0.92751289  0.34873409  1
  Si0+  Si114  1  0.67978241  0.92741695  0.01523966  1
  Si0+  Si115  1  0.92530652  0.32234630  0.31591234  1
  Si0+  Si116  1  0.07084955  0.17658893  0.65061517  1
  Si0+  Si117  1  0.32150220  0.07343589  0.34930968  1
  Si0+  Si118  1  0.82406440  0.57192617  0.01599990  1
  Si0+  Si119  1  0.17813848  0.92562927  0.68319122  1
  O2-  O120  1  0.25013654  0.00302770  0.06601610  1
  O2-  O121  1  0.25643108  0.00202610  0.39412289  1
  O2-  O122  1  0.25099655  -0.00938403  0.72532041  1
  O2-  O123  1  0.24283423  0.49662087  0.06083530  1
  O2-  O124  1  0.25433076  0.50418226  0.39247339  1
  O2-  O125  1  0.24948383  0.49817292  0.73207391  1
  O2-  O126  1  0.75369480  -0.00448305  0.05794826  1
  O2-  O127  1  0.74342345  -0.00172023  0.39183414  1
  O2-  O128  1  0.74863465  0.00172543  0.73314460  1
  O2-  O129  1  0.75185713  0.50701822  0.06001656  1
  O2-  O130  1  0.74507644  0.49715404  0.39454285  1
  O2-  O131  1  0.75246178  0.50744008  0.72737363  1
  O2-  O132  1  -0.00765741  0.25207010  0.27092591  1
  O2-  O133  1  0.00264320  0.24559721  0.60617948  1
  O2-  O134  1  0.00132889  0.25038146  0.94277934  1
  O2-  O135  1  -0.00260655  0.75353076  0.27293165  1
  O2-  O136  1  0.00027188  0.75054865  0.60839728  1
  O2-  O137  1  -0.00374547  0.75580711  0.93957002  1
  O2-  O138  1  0.50338472  0.24442662  0.27191644  1
  O2-  O139  1  0.50233622  0.24442985  0.60710998  1
  O2-  O140  1  0.49817205  0.24742735  0.94299432  1
  O2-  O141  1  0.49673355  0.75613950  0.27150162  1
  O2-  O142  1  0.50121176  0.75202081  0.60215683  1
  O2-  O143  1  0.50711007  0.74617194  0.93981525  1
  O2-  O144  1  0.06845718  0.17600814  0.08904523  1
  O2-  O145  1  0.06867078  0.17962187  0.43227499  1
  O2-  O146  1  0.06904064  0.17660280  0.75668801  1
  O2-  O147  1  0.06882741  0.67801110  0.09837896  1
  O2-  O148  1  0.06849195  0.67892105  0.43437574  1
  O2-  O149  1  0.07002131  0.67995524  0.75561204  1
  O2-  O150  1  0.57719632  0.18316320  0.09051246  1
  O2-  O151  1  0.57507844  0.17610149  0.42179139  1
  O2-  O152  1  0.57365823  0.17994282  0.75715556  1
  O2-  O153  1  0.57503666  0.67946430  0.08946032  1
  O2-  O154  1  0.57197105  0.68108112  0.43004216  1
  O2-  O155  1  0.56972763  0.67833409  0.76678711  1
  O2-  O156  1  0.18166515  0.43047998  0.23190666  1
  O2-  O157  1  0.17720821  0.42822986  0.56833237  1
  O2-  O158  1  0.17323119  0.42880166  0.91086821  1
  O2-  O159  1  0.18087014  0.92800206  0.23525575  1
  O2-  O160  1  0.17467649  0.92758280  0.57751666  1
  O2-  O161  1  0.18001455  0.93258139  0.90114941  1
  O2-  O162  1  0.67817595  0.42901075  0.24515247  1
  O2-  O163  1  0.68019919  0.43348197  0.56469570  1
  O2-  O164  1  0.68015222  0.42616840  0.90288077  1
  O2-  O165  1  0.67843521  0.92851738  0.24234183  1
  O2-  O166  1  0.68327719  0.92840843  0.56755916  1
  O2-  O167  1  0.67997795  0.92919619  0.91070840  1
  O2-  O168  1  0.43067157  0.32023348  0.08962979  1
  O2-  O169  1  0.42806058  0.31983418  0.43142774  1
  O2-  O170  1  0.43188142  0.31956288  0.76898427  1
  O2-  O171  1  0.43429034  0.81842867  0.10039393  1
  O2-  O172  1  0.42853030  0.82796983  0.42003264  1
  O2-  O173  1  0.42737683  0.82324595  0.76361927  1
  O2-  O174  1  0.92734188  0.31734406  0.09100710  1
  O2-  O175  1  0.92533354  0.32167957  0.42119563  1
  O2-  O176  1  0.92826692  0.31878177  0.76577510  1
  O2-  O177  1  0.92212008  0.82653706  0.08699683  1
  O2-  O178  1  0.93025029  0.82089870  0.42411966  1
  O2-  O179  1  0.93073205  0.82108441  0.75650652  1
  O2-  O180  1  0.32026403  0.07255494  0.24376210  1
  O2-  O181  1  0.31544512  0.07233158  0.56459182  1
  O2-  O182  1  0.32350531  0.07451858  0.90374891  1
  O2-  O183  1  0.32228690  0.57246490  0.24399462  1
  O2-  O184  1  0.31920586  0.56851209  0.56622356  1
  O2-  O185  1  0.32082965  0.56951589  0.90218798  1
  O2-  O186  1  0.81965768  0.06821308  0.23317479  1
  O2-  O187  1  0.82243809  0.07004605  0.56973740  1
  O2-  O188  1  0.81786235  0.07365703  0.91095806  1
  O2-  O189  1  0.81976471  0.56745239  0.23281927  1
  O2-  O190  1  0.82593590  0.57320183  0.57883241  1
  O2-  O191  1  0.82667520  0.57052664  0.91067125  1
  O2-  O192  1  0.03566486  0.08215564  0.26526001  1
  O2-  O193  1  0.04491776  0.08202714  0.60611948  1
  O2-  O194  1  0.04084856  0.08669593  0.93554756  1
  O2-  O195  1  0.03782631  0.58224030  0.26627093  1
  O2-  O196  1  0.04075686  0.58710014  0.60411387  1
  O2-  O197  1  0.03820338  0.58391364  0.92890359  1
  O2-  O198  1  0.55067721  0.08293485  0.26914891  1
  O2-  O199  1  0.55189945  0.08333639  0.60591682  1
  O2-  O200  1  0.55103918  0.08681468  0.94013999  1
  O2-  O201  1  0.54212441  0.58549767  0.26020965  1
  O2-  O202  1  0.54189929  0.58181161  0.59770652  1
  O2-  O203  1  0.54584590  0.58084497  0.94345578  1
  O2-  O204  1  0.16291708  0.21023794  0.26142172  1
  O2-  O205  1  0.16394182  0.20147493  0.60428335  1
  O2-  O206  1  0.16377548  0.20378233  0.93769782  1
  O2-  O207  1  0.16881279  0.70836432  0.26865554  1
  O2-  O208  1  0.16175809  0.70462620  0.60143424  1
  O2-  O209  1  0.16644290  0.71111864  0.92987772  1
  O2-  O210  1  0.66604332  0.20533137  0.26836330  1
  O2-  O211  1  0.66646665  0.20541618  0.60561584  1
  O2-  O212  1  0.66369133  0.21240198  0.93705953  1
  O2-  O213  1  0.66790098  0.71149376  0.26120818  1
  O2-  O214  1  0.67264365  0.70538330  0.60265594  1
  O2-  O215  1  0.66931846  0.69746960  0.93927871  1
  O2-  O216  1  0.07952295  0.45239383  0.06068918  1
  O2-  O217  1  0.08295731  0.45708842  0.39884431  1
  O2-  O218  1  0.07863166  0.45787866  0.73457204  1
  O2-  O219  1  0.07914088  0.95601040  0.06637835  1
  O2-  O220  1  0.08453751  0.95947306  0.40239836  1
  O2-  O221  1  0.08650630  0.95311789  0.73230460  1
  O2-  O222  1  0.58422044  0.45687919  0.07329371  1
  O2-  O223  1  0.58132535  0.45798025  0.39283701  1
  O2-  O224  1  0.58373373  0.46075480  0.73402574  1
  O2-  O225  1  0.59100937  0.95863468  0.06593653  1
  O2-  O226  1  0.58189527  0.95149774  0.39323537  1
  O2-  O227  1  0.58083073  0.95450979  0.73469811  1
  O2-  O228  1  0.19971696  0.33401381  0.06049097  1
  O2-  O229  1  0.21059914  0.33171783  0.39737492  1
  O2-  O230  1  0.20003953  0.32801375  0.73460308  1
  O2-  O231  1  0.20953538  0.83166607  0.06626003  1
  O2-  O232  1  0.20998077  0.83188197  0.40355131  1
  O2-  O233  1  0.19997941  0.83040920  0.72636560  1
  O2-  O234  1  0.71382472  0.33436407  0.07269666  1
  O2-  O235  1  0.69708967  0.33475236  0.39598890  1
  O2-  O236  1  0.71155969  0.33625854  0.73310903  1
  O2-  O237  1  0.70583639  0.83412470  0.06163100  1
  O2-  O238  1  0.70337506  0.83482643  0.39405185  1
  O2-  O239  1  0.71234506  0.83161204  0.73702610  1
  O2-  O240  1  0.45997933  0.41491000  0.26087922  1
  O2-  O241  1  0.45988778  0.41477756  0.60004394  1
  O2-  O242  1  0.46119990  0.41312169  0.94035781  1
  O2-  O243  1  0.45222529  0.91910245  0.26784357  1
  O2-  O244  1  0.45514611  0.92251661  0.59693317  1
  O2-  O245  1  0.46297901  0.91911719  0.93654841  1
  O2-  O246  1  0.95352132  0.41477524  0.26912317  1
  O2-  O247  1  0.95708485  0.41796565  0.59787926  1
  O2-  O248  1  0.95099357  0.41069671  0.93697186  1
  O2-  O249  1  0.95448985  0.91587502  0.27299284  1
  O2-  O250  1  0.95877808  0.91403318  0.60492222  1
  O2-  O251  1  0.95001903  0.91835990  0.93469559  1
  O2-  O252  1  0.33378845  0.28914893  0.26038169  1
  O2-  O253  1  0.33090714  0.28715899  0.60332947  1
  O2-  O254  1  0.33572974  0.29748768  0.93802907  1
  O2-  O255  1  0.33444991  0.79697129  0.26953807  1
  O2-  O256  1  0.32907708  0.79442947  0.59610790  1
  O2-  O257  1  0.33555468  0.79078040  0.93314367  1
  O2-  O258  1  0.83011124  0.29855415  0.27113961  1
  O2-  O259  1  0.83214733  0.29071450  0.59661779  1
  O2-  O260  1  0.83651254  0.28643187  0.93961229  1
  O2-  O261  1  0.83523161  0.79850320  0.27193697  1
  O2-  O262  1  0.83864834  0.79585003  0.60290733  1
  O2-  O263  1  0.83346641  0.79616391  0.93337682  1
  O2-  O264  1  0.42327634  0.04776784  0.07024080  1
  O2-  O265  1  0.41757774  0.05353444  0.39293853  1
  O2-  O266  1  0.41895527  0.04688865  0.73165881  1
  O2-  O267  1  0.41393944  0.53855223  0.07205713  1
  O2-  O268  1  0.41836943  0.54470639  0.39192140  1
  O2-  O269  1  0.41819020  0.54143275  0.73410438  1
  O2-  O270  1  0.91323571  0.04565199  0.06144769  1
  O2-  O271  1  0.91488131  0.03982366  0.40336779  1
  O2-  O272  1  0.91928015  0.04062114  0.73808309  1
  O2-  O273  1  0.91595024  0.54042565  0.06270464  1
  O2-  O274  1  0.91514724  0.53979279  0.40221873  1
  O2-  O275  1  0.91567346  0.54400536  0.73168636  1
  O2-  O276  1  0.29439174  0.17319571  0.06814765  1
  O2-  O277  1  0.29123904  0.16631380  0.39290998  1
  O2-  O278  1  0.28602962  0.16273578  0.73668309  1
  O2-  O279  1  0.28889288  0.66671670  0.06890407  1
  O2-  O280  1  0.30149044  0.66684127  0.39508206  1
  O2-  O281  1  0.29019651  0.66874985  0.73169225  1
  O2-  O282  1  0.78826824  0.15980520  0.06581639  1
  O2-  O283  1  0.79116844  0.16882390  0.40006501  1
  O2-  O284  1  0.79467061  0.17033151  0.73624109  1
  O2-  O285  1  0.80400922  0.66747385  0.06111818  1
  O2-  O286  1  0.79173327  0.66854160  0.39892993  1
  O2-  O287  1  0.80445997  0.66853003  0.73030750  1
