# generated using pymatgen
data_Ca2Al2SiO7
_symmetry_space_group_name_H-M   'P 1'
_cell_length_a   15.46019256
_cell_length_b   15.46101154
_cell_length_c   15.28563117
_cell_angle_alpha   89.99796423
_cell_angle_beta   89.99693732
_cell_angle_gamma   89.99922082
_symmetry_Int_Tables_number   1
_chemical_formula_structural   Ca2Al2SiO7
_chemical_formula_sum   'Ca48 Al48 Si24 O168'
_cell_volume   3653.72770713
_cell_formula_units_Z   24
loop_
 _symmetry_equiv_pos_site_id
 _symmetry_equiv_pos_as_xyz
  1  'x, y, z'
loop_
 _atom_type_symbol
 _atom_type_oxidation_number
  Ca2+  2.0
  Al0+  0.0
  Si0+  0.0
  O2-  -2.0
loop_
 _atom_site_type_symbol
 _atom_site_label
 _atom_site_symmetry_multiplicity
 _atom_site_fract_x
 _atom_site_fract_y
 _atom_site_fract_z
 _atom_site_occupancy
  Ca2+  Ca0  1  0.16268589  0.07679503  0.17054061  1
  Ca2+  Ca1  1  0.16744641  0.07954745  0.50979565  1
  Ca2+  Ca2  1  0.17236053  0.06888831  0.83369107  1
  Ca2+  Ca3  1  0.17261373  0.58000203  0.18088201  1
  Ca2+  Ca4  1  0.16158281  0.57685586  0.50237971  1
  Ca2+  Ca5  1  0.15947437  0.57814800  0.83151790  1
  Ca2+  Ca6  1  0.67269319  0.08151178  0.17284635  1
  Ca2+  Ca7  1  0.66997318  0.08820592  0.49941669  1
  Ca2+  Ca8  1  0.67398558  0.07412768  0.84246151  1
  Ca2+  Ca9  1  0.67725389  0.58973368  0.16969113  1
  Ca2+  Ca10  1  0.67865747  0.58801422  0.50637134  1
  Ca2+  Ca11  1  0.67540980  0.59466732  0.83555007  1
  Ca2+  Ca12  1  0.08042289  0.33283197  0.17225888  1
  Ca2+  Ca13  1  0.07749926  0.33608231  0.49372967  1
  Ca2+  Ca14  1  0.07770916  0.33174712  0.82256032  1
  Ca2+  Ca15  1  0.08409529  0.82799806  0.16360641  1
  Ca2+  Ca16  1  0.08299673  0.82578412  0.50043426  1
  Ca2+  Ca17  1  0.08023329  0.82996852  0.82345483  1
  Ca2+  Ca18  1  0.58905474  0.32654748  0.16701487  1
  Ca2+  Ca19  1  0.57598982  0.32988044  0.49665456  1
  Ca2+  Ca20  1  0.57612278  0.33029730  0.82496165  1
  Ca2+  Ca21  1  0.57672640  0.82894162  0.15443664  1
  Ca2+  Ca22  1  0.57891556  0.82942527  0.50286681  1
  Ca2+  Ca23  1  0.58221955  0.82743385  0.82768387  1
  Ca2+  Ca24  1  0.32663856  0.42615440  0.17843056  1
  Ca2+  Ca25  1  0.32158140  0.41668156  0.50727039  1
  Ca2+  Ca26  1  0.32839278  0.41346912  0.83165938  1
  Ca2+  Ca27  1  0.32819397  0.90854243  0.16658209  1
  Ca2+  Ca28  1  0.32779304  0.92302332  0.51208322  1
  Ca2+  Ca29  1  0.32598072  0.90358528  0.83259048  1
  Ca2+  Ca30  1  0.83598174  0.42617468  0.17376284  1
  Ca2+  Ca31  1  0.84343959  0.42434362  0.50416084  1
  Ca2+  Ca32  1  0.83790163  0.42940123  0.83313596  1
  Ca2+  Ca33  1  0.82696351  0.92625404  0.16914449  1
  Ca2+  Ca34  1  0.83968655  0.92311738  0.50477710  1
  Ca2+  Ca35  1  0.82913229  0.91699898  0.84234673  1
  Ca2+  Ca36  1  0.42241930  0.16699389  0.16680486  1
  Ca2+  Ca37  1  0.41455210  0.17050853  0.49763036  1
  Ca2+  Ca38  1  0.41479589  0.16883769  0.82411802  1
  Ca2+  Ca39  1  0.42143072  0.66842912  0.15675108  1
  Ca2+  Ca40  1  0.41428314  0.66943873  0.49777553  1
  Ca2+  Ca41  1  0.42983924  0.67686744  0.82616593  1
  Ca2+  Ca42  1  0.91479586  0.16621228  0.16767085  1
  Ca2+  Ca43  1  0.92133813  0.17853324  0.48791390  1
  Ca2+  Ca44  1  0.91539375  0.17123510  0.82673773  1
  Ca2+  Ca45  1  0.92133000  0.65697992  0.16608452  1
  Ca2+  Ca46  1  0.92622172  0.66258117  0.49917461  1
  Ca2+  Ca47  1  0.91718106  0.67208745  0.82049866  1
  Al0+  Al48  1  0.00305612  -0.00002676  0.00697641  1
  Al0+  Al49  1  -0.00215644  0.00001506  0.33402549  1
  Al0+  Al50  1  0.00173154  0.00031913  0.66897189  1
  Al0+  Al51  1  -0.00011100  0.49706333  0.00361750  1
  Al0+  Al52  1  0.00057270  0.50061731  0.33111830  1
  Al0+  Al53  1  -0.00024601  0.49990512  0.66945046  1
  Al0+  Al54  1  0.49711209  0.00127597  -0.00162252  1
  Al0+  Al55  1  0.49868873  -0.00062491  0.32871684  1
  Al0+  Al56  1  0.50293779  0.00014500  0.66699296  1
  Al0+  Al57  1  0.50049808  0.49877858  -0.00469410  1
  Al0+  Al58  1  0.50093048  0.50271320  0.33534525  1
  Al0+  Al59  1  0.50095460  0.49727643  0.65846231  1
  Al0+  Al60  1  0.24770383  0.24762796  0.00092095  1
  Al0+  Al61  1  0.24913692  0.24952326  0.33049634  1
  Al0+  Al62  1  0.25059273  0.25004179  0.67215016  1
  Al0+  Al63  1  0.24973074  0.74756531  0.00009539  1
  Al0+  Al64  1  0.24889843  0.75089342  0.33340534  1
  Al0+  Al65  1  0.25144409  0.74805591  0.66345028  1
  Al0+  Al66  1  0.75077421  0.25284103  0.00029677  1
  Al0+  Al67  1  0.74857547  0.25000991  0.32912867  1
  Al0+  Al68  1  0.74982787  0.25255530  0.66410058  1
  Al0+  Al69  1  0.75220500  0.75091258  0.00754756  1
  Al0+  Al70  1  0.74776482  0.75182442  0.33768140  1
  Al0+  Al71  1  0.75092800  0.75257545  0.66162263  1
  Al0+  Al72  1  0.67680929  0.92912533  0.01502668  1
  Al0+  Al73  1  0.32288302  0.57405637  0.34888915  1
  Al0+  Al74  1  0.81951759  0.07092662  0.34901685  1
  Al0+  Al75  1  0.18051460  0.42856645  0.34887563  1
  Al0+  Al76  1  0.42712682  0.31931896  0.65291145  1
  Al0+  Al77  1  0.82015683  0.57104356  0.34896466  1
  Al0+  Al78  1  0.42940402  0.82175351  0.64998652  1
  Al0+  Al79  1  0.42666520  0.82145630  0.98420999  1
  Al0+  Al80  1  0.18172151  0.92692482  0.01531491  1
  Al0+  Al81  1  0.57434658  0.67910054  0.98560161  1
  Al0+  Al82  1  0.06906762  0.68156413  0.31860905  1
  Al0+  Al83  1  0.81915731  0.57055438  0.67970075  1
  Al0+  Al84  1  0.07102696  0.67767936  0.65306713  1
  Al0+  Al85  1  0.17915589  0.92600198  0.68118716  1
  Al0+  Al86  1  0.07218493  0.17632020  0.31793901  1
  Al0+  Al87  1  0.17936618  0.43087053  0.68180650  1
  Al0+  Al88  1  0.82080391  0.57078167  0.01384078  1
  Al0+  Al89  1  0.57270226  0.67831192  0.64909202  1
  Al0+  Al90  1  0.32313469  0.07066036  0.68087433  1
  Al0+  Al91  1  0.92916444  0.32191985  0.31611032  1
  Al0+  Al92  1  0.92857031  0.82448555  0.65293550  1
  Al0+  Al93  1  0.82158687  0.07349930  0.01491861  1
  Al0+  Al94  1  0.92895825  0.32034626  0.65435459  1
  Al0+  Al95  1  0.56880902  0.17924424  0.31920269  1
  Si0+  Si96  1  0.17785136  0.92942235  0.34847102  1
  Si0+  Si97  1  0.42756403  0.32371114  0.31617401  1
  Si0+  Si98  1  0.57243787  0.67926077  0.31739985  1
  Si0+  Si99  1  0.67523635  0.42828960  0.01602910  1
  Si0+  Si100  1  0.07021133  0.67631412  0.98612273  1
  Si0+  Si101  1  0.32077790  0.07508481  0.01915828  1
  Si0+  Si102  1  0.93199222  0.82153845  0.98888928  1
  Si0+  Si103  1  0.57186223  0.18010106  0.98442399  1
  Si0+  Si104  1  0.07154795  0.17882135  0.65322365  1
  Si0+  Si105  1  0.07090157  0.17734845  0.98296351  1
  Si0+  Si106  1  0.92534385  0.82300811  0.31495292  1
  Si0+  Si107  1  0.32173785  0.06941736  0.34561889  1
  Si0+  Si108  1  0.67643886  0.42677264  0.68288172  1
  Si0+  Si109  1  0.32599023  0.57118860  0.68447312  1
  Si0+  Si110  1  0.67732752  0.42703277  0.35050138  1
  Si0+  Si111  1  0.42691460  0.31958586  0.98590619  1
  Si0+  Si112  1  0.82142261  0.07399535  0.67970551  1
  Si0+  Si113  1  0.32067263  0.56764926  0.01183825  1
  Si0+  Si114  1  0.67502130  0.92978278  0.35235007  1
  Si0+  Si115  1  0.17869679  0.42653275  0.01631732  1
  Si0+  Si116  1  0.92992854  0.32128229  0.98323349  1
  Si0+  Si117  1  0.42925632  0.82018490  0.31751434  1
  Si0+  Si118  1  0.57338272  0.17778519  0.65087951  1
  Si0+  Si119  1  0.68090490  0.93022821  0.68090691  1
  O2-  O120  1  0.25797143  0.00053291  0.06246505  1
  O2-  O121  1  0.24543207  0.00488558  0.38786621  1
  O2-  O122  1  0.25555870  -0.00563434  0.73091829  1
  O2-  O123  1  0.25050011  0.49710343  0.05631440  1
  O2-  O124  1  0.25382350  0.49935334  0.39840922  1
  O2-  O125  1  0.25422268  0.50554989  0.72998654  1
  O2-  O126  1  0.74633593  0.00418110  0.06440677  1
  O2-  O127  1  0.74576445  -0.00395765  0.39723566  1
  O2-  O128  1  0.75386289  0.00017674  0.72234223  1
  O2-  O129  1  0.74168483  0.49946777  0.05917000  1
  O2-  O130  1  0.74653238  0.49464845  0.39475921  1
  O2-  O131  1  0.74185210  0.49838366  0.72736721  1
  O2-  O132  1  -0.00033203  0.24752559  0.26626617  1
  O2-  O133  1  0.00178231  0.24473805  0.60774244  1
  O2-  O134  1  -0.00227362  0.24676197  0.94151306  1
  O2-  O135  1  -0.00780871  0.75297031  0.26940415  1
  O2-  O136  1  0.00105097  0.75249900  0.60406615  1
  O2-  O137  1  -0.00089565  0.74746490  0.94537896  1
  O2-  O138  1  0.49685424  0.25623103  0.27048680  1
  O2-  O139  1  0.50109406  0.24325286  0.60780201  1
  O2-  O140  1  0.49834773  0.24894239  0.94306803  1
  O2-  O141  1  0.49813455  0.74694668  0.27572675  1
  O2-  O142  1  0.49679751  0.74621901  0.59841219  1
  O2-  O143  1  0.50500091  0.75458340  0.93687269  1
  O2-  O144  1  0.07343199  0.17886239  0.08768358  1
  O2-  O145  1  0.07156023  0.17473811  0.43138782  1
  O2-  O146  1  0.06872679  0.17968580  0.75944465  1
  O2-  O147  1  0.07081709  0.67603261  0.09126796  1
  O2-  O148  1  0.07050317  0.68322417  0.43089718  1
  O2-  O149  1  0.06649867  0.67696780  0.76767661  1
  O2-  O150  1  0.57186541  0.18211235  0.08952246  1
  O2-  O151  1  0.56502429  0.17877415  0.43205004  1
  O2-  O152  1  0.57644144  0.18054156  0.75679964  1
  O2-  O153  1  0.56981707  0.67719838  0.09968153  1
  O2-  O154  1  0.57407426  0.68120689  0.42194494  1
  O2-  O155  1  0.57485567  0.68234132  0.76282780  1
  O2-  O156  1  0.18333206  0.43052172  0.23415115  1
  O2-  O157  1  0.17919574  0.42933935  0.56951577  1
  O2-  O158  1  0.17739414  0.42600476  0.91126454  1
  O2-  O159  1  0.18070672  0.92723530  0.24298621  1
  O2-  O160  1  0.17758187  0.93108416  0.56737551  1
  O2-  O161  1  0.17962653  0.92746734  0.90293861  1
  O2-  O162  1  0.67569123  0.42921843  0.24440551  1
  O2-  O163  1  0.67801948  0.42268587  0.57769982  1
  O2-  O164  1  0.67515083  0.42352531  0.91082323  1
  O2-  O165  1  0.67388659  0.93111487  0.24680490  1
  O2-  O166  1  0.67865694  0.93266323  0.57587513  1
  O2-  O167  1  0.68114963  0.92998162  0.90098435  1
  O2-  O168  1  0.42697146  0.31919730  0.09093174  1
  O2-  O169  1  0.42711899  0.32052748  0.42137799  1
  O2-  O170  1  0.42945674  0.31793466  0.76693660  1
  O2-  O171  1  0.42501171  0.81525491  0.09853667  1
  O2-  O172  1  0.43086571  0.82334950  0.42209631  1
  O2-  O173  1  0.43360688  0.82108281  0.76333821  1
  O2-  O174  1  0.93176191  0.32414704  0.08774431  1
  O2-  O175  1  0.93089300  0.32103609  0.42968260  1
  O2-  O176  1  0.92931185  0.31814197  0.76833993  1
  O2-  O177  1  0.93451785  0.82175118  0.09388405  1
  O2-  O178  1  0.92807294  0.82438370  0.42022741  1
  O2-  O179  1  0.92683802  0.82412809  0.76748707  1
  O2-  O180  1  0.32460434  0.06557718  0.24041237  1
  O2-  O181  1  0.31990885  0.07187042  0.56659292  1
  O2-  O182  1  0.31631455  0.08381302  0.91460013  1
  O2-  O183  1  0.32235745  0.57272624  0.23397496  1
  O2-  O184  1  0.32624742  0.56782246  0.57917328  1
  O2-  O185  1  0.31983199  0.56503988  0.90715045  1
  O2-  O186  1  0.81710972  0.06878069  0.23597793  1
  O2-  O187  1  0.81902421  0.07513473  0.57486705  1
  O2-  O188  1  0.82040273  0.07315047  0.90055911  1
  O2-  O189  1  0.81774925  0.57004430  0.23535048  1
  O2-  O190  1  0.82003323  0.56778532  0.56699292  1
  O2-  O191  1  0.82421783  0.56923514  0.90099439  1
  O2-  O192  1  0.04253790  0.07776350  0.26453994  1
  O2-  O193  1  0.04920787  0.08475153  0.60804043  1
  O2-  O194  1  0.04463416  0.08442040  0.93723354  1
  O2-  O195  1  0.04094415  0.58483592  0.26332353  1
  O2-  O196  1  0.03758017  0.58136046  0.60000308  1
  O2-  O197  1  0.04289925  0.58326666  0.94065399  1
  O2-  O198  1  0.53471895  0.08438387  0.26250982  1
  O2-  O199  1  0.55336615  0.08358754  0.60506848  1
  O2-  O200  1  0.54661672  0.08790865  0.93700251  1
  O2-  O201  1  0.54928868  0.58583453  0.27046609  1
  O2-  O202  1  0.55171114  0.57786630  0.59828037  1
  O2-  O203  1  0.54540997  0.58050302  0.93231021  1
  O2-  O204  1  0.17087032  0.20329858  0.26268745  1
  O2-  O205  1  0.16511440  0.20514004  0.60944750  1
  O2-  O206  1  0.16174730  0.20845421  0.93525526  1
  O2-  O207  1  0.16571701  0.71482850  0.26381051  1
  O2-  O208  1  0.17083896  0.69891190  0.60120037  1
  O2-  O209  1  0.16187311  0.70307785  0.93912962  1
  O2-  O210  1  0.66414979  0.20926598  0.26258710  1
  O2-  O211  1  0.66429382  0.20833124  0.60200295  1
  O2-  O212  1  0.66307032  0.21011313  0.93662649  1
  O2-  O213  1  0.66309638  0.71094340  0.26945108  1
  O2-  O214  1  0.66790048  0.71368254  0.59453621  1
  O2-  O215  1  0.67490608  0.70684325  0.93674420  1
  O2-  O216  1  0.08784623  0.45490190  0.06447679  1
  O2-  O217  1  0.08211801  0.45876300  0.39854735  1
  O2-  O218  1  0.08416833  0.46236036  0.73909669  1
  O2-  O219  1  0.08738548  0.96006555  0.07221757  1
  O2-  O220  1  0.08489586  0.95288441  0.39424601  1
  O2-  O221  1  0.08228584  0.95867610  0.73702722  1
  O2-  O222  1  0.58034059  0.44926455  0.06234268  1
  O2-  O223  1  0.58355368  0.45234485  0.39633237  1
  O2-  O224  1  0.58090842  0.44775776  0.72720373  1
  O2-  O225  1  0.57609223  0.95502108  0.06496380  1
  O2-  O226  1  0.58201623  0.95964606  0.39744444  1
  O2-  O227  1  0.59089369  0.95921563  0.73095074  1
  O2-  O228  1  0.20661612  0.33473282  0.06331797  1
  O2-  O229  1  0.20671078  0.32829869  0.39924307  1
  O2-  O230  1  0.21100181  0.33518914  0.73831170  1
  O2-  O231  1  0.21145401  0.82954082  0.07009217  1
  O2-  O232  1  0.21034615  0.83997992  0.39614113  1
  O2-  O233  1  0.20460177  0.82588596  0.73290198  1
  O2-  O234  1  0.70468240  0.33639649  0.06413621  1
  O2-  O235  1  0.69916543  0.33211859  0.39442377  1
  O2-  O236  1  0.70503924  0.33437850  0.73175346  1
  O2-  O237  1  0.70740407  0.83334287  0.07174397  1
  O2-  O238  1  0.69769006  0.83573835  0.39804285  1
  O2-  O239  1  0.70823180  0.83869337  0.72822678  1
  O2-  O240  1  0.45311934  0.41834746  0.27152165  1
  O2-  O241  1  0.45741060  0.41335086  0.59520860  1
  O2-  O242  1  0.45364701  0.41051096  0.93655604  1
  O2-  O243  1  0.45866334  0.91025054  0.26723879  1
  O2-  O244  1  0.46207295  0.91993542  0.59785643  1
  O2-  O245  1  0.44308388  0.92440130  0.93628396  1
  O2-  O246  1  0.96093207  0.41863530  0.26127804  1
  O2-  O247  1  0.96235346  0.41563111  0.60225618  1
  O2-  O248  1  0.96341478  0.41137598  0.93499700  1
  O2-  O249  1  0.95302107  0.91565246  0.26832290  1
  O2-  O250  1  0.95754983  0.92310279  0.59985205  1
  O2-  O251  1  0.96174252  0.91303802  0.94178775  1
  O2-  O252  1  0.33535805  0.29677942  0.26795411  1
  O2-  O253  1  0.33081351  0.28755332  0.59967771  1
  O2-  O254  1  0.33465807  0.29098608  0.93923050  1
  O2-  O255  1  0.33674982  0.79410583  0.27061340  1
  O2-  O256  1  0.32984474  0.79827590  0.59778492  1
  O2-  O257  1  0.33064305  0.78481131  0.93114858  1
  O2-  O258  1  0.82967207  0.29595119  0.26401730  1
  O2-  O259  1  0.83227827  0.29299391  0.59952144  1
  O2-  O260  1  0.83631095  0.29835488  0.93677797  1
  O2-  O261  1  0.82945462  0.79991533  0.27230496  1
  O2-  O262  1  0.83101736  0.80053607  0.59776970  1
  O2-  O263  1  0.83845077  0.79708260  0.94401533  1
  O2-  O264  1  0.41727648  0.05649225  0.06157090  1
  O2-  O265  1  0.41117697  0.03665732  0.39432893  1
  O2-  O266  1  0.42452173  0.04976196  0.73149047  1
  O2-  O267  1  0.41304653  0.53995679  0.05922963  1
  O2-  O268  1  0.42330166  0.55133980  0.39959369  1
  O2-  O269  1  0.41901833  0.54052364  0.72938884  1
  O2-  O270  1  0.91903414  0.04386903  0.06811220  1
  O2-  O271  1  0.91649414  0.04079590  0.40261996  1
  O2-  O272  1  0.91433901  0.05091032  0.72677751  1
  O2-  O273  1  0.91569304  0.53365845  0.06884592  1
  O2-  O274  1  0.91781448  0.54093068  0.39922643  1
  O2-  O275  1  0.91361695  0.53692451  0.73609200  1
  O2-  O276  1  0.28920506  0.16568755  0.06954006  1
  O2-  O277  1  0.30106185  0.16419452  0.38935606  1
  O2-  O278  1  0.29159231  0.16651076  0.73740382  1
  O2-  O279  1  0.29246326  0.65840385  0.06054080  1
  O2-  O280  1  0.29223887  0.67188875  0.40073030  1
  O2-  O281  1  0.30445242  0.66642423  0.72795657  1
  O2-  O282  1  0.79478347  0.17327877  0.06588220  1
  O2-  O283  1  0.78679753  0.16833795  0.40000493  1
  O2-  O284  1  0.79024537  0.16465142  0.72827351  1
  O2-  O285  1  0.79633303  0.66704668  0.07110207  1
  O2-  O286  1  0.78849585  0.66809891  0.40133548  1
  O2-  O287  1  0.79006879  0.66961996  0.73060451  1
