# generated using pymatgen
data_Ca2Al2SiO7
_symmetry_space_group_name_H-M   'P 1'
_cell_length_a   15.45775272
_cell_length_b   15.45775782
_cell_length_c   15.28362775
_cell_angle_alpha   89.99666983
_cell_angle_beta   90.01357441
_cell_angle_gamma   90.01094648
_symmetry_Int_Tables_number   1
_chemical_formula_structural   Ca2Al2SiO7
_chemical_formula_sum   'Ca48 Al48 Si24 O168'
_cell_volume   3651.90343182
_cell_formula_units_Z   24
loop_
 _symmetry_equiv_pos_site_id
 _symmetry_equiv_pos_as_xyz
  1  'x, y, z'
loop_
 _atom_type_symbol
 _atom_type_oxidation_number
  Ca2+  2.0
  Al0+  0.0
  Si0+  0.0
  O2-  -2.0
loop_
 _atom_site_type_symbol
 _atom_site_label
 _atom_site_symmetry_multiplicity
 _atom_site_fract_x
 _atom_site_fract_y
 _atom_site_fract_z
 _atom_site_occupancy
  Ca2+  Ca0  1  0.17463268  0.09094991  0.16399772  1
  Ca2+  Ca1  1  0.16818834  0.07741189  0.51016461  1
  Ca2+  Ca2  1  0.16626478  0.08326867  0.84047685  1
  Ca2+  Ca3  1  0.17499549  0.57708858  0.17027608  1
  Ca2+  Ca4  1  0.17369472  0.57286719  0.50463554  1
  Ca2+  Ca5  1  0.17373793  0.57129908  0.84394827  1
  Ca2+  Ca6  1  0.66873772  0.08284827  0.16870632  1
  Ca2+  Ca7  1  0.65930442  0.07266424  0.50690938  1
  Ca2+  Ca8  1  0.66215529  0.08359595  0.84064993  1
  Ca2+  Ca9  1  0.66218574  0.58168657  0.16938331  1
  Ca2+  Ca10  1  0.67551297  0.58726011  0.50622024  1
  Ca2+  Ca11  1  0.66550482  0.57228465  0.83863967  1
  Ca2+  Ca12  1  0.08472518  0.33556959  0.15867183  1
  Ca2+  Ca13  1  0.09083106  0.33378315  0.50009773  1
  Ca2+  Ca14  1  0.09361261  0.32416438  0.82820847  1
  Ca2+  Ca15  1  0.08045187  0.82323160  0.15699903  1
  Ca2+  Ca16  1  0.08162341  0.83305475  0.49737145  1
  Ca2+  Ca17  1  0.08549745  0.82803456  0.82975829  1
  Ca2+  Ca18  1  0.57703698  0.33141973  0.15116043  1
  Ca2+  Ca19  1  0.58351936  0.33411723  0.50329047  1
  Ca2+  Ca20  1  0.57544326  0.33213497  0.82686461  1
  Ca2+  Ca21  1  0.58344657  0.82234480  0.16742871  1
  Ca2+  Ca22  1  0.58105465  0.83226037  0.48893097  1
  Ca2+  Ca23  1  0.58524770  0.82891033  0.83076492  1
  Ca2+  Ca24  1  0.32862368  0.42359227  0.16615015  1
  Ca2+  Ca25  1  0.32966482  0.41834192  0.50280474  1
  Ca2+  Ca26  1  0.32912571  0.41100343  0.84128194  1
  Ca2+  Ca27  1  0.34163502  0.92280805  0.16761637  1
  Ca2+  Ca28  1  0.33109773  0.91548720  0.50558232  1
  Ca2+  Ca29  1  0.32887612  0.92593693  0.83792548  1
  Ca2+  Ca30  1  0.82480860  0.42089340  0.16873162  1
  Ca2+  Ca31  1  0.82698723  0.42963099  0.50725477  1
  Ca2+  Ca32  1  0.82030615  0.41272803  0.83405922  1
  Ca2+  Ca33  1  0.82796687  0.92311551  0.16787010  1
  Ca2+  Ca34  1  0.81778935  0.91389100  0.50524320  1
  Ca2+  Ca35  1  0.82688916  0.92522957  0.83653100  1
  Ca2+  Ca36  1  0.42138298  0.17359671  0.15383495  1
  Ca2+  Ca37  1  0.42000607  0.17392564  0.50345412  1
  Ca2+  Ca38  1  0.42047985  0.17706080  0.83089181  1
  Ca2+  Ca39  1  0.41984278  0.66411737  0.16180504  1
  Ca2+  Ca40  1  0.42337411  0.67288813  0.48770407  1
  Ca2+  Ca41  1  0.42239151  0.65800684  0.83496052  1
  Ca2+  Ca42  1  0.92285573  0.16741116  0.15592540  1
  Ca2+  Ca43  1  0.92432442  0.16710313  0.50015936  1
  Ca2+  Ca44  1  0.92452582  0.16426895  0.83145201  1
  Ca2+  Ca45  1  0.92041840  0.66348809  0.16175528  1
  Ca2+  Ca46  1  0.91322766  0.66113100  0.49550496  1
  Ca2+  Ca47  1  0.92312604  0.65944880  0.83079421  1
  Al0+  Al48  1  -0.00317535  -0.00041316  0.00097762  1
  Al0+  Al49  1  0.00100072  0.00086467  0.33106025  1
  Al0+  Al50  1  -0.00050695  -0.00268306  0.66443970  1
  Al0+  Al51  1  -0.00227400  0.50002057  -0.00278048  1
  Al0+  Al52  1  -0.00160493  0.49757038  0.34000438  1
  Al0+  Al53  1  0.00339005  0.49915426  0.67251223  1
  Al0+  Al54  1  0.49853376  -0.00246234  0.00210459  1
  Al0+  Al55  1  0.49985837  0.00089469  0.33333497  1
  Al0+  Al56  1  0.49906652  -0.00038758  0.66862163  1
  Al0+  Al57  1  0.49902897  0.50092357  -0.00055073  1
  Al0+  Al58  1  0.49866049  0.49855740  0.33371786  1
  Al0+  Al59  1  0.50151930  0.50167960  0.66154471  1
  Al0+  Al60  1  0.24932795  0.24794524  0.00123776  1
  Al0+  Al61  1  0.25126037  0.24791595  0.33684088  1
  Al0+  Al62  1  0.25207433  0.24945391  0.65906118  1
  Al0+  Al63  1  0.24857447  0.74973121  -0.00233037  1
  Al0+  Al64  1  0.24974815  0.75158500  0.33208453  1
  Al0+  Al65  1  0.24948923  0.75011488  0.66968092  1
  Al0+  Al66  1  0.75139145  0.24865342  0.00649390  1
  Al0+  Al67  1  0.75389426  0.25014570  0.33404480  1
  Al0+  Al68  1  0.75238257  0.25024147  0.66242471  1
  Al0+  Al69  1  0.74878117  0.75116930  -0.00509569  1
  Al0+  Al70  1  0.74985965  0.75172554  0.33477017  1
  Al0+  Al71  1  0.75278594  0.75281046  0.67600937  1
  Al0+  Al72  1  0.57184183  0.67827087  0.31945831  1
  Al0+  Al73  1  0.81846128  0.57033257  0.34457779  1
  Al0+  Al74  1  0.42685674  0.82306240  0.31771588  1
  Al0+  Al75  1  0.17966918  0.42840955  0.34979012  1
  Al0+  Al76  1  0.17749146  0.92822412  0.68024063  1
  Al0+  Al77  1  0.57041420  0.67955576  0.98447622  1
  Al0+  Al78  1  0.68098214  0.93304553  0.34536049  1
  Al0+  Al79  1  0.32130675  0.57262706  0.01465589  1
  Al0+  Al80  1  0.82257259  0.57239837  0.68440015  1
  Al0+  Al81  1  0.67671645  0.93111921  0.68213887  1
  Al0+  Al82  1  0.32252984  0.57352019  0.34928120  1
  Al0+  Al83  1  0.17749559  0.42720178  0.01408783  1
  Al0+  Al84  1  0.82015237  0.07069166  0.01374423  1
  Al0+  Al85  1  0.57325607  0.17722493  0.98786941  1
  Al0+  Al86  1  0.67874462  0.42963206  0.01302710  1
  Al0+  Al87  1  0.67815085  0.42880111  0.68086078  1
  Al0+  Al88  1  0.32012773  0.06953216  0.01301331  1
  Al0+  Al89  1  0.18328583  0.42757487  0.68150345  1
  Al0+  Al90  1  0.42919812  0.32111865  0.98643560  1
  Al0+  Al91  1  0.07050120  0.67773748  0.98598752  1
  Al0+  Al92  1  0.07032871  0.17805150  0.65211245  1
  Al0+  Al93  1  0.42961116  0.32331968  0.64880543  1
  Al0+  Al94  1  0.06977719  0.18019609  0.98763033  1
  Al0+  Al95  1  0.57342100  0.17764278  0.65136443  1
  Si0+  Si96  1  0.17669932  0.92919828  0.34679699  1
  Si0+  Si97  1  0.82266058  0.07153517  0.68071483  1
  Si0+  Si98  1  0.92773568  0.82218737  0.98143588  1
  Si0+  Si99  1  0.82044952  0.57370177  0.01593052  1
  Si0+  Si100  1  0.42815412  0.31940774  0.31731996  1
  Si0+  Si101  1  0.92908973  0.32402284  0.64812622  1
  Si0+  Si102  1  0.17628863  0.92785448  0.01723692  1
  Si0+  Si103  1  0.32089096  0.06992870  0.35001366  1
  Si0+  Si104  1  0.06928814  0.67779360  0.32098315  1
  Si0+  Si105  1  0.67656795  0.92626441  0.01848295  1
  Si0+  Si106  1  0.92956178  0.81975442  0.65014127  1
  Si0+  Si107  1  0.32260759  0.57350076  0.68244536  1
  Si0+  Si108  1  0.07157658  0.67827035  0.65046526  1
  Si0+  Si109  1  0.42824893  0.82038441  0.65335095  1
  Si0+  Si110  1  0.92647618  0.32287878  0.98318046  1
  Si0+  Si111  1  0.92867142  0.82204725  0.31839273  1
  Si0+  Si112  1  0.93016368  0.32129726  0.31794825  1
  Si0+  Si113  1  0.57319369  0.68184134  0.65234436  1
  Si0+  Si114  1  0.32052953  0.07106736  0.68294243  1
  Si0+  Si115  1  0.67663944  0.42515987  0.34898737  1
  Si0+  Si116  1  0.82538185  0.07341934  0.35198792  1
  Si0+  Si117  1  0.57193571  0.17980536  0.31916828  1
  Si0+  Si118  1  0.07168755  0.17859198  0.31721950  1
  Si0+  Si119  1  0.42657412  0.82253342  0.98106631  1
  O2-  O120  1  0.24535005  -0.00477311  0.06261981  1
  O2-  O121  1  0.25016814  -0.00288606  0.38986981  1
  O2-  O122  1  0.24840307  0.00552332  0.72655331  1
  O2-  O123  1  0.24751404  0.50140563  0.06328089  1
  O2-  O124  1  0.25163478  0.50063838  0.39946488  1
  O2-  O125  1  0.25955834  0.50039440  0.72688401  1
  O2-  O126  1  0.74245045  -0.00103888  0.06060740  1
  O2-  O127  1  0.75424933  0.00783804  0.39558341  1
  O2-  O128  1  0.74655492  0.01182404  0.72565963  1
  O2-  O129  1  0.75116417  0.50671467  0.06087386  1
  O2-  O130  1  0.73984472  0.49992887  0.39125499  1
  O2-  O131  1  0.74958507  0.50077618  0.73215554  1
  O2-  O132  1  0.00137749  0.25019994  0.27584947  1
  O2-  O133  1  -0.00201428  0.25451745  0.60377904  1
  O2-  O134  1  -0.00112085  0.25758427  0.93976477  1
  O2-  O135  1  -0.00073548  0.75002981  0.27752504  1
  O2-  O136  1  -0.00167237  0.74673234  0.60677448  1
  O2-  O137  1  -0.00460649  0.75223107  0.93800356  1
  O2-  O138  1  0.50604645  0.25488747  0.27670398  1
  O2-  O139  1  0.50489850  0.25260358  0.60003561  1
  O2-  O140  1  0.50410498  0.25106289  0.93761927  1
  O2-  O141  1  0.49503156  0.74623571  0.26975698  1
  O2-  O142  1  0.50092388  0.75175399  0.61028038  1
  O2-  O143  1  0.49426026  0.75300721  0.93692242  1
  O2-  O144  1  0.06779276  0.17954262  0.10135966  1
  O2-  O145  1  0.06998465  0.17500029  0.42226399  1
  O2-  O146  1  0.06814477  0.17640116  0.76482850  1
  O2-  O147  1  0.06753134  0.67982061  0.10002686  1
  O2-  O148  1  0.06783450  0.68058329  0.42637347  1
  O2-  O149  1  0.07182902  0.68129889  0.75524219  1
  O2-  O150  1  0.57083362  0.17912984  0.10248877  1
  O2-  O151  1  0.56959466  0.17828607  0.42413203  1
  O2-  O152  1  0.56995844  0.17558464  0.76426254  1
  O2-  O153  1  0.57358497  0.68213155  0.09728285  1
  O2-  O154  1  0.57499630  0.68420931  0.43355674  1
  O2-  O155  1  0.57116920  0.68187956  0.75739170  1
  O2-  O156  1  0.17794558  0.42852530  0.23665830  1
  O2-  O157  1  0.18255566  0.43122242  0.56828666  1
  O2-  O158  1  0.18013849  0.42643671  0.90062116  1
  O2-  O159  1  0.17118228  0.93183130  0.24229719  1
  O2-  O160  1  0.17976969  0.92768320  0.56632436  1
  O2-  O161  1  0.17651869  0.92947404  0.91151357  1
  O2-  O162  1  0.68032679  0.42111588  0.24352243  1
  O2-  O163  1  0.67997895  0.43270124  0.56669409  1
  O2-  O164  1  0.68005095  0.42848428  0.90039470  1
  O2-  O165  1  0.68436006  0.93481205  0.23260773  1
  O2-  O166  1  0.67842333  0.92798331  0.56864965  1
  O2-  O167  1  0.67841058  0.92545339  0.91279602  1
  O2-  O168  1  0.42975108  0.31921598  0.10090460  1
  O2-  O169  1  0.42632361  0.31628952  0.42227133  1
  O2-  O170  1  0.42725886  0.32101695  0.76176458  1
  O2-  O171  1  0.42810051  0.82406249  0.08653729  1
  O2-  O172  1  0.42882789  0.82495717  0.43203764  1
  O2-  O173  1  0.42733097  0.81981263  0.75811990  1
  O2-  O174  1  0.92649646  0.32206231  0.08943906  1
  O2-  O175  1  0.92856454  0.31956763  0.42275356  1
  O2-  O176  1  0.92747763  0.32237382  0.75341772  1
  O2-  O177  1  0.92842370  0.82228963  0.08766624  1
  O2-  O178  1  0.93027152  0.82429786  0.42354041  1
  O2-  O179  1  0.93181902  0.82224018  0.75480692  1
  O2-  O180  1  0.31990011  0.07215424  0.24500686  1
  O2-  O181  1  0.32044356  0.06712411  0.57651862  1
  O2-  O182  1  0.31837120  0.06777507  0.90019642  1
  O2-  O183  1  0.31965626  0.57303493  0.23622279  1
  O2-  O184  1  0.31833309  0.57794984  0.57692827  1
  O2-  O185  1  0.31962568  0.57281254  0.90086542  1
  O2-  O186  1  0.82764923  0.07243180  0.24659716  1
  O2-  O187  1  0.82581574  0.06539851  0.57492430  1
  O2-  O188  1  0.82418977  0.06683516  0.90087885  1
  O2-  O189  1  0.82251833  0.56738396  0.23179166  1
  O2-  O190  1  0.81995066  0.57389060  0.57017329  1
  O2-  O191  1  0.81984133  0.57270023  0.91080662  1
  O2-  O192  1  0.04320576  0.08727862  0.26843684  1
  O2-  O193  1  0.03692623  0.08157544  0.59671252  1
  O2-  O194  1  0.03632254  0.08314263  0.93546708  1
  O2-  O195  1  0.03850486  0.58615911  0.27575282  1
  O2-  O196  1  0.04576890  0.58542326  0.60434034  1
  O2-  O197  1  0.03887030  0.58231415  0.92996827  1
  O2-  O198  1  0.54057751  0.08982239  0.27116121  1
  O2-  O199  1  0.53840116  0.07969398  0.59828170  1
  O2-  O200  1  0.54451267  0.07772180  0.93813249  1
  O2-  O201  1  0.54906245  0.57692407  0.26948415  1
  O2-  O202  1  0.54931695  0.59046975  0.60283769  1
  O2-  O203  1  0.53953272  0.58372870  0.92979683  1
  O2-  O204  1  0.16498586  0.20506196  0.27235822  1
  O2-  O205  1  0.16686658  0.20505259  0.59605578  1
  O2-  O206  1  0.16682373  0.20562832  0.93340705  1
  O2-  O207  1  0.16033884  0.70607146  0.27314713  1
  O2-  O208  1  0.16246751  0.71045249  0.60285899  1
  O2-  O209  1  0.16571592  0.70995106  0.93025432  1
  O2-  O210  1  0.66772223  0.20131639  0.27597823  1
  O2-  O211  1  0.67369991  0.19962671  0.59751558  1
  O2-  O212  1  0.67453136  0.19953501  0.93956420  1
  O2-  O213  1  0.66893584  0.71227383  0.26573904  1
  O2-  O214  1  0.66620979  0.71289314  0.60927376  1
  O2-  O215  1  0.66622609  0.71162993  0.92869567  1
  O2-  O216  1  0.07683990  0.45485656  0.06393531  1
  O2-  O217  1  0.08132802  0.45563574  0.40380161  1
  O2-  O218  1  0.08700231  0.45697177  0.73521434  1
  O2-  O219  1  0.08232971  0.95219336  0.06284329  1
  O2-  O220  1  0.08607332  0.96011587  0.39659127  1
  O2-  O221  1  0.07976987  0.95533907  0.73271873  1
  O2-  O222  1  0.58280509  0.46021666  0.06737231  1
  O2-  O223  1  0.58074796  0.44232554  0.39207008  1
  O2-  O224  1  0.57908988  0.45811274  0.73134283  1
  O2-  O225  1  0.58216877  0.94675881  0.06382610  1
  O2-  O226  1  0.58407700  0.96334029  0.39969237  1
  O2-  O227  1  0.57894836  0.95542500  0.73623796  1
  O2-  O228  1  0.20518222  0.32933907  0.06784055  1
  O2-  O229  1  0.20910851  0.32910318  0.40153505  1
  O2-  O230  1  0.21177277  0.32832710  0.73029405  1
  O2-  O231  1  0.20074434  0.83375407  0.06208988  1
  O2-  O232  1  0.19991771  0.83672944  0.39471041  1
  O2-  O233  1  0.21001063  0.83314122  0.73566045  1
  O2-  O234  1  0.71161499  0.33499067  0.06998798  1
  O2-  O235  1  0.70993866  0.33422803  0.39716764  1
  O2-  O236  1  0.70753522  0.32890236  0.73038456  1
  O2-  O237  1  0.70916769  0.83449881  0.06447053  1
  O2-  O238  1  0.71369819  0.83772308  0.40075134  1
  O2-  O239  1  0.71428298  0.83884689  0.73913788  1
  O2-  O240  1  0.44821403  0.41372384  0.27245258  1
  O2-  O241  1  0.45650693  0.42221546  0.59401910  1
  O2-  O242  1  0.45381808  0.41972476  0.93392881  1
  O2-  O243  1  0.45992114  0.92058596  0.26459293  1
  O2-  O244  1  0.45317571  0.91286364  0.60591597  1
  O2-  O245  1  0.45437662  0.91510835  0.93390816  1
  O2-  O246  1  0.95781174  0.41306896  0.27051152  1
  O2-  O247  1  0.95821184  0.41757438  0.60304422  1
  O2-  O248  1  0.94445457  0.41761526  0.93718374  1
  O2-  O249  1  0.95817065  0.91343876  0.26967530  1
  O2-  O250  1  0.95912020  0.90928468  0.59882162  1
  O2-  O251  1  0.95558732  0.91451792  0.93450261  1
  O2-  O252  1  0.33856085  0.28344446  0.27064923  1
  O2-  O253  1  0.33458725  0.28900037  0.59133223  1
  O2-  O254  1  0.33230058  0.28735083  0.93450014  1
  O2-  O255  1  0.32553180  0.80349026  0.26612888  1
  O2-  O256  1  0.33625796  0.79171876  0.60514079  1
  O2-  O257  1  0.33163148  0.80113760  0.93606688  1
  O2-  O258  1  0.83862867  0.29322598  0.26858286  1
  O2-  O259  1  0.83659016  0.29957127  0.59849292  1
  O2-  O260  1  0.83516637  0.29028792  0.93745173  1
  O2-  O261  1  0.83793871  0.79500557  0.26982560  1
  O2-  O262  1  0.83642705  0.79285269  0.60394140  1
  O2-  O263  1  0.83392389  0.79969046  0.93485913  1
  O2-  O264  1  0.41570881  0.03753246  0.06984872  1
  O2-  O265  1  0.41233084  0.04287209  0.39781970  1
  O2-  O266  1  0.41156959  0.04111235  0.73033793  1
  O2-  O267  1  0.41906997  0.54467937  0.06799648  1
  O2-  O268  1  0.42171201  0.54614371  0.40200600  1
  O2-  O269  1  0.41936882  0.55382949  0.72279293  1
  O2-  O270  1  0.91440025  0.03466202  0.07152424  1
  O2-  O271  1  0.91868876  0.04447299  0.39745712  1
  O2-  O272  1  0.91219526  0.03576834  0.72865035  1
  O2-  O273  1  0.91391604  0.54726328  0.06192900  1
  O2-  O274  1  0.91225495  0.53656827  0.40287307  1
  O2-  O275  1  0.92135029  0.54395176  0.73523071  1
  O2-  O276  1  0.28784576  0.16373855  0.07062410  1
  O2-  O277  1  0.29016717  0.15924920  0.40019780  1
  O2-  O278  1  0.29717872  0.16573045  0.72476059  1
  O2-  O279  1  0.29312810  0.67219888  0.06611629  1
  O2-  O280  1  0.29363786  0.67321242  0.40077153  1
  O2-  O281  1  0.29262973  0.66455866  0.73109128  1
  O2-  O282  1  0.79556302  0.16619650  0.07294181  1
  O2-  O283  1  0.80390434  0.16838792  0.39689368  1
  O2-  O284  1  0.80919484  0.16879913  0.72167953  1
  O2-  O285  1  0.79777595  0.66938083  0.05950360  1
  O2-  O286  1  0.79385730  0.66855360  0.39897535  1
  O2-  O287  1  0.79896858  0.67125499  0.73771100  1
