# generated using pymatgen
data_Ca2Al2SiO7
_symmetry_space_group_name_H-M   'P 1'
_cell_length_a   15.45527312
_cell_length_b   15.45477649
_cell_length_c   15.28127091
_cell_angle_alpha   89.99573056
_cell_angle_beta   89.99362613
_cell_angle_gamma   89.99436826
_symmetry_Int_Tables_number   1
_chemical_formula_structural   Ca2Al2SiO7
_chemical_formula_sum   'Ca48 Al48 Si24 O168'
_cell_volume   3650.05057185
_cell_formula_units_Z   24
loop_
 _symmetry_equiv_pos_site_id
 _symmetry_equiv_pos_as_xyz
  1  'x, y, z'
loop_
 _atom_type_symbol
 _atom_type_oxidation_number
  Ca2+  2.0
  Al0+  0.0
  Si0+  0.0
  O2-  -2.0
loop_
 _atom_site_type_symbol
 _atom_site_label
 _atom_site_symmetry_multiplicity
 _atom_site_fract_x
 _atom_site_fract_y
 _atom_site_fract_z
 _atom_site_occupancy
  Ca2+  Ca0  1  0.16931691  0.08750040  0.16802947  1
  Ca2+  Ca1  1  0.17562778  0.08874267  0.50398438  1
  Ca2+  Ca2  1  0.17537364  0.08186665  0.84157790  1
  Ca2+  Ca3  1  0.17214404  0.58550362  0.16907811  1
  Ca2+  Ca4  1  0.16418481  0.58014341  0.51293398  1
  Ca2+  Ca5  1  0.17240187  0.58093619  0.83170559  1
  Ca2+  Ca6  1  0.67001145  0.07497265  0.17514243  1
  Ca2+  Ca7  1  0.66942867  0.07905087  0.50936558  1
  Ca2+  Ca8  1  0.67074957  0.09052977  0.82856376  1
  Ca2+  Ca9  1  0.66801371  0.57658516  0.17751204  1
  Ca2+  Ca10  1  0.66933368  0.58030221  0.50313401  1
  Ca2+  Ca11  1  0.67496062  0.58495626  0.83379759  1
  Ca2+  Ca12  1  0.08103706  0.32034267  0.15989413  1
  Ca2+  Ca13  1  0.07964762  0.33360655  0.49935378  1
  Ca2+  Ca14  1  0.07970009  0.33205217  0.82903325  1
  Ca2+  Ca15  1  0.08185421  0.83256852  0.16024912  1
  Ca2+  Ca16  1  0.08143307  0.82122509  0.49935336  1
  Ca2+  Ca17  1  0.07934297  0.83235432  0.82693775  1
  Ca2+  Ca18  1  0.57882172  0.33363908  0.16079484  1
  Ca2+  Ca19  1  0.58002477  0.33105953  0.50114865  1
  Ca2+  Ca20  1  0.56898736  0.32756942  0.82545629  1
  Ca2+  Ca21  1  0.58720920  0.82843810  0.16778285  1
  Ca2+  Ca22  1  0.57931486  0.83088768  0.49665749  1
  Ca2+  Ca23  1  0.57298710  0.83158461  0.82482746  1
  Ca2+  Ca24  1  0.33682281  0.41909289  0.16604014  1
  Ca2+  Ca25  1  0.32449844  0.42333753  0.51353522  1
  Ca2+  Ca26  1  0.33418975  0.42078200  0.83480483  1
  Ca2+  Ca27  1  0.32618254  0.93064294  0.16958881  1
  Ca2+  Ca28  1  0.33644720  0.92648221  0.50809472  1
  Ca2+  Ca29  1  0.32893514  0.92429517  0.83836611  1
  Ca2+  Ca30  1  0.82737846  0.41215047  0.17152717  1
  Ca2+  Ca31  1  0.82920856  0.41856419  0.51093058  1
  Ca2+  Ca32  1  0.84167173  0.41913814  0.83347803  1
  Ca2+  Ca33  1  0.83060791  0.91369192  0.16997700  1
  Ca2+  Ca34  1  0.82876372  0.91791340  0.50785007  1
  Ca2+  Ca35  1  0.84241150  0.92061521  0.83433998  1
  Ca2+  Ca36  1  0.41243481  0.16950978  0.16062602  1
  Ca2+  Ca37  1  0.41361103  0.16808331  0.50074144  1
  Ca2+  Ca38  1  0.41499854  0.17079798  0.82433214  1
  Ca2+  Ca39  1  0.42418689  0.66177702  0.16227851  1
  Ca2+  Ca40  1  0.41384324  0.67421255  0.49782476  1
  Ca2+  Ca41  1  0.40894708  0.67019933  0.82493581  1
  Ca2+  Ca42  1  0.92828096  0.16869994  0.15746416  1
  Ca2+  Ca43  1  0.91954271  0.16899623  0.49920957  1
  Ca2+  Ca44  1  0.92199548  0.17435472  0.82632296  1
  Ca2+  Ca45  1  0.92427963  0.67204837  0.16220129  1
  Ca2+  Ca46  1  0.92691981  0.66071379  0.50154693  1
  Ca2+  Ca47  1  0.92108362  0.67741940  0.82137973  1
  Al0+  Al48  1  0.00029016  -0.00075764  -0.00254676  1
  Al0+  Al49  1  0.00151648  0.00010178  0.33002250  1
  Al0+  Al50  1  -0.00167485  -0.00026379  0.66489719  1
  Al0+  Al51  1  0.00132796  0.50112962  0.00097147  1
  Al0+  Al52  1  0.00002576  0.50129079  0.32546563  1
  Al0+  Al53  1  -0.00156294  0.49883573  0.66872243  1
  Al0+  Al54  1  0.50145782  -0.00213651  0.00512394  1
  Al0+  Al55  1  0.49999536  0.00140298  0.33980103  1
  Al0+  Al56  1  0.50060406  -0.00132723  0.66376831  1
  Al0+  Al57  1  0.50247346  0.49874174  -0.00088423  1
  Al0+  Al58  1  0.50031975  0.50121115  0.33531439  1
  Al0+  Al59  1  0.50005371  0.49876937  0.66674452  1
  Al0+  Al60  1  0.25107962  0.25240245  -0.00393427  1
  Al0+  Al61  1  0.24897464  0.25229990  0.33304566  1
  Al0+  Al62  1  0.24978473  0.25078255  0.67116657  1
  Al0+  Al63  1  0.25229101  0.74989309  0.01053977  1
  Al0+  Al64  1  0.24984615  0.75308976  0.32721669  1
  Al0+  Al65  1  0.25000003  0.75036510  0.66043082  1
  Al0+  Al66  1  0.74978597  0.24963579  -0.00103182  1
  Al0+  Al67  1  0.74695561  0.25037676  0.33731030  1
  Al0+  Al68  1  0.74932231  0.24775680  0.66358242  1
  Al0+  Al69  1  0.75176608  0.74874000  -0.00277821  1
  Al0+  Al70  1  0.74867322  0.74956004  0.33434415  1
  Al0+  Al71  1  0.74848309  0.74981436  0.66801740  1
  Al0+  Al72  1  0.07109799  0.18052786  0.32044040  1
  Al0+  Al73  1  0.81952815  0.57042957  0.68038512  1
  Al0+  Al74  1  0.32206642  0.07358103  0.01496434  1
  Al0+  Al75  1  0.32193896  0.57262233  0.67901737  1
  Al0+  Al76  1  0.32160163  0.06979048  0.68049838  1
  Al0+  Al77  1  0.07201273  0.17865177  0.98256626  1
  Al0+  Al78  1  0.17703519  0.42828122  0.68247775  1
  Al0+  Al79  1  0.92931040  0.81884885  0.98597117  1
  Al0+  Al80  1  0.31818934  0.07261874  0.34882511  1
  Al0+  Al81  1  0.67764049  0.42836693  0.34839374  1
  Al0+  Al82  1  0.42832842  0.82001019  0.65408231  1
  Al0+  Al83  1  0.68020614  0.92801919  0.34811075  1
  Al0+  Al84  1  0.32270369  0.56988913  0.01539065  1
  Al0+  Al85  1  0.56962337  0.17906834  0.65028759  1
  Al0+  Al86  1  0.07225911  0.67800796  0.31662895  1
  Al0+  Al87  1  0.92956672  0.32039948  0.65253297  1
  Al0+  Al88  1  0.43103616  0.32115131  0.98690587  1
  Al0+  Al89  1  0.82147356  0.07054387  0.68041668  1
  Al0+  Al90  1  0.92699752  0.32166467  0.98514028  1
  Al0+  Al91  1  0.92673126  0.82348371  0.64976660  1
  Al0+  Al92  1  0.06977424  0.67944434  0.65401469  1
  Al0+  Al93  1  0.17717303  0.92964310  0.01539561  1
  Al0+  Al94  1  0.42617614  0.32199300  0.64961437  1
  Al0+  Al95  1  0.56899116  0.67984403  0.32033031  1
  Si0+  Si96  1  0.17891787  0.43159404  0.34565162  1
  Si0+  Si97  1  0.82344146  0.07163135  0.34878555  1
  Si0+  Si98  1  0.67806810  0.92761043  0.68513380  1
  Si0+  Si99  1  0.68095195  0.42996037  0.01403756  1
  Si0+  Si100  1  0.57114679  0.17813087  0.31796694  1
  Si0+  Si101  1  0.92803545  0.82131910  0.31696371  1
  Si0+  Si102  1  0.17690323  0.42905008  0.01912403  1
  Si0+  Si103  1  0.82279931  0.57052099  0.34881469  1
  Si0+  Si104  1  0.43050940  0.82013846  0.98833998  1
  Si0+  Si105  1  0.82170013  0.57269684  0.01595170  1
  Si0+  Si106  1  0.17647996  0.92687849  0.35187285  1
  Si0+  Si107  1  0.67777532  0.42622392  0.68535196  1
  Si0+  Si108  1  0.67939323  0.92598682  0.01504889  1
  Si0+  Si109  1  0.42992892  0.32091612  0.31870165  1
  Si0+  Si110  1  0.81977292  0.07112633  0.01444143  1
  Si0+  Si111  1  0.57290764  0.67665605  0.65104631  1
  Si0+  Si112  1  0.42865572  0.82552850  0.31381809  1
  Si0+  Si113  1  0.32091286  0.57258124  0.34715164  1
  Si0+  Si114  1  0.92519020  0.32158463  0.31742104  1
  Si0+  Si115  1  0.57218722  0.17410526  0.98567103  1
  Si0+  Si116  1  0.57171595  0.67832021  0.98479952  1
  Si0+  Si117  1  0.17789773  0.92766607  0.68031787  1
  Si0+  Si118  1  0.07591215  0.67860511  0.98365027  1
  Si0+  Si119  1  0.07250896  0.17724924  0.65034094  1
  O2-  O120  1  0.24633924  0.00526448  0.06516425  1
  O2-  O121  1  0.24471495  -0.00367652  0.39528096  1
  O2-  O122  1  0.24479312  -0.00283160  0.72595858  1
  O2-  O123  1  0.24690150  0.49685274  0.06378069  1
  O2-  O124  1  0.24429179  0.50768862  0.38808345  1
  O2-  O125  1  0.25271467  0.49863832  0.72987851  1
  O2-  O126  1  0.74946561  -0.00124361  0.05660248  1
  O2-  O127  1  0.75562902  0.00228723  0.39297421  1
  O2-  O128  1  0.74911578  -0.00612410  0.72929286  1
  O2-  O129  1  0.75537928  0.49699660  0.05793886  1
  O2-  O130  1  0.75639945  0.49953733  0.39280592  1
  O2-  O131  1  0.74557756  0.49582267  0.72986403  1
  O2-  O132  1  -0.00798599  0.25111033  0.27374520  1
  O2-  O133  1  0.00418062  0.24626326  0.60542281  1
  O2-  O134  1  -0.00007281  0.25162888  0.93449149  1
  O2-  O135  1  -0.00173518  0.75450353  0.27184415  1
  O2-  O136  1  -0.00279686  0.74980825  0.60122554  1
  O2-  O137  1  0.00683363  0.74702889  0.94039180  1
  O2-  O138  1  0.50060702  0.24934945  0.27539191  1
  O2-  O139  1  0.49700423  0.24946843  0.59838827  1
  O2-  O140  1  0.49942304  0.23915239  0.94349765  1
  O2-  O141  1  0.49549284  0.75415377  0.26985511  1
  O2-  O142  1  0.50051926  0.74210351  0.60830171  1
  O2-  O143  1  0.49927117  0.74779173  0.94397175  1
  O2-  O144  1  0.06907018  0.18034081  0.09700135  1
  O2-  O145  1  0.07182052  0.18426606  0.43321264  1
  O2-  O146  1  0.07039173  0.17601456  0.75559992  1
  O2-  O147  1  0.07245812  0.67933678  0.08988420  1
  O2-  O148  1  0.07099037  0.67470273  0.42900029  1
  O2-  O149  1  0.07071885  0.68202442  0.76761009  1
  O2-  O150  1  0.57570125  0.17545278  0.09191109  1
  O2-  O151  1  0.57243222  0.17819423  0.42217691  1
  O2-  O152  1  0.56929251  0.18075903  0.76452447  1
  O2-  O153  1  0.57325324  0.67862244  0.09018636  1
  O2-  O154  1  0.56662990  0.67968460  0.43280347  1
  O2-  O155  1  0.57508917  0.67990821  0.75725174  1
  O2-  O156  1  0.18209174  0.43014031  0.24054747  1
  O2-  O157  1  0.17641165  0.43027878  0.56760909  1
  O2-  O158  1  0.17455207  0.43142607  0.91425412  1
  O2-  O159  1  0.17714810  0.92688552  0.24627548  1
  O2-  O160  1  0.17973543  0.92830180  0.57443972  1
  O2-  O161  1  0.18110246  0.92639210  0.90185948  1
  O2-  O162  1  0.67795409  0.42926679  0.23433210  1
  O2-  O163  1  0.67868619  0.42822912  0.57941572  1
  O2-  O164  1  0.67913977  0.43289317  0.90966369  1
  O2-  O165  1  0.68212577  0.92930110  0.23398394  1
  O2-  O166  1  0.67813406  0.92825998  0.57941489  1
  O2-  O167  1  0.67680855  0.92368151  0.91072131  1
  O2-  O168  1  0.43636419  0.32393472  0.10096120  1
  O2-  O169  1  0.42965988  0.32081064  0.42307047  1
  O2-  O170  1  0.42940950  0.32196943  0.76323815  1
  O2-  O171  1  0.43546264  0.82026722  0.09335558  1
  O2-  O172  1  0.42899433  0.82402937  0.41932736  1
  O2-  O173  1  0.42973447  0.82024277  0.76794875  1
  O2-  O174  1  0.92383557  0.31744309  0.09939884  1
  O2-  O175  1  0.92627644  0.32348179  0.42269978  1
  O2-  O176  1  0.93036967  0.31914905  0.76529444  1
  O2-  O177  1  0.92410455  0.81468157  0.09945306  1
  O2-  O178  1  0.92791180  0.82091813  0.42190473  1
  O2-  O179  1  0.92953029  0.82230313  0.76353699  1
  O2-  O180  1  0.31795974  0.07357332  0.23577193  1
  O2-  O181  1  0.31973808  0.06892016  0.56700216  1
  O2-  O182  1  0.32557296  0.06811332  0.90191127  1
  O2-  O183  1  0.32358289  0.56789627  0.24178666  1
  O2-  O184  1  0.31940513  0.57323580  0.56475795  1
  O2-  O185  1  0.32339845  0.57114561  0.90316383  1
  O2-  O186  1  0.82102888  0.07171190  0.24250372  1
  O2-  O187  1  0.81962469  0.06992510  0.56703274  1
  O2-  O188  1  0.81740781  0.07248856  0.90978018  1
  O2-  O189  1  0.82091196  0.56985301  0.24251357  1
  O2-  O190  1  0.81778631  0.56836998  0.56696473  1
  O2-  O191  1  0.81802383  0.57579615  0.91134862  1
  O2-  O192  1  0.04519570  0.08248514  0.26589526  1
  O2-  O193  1  0.04635034  0.08453302  0.60285905  1
  O2-  O194  1  0.04365769  0.08024324  0.93156530  1
  O2-  O195  1  0.04070601  0.58304335  0.25818674  1
  O2-  O196  1  0.03859047  0.58176369  0.60104206  1
  O2-  O197  1  0.05109862  0.58429161  0.94041634  1
  O2-  O198  1  0.54350994  0.08584706  0.27086325  1
  O2-  O199  1  0.54449894  0.07986614  0.59805539  1
  O2-  O200  1  0.55224227  0.07861973  0.94147667  1
  O2-  O201  1  0.53723775  0.58334820  0.26443497  1
  O2-  O202  1  0.55335535  0.58148723  0.60698944  1
  O2-  O203  1  0.54679980  0.58638779  0.93770974  1
  O2-  O204  1  0.16515226  0.21747277  0.26445122  1
  O2-  O205  1  0.16601543  0.20391665  0.60554859  1
  O2-  O206  1  0.17066545  0.20608853  0.93144202  1
  O2-  O207  1  0.16915914  0.70804857  0.26194851  1
  O2-  O208  1  0.16608891  0.70811305  0.59683828  1
  O2-  O209  1  0.17125112  0.70356626  0.94245449  1
  O2-  O210  1  0.66338823  0.20552053  0.26969630  1
  O2-  O211  1  0.66718578  0.20787140  0.59584491  1
  O2-  O212  1  0.66379465  0.20423202  0.93859167  1
  O2-  O213  1  0.66644304  0.70918147  0.26526671  1
  O2-  O214  1  0.66402826  0.70613758  0.60263041  1
  O2-  O215  1  0.66223672  0.70852230  0.93666348  1
  O2-  O216  1  0.08374701  0.45492415  0.06796038  1
  O2-  O217  1  0.08412127  0.45501992  0.38922406  1
  O2-  O218  1  0.08047001  0.45875202  0.73686798  1
  O2-  O219  1  0.07718444  0.95450164  0.06854479  1
  O2-  O220  1  0.08170004  0.95047506  0.39579105  1
  O2-  O221  1  0.08331306  0.95077258  0.72494816  1
  O2-  O222  1  0.59173509  0.46185251  0.06463025  1
  O2-  O223  1  0.58314060  0.46376416  0.40310014  1
  O2-  O224  1  0.58415184  0.45186896  0.73121502  1
  O2-  O225  1  0.58882774  0.95184851  0.06640190  1
  O2-  O226  1  0.58438064  0.95902617  0.40236762  1
  O2-  O227  1  0.58571164  0.95663561  0.73195709  1
  O2-  O228  1  0.20380909  0.33524220  0.06405919  1
  O2-  O229  1  0.21050513  0.34238944  0.39495739  1
  O2-  O230  1  0.20312422  0.33042633  0.73657330  1
  O2-  O231  1  0.20868203  0.83358882  0.07270237  1
  O2-  O232  1  0.20365634  0.83255647  0.39616653  1
  O2-  O233  1  0.20549592  0.83486970  0.72593673  1
  O2-  O234  1  0.70472006  0.33651293  0.06200497  1
  O2-  O235  1  0.70321939  0.33086582  0.40297831  1
  O2-  O236  1  0.70407511  0.33269830  0.72955413  1
  O2-  O237  1  0.71063736  0.83477944  0.06327651  1
  O2-  O238  1  0.70824865  0.83098653  0.40232899  1
  O2-  O239  1  0.69865227  0.83302784  0.73116015  1
  O2-  O240  1  0.45977421  0.41249080  0.27155518  1
  O2-  O241  1  0.45588718  0.42080781  0.59720742  1
  O2-  O242  1  0.46967537  0.41452496  0.93168891  1
  O2-  O243  1  0.45892356  0.91856000  0.26918020  1
  O2-  O244  1  0.46367916  0.91332878  0.59725204  1
  O2-  O245  1  0.46085778  0.91108244  0.94048018  1
  O2-  O246  1  0.95062924  0.41435018  0.26913336  1
  O2-  O247  1  0.95853590  0.41680022  0.59785946  1
  O2-  O248  1  0.95289183  0.42285514  0.93698313  1
  O2-  O249  1  0.95144419  0.91546508  0.26987922  1
  O2-  O250  1  0.95414896  0.92139689  0.59570413  1
  O2-  O251  1  0.95486748  0.91679337  0.93386746  1
  O2-  O252  1  0.33836198  0.29363240  0.27042954  1
  O2-  O253  1  0.32668794  0.29468412  0.59860348  1
  O2-  O254  1  0.33264501  0.30095677  0.93418187  1
  O2-  O255  1  0.33446952  0.80323260  0.26781200  1
  O2-  O256  1  0.33380247  0.79262212  0.59475344  1
  O2-  O257  1  0.33764527  0.79298938  0.94406348  1
  O2-  O258  1  0.83001460  0.29725381  0.27315583  1
  O2-  O259  1  0.83344671  0.28919661  0.59822162  1
  O2-  O260  1  0.82823295  0.29403061  0.93257630  1
  O2-  O261  1  0.83474215  0.79364368  0.27059413  1
  O2-  O262  1  0.82638828  0.79635803  0.60106512  1
  O2-  O263  1  0.83390836  0.78578882  0.93036658  1
  O2-  O264  1  0.41996552  0.04121387  0.06983425  1
  O2-  O265  1  0.41546073  0.04353407  0.40178130  1
  O2-  O266  1  0.41826975  0.03698965  0.73249074  1
  O2-  O267  1  0.42014189  0.53617528  0.06874302  1
  O2-  O268  1  0.41041795  0.54137261  0.39561485  1
  O2-  O269  1  0.42211543  0.54882961  0.73140695  1
  O2-  O270  1  0.91138675  0.04316270  0.06168365  1
  O2-  O271  1  0.91803117  0.04802486  0.39303594  1
  O2-  O272  1  0.91835438  0.04157100  0.73509888  1
  O2-  O273  1  0.91548034  0.55071717  0.06252468  1
  O2-  O274  1  0.91794807  0.54620955  0.39204415  1
  O2-  O275  1  0.91457953  0.54008760  0.73626587  1
  O2-  O276  1  0.29785889  0.17449289  0.06523061  1
  O2-  O277  1  0.28572050  0.16957490  0.40156389  1
  O2-  O278  1  0.29361043  0.16664760  0.73388728  1
  O2-  O279  1  0.29606637  0.66558328  0.07398127  1
  O2-  O280  1  0.29927650  0.66855474  0.38821605  1
  O2-  O281  1  0.29160902  0.67127412  0.73107117  1
  O2-  O282  1  0.79065126  0.16195477  0.06421062  1
  O2-  O283  1  0.79671315  0.16495878  0.39430194  1
  O2-  O284  1  0.78698727  0.16595651  0.73502736  1
  O2-  O285  1  0.78776839  0.66190607  0.06552345  1
  O2-  O286  1  0.79495903  0.66303504  0.39427991  1
  O2-  O287  1  0.78699993  0.66654639  0.73585158  1
