# generated using pymatgen
data_Ca2Al2SiO7
_symmetry_space_group_name_H-M   'P 1'
_cell_length_a   15.46669195
_cell_length_b   15.47000743
_cell_length_c   15.29168826
_cell_angle_alpha   89.99416722
_cell_angle_beta   89.98065484
_cell_angle_gamma   89.99686989
_symmetry_Int_Tables_number   1
_chemical_formula_structural   Ca2Al2SiO7
_chemical_formula_sum   'Ca48 Al48 Si24 O168'
_cell_volume   3658.83955985
_cell_formula_units_Z   24
loop_
 _symmetry_equiv_pos_site_id
 _symmetry_equiv_pos_as_xyz
  1  'x, y, z'
loop_
 _atom_type_symbol
 _atom_type_oxidation_number
  Ca2+  2.0
  Al0+  0.0
  Si0+  0.0
  O2-  -2.0
loop_
 _atom_site_type_symbol
 _atom_site_label
 _atom_site_symmetry_multiplicity
 _atom_site_fract_x
 _atom_site_fract_y
 _atom_site_fract_z
 _atom_site_occupancy
  Ca2+  Ca0  1  0.17056665  0.08132762  0.17812633  1
  Ca2+  Ca1  1  0.16705687  0.08610212  0.49827365  1
  Ca2+  Ca2  1  0.16692834  0.08007434  0.83744384  1
  Ca2+  Ca3  1  0.17499983  0.59804917  0.17089569  1
  Ca2+  Ca4  1  0.17715334  0.60296093  0.50221146  1
  Ca2+  Ca5  1  0.17502177  0.59715436  0.83659671  1
  Ca2+  Ca6  1  0.67068066  0.06762569  0.16881673  1
  Ca2+  Ca7  1  0.67144245  0.07183153  0.50410429  1
  Ca2+  Ca8  1  0.68033522  0.07516787  0.84003440  1
  Ca2+  Ca9  1  0.67444970  0.58976037  0.17335478  1
  Ca2+  Ca10  1  0.67041464  0.57957370  0.49658327  1
  Ca2+  Ca11  1  0.67211076  0.57995094  0.83881063  1
  Ca2+  Ca12  1  0.08771974  0.32559607  0.16838640  1
  Ca2+  Ca13  1  0.07699718  0.32837851  0.49731436  1
  Ca2+  Ca14  1  0.07361207  0.33025828  0.82783143  1
  Ca2+  Ca15  1  0.07124268  0.82187250  0.16547027  1
  Ca2+  Ca16  1  0.07134411  0.82582208  0.49667462  1
  Ca2+  Ca17  1  0.07262178  0.82407569  0.83110553  1
  Ca2+  Ca18  1  0.58592429  0.33622971  0.16547145  1
  Ca2+  Ca19  1  0.58351521  0.33993220  0.49747680  1
  Ca2+  Ca20  1  0.57995295  0.33668501  0.82157925  1
  Ca2+  Ca21  1  0.58554633  0.82620529  0.16563119  1
  Ca2+  Ca22  1  0.57947001  0.82679285  0.48655335  1
  Ca2+  Ca23  1  0.58935232  0.82743533  0.83784086  1
  Ca2+  Ca24  1  0.33068932  0.43039276  0.17177187  1
  Ca2+  Ca25  1  0.33224212  0.42915215  0.50558003  1
  Ca2+  Ca26  1  0.33252891  0.42586320  0.83443777  1
  Ca2+  Ca27  1  0.33357687  0.92014835  0.17870480  1
  Ca2+  Ca28  1  0.33619837  0.91908482  0.49981623  1
  Ca2+  Ca29  1  0.32887611  0.91602481  0.83795426  1
  Ca2+  Ca30  1  0.82855094  0.43286495  0.17386477  1
  Ca2+  Ca31  1  0.82564647  0.41898321  0.50347201  1
  Ca2+  Ca32  1  0.83058810  0.41907028  0.83659299  1
  Ca2+  Ca33  1  0.82708442  0.90735020  0.16978757  1
  Ca2+  Ca34  1  0.83496782  0.91369092  0.50229635  1
  Ca2+  Ca35  1  0.83945056  0.92196882  0.84076862  1
  Ca2+  Ca36  1  0.41740634  0.16637854  0.16494704  1
  Ca2+  Ca37  1  0.41273603  0.17598826  0.49295382  1
  Ca2+  Ca38  1  0.42204698  0.17758840  0.82480647  1
  Ca2+  Ca39  1  0.42741883  0.65966084  0.16595190  1
  Ca2+  Ca40  1  0.41966437  0.66767949  0.48991791  1
  Ca2+  Ca41  1  0.42163528  0.65663561  0.83167220  1
  Ca2+  Ca42  1  0.91685297  0.16552821  0.16485484  1
  Ca2+  Ca43  1  0.91292346  0.17177042  0.49732793  1
  Ca2+  Ca44  1  0.90874744  0.16886141  0.82467419  1
  Ca2+  Ca45  1  0.91465654  0.67182689  0.15811119  1
  Ca2+  Ca46  1  0.92272909  0.67253247  0.48741261  1
  Ca2+  Ca47  1  0.91999607  0.67393628  0.82677856  1
  Al0+  Al48  1  0.00321768  0.00062755  0.00131018  1
  Al0+  Al49  1  0.00094197  0.00095557  0.32598311  1
  Al0+  Al50  1  0.00239389  -0.00219301  0.66804883  1
  Al0+  Al51  1  0.00258779  0.49556940  0.00010535  1
  Al0+  Al52  1  0.00171749  0.49784901  0.33253327  1
  Al0+  Al53  1  0.00350960  0.49771307  0.65724432  1
  Al0+  Al54  1  0.50146820  0.00197562  -0.00036976  1
  Al0+  Al55  1  0.50059375  0.00339543  0.33977932  1
  Al0+  Al56  1  0.50125839  0.00058655  0.67065663  1
  Al0+  Al57  1  0.49677721  0.50009808  -0.00110158  1
  Al0+  Al58  1  0.49692458  0.49959174  0.33588459  1
  Al0+  Al59  1  0.49875457  0.49956237  0.66931764  1
  Al0+  Al60  1  0.25003202  0.25191393  -0.00248008  1
  Al0+  Al61  1  0.24994965  0.25117361  0.33310928  1
  Al0+  Al62  1  0.25153272  0.25287482  0.66463056  1
  Al0+  Al63  1  0.25099968  0.75256324  0.00299757  1
  Al0+  Al64  1  0.24729435  0.75512593  0.33270130  1
  Al0+  Al65  1  0.25216961  0.75293570  0.67028565  1
  Al0+  Al66  1  0.74946701  0.24707089  0.00323200  1
  Al0+  Al67  1  0.74815943  0.24959602  0.33364244  1
  Al0+  Al68  1  0.74901801  0.24762416  0.66884778  1
  Al0+  Al69  1  0.74758033  0.74959475  -0.00416856  1
  Al0+  Al70  1  0.74775769  0.74952134  0.33692996  1
  Al0+  Al71  1  0.74825815  0.74872300  0.66304732  1
  Al0+  Al72  1  0.56923132  0.67789189  0.98472318  1
  Al0+  Al73  1  0.67837236  0.42792872  0.34727726  1
  Al0+  Al74  1  0.31914433  0.57117735  0.01519916  1
  Al0+  Al75  1  0.07120294  0.67625146  0.31780853  1
  Al0+  Al76  1  0.56754641  0.67744986  0.31896074  1
  Al0+  Al77  1  0.82115156  0.06674684  0.67814092  1
  Al0+  Al78  1  0.07339903  0.67913699  0.65183714  1
  Al0+  Al79  1  0.68100649  0.43076519  0.67998476  1
  Al0+  Al80  1  0.32109028  0.07247737  0.34782680  1
  Al0+  Al81  1  0.06994136  0.18131606  0.32044321  1
  Al0+  Al82  1  0.92668342  0.81943868  0.31757091  1
  Al0+  Al83  1  0.82435684  0.07166709  0.01710975  1
  Al0+  Al84  1  0.92779592  0.82005638  0.98429381  1
  Al0+  Al85  1  0.43024801  0.32167105  0.65099671  1
  Al0+  Al86  1  0.82321652  0.57225389  0.34803000  1
  Al0+  Al87  1  0.67920731  0.92844816  0.01531341  1
  Al0+  Al88  1  0.92774162  0.82081669  0.65127733  1
  Al0+  Al89  1  0.67998670  0.92888858  0.34799321  1
  Al0+  Al90  1  0.82200739  0.56906881  0.00901998  1
  Al0+  Al91  1  0.07305280  0.67628006  0.98485910  1
  Al0+  Al92  1  0.92658103  0.31969235  0.65318265  1
  Al0+  Al93  1  0.42883906  0.82488438  0.32052530  1
  Al0+  Al94  1  0.31629390  0.57260077  0.34701972  1
  Al0+  Al95  1  0.31800934  0.57136732  0.68108665  1
  Si0+  Si96  1  0.18071571  0.93019382  0.01743768  1
  Si0+  Si97  1  0.07304059  0.17943860  0.98466904  1
  Si0+  Si98  1  0.17859592  0.42539624  0.35116117  1
  Si0+  Si99  1  0.17659490  0.93117736  0.35232315  1
  Si0+  Si100  1  0.32250734  0.07447497  0.68315182  1
  Si0+  Si101  1  0.18209223  0.93120869  0.68372009  1
  Si0+  Si102  1  0.42871210  0.82533979  0.98341367  1
  Si0+  Si103  1  0.32021894  0.07307667  0.01305597  1
  Si0+  Si104  1  0.82498945  0.57183919  0.68086233  1
  Si0+  Si105  1  0.82348103  0.07142150  0.34931506  1
  Si0+  Si106  1  0.17689638  0.42459855  0.68421060  1
  Si0+  Si107  1  0.57173884  0.17918339  0.31761871  1
  Si0+  Si108  1  0.42952709  0.32002206  0.98416899  1
  Si0+  Si109  1  0.92439520  0.32134758  0.31466356  1
  Si0+  Si110  1  0.56913932  0.67824711  0.65201834  1
  Si0+  Si111  1  0.17874187  0.42416359  0.01773013  1
  Si0+  Si112  1  0.43006547  0.82351875  0.65404396  1
  Si0+  Si113  1  0.57132974  0.17849880  0.98358817  1
  Si0+  Si114  1  0.67636091  0.42746785  0.01384725  1
  Si0+  Si115  1  0.57105884  0.17757127  0.64873898  1
  Si0+  Si116  1  0.67584486  0.92471762  0.68468654  1
  Si0+  Si117  1  0.42896938  0.32047256  0.31667089  1
  Si0+  Si118  1  0.07309418  0.17698161  0.65181675  1
  Si0+  Si119  1  0.92765919  0.31824212  0.98612721  1
  O2-  O120  1  0.25295468  0.00125588  0.05789658  1
  O2-  O121  1  0.24835420  -0.00250485  0.39684974  1
  O2-  O122  1  0.25190975  0.00442917  0.72671766  1
  O2-  O123  1  0.23987699  0.50018944  0.06018318  1
  O2-  O124  1  0.23743616  0.50258462  0.39497368  1
  O2-  O125  1  0.23989675  0.49917412  0.72732289  1
  O2-  O126  1  0.75660322  -0.00487705  0.06518537  1
  O2-  O127  1  0.75871345  -0.00004468  0.39415613  1
  O2-  O128  1  0.75031747  -0.01126955  0.72593499  1
  O2-  O129  1  0.74483571  0.49620076  0.05620064  1
  O2-  O130  1  0.75221863  0.49783751  0.39671671  1
  O2-  O131  1  0.75797464  0.50218388  0.72728514  1
  O2-  O132  1  -0.00514130  0.25375169  0.27081446  1
  O2-  O133  1  0.00212310  0.24369713  0.60914290  1
  O2-  O134  1  -0.00337365  0.24447283  0.94329133  1
  O2-  O135  1  -0.00784275  0.74066396  0.26861227  1
  O2-  O136  1  -0.00679039  0.74216897  0.60279484  1
  O2-  O137  1  -0.00373869  0.74354281  0.93531511  1
  O2-  O138  1  0.50246288  0.25199806  0.27423931  1
  O2-  O139  1  0.50219249  0.24508782  0.60305243  1
  O2-  O140  1  0.50397093  0.25298107  0.94126714  1
  O2-  O141  1  0.49655024  0.75071628  0.26832895  1
  O2-  O142  1  0.50339165  0.75554754  0.61290738  1
  O2-  O143  1  0.49427637  0.75398694  0.93865396  1
  O2-  O144  1  0.07951266  0.18338071  0.08911993  1
  O2-  O145  1  0.07004044  0.18363592  0.43358957  1
  O2-  O146  1  0.07515483  0.17830018  0.75790853  1
  O2-  O147  1  0.07377167  0.68104086  0.09765615  1
  O2-  O148  1  0.07292332  0.68334247  0.43122048  1
  O2-  O149  1  0.07459464  0.68398052  0.76542096  1
  O2-  O150  1  0.56810742  0.17771477  0.08867505  1
  O2-  O151  1  0.57069787  0.17921307  0.42250752  1
  O2-  O152  1  0.56764838  0.17825774  0.75476267  1
  O2-  O153  1  0.56762345  0.67419437  0.09691418  1
  O2-  O154  1  0.56506572  0.67718793  0.43309416  1
  O2-  O155  1  0.56874217  0.67735967  0.75739047  1
  O2-  O156  1  0.18597301  0.41759895  0.24582163  1
  O2-  O157  1  0.18168364  0.41489469  0.57967383  1
  O2-  O158  1  0.18334279  0.41308810  0.91300742  1
  O2-  O159  1  0.17762320  0.93503043  0.24660750  1
  O2-  O160  1  0.18411541  0.93250919  0.57922279  1
  O2-  O161  1  0.18222977  0.93294044  0.91171110  1
  O2-  O162  1  0.68049331  0.42582061  0.23331408  1
  O2-  O163  1  0.67982085  0.43275409  0.56763947  1
  O2-  O164  1  0.67700889  0.42615579  0.90800947  1
  O2-  O165  1  0.67706304  0.93165728  0.23536628  1
  O2-  O166  1  0.66947174  0.92826315  0.57963622  1
  O2-  O167  1  0.67545223  0.93402890  0.90161544  1
  O2-  O168  1  0.42775434  0.31745441  0.08925785  1
  O2-  O169  1  0.42784492  0.31894204  0.42157631  1
  O2-  O170  1  0.43141015  0.31924485  0.76478989  1
  O2-  O171  1  0.42945162  0.83037425  0.08821390  1
  O2-  O172  1  0.43171930  0.82418301  0.43486422  1
  O2-  O173  1  0.42860039  0.82540723  0.75924659  1
  O2-  O174  1  0.92852212  0.31729748  0.09080090  1
  O2-  O175  1  0.92275860  0.31772725  0.42025025  1
  O2-  O176  1  0.92751210  0.31741934  0.76700611  1
  O2-  O177  1  0.92925779  0.82020547  0.09729026  1
  O2-  O178  1  0.93095136  0.82281409  0.43111555  1
  O2-  O179  1  0.93092556  0.82384309  0.76475324  1
  O2-  O180  1  0.31911798  0.07387398  0.23409382  1
  O2-  O181  1  0.32297735  0.07445458  0.57864406  1
  O2-  O182  1  0.31737383  0.07396496  0.90755620  1
  O2-  O183  1  0.31889017  0.56803111  0.23393831  1
  O2-  O184  1  0.31888781  0.57222361  0.56828462  1
  O2-  O185  1  0.32092414  0.56694961  0.90192337  1
  O2-  O186  1  0.82044336  0.07341355  0.24398707  1
  O2-  O187  1  0.81858344  0.06785254  0.56518292  1
  O2-  O188  1  0.82096482  0.07503604  0.90325433  1
  O2-  O189  1  0.82102949  0.57111950  0.23396372  1
  O2-  O190  1  0.82128451  0.57152439  0.57582544  1
  O2-  O191  1  0.82158280  0.56474290  0.89555536  1
  O2-  O192  1  0.04379104  0.08582779  0.26266804  1
  O2-  O193  1  0.05173356  0.08265696  0.60705753  1
  O2-  O194  1  0.05264454  0.08593201  0.93804898  1
  O2-  O195  1  0.05881850  0.57241933  0.27014848  1
  O2-  O196  1  0.06244299  0.57640355  0.60250635  1
  O2-  O197  1  0.05622988  0.57274540  0.93689815  1
  O2-  O198  1  0.53906960  0.08967483  0.26956664  1
  O2-  O199  1  0.54507192  0.08290490  0.60493284  1
  O2-  O200  1  0.53930281  0.08959120  0.93302325  1
  O2-  O201  1  0.53694618  0.57938923  0.26590074  1
  O2-  O202  1  0.53447871  0.58930394  0.60533981  1
  O2-  O203  1  0.53537978  0.58163237  0.92956997  1
  O2-  O204  1  0.16623408  0.21443850  0.26505995  1
  O2-  O205  1  0.16597590  0.20492562  0.60559407  1
  O2-  O206  1  0.16262951  0.21182547  0.93375395  1
  O2-  O207  1  0.16618759  0.71526199  0.26455742  1
  O2-  O208  1  0.16943296  0.72031437  0.60142716  1
  O2-  O209  1  0.17058260  0.71355783  0.93366472  1
  O2-  O210  1  0.66313219  0.20521882  0.26830664  1
  O2-  O211  1  0.66402845  0.20291046  0.60341471  1
  O2-  O212  1  0.66452515  0.20323158  0.93743027  1
  O2-  O213  1  0.66655958  0.70598086  0.26925182  1
  O2-  O214  1  0.66207201  0.69978718  0.60437002  1
  O2-  O215  1  0.66416760  0.70770199  0.92698831  1
  O2-  O216  1  0.08271343  0.43873344  0.06180407  1
  O2-  O217  1  0.08058884  0.43722233  0.39143188  1
  O2-  O218  1  0.08026023  0.44328621  0.72673861  1
  O2-  O219  1  0.09078825  0.96053549  0.06541933  1
  O2-  O220  1  0.08470985  0.96339465  0.39788749  1
  O2-  O221  1  0.09138969  0.95881538  0.73345777  1
  O2-  O222  1  0.58177195  0.45069480  0.05814471  1
  O2-  O223  1  0.57947499  0.45520961  0.39941819  1
  O2-  O224  1  0.58491642  0.46283331  0.73488229  1
  O2-  O225  1  0.58233601  0.96524608  0.06781235  1
  O2-  O226  1  0.58662041  0.96650147  0.40469298  1
  O2-  O227  1  0.58466137  0.95574219  0.73427449  1
  O2-  O228  1  0.21420087  0.33436375  0.06786210  1
  O2-  O229  1  0.21371540  0.33657862  0.40101491  1
  O2-  O230  1  0.20893064  0.33381281  0.73462273  1
  O2-  O231  1  0.20858087  0.83995305  0.06600803  1
  O2-  O232  1  0.20027803  0.83840508  0.39957738  1
  O2-  O233  1  0.21544244  0.84307811  0.73464437  1
  O2-  O234  1  0.70021753  0.33337154  0.05953311  1
  O2-  O235  1  0.70414796  0.32832280  0.40055786  1
  O2-  O236  1  0.70701187  0.33220319  0.73344698  1
  O2-  O237  1  0.69964221  0.82743477  0.06432501  1
  O2-  O238  1  0.70467194  0.83244606  0.40394770  1
  O2-  O239  1  0.69559085  0.82856713  0.72755812  1
  O2-  O240  1  0.45529700  0.41195280  0.26876630  1
  O2-  O241  1  0.46229848  0.41775476  0.59805814  1
  O2-  O242  1  0.45382518  0.41190168  0.93621353  1
  O2-  O243  1  0.45695693  0.92496202  0.27050072  1
  O2-  O244  1  0.45385472  0.91748270  0.60822465  1
  O2-  O245  1  0.45536727  0.91852651  0.93449638  1
  O2-  O246  1  0.94987482  0.41481887  0.26929758  1
  O2-  O247  1  0.95670578  0.41404936  0.59533418  1
  O2-  O248  1  0.95812587  0.40768917  0.93595163  1
  O2-  O249  1  0.95949642  0.91658344  0.26419710  1
  O2-  O250  1  0.96417103  0.91739487  0.59896476  1
  O2-  O251  1  0.96364037  0.91895189  0.93407765  1
  O2-  O252  1  0.33943900  0.28802576  0.26798784  1
  O2-  O253  1  0.33380770  0.29077339  0.59724433  1
  O2-  O254  1  0.33969224  0.28744539  0.93493644  1
  O2-  O255  1  0.32786551  0.80484851  0.27088684  1
  O2-  O256  1  0.33922385  0.79501478  0.60657956  1
  O2-  O257  1  0.33399580  0.80190023  0.93873904  1
  O2-  O258  1  0.83204378  0.29306508  0.26745838  1
  O2-  O259  1  0.83119760  0.28565818  0.59908575  1
  O2-  O260  1  0.83467096  0.29204060  0.93920082  1
  O2-  O261  1  0.82610314  0.79584748  0.26873724  1
  O2-  O262  1  0.82579990  0.80145879  0.60187152  1
  O2-  O263  1  0.82821618  0.79835670  0.93129880  1
  O2-  O264  1  0.41369792  0.04971162  0.05812857  1
  O2-  O265  1  0.41689119  0.04679448  0.40506761  1
  O2-  O266  1  0.41413952  0.04672041  0.73191595  1
  O2-  O267  1  0.41377980  0.53326760  0.06887727  1
  O2-  O268  1  0.41086069  0.53644684  0.40140092  1
  O2-  O269  1  0.41262428  0.53484081  0.73583429  1
  O2-  O270  1  0.92663020  0.05292705  0.06518786  1
  O2-  O271  1  0.91948503  0.05109735  0.39185952  1
  O2-  O272  1  0.92011541  0.04280581  0.73221191  1
  O2-  O273  1  0.91777950  0.53606344  0.06352052  1
  O2-  O274  1  0.92310978  0.54462609  0.39892640  1
  O2-  O275  1  0.92090213  0.54759807  0.72220028  1
  O2-  O276  1  0.29055281  0.16441907  0.06013046  1
  O2-  O277  1  0.28644578  0.16809316  0.40188597  1
  O2-  O278  1  0.29436758  0.16630571  0.73080626  1
  O2-  O279  1  0.29531283  0.67020485  0.06705633  1
  O2-  O280  1  0.29024001  0.67181608  0.39892167  1
  O2-  O281  1  0.29200631  0.66921330  0.73635418  1
  O2-  O282  1  0.79060210  0.16816983  0.07160411  1
  O2-  O283  1  0.79342561  0.16389464  0.39529356  1
  O2-  O284  1  0.78639408  0.16162253  0.73398292  1
  O2-  O285  1  0.79089964  0.66584972  0.06034269  1
  O2-  O286  1  0.79193126  0.66799836  0.40351481  1
  O2-  O287  1  0.79602542  0.66523085  0.72649177  1
