# generated using pymatgen
data_Ca2Al2SiO7
_symmetry_space_group_name_H-M   'P 1'
_cell_length_a   15.46009262
_cell_length_b   15.45912295
_cell_length_c   15.28551040
_cell_angle_alpha   89.99480931
_cell_angle_beta   90.00240340
_cell_angle_gamma   90.00298415
_symmetry_Int_Tables_number   1
_chemical_formula_structural   Ca2Al2SiO7
_chemical_formula_sum   'Ca48 Al48 Si24 O168'
_cell_volume   3653.22890106
_cell_formula_units_Z   24
loop_
 _symmetry_equiv_pos_site_id
 _symmetry_equiv_pos_as_xyz
  1  'x, y, z'
loop_
 _atom_type_symbol
 _atom_type_oxidation_number
  Ca2+  2.0
  Al0+  0.0
  Si0+  0.0
  O2-  -2.0
loop_
 _atom_site_type_symbol
 _atom_site_label
 _atom_site_symmetry_multiplicity
 _atom_site_fract_x
 _atom_site_fract_y
 _atom_site_fract_z
 _atom_site_occupancy
  Ca2+  Ca0  1  0.16312070  0.07824059  0.17153830  1
  Ca2+  Ca1  1  0.16265626  0.07846362  0.50266050  1
  Ca2+  Ca2  1  0.16319227  0.09020791  0.83697018  1
  Ca2+  Ca3  1  0.16158132  0.57865883  0.16481803  1
  Ca2+  Ca4  1  0.17586472  0.58703145  0.51039537  1
  Ca2+  Ca5  1  0.16684336  0.58409925  0.84144996  1
  Ca2+  Ca6  1  0.67840094  0.07780790  0.16865423  1
  Ca2+  Ca7  1  0.67974055  0.07703531  0.51028348  1
  Ca2+  Ca8  1  0.67723757  0.07415044  0.83955020  1
  Ca2+  Ca9  1  0.67461428  0.58704371  0.17181601  1
  Ca2+  Ca10  1  0.66431396  0.57818793  0.50327485  1
  Ca2+  Ca11  1  0.66913325  0.58161898  0.83718937  1
  Ca2+  Ca12  1  0.07546802  0.32809402  0.15190263  1
  Ca2+  Ca13  1  0.07316113  0.32897684  0.50210475  1
  Ca2+  Ca14  1  0.07025015  0.32823220  0.83097419  1
  Ca2+  Ca15  1  0.07808660  0.82992642  0.16488890  1
  Ca2+  Ca16  1  0.07865625  0.83052264  0.49407020  1
  Ca2+  Ca17  1  0.08117840  0.82126342  0.82950812  1
  Ca2+  Ca18  1  0.58128088  0.33944995  0.16902617  1
  Ca2+  Ca19  1  0.58151026  0.34214421  0.49216183  1
  Ca2+  Ca20  1  0.58662713  0.33441166  0.82607481  1
  Ca2+  Ca21  1  0.58421742  0.82530152  0.15655301  1
  Ca2+  Ca22  1  0.59477191  0.82092354  0.49826798  1
  Ca2+  Ca23  1  0.59096473  0.82672070  0.83118704  1
  Ca2+  Ca24  1  0.32573531  0.41287983  0.17003577  1
  Ca2+  Ca25  1  0.33429662  0.42188086  0.50617027  1
  Ca2+  Ca26  1  0.32484866  0.42604183  0.83702954  1
  Ca2+  Ca27  1  0.32765209  0.91110053  0.16793976  1
  Ca2+  Ca28  1  0.32423917  0.91147318  0.50218476  1
  Ca2+  Ca29  1  0.33326094  0.91435870  0.83964810  1
  Ca2+  Ca30  1  0.83418338  0.42991791  0.17035847  1
  Ca2+  Ca31  1  0.82278798  0.41945215  0.50428361  1
  Ca2+  Ca32  1  0.83468499  0.41670337  0.83812976  1
  Ca2+  Ca33  1  0.83891905  0.92573734  0.17132039  1
  Ca2+  Ca34  1  0.83602848  0.92466810  0.50442699  1
  Ca2+  Ca35  1  0.82636171  0.92423376  0.83832142  1
  Ca2+  Ca36  1  0.41700704  0.17328047  0.16437354  1
  Ca2+  Ca37  1  0.42228184  0.17601019  0.49277079  1
  Ca2+  Ca38  1  0.41956993  0.16905280  0.83042281  1
  Ca2+  Ca39  1  0.43164658  0.67153726  0.15966746  1
  Ca2+  Ca40  1  0.42908937  0.65961674  0.49784786  1
  Ca2+  Ca41  1  0.42657227  0.66982362  0.82987436  1
  Ca2+  Ca42  1  0.91611237  0.17037239  0.15759516  1
  Ca2+  Ca43  1  0.91178278  0.16577264  0.49990545  1
  Ca2+  Ca44  1  0.91523281  0.17242874  0.82817622  1
  Ca2+  Ca45  1  0.91260515  0.66986106  0.16007281  1
  Ca2+  Ca46  1  0.91751168  0.67223634  0.49355390  1
  Ca2+  Ca47  1  0.92697020  0.65660252  0.83174167  1
  Al0+  Al48  1  0.00226439  -0.00082379  -0.00033154  1
  Al0+  Al49  1  0.00151528  -0.00210179  0.33798636  1
  Al0+  Al50  1  0.00190175  -0.00006663  0.66913697  1
  Al0+  Al51  1  -0.00055933  0.49835442  0.00137582  1
  Al0+  Al52  1  0.00109224  0.49835774  0.33891062  1
  Al0+  Al53  1  0.00078498  0.49708660  0.65483744  1
  Al0+  Al54  1  0.49785023  0.00152036  0.00254841  1
  Al0+  Al55  1  0.49950057  0.00097487  0.33318634  1
  Al0+  Al56  1  0.49765356  -0.00050818  0.66793515  1
  Al0+  Al57  1  0.49820118  0.50200649  -0.00342847  1
  Al0+  Al58  1  0.49780809  0.50014325  0.32451292  1
  Al0+  Al59  1  0.49870636  0.50234406  0.67313204  1
  Al0+  Al60  1  0.24954173  0.25067912  0.00073543  1
  Al0+  Al61  1  0.25077958  0.24922593  0.33100784  1
  Al0+  Al62  1  0.24856078  0.24978424  0.66250311  1
  Al0+  Al63  1  0.25193525  0.75005057  -0.00468545  1
  Al0+  Al64  1  0.25028998  0.74888584  0.33729332  1
  Al0+  Al65  1  0.25193729  0.75046085  0.66834175  1
  Al0+  Al66  1  0.74744097  0.25000291  0.00111627  1
  Al0+  Al67  1  0.74990156  0.25031668  0.33884815  1
  Al0+  Al68  1  0.74906895  0.25053978  0.66957916  1
  Al0+  Al69  1  0.74924001  0.74942299  0.00107943  1
  Al0+  Al70  1  0.75335230  0.75148658  0.32724987  1
  Al0+  Al71  1  0.75102577  0.74864684  0.66584949  1
  Al0+  Al72  1  0.42967784  0.82262546  0.98514212  1
  Al0+  Al73  1  0.82080852  0.07030062  0.34789209  1
  Al0+  Al74  1  0.07117151  0.17771075  0.64910697  1
  Al0+  Al75  1  0.93179332  0.82065715  0.31968243  1
  Al0+  Al76  1  0.57099032  0.67964856  0.65211671  1
  Al0+  Al77  1  0.18017334  0.43006813  0.01267173  1
  Al0+  Al78  1  0.32006636  0.57169039  0.68196686  1
  Al0+  Al79  1  0.67802508  0.92651841  0.68101235  1
  Al0+  Al80  1  0.07313241  0.67840623  0.65244401  1
  Al0+  Al81  1  0.42901527  0.32054339  0.31878305  1
  Al0+  Al82  1  0.06895438  0.67922080  0.98904433  1
  Al0+  Al83  1  0.82276887  0.07104623  0.01592322  1
  Al0+  Al84  1  0.57368846  0.67898174  0.98207539  1
  Al0+  Al85  1  0.82340951  0.57445745  0.34971916  1
  Al0+  Al86  1  0.92485969  0.32013947  0.64786089  1
  Al0+  Al87  1  0.18154504  0.92905976  0.34683655  1
  Al0+  Al88  1  0.07170861  0.17725040  0.98691377  1
  Al0+  Al89  1  0.82292845  0.07097390  0.68380819  1
  Al0+  Al90  1  0.67784062  0.92901466  0.01640177  1
  Al0+  Al91  1  0.67867421  0.43098790  0.68043106  1
  Al0+  Al92  1  0.67827181  0.43297628  0.34629192  1
  Al0+  Al93  1  0.82088728  0.56882153  0.01117414  1
  Al0+  Al94  1  0.92619225  0.32040198  0.98698243  1
  Al0+  Al95  1  0.57103469  0.68062182  0.31881061  1
  Si0+  Si96  1  0.56894029  0.18021682  0.98548857  1
  Si0+  Si97  1  0.92787541  0.32131094  0.31804099  1
  Si0+  Si98  1  0.67601294  0.92771987  0.34860836  1
  Si0+  Si99  1  0.32039131  0.07275024  0.01593070  1
  Si0+  Si100  1  0.42727573  0.32157958  0.98339890  1
  Si0+  Si101  1  0.31859334  0.56848931  0.34662710  1
  Si0+  Si102  1  0.67376105  0.42734507  0.01656574  1
  Si0+  Si103  1  0.32279773  0.07412335  0.35068608  1
  Si0+  Si104  1  0.06966819  0.17953384  0.31864624  1
  Si0+  Si105  1  0.56955220  0.17742605  0.65299388  1
  Si0+  Si106  1  0.18036075  0.92916173  0.68390537  1
  Si0+  Si107  1  0.42568030  0.82281862  0.31833987  1
  Si0+  Si108  1  0.17856191  0.42498470  0.35005367  1
  Si0+  Si109  1  0.42804950  0.82408855  0.64790320  1
  Si0+  Si110  1  0.32180452  0.57312147  0.01899956  1
  Si0+  Si111  1  0.43013006  0.32084708  0.65372105  1
  Si0+  Si112  1  0.07453384  0.67601392  0.31758467  1
  Si0+  Si113  1  0.57381912  0.17712578  0.31667599  1
  Si0+  Si114  1  0.92974645  0.82086541  0.65140705  1
  Si0+  Si115  1  0.32023109  0.07280947  0.68135855  1
  Si0+  Si116  1  0.92769683  0.82334248  0.98285804  1
  Si0+  Si117  1  0.82465054  0.57107441  0.68143001  1
  Si0+  Si118  1  0.18043503  0.92651348  0.01395040  1
  Si0+  Si119  1  0.17751339  0.42706385  0.68215074  1
  O2-  O120  1  0.24902928  0.00085600  0.05562866  1
  O2-  O121  1  0.25805560  0.00201582  0.39482609  1
  O2-  O122  1  0.24972408  0.00242780  0.72507462  1
  O2-  O123  1  0.25401256  0.50385574  0.06374975  1
  O2-  O124  1  0.24642504  0.49953455  0.39114531  1
  O2-  O125  1  0.24025927  0.50116494  0.72658965  1
  O2-  O126  1  0.75379223  -0.00343090  0.06710294  1
  O2-  O127  1  0.74298326  -0.00214741  0.39299658  1
  O2-  O128  1  0.74967298  -0.00128122  0.73076489  1
  O2-  O129  1  0.74312668  0.49653588  0.05791259  1
  O2-  O130  1  0.74885210  0.50453705  0.39900083  1
  O2-  O131  1  0.75627685  0.50238294  0.72606240  1
  O2-  O132  1  -0.00007707  0.25090049  0.27594813  1
  O2-  O133  1  -0.00481329  0.24491202  0.59873769  1
  O2-  O134  1  -0.00516522  0.24413789  0.93814006  1
  O2-  O135  1  0.00189791  0.74048978  0.27412552  1
  O2-  O136  1  -0.00280743  0.75114533  0.60594971  1
  O2-  O137  1  -0.00627490  0.75154387  0.93932475  1
  O2-  O138  1  0.50401298  0.24552792  0.27264117  1
  O2-  O139  1  0.50216873  0.25188768  0.61003551  1
  O2-  O140  1  0.50204994  0.25497991  0.94131446  1
  O2-  O141  1  0.50009584  0.76092012  0.27482543  1
  O2-  O142  1  0.49946591  0.75792951  0.60454410  1
  O2-  O143  1  0.50380015  0.75440631  0.93385024  1
  O2-  O144  1  0.07438676  0.17948170  0.10116227  1
  O2-  O145  1  0.07090309  0.18107382  0.42353794  1
  O2-  O146  1  0.07619845  0.18205485  0.76187040  1
  O2-  O147  1  0.06992966  0.68204286  0.10220837  1
  O2-  O148  1  0.07832083  0.67973444  0.42317733  1
  O2-  O149  1  0.07262386  0.67965811  0.76572482  1
  O2-  O150  1  0.56619536  0.18048444  0.09065625  1
  O2-  O151  1  0.57092663  0.17611226  0.42245129  1
  O2-  O152  1  0.56478335  0.17743229  0.75830152  1
  O2-  O153  1  0.57032576  0.67724114  0.09593689  1
  O2-  O154  1  0.56741178  0.67834742  0.43221821  1
  O2-  O155  1  0.56889667  0.67825742  0.76434651  1
  O2-  O156  1  0.17908544  0.42348738  0.24496759  1
  O2-  O157  1  0.18303461  0.42555273  0.57603154  1
  O2-  O158  1  0.18333761  0.43136780  0.89982798  1
  O2-  O159  1  0.18277952  0.93003971  0.23355837  1
  O2-  O160  1  0.18257810  0.92832840  0.57858923  1
  O2-  O161  1  0.18256636  0.92490939  0.90892125  1
  O2-  O162  1  0.67935743  0.43296921  0.23281761  1
  O2-  O163  1  0.67409741  0.43344979  0.56761027  1
  O2-  O164  1  0.67234533  0.42710436  0.91087452  1
  O2-  O165  1  0.67481100  0.93059590  0.24336268  1
  O2-  O166  1  0.67858549  0.92893129  0.56691147  1
  O2-  O167  1  0.67767867  0.93299488  0.90296190  1
  O2-  O168  1  0.42555662  0.31874875  0.08854400  1
  O2-  O169  1  0.42819324  0.31995082  0.43231986  1
  O2-  O170  1  0.42899175  0.31744328  0.75897272  1
  O2-  O171  1  0.42719740  0.81968918  0.09912930  1
  O2-  O172  1  0.42174110  0.82009597  0.42372961  1
  O2-  O173  1  0.42542878  0.82470932  0.75304775  1
  O2-  O174  1  0.92949930  0.32133033  0.10127288  1
  O2-  O175  1  0.92896729  0.32028794  0.42285417  1
  O2-  O176  1  0.92729112  0.32227213  0.76122226  1
  O2-  O177  1  0.93224245  0.82539482  0.08856720  1
  O2-  O178  1  0.93567602  0.82283199  0.43293480  1
  O2-  O179  1  0.93217241  0.82088604  0.75694561  1
  O2-  O180  1  0.32049453  0.07727103  0.24521232  1
  O2-  O181  1  0.32123299  0.07302570  0.57635397  1
  O2-  O182  1  0.32134959  0.07546078  0.91069923  1
  O2-  O183  1  0.31617748  0.56806629  0.24178347  1
  O2-  O184  1  0.32188203  0.56735058  0.56798710  1
  O2-  O185  1  0.32088245  0.57153892  0.91344379  1
  O2-  O186  1  0.82229957  0.07055474  0.23509527  1
  O2-  O187  1  0.82110009  0.06800444  0.56978140  1
  O2-  O188  1  0.82020928  0.07110125  0.90287821  1
  O2-  O189  1  0.82507057  0.57157132  0.23604143  1
  O2-  O190  1  0.82248965  0.57217594  0.57594644  1
  O2-  O191  1  0.82337999  0.56565935  0.89805072  1
  O2-  O192  1  0.04260189  0.08675529  0.27375582  1
  O2-  O193  1  0.04841698  0.07631410  0.59922086  1
  O2-  O194  1  0.05341940  0.07616636  0.93564968  1
  O2-  O195  1  0.05428817  0.57910230  0.27618748  1
  O2-  O196  1  0.04983694  0.58137212  0.59654201  1
  O2-  O197  1  0.03989977  0.58277406  0.93470306  1
  O2-  O198  1  0.54723296  0.08395946  0.26938800  1
  O2-  O199  1  0.53725612  0.08785529  0.60365834  1
  O2-  O200  1  0.53482976  0.09109477  0.93746861  1
  O2-  O201  1  0.53370854  0.58786113  0.26227160  1
  O2-  O202  1  0.53256497  0.58383950  0.60004528  1
  O2-  O203  1  0.54077201  0.58109154  0.92948907  1
  O2-  O204  1  0.16262136  0.20517058  0.27216368  1
  O2-  O205  1  0.16914565  0.20879473  0.59377520  1
  O2-  O206  1  0.16927989  0.20981806  0.93387103  1
  O2-  O207  1  0.16682507  0.70580936  0.27085028  1
  O2-  O208  1  0.16957264  0.71289704  0.59950473  1
  O2-  O209  1  0.16506979  0.71047904  0.93447422  1
  O2-  O210  1  0.66672371  0.20496203  0.27087222  1
  O2-  O211  1  0.66228601  0.20170695  0.60750373  1
  O2-  O212  1  0.66085250  0.20444814  0.93739712  1
  O2-  O213  1  0.66849632  0.70744860  0.26559966  1
  O2-  O214  1  0.66894657  0.70673971  0.59794397  1
  O2-  O215  1  0.67301494  0.70401464  0.92964413  1
  O2-  O216  1  0.08512985  0.46065007  0.06926834  1
  O2-  O217  1  0.08648981  0.44806257  0.39839744  1
  O2-  O218  1  0.08099394  0.44742914  0.72238591  1
  O2-  O219  1  0.08852147  0.95123366  0.06226884  1
  O2-  O220  1  0.08815836  0.96267295  0.40429809  1
  O2-  O221  1  0.08872306  0.95375538  0.73188880  1
  O2-  O222  1  0.57892067  0.45240559  0.06111363  1
  O2-  O223  1  0.57688869  0.45971133  0.39540069  1
  O2-  O224  1  0.58331596  0.46147966  0.73701022  1
  O2-  O225  1  0.57992202  0.96184863  0.06919281  1
  O2-  O226  1  0.58073805  0.94920786  0.39434873  1
  O2-  O227  1  0.57804911  0.95462862  0.73150264  1
  O2-  O228  1  0.21399417  0.33456402  0.06867799  1
  O2-  O229  1  0.21162637  0.33488044  0.39744289  1
  O2-  O230  1  0.21037621  0.33568355  0.72827129  1
  O2-  O231  1  0.21261316  0.83675635  0.06324847  1
  O2-  O232  1  0.21158854  0.83274657  0.40339190  1
  O2-  O233  1  0.21132196  0.83883131  0.73207611  1
  O2-  O234  1  0.69584707  0.33314747  0.06244311  1
  O2-  O235  1  0.70357545  0.33358716  0.39943134  1
  O2-  O236  1  0.70345678  0.33271820  0.73384099  1
  O2-  O237  1  0.70055632  0.82847181  0.06593521  1
  O2-  O238  1  0.70488776  0.83450983  0.39226563  1
  O2-  O239  1  0.70744428  0.82812985  0.73320888  1
  O2-  O240  1  0.45688901  0.41487371  0.25973883  1
  O2-  O241  1  0.45705848  0.41342828  0.60821982  1
  O2-  O242  1  0.44907892  0.41506729  0.93733558  1
  O2-  O243  1  0.44211467  0.92018950  0.27558296  1
  O2-  O244  1  0.44734929  0.91950433  0.60193788  1
  O2-  O245  1  0.44959304  0.92464077  0.93542830  1
  O2-  O246  1  0.95730171  0.41394758  0.27292161  1
  O2-  O247  1  0.95710335  0.41540787  0.58979727  1
  O2-  O248  1  0.96110539  0.41582751  0.93287615  1
  O2-  O249  1  0.97040413  0.91517711  0.26530277  1
  O2-  O250  1  0.95885661  0.91369078  0.60577986  1
  O2-  O251  1  0.95804740  0.91456461  0.93507091  1
  O2-  O252  1  0.33343528  0.28632527  0.26290550  1
  O2-  O253  1  0.33971457  0.29174731  0.60422924  1
  O2-  O254  1  0.33820878  0.28813453  0.93469909  1
  O2-  O255  1  0.33425636  0.79076502  0.27075490  1
  O2-  O256  1  0.33536728  0.79459502  0.60184695  1
  O2-  O257  1  0.33312609  0.79188271  0.92923101  1
  O2-  O258  1  0.83554461  0.29340258  0.27262569  1
  O2-  O259  1  0.82496485  0.29334991  0.59634826  1
  O2-  O260  1  0.82584456  0.29734061  0.93540090  1
  O2-  O261  1  0.83530990  0.79754865  0.26251291  1
  O2-  O262  1  0.83637635  0.79698466  0.60439993  1
  O2-  O263  1  0.83298199  0.80127428  0.93976285  1
  O2-  O264  1  0.41062615  0.04620814  0.06676740  1
  O2-  O265  1  0.41829427  0.05396460  0.39555329  1
  O2-  O266  1  0.41133705  0.04587960  0.73085173  1
  O2-  O267  1  0.41547299  0.54584551  0.06395066  1
  O2-  O268  1  0.40964971  0.53684399  0.39272927  1
  O2-  O269  1  0.41225885  0.53564151  0.73972103  1
  O2-  O270  1  0.92329050  0.04463464  0.06692409  1
  O2-  O271  1  0.91608361  0.03650547  0.40229973  1
  O2-  O272  1  0.92212369  0.04379136  0.73517996  1
  O2-  O273  1  0.91546200  0.53713312  0.06890666  1
  O2-  O274  1  0.92202319  0.54550793  0.40287352  1
  O2-  O275  1  0.91992674  0.54369768  0.72325384  1
  O2-  O276  1  0.29212490  0.16358734  0.06532974  1
  O2-  O277  1  0.29314277  0.16602096  0.39876052  1
  O2-  O278  1  0.29286363  0.16509264  0.72888780  1
  O2-  O279  1  0.29491325  0.66673132  0.06372896  1
  O2-  O280  1  0.29379555  0.65997764  0.39643985  1
  O2-  O281  1  0.29331539  0.66932873  0.73531445  1
  O2-  O282  1  0.78967158  0.16902696  0.06837042  1
  O2-  O283  1  0.79102071  0.16639683  0.40301929  1
  O2-  O284  1  0.79243120  0.16903512  0.73470812  1
  O2-  O285  1  0.79427024  0.66660629  0.06496256  1
  O2-  O286  1  0.79912908  0.67548983  0.39859563  1
  O2-  O287  1  0.80094559  0.66469752  0.72743383  1
