# generated using pymatgen
data_Ca2Al2SiO7
_symmetry_space_group_name_H-M   'P 1'
_cell_length_a   15.45094142
_cell_length_b   15.45101008
_cell_length_c   15.27841667
_cell_angle_alpha   89.99908273
_cell_angle_beta   90.00256905
_cell_angle_gamma   89.99722326
_symmetry_Int_Tables_number   1
_chemical_formula_structural   Ca2Al2SiO7
_chemical_formula_sum   'Ca48 Al48 Si24 O168'
_cell_volume   3647.45691697
_cell_formula_units_Z   24
loop_
 _symmetry_equiv_pos_site_id
 _symmetry_equiv_pos_as_xyz
  1  'x, y, z'
loop_
 _atom_type_symbol
 _atom_type_oxidation_number
  Ca2+  2.0
  Al0+  0.0
  Si0+  0.0
  O2-  -2.0
loop_
 _atom_site_type_symbol
 _atom_site_label
 _atom_site_symmetry_multiplicity
 _atom_site_fract_x
 _atom_site_fract_y
 _atom_site_fract_z
 _atom_site_occupancy
  Ca2+  Ca0  1  0.16751099  0.09088473  0.16914778  1
  Ca2+  Ca1  1  0.17076977  0.08782139  0.50311451  1
  Ca2+  Ca2  1  0.17848444  0.09238052  0.83819414  1
  Ca2+  Ca3  1  0.16679629  0.57637446  0.17582596  1
  Ca2+  Ca4  1  0.16169655  0.57417148  0.50622935  1
  Ca2+  Ca5  1  0.15740255  0.57697682  0.83310264  1
  Ca2+  Ca6  1  0.67490858  0.07749638  0.16921871  1
  Ca2+  Ca7  1  0.66904315  0.07286410  0.50403513  1
  Ca2+  Ca8  1  0.66848807  0.07442190  0.84525773  1
  Ca2+  Ca9  1  0.67449191  0.58939577  0.16899356  1
  Ca2+  Ca10  1  0.66438109  0.58236137  0.50803617  1
  Ca2+  Ca11  1  0.66691466  0.57652543  0.83569030  1
  Ca2+  Ca12  1  0.07982265  0.32344548  0.16218116  1
  Ca2+  Ca13  1  0.08117427  0.33285164  0.49510619  1
  Ca2+  Ca14  1  0.07244828  0.33211651  0.83049966  1
  Ca2+  Ca15  1  0.07625012  0.82828228  0.15972752  1
  Ca2+  Ca16  1  0.08744879  0.81949249  0.49446469  1
  Ca2+  Ca17  1  0.07398176  0.82958273  0.82949972  1
  Ca2+  Ca18  1  0.57739147  0.32548915  0.16132071  1
  Ca2+  Ca19  1  0.56913761  0.34191665  0.49696427  1
  Ca2+  Ca20  1  0.58289258  0.32475192  0.82548369  1
  Ca2+  Ca21  1  0.58546104  0.83714219  0.16252973  1
  Ca2+  Ca22  1  0.59341286  0.82669807  0.49841672  1
  Ca2+  Ca23  1  0.58469347  0.83509994  0.83005753  1
  Ca2+  Ca24  1  0.32653129  0.41292149  0.17522798  1
  Ca2+  Ca25  1  0.32320205  0.40860557  0.50628087  1
  Ca2+  Ca26  1  0.32845511  0.41249889  0.83195882  1
  Ca2+  Ca27  1  0.33822479  0.92183358  0.16379639  1
  Ca2+  Ca28  1  0.33223476  0.92556198  0.50707064  1
  Ca2+  Ca29  1  0.33603207  0.92638335  0.84102685  1
  Ca2+  Ca30  1  0.83741596  0.41899475  0.16460749  1
  Ca2+  Ca31  1  0.82721551  0.41691155  0.50942112  1
  Ca2+  Ca32  1  0.83527047  0.41853126  0.83784526  1
  Ca2+  Ca33  1  0.82911114  0.92377098  0.17063667  1
  Ca2+  Ca34  1  0.82652935  0.92126828  0.50113707  1
  Ca2+  Ca35  1  0.82333592  0.91790387  0.84443647  1
  Ca2+  Ca36  1  0.42095229  0.16799663  0.15990061  1
  Ca2+  Ca37  1  0.41202363  0.17584968  0.49977391  1
  Ca2+  Ca38  1  0.42084235  0.16299333  0.83026762  1
  Ca2+  Ca39  1  0.42575695  0.67396999  0.16173728  1
  Ca2+  Ca40  1  0.43168690  0.66332407  0.49559907  1
  Ca2+  Ca41  1  0.42235361  0.67585528  0.82756718  1
  Ca2+  Ca42  1  0.92289709  0.16327886  0.15677311  1
  Ca2+  Ca43  1  0.91782658  0.17179156  0.49359369  1
  Ca2+  Ca44  1  0.91407348  0.17371826  0.83244110  1
  Ca2+  Ca45  1  0.91862290  0.66994129  0.15997922  1
  Ca2+  Ca46  1  0.92757984  0.66492062  0.49786927  1
  Ca2+  Ca47  1  0.91404875  0.67001888  0.83243317  1
  Al0+  Al48  1  0.00204441  -0.00241901  -0.00805089  1
  Al0+  Al49  1  0.00121782  0.00066907  0.33615124  1
  Al0+  Al50  1  0.00033303  0.00032314  0.66567024  1
  Al0+  Al51  1  -0.00028809  0.49804898  0.00312566  1
  Al0+  Al52  1  0.00025558  0.49956412  0.33354286  1
  Al0+  Al53  1  -0.00035853  0.49949558  0.66331319  1
  Al0+  Al54  1  0.49792142  0.00019047  0.00124355  1
  Al0+  Al55  1  0.50050172  0.00019347  0.33981336  1
  Al0+  Al56  1  0.50037247  0.00024710  0.67233001  1
  Al0+  Al57  1  0.49840897  0.50033920  0.00138443  1
  Al0+  Al58  1  0.49964863  0.50256907  0.32121387  1
  Al0+  Al59  1  0.49930825  0.50027330  0.66506203  1
  Al0+  Al60  1  0.24945430  0.25053616  0.00207952  1
  Al0+  Al61  1  0.24822176  0.25176606  0.32979845  1
  Al0+  Al62  1  0.25008234  0.25078577  0.67322485  1
  Al0+  Al63  1  0.25237794  0.74890816  -0.00379984  1
  Al0+  Al64  1  0.25254959  0.74975392  0.32945936  1
  Al0+  Al65  1  0.25003363  0.75060597  0.66227204  1
  Al0+  Al66  1  0.74849374  0.24974013  -0.00317306  1
  Al0+  Al67  1  0.74857668  0.25147114  0.33789878  1
  Al0+  Al68  1  0.74983011  0.24974385  0.66423989  1
  Al0+  Al69  1  0.75086243  0.74671748  0.00383988  1
  Al0+  Al70  1  0.75098560  0.74958137  0.33433691  1
  Al0+  Al71  1  0.75072313  0.75139080  0.66624082  1
  Al0+  Al72  1  0.57039880  0.68071858  0.65489015  1
  Al0+  Al73  1  0.92891817  0.32139852  0.98541963  1
  Al0+  Al74  1  0.92796818  0.81998052  0.98743298  1
  Al0+  Al75  1  0.43025917  0.82052746  0.98588457  1
  Al0+  Al76  1  0.92812341  0.32016951  0.65115460  1
  Al0+  Al77  1  0.68201327  0.92909961  0.68283529  1
  Al0+  Al78  1  0.67902138  0.92858474  0.35051515  1
  Al0+  Al79  1  0.07217398  0.67720311  0.31859626  1
  Al0+  Al80  1  0.07069531  0.67997641  0.65327475  1
  Al0+  Al81  1  0.18066155  0.43032492  0.34758368  1
  Al0+  Al82  1  0.67650900  0.42895509  0.67876276  1
  Al0+  Al83  1  0.17809068  0.43071520  0.68202606  1
  Al0+  Al84  1  0.67848509  0.92829078  0.01601716  1
  Al0+  Al85  1  0.57266038  0.68066512  0.31762911  1
  Al0+  Al86  1  0.07281421  0.17717503  0.98309299  1
  Al0+  Al87  1  0.56928057  0.17973375  0.98774852  1
  Al0+  Al88  1  0.82382840  0.07337961  0.34949783  1
  Al0+  Al89  1  0.06888485  0.17946312  0.32082907  1
  Al0+  Al90  1  0.42952940  0.31925591  0.65473692  1
  Al0+  Al91  1  0.31829444  0.07020924  0.68058478  1
  Al0+  Al92  1  0.82032693  0.56836190  0.01348845  1
  Al0+  Al93  1  0.31865352  0.07096926  0.01580531  1
  Al0+  Al94  1  0.82328976  0.07228310  0.01304049  1
  Al0+  Al95  1  0.42852281  0.31984502  0.31890962  1
  Si0+  Si96  1  0.42831679  0.82506164  0.31718468  1
  Si0+  Si97  1  0.93030822  0.82073992  0.31780796  1
  Si0+  Si98  1  0.32253543  0.57348033  0.68267129  1
  Si0+  Si99  1  0.57204648  0.17686203  0.31875696  1
  Si0+  Si100  1  0.57281861  0.67672588  0.98250294  1
  Si0+  Si101  1  0.18025516  0.43094336  0.01653948  1
  Si0+  Si102  1  0.82184409  0.57070423  0.68194628  1
  Si0+  Si103  1  0.17853820  0.92461742  0.01558171  1
  Si0+  Si104  1  0.82099207  0.57019649  0.34967048  1
  Si0+  Si105  1  0.92747778  0.82345910  0.64822589  1
  Si0+  Si106  1  0.67645778  0.43054102  0.34664949  1
  Si0+  Si107  1  0.07264640  0.17920598  0.65032510  1
  Si0+  Si108  1  0.57206308  0.17575036  0.64880392  1
  Si0+  Si109  1  0.92459175  0.32224473  0.31709929  1
  Si0+  Si110  1  0.82399901  0.07304623  0.68414372  1
  Si0+  Si111  1  0.42715812  0.32378728  0.98283909  1
  Si0+  Si112  1  0.07242576  0.67695518  0.98439061  1
  Si0+  Si113  1  0.67493344  0.42683733  0.01737641  1
  Si0+  Si114  1  0.42833908  0.82446498  0.64918449  1
  Si0+  Si115  1  0.31981709  0.07141125  0.34790433  1
  Si0+  Si116  1  0.17901996  0.92670501  0.34720269  1
  Si0+  Si117  1  0.17681869  0.92470946  0.68303824  1
  Si0+  Si118  1  0.32356706  0.57341543  0.34942809  1
  Si0+  Si119  1  0.32235980  0.57312665  0.01569244  1
  O2-  O120  1  0.24211994  -0.00269303  0.06209525  1
  O2-  O121  1  0.24989196  -0.00151682  0.38921921  1
  O2-  O122  1  0.24419801  -0.00573017  0.72691439  1
  O2-  O123  1  0.25253504  0.50127377  0.05825940  1
  O2-  O124  1  0.25441221  0.50624476  0.39506127  1
  O2-  O125  1  0.25110399  0.50810040  0.72831660  1
  O2-  O126  1  0.75260875  -0.00065498  0.06405496  1
  O2-  O127  1  0.75008953  0.00252056  0.39916763  1
  O2-  O128  1  0.75620768  0.00405813  0.72850098  1
  O2-  O129  1  0.74467262  0.49483143  0.06152682  1
  O2-  O130  1  0.74899736  0.49951964  0.39037085  1
  O2-  O131  1  0.75249247  0.50230245  0.72543453  1
  O2-  O132  1  -0.01050228  0.24938427  0.27466019  1
  O2-  O133  1  0.00117882  0.24378755  0.60462865  1
  O2-  O134  1  -0.00310627  0.24589252  0.93459665  1
  O2-  O135  1  -0.00059855  0.75290638  0.27223295  1
  O2-  O136  1  -0.00048656  0.75745129  0.60488729  1
  O2-  O137  1  0.00406490  0.74582960  0.94083041  1
  O2-  O138  1  0.50377906  0.24557426  0.27364753  1
  O2-  O139  1  0.50570834  0.24732926  0.60499823  1
  O2-  O140  1  0.49697477  0.25662188  0.93954312  1
  O2-  O141  1  0.49940821  0.75814591  0.27414931  1
  O2-  O142  1  0.49650049  0.75532822  0.60529730  1
  O2-  O143  1  0.50640891  0.74753994  0.93884928  1
  O2-  O144  1  0.07447503  0.18158352  0.09704359  1
  O2-  O145  1  0.07221715  0.18267834  0.43409341  1
  O2-  O146  1  0.07257029  0.18083481  0.75546302  1
  O2-  O147  1  0.07290325  0.67735920  0.09023125  1
  O2-  O148  1  0.07030628  0.67757965  0.43178380  1
  O2-  O149  1  0.06805754  0.68067729  0.76646912  1
  O2-  O150  1  0.56703130  0.18191678  0.10137049  1
  O2-  O151  1  0.56996754  0.17710057  0.42441386  1
  O2-  O152  1  0.57028671  0.17548666  0.75441976  1
  O2-  O153  1  0.56995149  0.67505377  0.08822568  1
  O2-  O154  1  0.57123780  0.67805657  0.43094025  1
  O2-  O155  1  0.56854618  0.68061917  0.76773480  1
  O2-  O156  1  0.18238891  0.43112741  0.23422655  1
  O2-  O157  1  0.17938119  0.43001934  0.56882918  1
  O2-  O158  1  0.17982806  0.43280465  0.91135896  1
  O2-  O159  1  0.17834501  0.92523238  0.24242881  1
  O2-  O160  1  0.17876492  0.92366125  0.57685774  1
  O2-  O161  1  0.18303638  0.92036183  0.91022800  1
  O2-  O162  1  0.67797869  0.43024327  0.24160945  1
  O2-  O163  1  0.67603907  0.43333255  0.56502640  1
  O2-  O164  1  0.67160536  0.42959962  0.91184674  1
  O2-  O165  1  0.67914992  0.92967382  0.23745410  1
  O2-  O166  1  0.68370195  0.92869661  0.56972127  1
  O2-  O167  1  0.67945697  0.92871761  0.90221388  1
  O2-  O168  1  0.42764631  0.32366321  0.08882947  1
  O2-  O169  1  0.42749369  0.31898187  0.43218732  1
  O2-  O170  1  0.43034098  0.31775150  0.76762542  1
  O2-  O171  1  0.42873845  0.81726325  0.09919532  1
  O2-  O172  1  0.42469502  0.82468594  0.42269315  1
  O2-  O173  1  0.42781781  0.82327635  0.75468437  1
  O2-  O174  1  0.93410634  0.32549149  0.09911204  1
  O2-  O175  1  0.92593154  0.32405287  0.42286540  1
  O2-  O176  1  0.92917924  0.32158670  0.76381737  1
  O2-  O177  1  0.93056800  0.81746200  0.10076471  1
  O2-  O178  1  0.93219416  0.81799585  0.42369865  1
  O2-  O179  1  0.92675303  0.82159053  0.75374782  1
  O2-  O180  1  0.32070039  0.07029267  0.24302291  1
  O2-  O181  1  0.31581326  0.07028312  0.56648846  1
  O2-  O182  1  0.31898622  0.07000367  0.90284715  1
  O2-  O183  1  0.32163912  0.57283067  0.24347596  1
  O2-  O184  1  0.32324720  0.57217150  0.57703909  1
  O2-  O185  1  0.32333299  0.57354747  0.91075426  1
  O2-  O186  1  0.82505181  0.07172589  0.23622000  1
  O2-  O187  1  0.82411221  0.07140686  0.57833961  1
  O2-  O188  1  0.81925649  0.07122876  0.89935990  1
  O2-  O189  1  0.82166285  0.57032707  0.24456026  1
  O2-  O190  1  0.82176300  0.56998224  0.57580072  1
  O2-  O191  1  0.81993986  0.56812235  0.90036638  1
  O2-  O192  1  0.04619025  0.07995673  0.26848333  1
  O2-  O193  1  0.05301463  0.08278688  0.60580069  1
  O2-  O194  1  0.05554104  0.07669842  0.93052279  1
  O2-  O195  1  0.03922568  0.58141874  0.26459642  1
  O2-  O196  1  0.03677401  0.58535051  0.59750962  1
  O2-  O197  1  0.04411964  0.58387516  0.93968719  1
  O2-  O198  1  0.54481513  0.08325010  0.27395258  1
  O2-  O199  1  0.54142308  0.08335165  0.60272380  1
  O2-  O200  1  0.53512694  0.08481480  0.93331146  1
  O2-  O201  1  0.54034578  0.58748802  0.25786664  1
  O2-  O202  1  0.53814019  0.58524164  0.59879221  1
  O2-  O203  1  0.54329013  0.58340451  0.93706745  1
  O2-  O204  1  0.16307236  0.21440765  0.26468817  1
  O2-  O205  1  0.16538534  0.20892921  0.60521486  1
  O2-  O206  1  0.16992080  0.21325822  0.93138321  1
  O2-  O207  1  0.17001698  0.70560359  0.26575240  1
  O2-  O208  1  0.16812091  0.70719199  0.59728676  1
  O2-  O209  1  0.16605536  0.70043028  0.93773367  1
  O2-  O210  1  0.66576002  0.20397515  0.27373051  1
  O2-  O211  1  0.66656377  0.19731997  0.60368800  1
  O2-  O212  1  0.66489727  0.20798734  0.93099939  1
  O2-  O213  1  0.67058153  0.70871520  0.26506758  1
  O2-  O214  1  0.66764445  0.70995118  0.60038704  1
  O2-  O215  1  0.66764470  0.69775929  0.93879603  1
  O2-  O216  1  0.08983482  0.45976343  0.06556781  1
  O2-  O217  1  0.08295202  0.45996877  0.40052016  1
  O2-  O218  1  0.08161934  0.46368295  0.73525878  1
  O2-  O219  1  0.08277030  0.94474314  0.05851252  1
  O2-  O220  1  0.08864709  0.95299046  0.39777274  1
  O2-  O221  1  0.08162070  0.94799109  0.72699175  1
  O2-  O222  1  0.58129945  0.45333691  0.06466269  1
  O2-  O223  1  0.58403763  0.46236228  0.39074946  1
  O2-  O224  1  0.58133177  0.46114959  0.73455909  1
  O2-  O225  1  0.58034847  0.95826060  0.06783950  1
  O2-  O226  1  0.58003063  0.95472341  0.40539347  1
  O2-  O227  1  0.58414248  0.95749796  0.73486911  1
  O2-  O228  1  0.20879768  0.33972966  0.06447950  1
  O2-  O229  1  0.21354289  0.33395813  0.40116933  1
  O2-  O230  1  0.21135106  0.33654873  0.73810254  1
  O2-  O231  1  0.20868027  0.83210893  0.06330506  1
  O2-  O232  1  0.20934260  0.83516971  0.39543190  1
  O2-  O233  1  0.20199982  0.83104839  0.72924713  1
  O2-  O234  1  0.69988130  0.33342567  0.06320846  1
  O2-  O235  1  0.69901997  0.33851544  0.39618932  1
  O2-  O236  1  0.70491008  0.33067061  0.73027528  1
  O2-  O237  1  0.70453804  0.82847083  0.06681961  1
  O2-  O238  1  0.71112409  0.83018410  0.40279621  1
  O2-  O239  1  0.71254187  0.83197994  0.73619060  1
  O2-  O240  1  0.45741051  0.41558583  0.26220819  1
  O2-  O241  1  0.45750134  0.41628053  0.59963761  1
  O2-  O242  1  0.44941154  0.41902451  0.93819719  1
  O2-  O243  1  0.45317601  0.91963503  0.27241378  1
  O2-  O244  1  0.45464728  0.91823735  0.60398498  1
  O2-  O245  1  0.45770402  0.91742220  0.93233434  1
  O2-  O246  1  0.95459265  0.41459458  0.27115115  1
  O2-  O247  1  0.95960710  0.41614983  0.59644106  1
  O2-  O248  1  0.96327965  0.41854831  0.93172760  1
  O2-  O249  1  0.95644507  0.91459668  0.27371785  1
  O2-  O250  1  0.95054771  0.91817689  0.60271884  1
  O2-  O251  1  0.95753446  0.91369369  0.92785822  1
  O2-  O252  1  0.33368559  0.28740895  0.26332562  1
  O2-  O253  1  0.33282216  0.28536102  0.60170076  1
  O2-  O254  1  0.33343511  0.29761292  0.93883887  1
  O2-  O255  1  0.33635607  0.79822924  0.26793417  1
  O2-  O256  1  0.33416186  0.80137653  0.60258536  1
  O2-  O257  1  0.33515628  0.78720640  0.92923222  1
  O2-  O258  1  0.82863824  0.30299438  0.27315268  1
  O2-  O259  1  0.83077803  0.29202571  0.59593427  1
  O2-  O260  1  0.82826005  0.30092835  0.93418486  1
  O2-  O261  1  0.83749068  0.79304640  0.27249563  1
  O2-  O262  1  0.83619163  0.79360363  0.60031015  1
  O2-  O263  1  0.83270184  0.78455117  0.93327345  1
  O2-  O264  1  0.41338070  0.03718596  0.07123038  1
  O2-  O265  1  0.41098434  0.04593900  0.39795064  1
  O2-  O266  1  0.41487250  0.04046969  0.73470696  1
  O2-  O267  1  0.41429692  0.54677236  0.06469768  1
  O2-  O268  1  0.41851688  0.54624674  0.39169730  1
  O2-  O269  1  0.41407289  0.54477653  0.73078482  1
  O2-  O270  1  0.92427414  0.04373386  0.06104240  1
  O2-  O271  1  0.92158235  0.04329093  0.40466167  1
  O2-  O272  1  0.91931058  0.04995600  0.72827085  1
  O2-  O273  1  0.91662949  0.53786244  0.07007913  1
  O2-  O274  1  0.91239238  0.54150500  0.39760469  1
  O2-  O275  1  0.91447686  0.54386592  0.72824758  1
  O2-  O276  1  0.29043033  0.16870038  0.07012489  1
  O2-  O277  1  0.28782308  0.16224286  0.39442361  1
  O2-  O278  1  0.28749860  0.16480734  0.73756846  1
  O2-  O279  1  0.29375692  0.66417669  0.06435356  1
  O2-  O280  1  0.30149153  0.66836538  0.39466361  1
  O2-  O281  1  0.29960155  0.66916334  0.72647606  1
  O2-  O282  1  0.79496764  0.17146778  0.06509265  1
  O2-  O283  1  0.79570854  0.17248316  0.40287767  1
  O2-  O284  1  0.79838923  0.16729102  0.72774904  1
  O2-  O285  1  0.79025828  0.66305061  0.07179151  1
  O2-  O286  1  0.79435071  0.66175186  0.39774507  1
  O2-  O287  1  0.79699220  0.66481078  0.72670123  1
