# generated using pymatgen
data_Ca2Al2SiO7
_symmetry_space_group_name_H-M   'P 1'
_cell_length_a   15.46219481
_cell_length_b   15.46213381
_cell_length_c   15.28727498
_cell_angle_alpha   89.98763403
_cell_angle_beta   90.00298783
_cell_angle_gamma   90.02076493
_symmetry_Int_Tables_number   1
_chemical_formula_structural   Ca2Al2SiO7
_chemical_formula_sum   'Ca48 Al48 Si24 O168'
_cell_volume   3654.85882466
_cell_formula_units_Z   24
loop_
 _symmetry_equiv_pos_site_id
 _symmetry_equiv_pos_as_xyz
  1  'x, y, z'
loop_
 _atom_type_symbol
 _atom_type_oxidation_number
  Ca2+  2.0
  Al0+  0.0
  Si0+  0.0
  O2-  -2.0
loop_
 _atom_site_type_symbol
 _atom_site_label
 _atom_site_symmetry_multiplicity
 _atom_site_fract_x
 _atom_site_fract_y
 _atom_site_fract_z
 _atom_site_occupancy
  Ca2+  Ca0  1  0.16978810  0.08311275  0.17557347  1
  Ca2+  Ca1  1  0.16483639  0.07853107  0.49403796  1
  Ca2+  Ca2  1  0.17307995  0.08278808  0.84354784  1
  Ca2+  Ca3  1  0.16947266  0.59207681  0.17496256  1
  Ca2+  Ca4  1  0.16946093  0.58654824  0.50339613  1
  Ca2+  Ca5  1  0.16400392  0.58016571  0.83741624  1
  Ca2+  Ca6  1  0.67935741  0.07324816  0.16951842  1
  Ca2+  Ca7  1  0.68032704  0.07756630  0.50639578  1
  Ca2+  Ca8  1  0.67636487  0.07201978  0.83998815  1
  Ca2+  Ca9  1  0.66356081  0.57866076  0.17532422  1
  Ca2+  Ca10  1  0.67429178  0.58146553  0.49981716  1
  Ca2+  Ca11  1  0.66682535  0.57823331  0.83757703  1
  Ca2+  Ca12  1  0.08186963  0.32066470  0.16167497  1
  Ca2+  Ca13  1  0.08304249  0.32821266  0.49447929  1
  Ca2+  Ca14  1  0.08294908  0.32773911  0.82873083  1
  Ca2+  Ca15  1  0.07526132  0.82941005  0.16618317  1
  Ca2+  Ca16  1  0.07581419  0.82926294  0.48599531  1
  Ca2+  Ca17  1  0.07572727  0.83029378  0.83556254  1
  Ca2+  Ca18  1  0.58557704  0.33646920  0.16215728  1
  Ca2+  Ca19  1  0.58960832  0.33657959  0.49456740  1
  Ca2+  Ca20  1  0.58924583  0.33460329  0.83026386  1
  Ca2+  Ca21  1  0.58886584  0.82118949  0.16071712  1
  Ca2+  Ca22  1  0.58084430  0.83221908  0.49633441  1
  Ca2+  Ca23  1  0.58536608  0.83550203  0.82780185  1
  Ca2+  Ca24  1  0.32925975  0.42462869  0.17365392  1
  Ca2+  Ca25  1  0.32578824  0.42486159  0.49921704  1
  Ca2+  Ca26  1  0.32613296  0.41537538  0.83469993  1
  Ca2+  Ca27  1  0.32453208  0.92675898  0.17470888  1
  Ca2+  Ca28  1  0.32828965  0.91485936  0.50062763  1
  Ca2+  Ca29  1  0.33550132  0.91956306  0.83975634  1
  Ca2+  Ca30  1  0.82182106  0.42460728  0.17410826  1
  Ca2+  Ca31  1  0.82701072  0.42893220  0.50453786  1
  Ca2+  Ca32  1  0.82417971  0.42288049  0.83567375  1
  Ca2+  Ca33  1  0.84256948  0.91958318  0.16856887  1
  Ca2+  Ca34  1  0.83605632  0.92411967  0.50306329  1
  Ca2+  Ca35  1  0.82782412  0.92152766  0.83974083  1
  Ca2+  Ca36  1  0.41298815  0.16565705  0.16241607  1
  Ca2+  Ca37  1  0.41842498  0.16897947  0.49294672  1
  Ca2+  Ca38  1  0.41915035  0.16457404  0.83010337  1
  Ca2+  Ca39  1  0.42608241  0.66225892  0.16431541  1
  Ca2+  Ca40  1  0.42140121  0.67046160  0.49206724  1
  Ca2+  Ca41  1  0.42653492  0.67487075  0.82901236  1
  Ca2+  Ca42  1  0.92425066  0.15739154  0.16288702  1
  Ca2+  Ca43  1  0.91630181  0.16593178  0.48992900  1
  Ca2+  Ca44  1  0.91620097  0.16022195  0.83259820  1
  Ca2+  Ca45  1  0.91810044  0.67678539  0.16213408  1
  Ca2+  Ca46  1  0.91571791  0.66989276  0.48796233  1
  Ca2+  Ca47  1  0.91424802  0.66913346  0.83224936  1
  Al0+  Al48  1  0.00218696  -0.00143118  -0.00726183  1
  Al0+  Al49  1  0.00143926  0.00032307  0.33403878  1
  Al0+  Al50  1  0.00390379  -0.00139296  0.66918897  1
  Al0+  Al51  1  -0.00081335  0.49665737  -0.00257355  1
  Al0+  Al52  1  -0.00143150  0.49777969  0.33159424  1
  Al0+  Al53  1  0.00129648  0.49742162  0.67384183  1
  Al0+  Al54  1  0.50094068  0.00135944  0.00862624  1
  Al0+  Al55  1  0.49971264  0.00248700  0.33516953  1
  Al0+  Al56  1  0.49982649  0.00157701  0.66259341  1
  Al0+  Al57  1  0.49743439  0.50008444  -0.00324342  1
  Al0+  Al58  1  0.49580205  0.49939739  0.33807270  1
  Al0+  Al59  1  0.49796217  0.50047211  0.66781983  1
  Al0+  Al60  1  0.24981513  0.25127618  -0.00102016  1
  Al0+  Al61  1  0.25146033  0.25084271  0.33312696  1
  Al0+  Al62  1  0.25083999  0.25023580  0.66749218  1
  Al0+  Al63  1  0.25113789  0.74958801  -0.00374518  1
  Al0+  Al64  1  0.25026148  0.75209175  0.33838605  1
  Al0+  Al65  1  0.25131686  0.75112926  0.66485356  1
  Al0+  Al66  1  0.74969242  0.24990975  0.00711700  1
  Al0+  Al67  1  0.74828429  0.24810269  0.33779876  1
  Al0+  Al68  1  0.75269573  0.25119570  0.67116494  1
  Al0+  Al69  1  0.74998464  0.74821532  -0.00749019  1
  Al0+  Al70  1  0.74773060  0.74951042  0.32811261  1
  Al0+  Al71  1  0.75075287  0.75051361  0.67030655  1
  Al0+  Al72  1  0.67713863  0.42928223  0.34816584  1
  Al0+  Al73  1  0.92900987  0.82064811  0.98158014  1
  Al0+  Al74  1  0.06977525  0.18165370  0.32072793  1
  Al0+  Al75  1  0.07268277  0.67597932  0.32149348  1
  Al0+  Al76  1  0.67870954  0.92528291  0.01620431  1
  Al0+  Al77  1  0.92769070  0.82079949  0.31962876  1
  Al0+  Al78  1  0.67699550  0.43124782  0.01473375  1
  Al0+  Al79  1  0.42947978  0.82300683  0.65190056  1
  Al0+  Al80  1  0.82240270  0.57236259  0.68252019  1
  Al0+  Al81  1  0.57042044  0.67746147  0.98505744  1
  Al0+  Al82  1  0.32071561  0.07266164  0.01320704  1
  Al0+  Al83  1  0.82172600  0.06822836  0.34662385  1
  Al0+  Al84  1  0.82327411  0.06892291  0.01645561  1
  Al0+  Al85  1  0.82468206  0.07105383  0.68196502  1
  Al0+  Al86  1  0.56740915  0.67942808  0.32100170  1
  Al0+  Al87  1  0.67737567  0.93051586  0.67988785  1
  Al0+  Al88  1  0.32219808  0.07374733  0.35045459  1
  Al0+  Al89  1  0.17947619  0.93014439  0.34837700  1
  Al0+  Al90  1  0.31839615  0.57231290  0.34598982  1
  Al0+  Al91  1  0.82179539  0.57291784  0.34530622  1
  Al0+  Al92  1  0.67722216  0.43000122  0.68227540  1
  Al0+  Al93  1  0.18085513  0.42860031  0.68025330  1
  Al0+  Al94  1  0.07311316  0.67666835  0.98395028  1
  Al0+  Al95  1  0.07134232  0.17973002  0.98507187  1
  Si0+  Si96  1  0.42997044  0.32010075  0.31783908  1
  Si0+  Si97  1  0.07332334  0.17854944  0.65060076  1
  Si0+  Si98  1  0.17996452  0.92662117  0.01533129  1
  Si0+  Si99  1  0.31851044  0.57037563  0.01328629  1
  Si0+  Si100  1  0.42712694  0.32105399  0.65043213  1
  Si0+  Si101  1  0.82323472  0.57092047  0.01670199  1
  Si0+  Si102  1  0.92605953  0.32028392  0.98212884  1
  Si0+  Si103  1  0.93021887  0.32039244  0.65160770  1
  Si0+  Si104  1  0.42732240  0.82509800  0.31581045  1
  Si0+  Si105  1  0.32008901  0.07101887  0.68083362  1
  Si0+  Si106  1  0.18068897  0.92725535  0.68363825  1
  Si0+  Si107  1  0.42884743  0.32089407  0.98364391  1
  Si0+  Si108  1  0.92395000  0.32160092  0.31657402  1
  Si0+  Si109  1  0.17695785  0.42712949  0.34709704  1
  Si0+  Si110  1  0.57203109  0.18169077  0.65212826  1
  Si0+  Si111  1  0.57222597  0.67756125  0.64881526  1
  Si0+  Si112  1  0.17789946  0.42820277  0.01537103  1
  Si0+  Si113  1  0.67685710  0.92665827  0.34928030  1
  Si0+  Si114  1  0.43023421  0.82353065  0.98584946  1
  Si0+  Si115  1  0.32069595  0.57403612  0.68533861  1
  Si0+  Si116  1  0.07028346  0.67735968  0.65260250  1
  Si0+  Si117  1  0.57233233  0.17834057  0.31739206  1
  Si0+  Si118  1  0.57103723  0.17933164  0.98649660  1
  Si0+  Si119  1  0.93025843  0.82070629  0.65111965  1
  O2-  O120  1  0.24599288  -0.00162616  0.05858964  1
  O2-  O121  1  0.25308791  0.00002554  0.40075453  1
  O2-  O122  1  0.25195969  -0.00127341  0.72491451  1
  O2-  O123  1  0.24243861  0.50513720  0.05650254  1
  O2-  O124  1  0.23622608  0.50438734  0.39101812  1
  O2-  O125  1  0.25285170  0.50458456  0.72959030  1
  O2-  O126  1  0.75507627  -0.00709026  0.06586221  1
  O2-  O127  1  0.74783196  -0.00697819  0.39330763  1
  O2-  O128  1  0.75176371  -0.00041792  0.73017344  1
  O2-  O129  1  0.74980452  0.50713051  0.06071572  1
  O2-  O130  1  0.75086913  0.49994399  0.39612095  1
  O2-  O131  1  0.74620762  0.50412610  0.73242267  1
  O2-  O132  1  -0.00558839  0.25458866  0.27231140  1
  O2-  O133  1  -0.00169350  0.24580324  0.60934984  1
  O2-  O134  1  -0.00611576  0.25064668  0.93678965  1
  O2-  O135  1  -0.00259850  0.74451877  0.27214886  1
  O2-  O136  1  -0.00248190  0.74559465  0.60961623  1
  O2-  O137  1  -0.00061522  0.74545375  0.93210321  1
  O2-  O138  1  0.50117378  0.24980059  0.27520313  1
  O2-  O139  1  0.50431103  0.25650392  0.60917176  1
  O2-  O140  1  0.50004206  0.24996633  0.94182140  1
  O2-  O141  1  0.49527424  0.75599316  0.27177478  1
  O2-  O142  1  0.50451617  0.74830239  0.60601270  1
  O2-  O143  1  0.50152494  0.75866908  0.93983764  1
  O2-  O144  1  0.07461921  0.18323954  0.09785759  1
  O2-  O145  1  0.06982438  0.18430189  0.43444173  1
  O2-  O146  1  0.07696861  0.18105813  0.75563159  1
  O2-  O147  1  0.07574093  0.67844496  0.09681258  1
  O2-  O148  1  0.07235296  0.67839534  0.43580065  1
  O2-  O149  1  0.07182850  0.67997174  0.75755400  1
  O2-  O150  1  0.56878118  0.18170408  0.09151526  1
  O2-  O151  1  0.57160445  0.17951748  0.42284814  1
  O2-  O152  1  0.56782961  0.18073295  0.75743957  1
  O2-  O153  1  0.56400742  0.67296417  0.09792441  1
  O2-  O154  1  0.56579170  0.68002111  0.43415087  1
  O2-  O155  1  0.56844568  0.67584304  0.75452657  1
  O2-  O156  1  0.18303228  0.42221553  0.24164408  1
  O2-  O157  1  0.18284444  0.42784450  0.56726266  1
  O2-  O158  1  0.18276923  0.42512112  0.91017349  1
  O2-  O159  1  0.18044612  0.93179433  0.23474371  1
  O2-  O160  1  0.17937294  0.92772559  0.57918190  1
  O2-  O161  1  0.18441904  0.92689595  0.90891165  1
  O2-  O162  1  0.67587403  0.43047186  0.23449096  1
  O2-  O163  1  0.67939988  0.42888697  0.56925219  1
  O2-  O164  1  0.67727392  0.43133401  0.90179869  1
  O2-  O165  1  0.67453954  0.92949389  0.24406203  1
  O2-  O166  1  0.67724531  0.93307897  0.56621128  1
  O2-  O167  1  0.67468579  0.93198123  0.90272698  1
  O2-  O168  1  0.42717917  0.32233201  0.08868356  1
  O2-  O169  1  0.42843403  0.31950416  0.42311296  1
  O2-  O170  1  0.42300529  0.31701264  0.75565410  1
  O2-  O171  1  0.42691853  0.82027416  0.09095894  1
  O2-  O172  1  0.42964402  0.82431102  0.42172780  1
  O2-  O173  1  0.42866554  0.82212720  0.76536454  1
  O2-  O174  1  0.92917399  0.32242131  0.08754937  1
  O2-  O175  1  0.92517054  0.32029317  0.42258812  1
  O2-  O176  1  0.93199397  0.32032253  0.75658995  1
  O2-  O177  1  0.93214261  0.82106831  0.09489296  1
  O2-  O178  1  0.92935218  0.82178750  0.43401422  1
  O2-  O179  1  0.93393072  0.82241454  0.75576645  1
  O2-  O180  1  0.31955113  0.07485954  0.23697270  1
  O2-  O181  1  0.31844406  0.07368765  0.57649805  1
  O2-  O182  1  0.32100453  0.07229005  0.89919493  1
  O2-  O183  1  0.32110395  0.56724765  0.23255510  1
  O2-  O184  1  0.31946197  0.57345663  0.57977263  1
  O2-  O185  1  0.31932268  0.56733005  0.90815000  1
  O2-  O186  1  0.82106334  0.06907089  0.23409491  1
  O2-  O187  1  0.82468344  0.07066069  0.56814540  1
  O2-  O188  1  0.81930604  0.07068536  0.90286317  1
  O2-  O189  1  0.81996111  0.57136350  0.23187047  1
  O2-  O190  1  0.82430956  0.57088116  0.56911241  1
  O2-  O191  1  0.82426841  0.56618875  0.91102443  1
  O2-  O192  1  0.04122317  0.08507249  0.26735374  1
  O2-  O193  1  0.05060811  0.08418781  0.60617893  1
  O2-  O194  1  0.04809021  0.08251926  0.92940735  1
  O2-  O195  1  0.05414470  0.57435324  0.27037767  1
  O2-  O196  1  0.04758842  0.58255091  0.60912061  1
  O2-  O197  1  0.04835784  0.57542295  0.93336766  1
  O2-  O198  1  0.54391691  0.08701120  0.26949314  1
  O2-  O199  1  0.54006466  0.09268049  0.60212436  1
  O2-  O200  1  0.54113052  0.08771567  0.93953170  1
  O2-  O201  1  0.53104574  0.58294703  0.26897573  1
  O2-  O202  1  0.54313555  0.58425926  0.60344266  1
  O2-  O203  1  0.53047846  0.58446588  0.92846228  1
  O2-  O204  1  0.16670235  0.21419542  0.26756886  1
  O2-  O205  1  0.16355711  0.21160491  0.60275538  1
  O2-  O206  1  0.16693259  0.21572889  0.92986978  1
  O2-  O207  1  0.17137934  0.70776479  0.27018768  1
  O2-  O208  1  0.16245622  0.70692677  0.60663920  1
  O2-  O209  1  0.17157764  0.70604736  0.92888555  1
  O2-  O210  1  0.66364740  0.20606080  0.26939482  1
  O2-  O211  1  0.66542711  0.20702726  0.60643549  1
  O2-  O212  1  0.66269122  0.20837956  0.93970131  1
  O2-  O213  1  0.66326037  0.70624879  0.26429351  1
  O2-  O214  1  0.66713718  0.70183568  0.60528984  1
  O2-  O215  1  0.66798926  0.69898222  0.93004816  1
  O2-  O216  1  0.08331847  0.44658923  0.06001490  1
  O2-  O217  1  0.08019844  0.43983047  0.39019393  1
  O2-  O218  1  0.08556989  0.45496489  0.73773288  1
  O2-  O219  1  0.08543421  0.95034533  0.05713738  1
  O2-  O220  1  0.08388336  0.96288135  0.40439480  1
  O2-  O221  1  0.09043645  0.95617239  0.73290773  1
  O2-  O222  1  0.57771243  0.45917734  0.06542350  1
  O2-  O223  1  0.57895595  0.45661012  0.40139043  1
  O2-  O224  1  0.57568199  0.45215273  0.73290280  1
  O2-  O225  1  0.58282327  0.95758823  0.07200550  1
  O2-  O226  1  0.58444934  0.95592036  0.39600342  1
  O2-  O227  1  0.57910149  0.96226830  0.73217033  1
  O2-  O228  1  0.21351908  0.33994104  0.06435764  1
  O2-  O229  1  0.21431856  0.33933261  0.39751192  1
  O2-  O230  1  0.21643023  0.33356758  0.73580633  1
  O2-  O231  1  0.20889945  0.83405483  0.06123637  1
  O2-  O232  1  0.20696860  0.83318573  0.40493606  1
  O2-  O233  1  0.20941826  0.83593617  0.73140150  1
  O2-  O234  1  0.70654639  0.33477028  0.06901443  1
  O2-  O235  1  0.70344088  0.33017544  0.40036030  1
  O2-  O236  1  0.70785726  0.33235747  0.73555466  1
  O2-  O237  1  0.70067849  0.82288154  0.06247221  1
  O2-  O238  1  0.69808253  0.83196987  0.39346011  1
  O2-  O239  1  0.70105671  0.83105236  0.73125298  1
  O2-  O240  1  0.45638112  0.41187502  0.26988800  1
  O2-  O241  1  0.44684056  0.41608149  0.60581017  1
  O2-  O242  1  0.45547679  0.41148588  0.93333088  1
  O2-  O243  1  0.45148166  0.91995276  0.27144028  1
  O2-  O244  1  0.45678362  0.92008283  0.59627138  1
  O2-  O245  1  0.45257705  0.91947739  0.94215790  1
  O2-  O246  1  0.94681050  0.41517165  0.26947243  1
  O2-  O247  1  0.96310180  0.41110484  0.60447555  1
  O2-  O248  1  0.95363403  0.41230699  0.93346508  1
  O2-  O249  1  0.96251240  0.91721420  0.26695933  1
  O2-  O250  1  0.96378820  0.91163604  0.60432360  1
  O2-  O251  1  0.96168039  0.91657734  0.92517640  1
  O2-  O252  1  0.33916488  0.29197647  0.26814643  1
  O2-  O253  1  0.33848748  0.28625431  0.60074656  1
  O2-  O254  1  0.33787980  0.29200622  0.93446339  1
  O2-  O255  1  0.33309824  0.80008604  0.27225406  1
  O2-  O256  1  0.33294090  0.79053030  0.59749105  1
  O2-  O257  1  0.33855142  0.79487953  0.93642102  1
  O2-  O258  1  0.83067929  0.29385320  0.27140025  1
  O2-  O259  1  0.83748858  0.29579006  0.60429026  1
  O2-  O260  1  0.83151194  0.29470049  0.93782961  1
  O2-  O261  1  0.82896106  0.79760832  0.26544369  1
  O2-  O262  1  0.83613279  0.79843959  0.60615823  1
  O2-  O263  1  0.83053971  0.79487946  0.92727091  1
  O2-  O264  1  0.41630870  0.04555298  0.06947614  1
  O2-  O265  1  0.42199335  0.04897985  0.40250578  1
  O2-  O266  1  0.41306200  0.04589812  0.72679894  1
  O2-  O267  1  0.40735126  0.53516466  0.06137641  1
  O2-  O268  1  0.40911187  0.53256880  0.40498103  1
  O2-  O269  1  0.41391804  0.54757966  0.73099778  1
  O2-  O270  1  0.92510863  0.04318581  0.06339231  1
  O2-  O271  1  0.91788800  0.04043915  0.40181719  1
  O2-  O272  1  0.92375503  0.04279650  0.73355173  1
  O2-  O273  1  0.91564417  0.54043839  0.06249330  1
  O2-  O274  1  0.92085664  0.54504129  0.39873547  1
  O2-  O275  1  0.91843739  0.53924846  0.73745033  1
  O2-  O276  1  0.29057991  0.17013100  0.06570809  1
  O2-  O277  1  0.29245044  0.17200745  0.40335855  1
  O2-  O278  1  0.29064072  0.16174720  0.72975632  1
  O2-  O279  1  0.29725907  0.66413612  0.05941024  1
  O2-  O280  1  0.29654644  0.66933585  0.40227935  1
  O2-  O281  1  0.29400735  0.66716058  0.73160379  1
  O2-  O282  1  0.79261329  0.16643929  0.06964879  1
  O2-  O283  1  0.78887829  0.16384349  0.40169669  1
  O2-  O284  1  0.79808044  0.16969522  0.73393974  1
  O2-  O285  1  0.80266223  0.66718964  0.05645401  1
  O2-  O286  1  0.79099257  0.67079005  0.39822497  1
  O2-  O287  1  0.79823292  0.67139154  0.73515477  1
