# generated using pymatgen
data_Ca2Al2SiO7
_symmetry_space_group_name_H-M   'P 1'
_cell_length_a   15.46058978
_cell_length_b   15.46041081
_cell_length_c   15.28506801
_cell_angle_alpha   89.99309525
_cell_angle_beta   89.99861096
_cell_angle_gamma   90.00818691
_symmetry_Int_Tables_number   1
_chemical_formula_structural   Ca2Al2SiO7
_chemical_formula_sum   'Ca48 Al48 Si24 O168'
_cell_volume   3653.54494693
_cell_formula_units_Z   24
loop_
 _symmetry_equiv_pos_site_id
 _symmetry_equiv_pos_as_xyz
  1  'x, y, z'
loop_
 _atom_type_symbol
 _atom_type_oxidation_number
  Ca2+  2.0
  Al0+  0.0
  Si0+  0.0
  O2-  -2.0
loop_
 _atom_site_type_symbol
 _atom_site_label
 _atom_site_symmetry_multiplicity
 _atom_site_fract_x
 _atom_site_fract_y
 _atom_site_fract_z
 _atom_site_occupancy
  Ca2+  Ca0  1  0.17830731  0.09523131  0.16860158  1
  Ca2+  Ca1  1  0.17852327  0.08889782  0.50307586  1
  Ca2+  Ca2  1  0.17804523  0.08810412  0.84066667  1
  Ca2+  Ca3  1  0.17669722  0.57671608  0.16573467  1
  Ca2+  Ca4  1  0.17037556  0.58732758  0.50217159  1
  Ca2+  Ca5  1  0.16878622  0.58007808  0.84151163  1
  Ca2+  Ca6  1  0.65429187  0.08047542  0.16592022  1
  Ca2+  Ca7  1  0.66661790  0.08034656  0.51171508  1
  Ca2+  Ca8  1  0.66270270  0.07792523  0.83555537  1
  Ca2+  Ca9  1  0.66893359  0.57246147  0.16991676  1
  Ca2+  Ca10  1  0.67719971  0.57805932  0.50930982  1
  Ca2+  Ca11  1  0.66978468  0.57086084  0.83679503  1
  Ca2+  Ca12  1  0.08208667  0.32731615  0.15659649  1
  Ca2+  Ca13  1  0.07959414  0.32622151  0.49429403  1
  Ca2+  Ca14  1  0.08215459  0.33363208  0.83692532  1
  Ca2+  Ca15  1  0.08205614  0.83094051  0.16128981  1
  Ca2+  Ca16  1  0.07606735  0.83112742  0.50229420  1
  Ca2+  Ca17  1  0.07674857  0.82548821  0.82283387  1
  Ca2+  Ca18  1  0.57962434  0.32240446  0.15538829  1
  Ca2+  Ca19  1  0.59028579  0.32119810  0.49912479  1
  Ca2+  Ca20  1  0.58585501  0.32700318  0.82985307  1
  Ca2+  Ca21  1  0.57195594  0.83255298  0.15901750  1
  Ca2+  Ca22  1  0.58007194  0.83582944  0.49616481  1
  Ca2+  Ca23  1  0.58269447  0.84099768  0.83420069  1
  Ca2+  Ca24  1  0.33537478  0.42025795  0.16583791  1
  Ca2+  Ca25  1  0.33339201  0.42185646  0.50201830  1
  Ca2+  Ca26  1  0.32882838  0.42154169  0.84832987  1
  Ca2+  Ca27  1  0.34119838  0.92658322  0.16871242  1
  Ca2+  Ca28  1  0.33836001  0.92725395  0.50174323  1
  Ca2+  Ca29  1  0.33861498  0.92858994  0.83962851  1
  Ca2+  Ca30  1  0.83068873  0.41347082  0.16573089  1
  Ca2+  Ca31  1  0.82843801  0.42477560  0.50762003  1
  Ca2+  Ca32  1  0.82447373  0.41302419  0.83744551  1
  Ca2+  Ca33  1  0.82399407  0.91749707  0.16771753  1
  Ca2+  Ca34  1  0.82654424  0.92361719  0.51354884  1
  Ca2+  Ca35  1  0.82561516  0.91822121  0.83430476  1
  Ca2+  Ca36  1  0.42211940  0.16705564  0.15757874  1
  Ca2+  Ca37  1  0.42660724  0.15954046  0.49586651  1
  Ca2+  Ca38  1  0.42355949  0.16638174  0.83310894  1
  Ca2+  Ca39  1  0.40363515  0.67649985  0.16195948  1
  Ca2+  Ca40  1  0.41792833  0.67435850  0.49009671  1
  Ca2+  Ca41  1  0.41167165  0.67331131  0.83184008  1
  Ca2+  Ca42  1  0.93156258  0.17088383  0.15658042  1
  Ca2+  Ca43  1  0.92002123  0.16399755  0.49437229  1
  Ca2+  Ca44  1  0.91747995  0.16854632  0.83187916  1
  Ca2+  Ca45  1  0.91429772  0.66333737  0.16367430  1
  Ca2+  Ca46  1  0.91331884  0.66568540  0.50061036  1
  Ca2+  Ca47  1  0.92018704  0.66998728  0.82089300  1
  Al0+  Al48  1  0.00023413  -0.00095028  -0.00429659  1
  Al0+  Al49  1  -0.00037664  -0.00178200  0.32770965  1
  Al0+  Al50  1  0.00146089  -0.00104220  0.66502248  1
  Al0+  Al51  1  0.00123232  0.49976802  0.00043225  1
  Al0+  Al52  1  -0.00096553  0.50070990  0.33693890  1
  Al0+  Al53  1  0.00237712  0.49937893  0.66321951  1
  Al0+  Al54  1  0.49971542  -0.00224721  0.00017320  1
  Al0+  Al55  1  0.49828831  -0.00159817  0.33039680  1
  Al0+  Al56  1  0.49960271  0.00211333  0.66980232  1
  Al0+  Al57  1  0.50301233  0.50247988  0.00705566  1
  Al0+  Al58  1  0.50059224  0.49886678  0.34008161  1
  Al0+  Al59  1  0.49848634  0.50127546  0.66844286  1
  Al0+  Al60  1  0.25105355  0.25103720  0.00085103  1
  Al0+  Al61  1  0.25065040  0.25011844  0.33654201  1
  Al0+  Al62  1  0.25135104  0.25274070  0.66936238  1
  Al0+  Al63  1  0.24883409  0.75206805  -0.00287939  1
  Al0+  Al64  1  0.24697143  0.75020069  0.33369571  1
  Al0+  Al65  1  0.24891753  0.75149948  0.66041588  1
  Al0+  Al66  1  0.75266851  0.24895204  -0.00164419  1
  Al0+  Al67  1  0.75044261  0.24804937  0.32795774  1
  Al0+  Al68  1  0.75047187  0.24896711  0.66746034  1
  Al0+  Al69  1  0.74853470  0.75177742  0.00476748  1
  Al0+  Al70  1  0.74881846  0.74907685  0.33606376  1
  Al0+  Al71  1  0.74847947  0.75032314  0.66963952  1
  Al0+  Al72  1  0.17899449  0.42922572  0.01548285  1
  Al0+  Al73  1  0.57046589  0.17883643  0.31965660  1
  Al0+  Al74  1  0.07327649  0.17799728  0.98269342  1
  Al0+  Al75  1  0.68011931  0.93056961  0.01669772  1
  Al0+  Al76  1  0.82283598  0.57052480  0.68222725  1
  Al0+  Al77  1  0.42866212  0.81835053  0.31973510  1
  Al0+  Al78  1  0.93004826  0.32222674  0.98371408  1
  Al0+  Al79  1  0.32002387  0.07001124  0.34754266  1
  Al0+  Al80  1  0.32002507  0.06994182  0.01385170  1
  Al0+  Al81  1  0.92632828  0.82116449  0.65106027  1
  Al0+  Al82  1  0.07121951  0.67712683  0.64920157  1
  Al0+  Al83  1  0.32036497  0.57223696  0.34853477  1
  Al0+  Al84  1  0.32014516  0.07161346  0.68137669  1
  Al0+  Al85  1  0.42873489  0.81848022  0.98471461  1
  Al0+  Al86  1  0.32276192  0.57435719  0.01368963  1
  Al0+  Al87  1  0.67774946  0.92916452  0.68142934  1
  Al0+  Al88  1  0.07179964  0.17849749  0.32063793  1
  Al0+  Al89  1  0.67811988  0.42830681  0.68150490  1
  Al0+  Al90  1  0.67960784  0.42604611  0.01517853  1
  Al0+  Al91  1  0.82003395  0.57051655  0.34792748  1
  Al0+  Al92  1  0.56936175  0.18072365  0.65281645  1
  Al0+  Al93  1  0.57067100  0.17803407  0.98330627  1
  Al0+  Al94  1  0.43017011  0.32460281  0.98677899  1
  Al0+  Al95  1  0.82506251  0.07191529  0.68104125  1
  Si0+  Si96  1  0.06930539  0.67819322  0.31597483  1
  Si0+  Si97  1  0.92916142  0.32280004  0.31730158  1
  Si0+  Si98  1  0.42634491  0.32463216  0.64925359  1
  Si0+  Si99  1  0.82290420  0.06957712  0.34521034  1
  Si0+  Si100  1  0.17937835  0.92739240  0.68240119  1
  Si0+  Si101  1  0.67897846  0.93075077  0.34769472  1
  Si0+  Si102  1  0.17809235  0.42860573  0.35195319  1
  Si0+  Si103  1  0.42981116  0.82144808  0.65103432  1
  Si0+  Si104  1  0.42801272  0.32410381  0.31870125  1
  Si0+  Si105  1  0.57523566  0.67872090  0.98377907  1
  Si0+  Si106  1  0.07403668  0.17960272  0.65160736  1
  Si0+  Si107  1  0.06938753  0.68061736  0.98637458  1
  Si0+  Si108  1  0.31986704  0.57375362  0.68019853  1
  Si0+  Si109  1  0.82485367  0.07148972  0.01827953  1
  Si0+  Si110  1  0.82163884  0.57189535  0.01562609  1
  Si0+  Si111  1  0.17409935  0.92678602  0.35072564  1
  Si0+  Si112  1  0.56947081  0.67654144  0.65216155  1
  Si0+  Si113  1  0.18004539  0.42936772  0.68115179  1
  Si0+  Si114  1  0.57287688  0.67653671  0.31805915  1
  Si0+  Si115  1  0.67885413  0.42414890  0.35066412  1
  Si0+  Si116  1  0.92927099  0.31977037  0.65035250  1
  Si0+  Si117  1  0.92650529  0.81998480  0.31673821  1
  Si0+  Si118  1  0.17585519  0.92807705  0.01529841  1
  Si0+  Si119  1  0.92612310  0.82061902  0.98543209  1
  O2-  O120  1  0.24133609  -0.00132373  0.06050887  1
  O2-  O121  1  0.24251116  -0.00325219  0.39364332  1
  O2-  O122  1  0.24436796  -0.00197645  0.72776507  1
  O2-  O123  1  0.25569060  0.49751842  0.06376294  1
  O2-  O124  1  0.24733837  0.49665573  0.39704508  1
  O2-  O125  1  0.24932224  0.50279478  0.72169995  1
  O2-  O126  1  0.75274390  0.00697795  0.06431805  1
  O2-  O127  1  0.74940798  0.00231069  0.38917927  1
  O2-  O128  1  0.75281103  -0.00071225  0.72949599  1
  O2-  O129  1  0.75528957  0.50147268  0.06043492  1
  O2-  O130  1  0.74573758  0.49530068  0.39382386  1
  O2-  O131  1  0.75170637  0.49857240  0.73216336  1
  O2-  O132  1  -0.00199614  0.25401022  0.27448707  1
  O2-  O133  1  -0.00165460  0.24573383  0.60859528  1
  O2-  O134  1  0.00064735  0.24924114  0.93254423  1
  O2-  O135  1  -0.00300972  0.74835354  0.27378974  1
  O2-  O136  1  -0.00429151  0.74648599  0.59977258  1
  O2-  O137  1  -0.00305151  0.74959657  0.94413698  1
  O2-  O138  1  0.49726303  0.25589504  0.27564827  1
  O2-  O139  1  0.49585247  0.25671214  0.60505520  1
  O2-  O140  1  0.50236028  0.25436518  0.93423137  1
  O2-  O141  1  0.49935719  0.73932153  0.27317052  1
  O2-  O142  1  0.50053356  0.74983994  0.60933124  1
  O2-  O143  1  0.50149990  0.74167525  0.93845627  1
  O2-  O144  1  0.07100065  0.17824330  0.09670790  1
  O2-  O145  1  0.06902581  0.17984016  0.43451391  1
  O2-  O146  1  0.07669695  0.18313032  0.75588883  1
  O2-  O147  1  0.06861708  0.68236048  0.09192604  1
  O2-  O148  1  0.06959495  0.67895606  0.42058033  1
  O2-  O149  1  0.07436790  0.67983586  0.76298912  1
  O2-  O150  1  0.56672776  0.17795316  0.09744972  1
  O2-  O151  1  0.57174512  0.17795532  0.43309232  1
  O2-  O152  1  0.56753708  0.17923055  0.76491289  1
  O2-  O153  1  0.57996921  0.68308922  0.08941282  1
  O2-  O154  1  0.57402128  0.68087781  0.42402881  1
  O2-  O155  1  0.56528715  0.67224838  0.75669137  1
  O2-  O156  1  0.17633825  0.42976760  0.24707092  1
  O2-  O157  1  0.18187664  0.42669802  0.57581228  1
  O2-  O158  1  0.17651512  0.43501851  0.90150929  1
  O2-  O159  1  0.17192743  0.92441809  0.24537118  1
  O2-  O160  1  0.18115699  0.92692117  0.57656891  1
  O2-  O161  1  0.17669437  0.92564609  0.90981049  1
  O2-  O162  1  0.68029759  0.42411382  0.24531279  1
  O2-  O163  1  0.68005992  0.42975317  0.56730203  1
  O2-  O164  1  0.68026407  0.42848043  0.90246076  1
  O2-  O165  1  0.68051262  0.92980713  0.24275094  1
  O2-  O166  1  0.67548447  0.93183689  0.56682566  1
  O2-  O167  1  0.68328741  0.92836280  0.90429323  1
  O2-  O168  1  0.43172043  0.32230225  0.10090301  1
  O2-  O169  1  0.42793601  0.32454343  0.42470003  1
  O2-  O170  1  0.42394485  0.32587921  0.75413503  1
  O2-  O171  1  0.42904199  0.81827151  0.09800541  1
  O2-  O172  1  0.43310549  0.81991584  0.43342381  1
  O2-  O173  1  0.42773051  0.81936184  0.75585508  1
  O2-  O174  1  0.93231075  0.32196550  0.09798189  1
  O2-  O175  1  0.92914003  0.32172965  0.42336116  1
  O2-  O176  1  0.93147667  0.32214501  0.75471609  1
  O2-  O177  1  0.92680425  0.81932056  0.09127310  1
  O2-  O178  1  0.92636805  0.82144466  0.42107666  1
  O2-  O179  1  0.93047697  0.81982560  0.76490606  1
  O2-  O180  1  0.32077654  0.06901365  0.23496967  1
  O2-  O181  1  0.31998963  0.06945356  0.56769804  1
  O2-  O182  1  0.32010038  0.06695538  0.90072504  1
  O2-  O183  1  0.31656087  0.57308715  0.23631970  1
  O2-  O184  1  0.31975345  0.57319520  0.57492367  1
  O2-  O185  1  0.31632034  0.57728228  0.89963590  1
  O2-  O186  1  0.82571925  0.06609158  0.24064207  1
  O2-  O187  1  0.82369973  0.07153451  0.56615908  1
  O2-  O188  1  0.82796489  0.06693519  0.91315722  1
  O2-  O189  1  0.81915957  0.57093865  0.23473676  1
  O2-  O190  1  0.82008758  0.56771697  0.56823264  1
  O2-  O191  1  0.82085320  0.57460784  0.91060159  1
  O2-  O192  1  0.04180011  0.08225482  0.26572726  1
  O2-  O193  1  0.05264716  0.08574232  0.60542330  1
  O2-  O194  1  0.04621574  0.07837353  0.93058278  1
  O2-  O195  1  0.04108998  0.58585869  0.26982921  1
  O2-  O196  1  0.04807718  0.57777860  0.59479474  1
  O2-  O197  1  0.04377416  0.58879141  0.93914018  1
  O2-  O198  1  0.53763051  0.08305627  0.26628452  1
  O2-  O199  1  0.53555438  0.08418915  0.59852948  1
  O2-  O200  1  0.53840310  0.08031340  0.93226973  1
  O2-  O201  1  0.55385464  0.57935320  0.27738803  1
  O2-  O202  1  0.53963632  0.58671943  0.60082429  1
  O2-  O203  1  0.55586684  0.58289183  0.94141805  1
  O2-  O204  1  0.16890877  0.21006478  0.26904060  1
  O2-  O205  1  0.16365327  0.21441284  0.60272273  1
  O2-  O206  1  0.17112816  0.20777510  0.93103197  1
  O2-  O207  1  0.15990121  0.70798541  0.26788043  1
  O2-  O208  1  0.16780680  0.71101181  0.59323566  1
  O2-  O209  1  0.15908475  0.71062232  0.93674907  1
  O2-  O210  1  0.66808080  0.20484437  0.26457539  1
  O2-  O211  1  0.66752859  0.20910521  0.59854383  1
  O2-  O212  1  0.67222530  0.19978714  0.93562272  1
  O2-  O213  1  0.66443518  0.70700049  0.27048329  1
  O2-  O214  1  0.66195927  0.70304595  0.60560042  1
  O2-  O215  1  0.66619462  0.71115119  0.93587977  1
  O2-  O216  1  0.08267608  0.46311350  0.07061071  1
  O2-  O217  1  0.08495391  0.45566045  0.39903755  1
  O2-  O218  1  0.08780285  0.45528493  0.72725440  1
  O2-  O219  1  0.08051326  0.94842590  0.06098351  1
  O2-  O220  1  0.07977704  0.95215013  0.39631940  1
  O2-  O221  1  0.08448213  0.94824296  0.72662644  1
  O2-  O222  1  0.58588095  0.45889325  0.07361084  1
  O2-  O223  1  0.58479961  0.44564806  0.39731998  1
  O2-  O224  1  0.57951307  0.45861540  0.73313785  1
  O2-  O225  1  0.58304284  0.95933259  0.07028988  1
  O2-  O226  1  0.58705617  0.95766478  0.39443002  1
  O2-  O227  1  0.58125824  0.96054455  0.73570744  1
  O2-  O228  1  0.20351797  0.33048544  0.06812201  1
  O2-  O229  1  0.20364971  0.33559015  0.39985701  1
  O2-  O230  1  0.20889501  0.33967891  0.73116324  1
  O2-  O231  1  0.20334457  0.83549959  0.06264656  1
  O2-  O232  1  0.19954493  0.83372479  0.39772279  1
  O2-  O233  1  0.20732190  0.83400766  0.72803215  1
  O2-  O234  1  0.71207258  0.32983092  0.06947262  1
  O2-  O235  1  0.70878447  0.33103035  0.39636730  1
  O2-  O236  1  0.70684736  0.33035108  0.73275759  1
  O2-  O237  1  0.71338070  0.83523441  0.07345016  1
  O2-  O238  1  0.70682925  0.83879811  0.39489646  1
  O2-  O239  1  0.70021170  0.82974313  0.73416946  1
  O2-  O240  1  0.45180773  0.41900724  0.27413289  1
  O2-  O241  1  0.45030171  0.41933341  0.60324502  1
  O2-  O242  1  0.45394147  0.42649052  0.93814465  1
  O2-  O243  1  0.46340971  0.91245014  0.26444230  1
  O2-  O244  1  0.45941779  0.91294435  0.60442279  1
  O2-  O245  1  0.46366897  0.91312613  0.93077127  1
  O2-  O246  1  0.95460322  0.41692087  0.27255365  1
  O2-  O247  1  0.96132514  0.40959555  0.60061223  1
  O2-  O248  1  0.95937515  0.42093876  0.93104977  1
  O2-  O249  1  0.95472729  0.91027875  0.26634286  1
  O2-  O250  1  0.95892478  0.91866691  0.59598985  1
  O2-  O251  1  0.95305428  0.91156815  0.93732729  1
  O2-  O252  1  0.33363443  0.29947984  0.27480933  1
  O2-  O253  1  0.33298645  0.29799305  0.60183140  1
  O2-  O254  1  0.33122930  0.29785198  0.93486327  1
  O2-  O255  1  0.32978242  0.79147134  0.26829200  1
  O2-  O256  1  0.33866883  0.79431957  0.60165229  1
  O2-  O257  1  0.33161083  0.79067706  0.92921980  1
  O2-  O258  1  0.83614358  0.29745012  0.27044675  1
  O2-  O259  1  0.83762154  0.29425072  0.60155865  1
  O2-  O260  1  0.83233041  0.29384352  0.93072317  1
  O2-  O261  1  0.83446424  0.79099690  0.26947381  1
  O2-  O262  1  0.82610265  0.79626487  0.59925870  1
  O2-  O263  1  0.83458313  0.79204572  0.93920918  1
  O2-  O264  1  0.41441998  0.03344862  0.06794500  1
  O2-  O265  1  0.41559690  0.03343979  0.40142304  1
  O2-  O266  1  0.41437516  0.03780180  0.73565808  1
  O2-  O267  1  0.42281756  0.55663469  0.06703107  1
  O2-  O268  1  0.41829798  0.54541560  0.40349501  1
  O2-  O269  1  0.41164234  0.54870430  0.72769603  1
  O2-  O270  1  0.91726349  0.03994036  0.06507814  1
  O2-  O271  1  0.91363466  0.03902383  0.39367957  1
  O2-  O272  1  0.92433194  0.04512522  0.73294539  1
  O2-  O273  1  0.91570121  0.54800261  0.06181784  1
  O2-  O274  1  0.91707528  0.54198791  0.40260232  1
  O2-  O275  1  0.92373036  0.54455005  0.73022857  1
  O2-  O276  1  0.29274113  0.16720576  0.06753933  1
  O2-  O277  1  0.29154654  0.16699571  0.40307899  1
  O2-  O278  1  0.29028454  0.16893756  0.73335244  1
  O2-  O279  1  0.28428402  0.67027839  0.06679099  1
  O2-  O280  1  0.28634173  0.66821416  0.40283752  1
  O2-  O281  1  0.29139909  0.66630478  0.72545097  1
  O2-  O282  1  0.80523705  0.16665459  0.06235773  1
  O2-  O283  1  0.79964321  0.16380507  0.39005938  1
  O2-  O284  1  0.79870044  0.17027090  0.73268242  1
  O2-  O285  1  0.79435846  0.66441036  0.06407895  1
  O2-  O286  1  0.78893397  0.66724483  0.40245991  1
  O2-  O287  1  0.79557802  0.66918819  0.73325537  1
