# generated using pymatgen
data_Ca2Al2SiO7
_symmetry_space_group_name_H-M   'P 1'
_cell_length_a   15.45850441
_cell_length_b   15.45750938
_cell_length_c   15.28405504
_cell_angle_alpha   89.99661298
_cell_angle_beta   89.99816468
_cell_angle_gamma   89.99084704
_symmetry_Int_Tables_number   1
_chemical_formula_structural   Ca2Al2SiO7
_chemical_formula_sum   'Ca48 Al48 Si24 O168'
_cell_volume   3652.12454413
_cell_formula_units_Z   24
loop_
 _symmetry_equiv_pos_site_id
 _symmetry_equiv_pos_as_xyz
  1  'x, y, z'
loop_
 _atom_type_symbol
 _atom_type_oxidation_number
  Ca2+  2.0
  Al0+  0.0
  Si0+  0.0
  O2-  -2.0
loop_
 _atom_site_type_symbol
 _atom_site_label
 _atom_site_symmetry_multiplicity
 _atom_site_fract_x
 _atom_site_fract_y
 _atom_site_fract_z
 _atom_site_occupancy
  Ca2+  Ca0  1  0.16478822  0.07261920  0.17075502  1
  Ca2+  Ca1  1  0.17614049  0.07689682  0.50572135  1
  Ca2+  Ca2  1  0.16496520  0.08168247  0.83693175  1
  Ca2+  Ca3  1  0.16349725  0.57547369  0.17633156  1
  Ca2+  Ca4  1  0.16061420  0.57634729  0.50806685  1
  Ca2+  Ca5  1  0.16836715  0.58623869  0.83013872  1
  Ca2+  Ca6  1  0.67321770  0.09114295  0.16536192  1
  Ca2+  Ca7  1  0.67437268  0.07821720  0.50940680  1
  Ca2+  Ca8  1  0.67971542  0.08688954  0.84031466  1
  Ca2+  Ca9  1  0.67238200  0.58086799  0.17245239  1
  Ca2+  Ca10  1  0.66803798  0.59440176  0.50127707  1
  Ca2+  Ca11  1  0.66496004  0.58021144  0.83947793  1
  Ca2+  Ca12  1  0.07941629  0.32735826  0.15868252  1
  Ca2+  Ca13  1  0.09534557  0.32973014  0.49945737  1
  Ca2+  Ca14  1  0.08350726  0.32239389  0.82854888  1
  Ca2+  Ca15  1  0.08620183  0.83207359  0.16197870  1
  Ca2+  Ca16  1  0.08497830  0.82346307  0.49712101  1
  Ca2+  Ca17  1  0.07570471  0.83525255  0.82845185  1
  Ca2+  Ca18  1  0.57650135  0.32962582  0.15305714  1
  Ca2+  Ca19  1  0.57953735  0.33034871  0.49742869  1
  Ca2+  Ca20  1  0.58177383  0.33199155  0.83758369  1
  Ca2+  Ca21  1  0.57795320  0.83089933  0.16849126  1
  Ca2+  Ca22  1  0.57152576  0.82553932  0.49652891  1
  Ca2+  Ca23  1  0.57654331  0.82708859  0.82217934  1
  Ca2+  Ca24  1  0.32822348  0.41386690  0.17137247  1
  Ca2+  Ca25  1  0.32113791  0.42572193  0.50848785  1
  Ca2+  Ca26  1  0.33104818  0.42080474  0.83265834  1
  Ca2+  Ca27  1  0.32315711  0.92153728  0.17647092  1
  Ca2+  Ca28  1  0.33752021  0.92057107  0.50389968  1
  Ca2+  Ca29  1  0.32816117  0.91815822  0.83661997  1
  Ca2+  Ca30  1  0.82893927  0.41653863  0.17004114  1
  Ca2+  Ca31  1  0.83292539  0.42671136  0.50215806  1
  Ca2+  Ca32  1  0.82811187  0.41560951  0.84247249  1
  Ca2+  Ca33  1  0.83798220  0.92034796  0.16444430  1
  Ca2+  Ca34  1  0.83408871  0.91835460  0.50818514  1
  Ca2+  Ca35  1  0.84406257  0.92428658  0.83799411  1
  Ca2+  Ca36  1  0.41941158  0.17039985  0.15863587  1
  Ca2+  Ca37  1  0.40886431  0.16343787  0.49553270  1
  Ca2+  Ca38  1  0.41673804  0.16967859  0.83032542  1
  Ca2+  Ca39  1  0.41717372  0.67106801  0.16737394  1
  Ca2+  Ca40  1  0.41849413  0.67292867  0.49716049  1
  Ca2+  Ca41  1  0.42036733  0.67146185  0.82021497  1
  Ca2+  Ca42  1  0.92267776  0.17215490  0.15216755  1
  Ca2+  Ca43  1  0.92384935  0.16410622  0.50274933  1
  Ca2+  Ca44  1  0.92568087  0.16230780  0.83123384  1
  Ca2+  Ca45  1  0.92092835  0.66942253  0.16513913  1
  Ca2+  Ca46  1  0.92433263  0.66784238  0.49571701  1
  Ca2+  Ca47  1  0.92083432  0.68091459  0.82455657  1
  Al0+  Al48  1  0.00055876  -0.00108056  0.00304314  1
  Al0+  Al49  1  0.00119556  0.00014929  0.33802441  1
  Al0+  Al50  1  0.00066715  0.00311823  0.66063799  1
  Al0+  Al51  1  0.00165735  0.50106523  -0.00339903  1
  Al0+  Al52  1  -0.00290404  0.49972553  0.33742717  1
  Al0+  Al53  1  -0.00412723  0.49821825  0.67146011  1
  Al0+  Al54  1  0.50141076  -0.00082287  -0.00354375  1
  Al0+  Al55  1  0.50249209  0.00045383  0.33149114  1
  Al0+  Al56  1  0.50143310  0.00047636  0.66862303  1
  Al0+  Al57  1  0.50056213  0.50028405  0.00210681  1
  Al0+  Al58  1  0.50036112  0.49758963  0.32945932  1
  Al0+  Al59  1  0.49922349  0.49807145  0.66515068  1
  Al0+  Al60  1  0.25153570  0.25175824  -0.00713820  1
  Al0+  Al61  1  0.24965367  0.24894081  0.33762561  1
  Al0+  Al62  1  0.24966321  0.24936473  0.67034079  1
  Al0+  Al63  1  0.25142198  0.74987777  0.00510248  1
  Al0+  Al64  1  0.24917750  0.74892500  0.32723704  1
  Al0+  Al65  1  0.24898792  0.74987736  0.66359880  1
  Al0+  Al66  1  0.74870011  0.25133669  0.00290963  1
  Al0+  Al67  1  0.74999553  0.25115748  0.33576519  1
  Al0+  Al68  1  0.75043499  0.24963153  0.66896674  1
  Al0+  Al69  1  0.75070703  0.75136638  -0.00247969  1
  Al0+  Al70  1  0.75031564  0.75081142  0.33278689  1
  Al0+  Al71  1  0.74893224  0.75061900  0.66157763  1
  Al0+  Al72  1  0.18006098  0.92975003  0.01317290  1
  Al0+  Al73  1  0.92956995  0.82320634  0.65027027  1
  Al0+  Al74  1  0.42757424  0.82326989  0.65283931  1
  Al0+  Al75  1  0.17834069  0.42962261  0.34536396  1
  Al0+  Al76  1  0.07241292  0.18147288  0.65022579  1
  Al0+  Al77  1  0.17604259  0.42886340  0.68519544  1
  Al0+  Al78  1  0.57017994  0.67556320  0.65227503  1
  Al0+  Al79  1  0.17757957  0.92576093  0.35075129  1
  Al0+  Al80  1  0.81984848  0.06954110  0.01436681  1
  Al0+  Al81  1  0.42844844  0.32340901  0.98296673  1
  Al0+  Al82  1  0.32289666  0.07011431  0.68285901  1
  Al0+  Al83  1  0.06942718  0.67688243  0.65245518  1
  Al0+  Al84  1  0.42837347  0.82271357  0.31574938  1
  Al0+  Al85  1  0.57216438  0.67793457  0.31548317  1
  Al0+  Al86  1  0.81864996  0.57125227  0.34685767  1
  Al0+  Al87  1  0.32204951  0.06902852  0.34625056  1
  Al0+  Al88  1  0.32078515  0.57216514  0.68042300  1
  Al0+  Al89  1  0.57115409  0.17731929  0.98397990  1
  Al0+  Al90  1  0.92816265  0.32366105  0.98625362  1
  Al0+  Al91  1  0.07078938  0.17814996  0.98621022  1
  Al0+  Al92  1  0.93017509  0.81921152  0.98816077  1
  Al0+  Al93  1  0.82179619  0.07028798  0.68088185  1
  Al0+  Al94  1  0.06966128  0.67727765  0.31926219  1
  Al0+  Al95  1  0.67991249  0.43082720  0.01435562  1
  Si0+  Si96  1  0.07097695  0.17942726  0.31899413  1
  Si0+  Si97  1  0.57394730  0.17969760  0.31927665  1
  Si0+  Si98  1  0.57044005  0.68041498  0.98631454  1
  Si0+  Si99  1  0.68011544  0.92989469  0.34819536  1
  Si0+  Si100  1  0.42791948  0.82034665  0.98536775  1
  Si0+  Si101  1  0.92747984  0.31990064  0.31966404  1
  Si0+  Si102  1  0.42827715  0.31837537  0.31992364  1
  Si0+  Si103  1  0.32386984  0.57089355  0.34792983  1
  Si0+  Si104  1  0.42909375  0.31935840  0.64985580  1
  Si0+  Si105  1  0.57263787  0.18035125  0.65142016  1
  Si0+  Si106  1  0.17926275  0.42858282  0.01480015  1
  Si0+  Si107  1  0.17804340  0.92827019  0.68243244  1
  Si0+  Si108  1  0.67843747  0.42776478  0.68162690  1
  Si0+  Si109  1  0.82120173  0.07323803  0.34901095  1
  Si0+  Si110  1  0.32380896  0.07311031  0.01483595  1
  Si0+  Si111  1  0.92494358  0.32098396  0.64897446  1
  Si0+  Si112  1  0.81865084  0.57256927  0.68308143  1
  Si0+  Si113  1  0.92851019  0.82401787  0.31573770  1
  Si0+  Si114  1  0.67594835  0.92560496  0.01743319  1
  Si0+  Si115  1  0.82294689  0.57466729  0.01532577  1
  Si0+  Si116  1  0.67685390  0.42711217  0.35144511  1
  Si0+  Si117  1  0.32130953  0.57106553  0.01672045  1
  Si0+  Si118  1  0.67950614  0.92764055  0.68352889  1
  Si0+  Si119  1  0.07524412  0.67722107  0.98381587  1
  O2-  O120  1  0.25423319  0.00599162  0.05918779  1
  O2-  O121  1  0.25408014  -0.00548380  0.39835108  1
  O2-  O122  1  0.24943766  -0.00615349  0.72782510  1
  O2-  O123  1  0.24947483  0.50007726  0.05799808  1
  O2-  O124  1  0.25038218  0.50715455  0.39133117  1
  O2-  O125  1  0.24672674  0.50357593  0.73343996  1
  O2-  O126  1  0.74284064  -0.00333956  0.06169087  1
  O2-  O127  1  0.75233443  0.00008172  0.39036145  1
  O2-  O128  1  0.75070103  -0.00709200  0.72838133  1
  O2-  O129  1  0.75820234  0.50233432  0.06023075  1
  O2-  O130  1  0.74055166  0.49998322  0.39555523  1
  O2-  O131  1  0.74587302  0.50235173  0.72345893  1
  O2-  O132  1  -0.00200988  0.24870306  0.27730290  1
  O2-  O133  1  -0.00119001  0.25841417  0.60368706  1
  O2-  O134  1  -0.00108934  0.25085856  0.93627372  1
  O2-  O135  1  -0.00082001  0.75662797  0.27254341  1
  O2-  O136  1  -0.00062683  0.74960018  0.60040628  1
  O2-  O137  1  0.00426938  0.74420706  0.94161798  1
  O2-  O138  1  0.50045935  0.24836755  0.27808529  1
  O2-  O139  1  0.49836172  0.24645018  0.60681954  1
  O2-  O140  1  0.49762815  0.24782068  0.93376343  1
  O2-  O141  1  0.49819485  0.74772655  0.26520782  1
  O2-  O142  1  0.49640281  0.74687092  0.60468450  1
  O2-  O143  1  0.50109981  0.75189372  0.94346137  1
  O2-  O144  1  0.06991167  0.18026445  0.10075100  1
  O2-  O145  1  0.07068209  0.18101729  0.42395495  1
  O2-  O146  1  0.07024065  0.17982586  0.76299468  1
  O2-  O147  1  0.07478417  0.67551320  0.08959153  1
  O2-  O148  1  0.06525994  0.67404339  0.43167179  1
  O2-  O149  1  0.06654574  0.67905442  0.76642481  1
  O2-  O150  1  0.56941245  0.17936604  0.09851714  1
  O2-  O151  1  0.57813212  0.18240153  0.42449315  1
  O2-  O152  1  0.57489781  0.18405631  0.75585854  1
  O2-  O153  1  0.56991414  0.68088387  0.09127342  1
  O2-  O154  1  0.57100606  0.68039424  0.42849528  1
  O2-  O155  1  0.57066492  0.67690820  0.76670582  1
  O2-  O156  1  0.18037131  0.42737098  0.23167246  1
  O2-  O157  1  0.18026571  0.42897370  0.57114579  1
  O2-  O158  1  0.17914484  0.42989748  0.91028937  1
  O2-  O159  1  0.17498730  0.93162314  0.23679216  1
  O2-  O160  1  0.17790257  0.93039849  0.57708886  1
  O2-  O161  1  0.18234545  0.92683429  0.90024857  1
  O2-  O162  1  0.67961114  0.42288289  0.24634042  1
  O2-  O163  1  0.68084144  0.42352314  0.57638608  1
  O2-  O164  1  0.67812895  0.43535078  0.90092458  1
  O2-  O165  1  0.68006396  0.93152192  0.24296044  1
  O2-  O166  1  0.67885638  0.93148114  0.57749084  1
  O2-  O167  1  0.67575692  0.92263650  0.91234300  1
  O2-  O168  1  0.42828093  0.32258879  0.09745071  1
  O2-  O169  1  0.42991282  0.31828602  0.42503141  1
  O2-  O170  1  0.43211447  0.32086011  0.75457223  1
  O2-  O171  1  0.42779936  0.81894576  0.09023955  1
  O2-  O172  1  0.43259273  0.82460531  0.42878175  1
  O2-  O173  1  0.43130339  0.82290352  0.76728333  1
  O2-  O174  1  0.93153170  0.32367737  0.10080849  1
  O2-  O175  1  0.92305272  0.31751878  0.42454262  1
  O2-  O176  1  0.92094681  0.31803742  0.75407900  1
  O2-  O177  1  0.92950209  0.81708723  0.10138404  1
  O2-  O178  1  0.92645162  0.82398685  0.42097014  1
  O2-  O179  1  0.93053409  0.82239445  0.76415308  1
  O2-  O180  1  0.32003565  0.07322369  0.23256811  1
  O2-  O181  1  0.32232094  0.07023623  0.56978691  1
  O2-  O182  1  0.32456054  0.06983218  0.90935652  1
  O2-  O183  1  0.32533108  0.56560238  0.24173552  1
  O2-  O184  1  0.32442784  0.56752258  0.56701634  1
  O2-  O185  1  0.32184545  0.57355632  0.91203962  1
  O2-  O186  1  0.82015639  0.07595677  0.24406282  1
  O2-  O187  1  0.81669346  0.07218603  0.56699451  1
  O2-  O188  1  0.82093522  0.06703313  0.90164306  1
  O2-  O189  1  0.81919619  0.56717478  0.23361230  1
  O2-  O190  1  0.81898801  0.57080320  0.57785039  1
  O2-  O191  1  0.81825422  0.57693756  0.90979871  1
  O2-  O192  1  0.04301496  0.08682745  0.27345141  1
  O2-  O193  1  0.03896326  0.08750955  0.59338270  1
  O2-  O194  1  0.04068408  0.08042067  0.93426972  1
  O2-  O195  1  0.03319057  0.58133591  0.26512474  1
  O2-  O196  1  0.03775321  0.57749409  0.60272607  1
  O2-  O197  1  0.05352098  0.58356182  0.93716366  1
  O2-  O198  1  0.55129729  0.08754292  0.27153103  1
  O2-  O199  1  0.54983130  0.08670449  0.60592464  1
  O2-  O200  1  0.54859630  0.07758634  0.93092338  1
  O2-  O201  1  0.54710576  0.57702644  0.26440634  1
  O2-  O202  1  0.54632526  0.57622082  0.59882167  1
  O2-  O203  1  0.54127972  0.58907666  0.93991485  1
  O2-  O204  1  0.16214078  0.20942328  0.27201237  1
  O2-  O205  1  0.16956447  0.21238138  0.59685622  1
  O2-  O206  1  0.16882849  0.20495027  0.93290580  1
  O2-  O207  1  0.16756355  0.69956455  0.26375753  1
  O2-  O208  1  0.16872517  0.70061254  0.60009389  1
  O2-  O209  1  0.16882221  0.70535301  0.93943991  1
  O2-  O210  1  0.66455770  0.21131195  0.27060417  1
  O2-  O211  1  0.66242393  0.21281391  0.60167049  1
  O2-  O212  1  0.66866488  0.20968682  0.93279335  1
  O2-  O213  1  0.67033947  0.70961609  0.26302886  1
  O2-  O214  1  0.66715580  0.70625275  0.59841703  1
  O2-  O215  1  0.66247509  0.70612065  0.93853211  1
  O2-  O216  1  0.08670968  0.45575882  0.06227372  1
  O2-  O217  1  0.08132077  0.45569703  0.39991098  1
  O2-  O218  1  0.07556433  0.45152206  0.73662432  1
  O2-  O219  1  0.08480132  0.95974476  0.06991767  1
  O2-  O220  1  0.08052698  0.95764184  0.40476979  1
  O2-  O221  1  0.08545459  0.95985218  0.72705522  1
  O2-  O222  1  0.58420697  0.46364876  0.07018152  1
  O2-  O223  1  0.58092534  0.44695013  0.39513257  1
  O2-  O224  1  0.58558956  0.45165569  0.72795985  1
  O2-  O225  1  0.58142089  0.94933854  0.06343413  1
  O2-  O226  1  0.59004449  0.96024990  0.39700659  1
  O2-  O227  1  0.58759860  0.95588623  0.73101017  1
  O2-  O228  1  0.20818338  0.33639389  0.06159074  1
  O2-  O229  1  0.21281307  0.33520377  0.40100180  1
  O2-  O230  1  0.20985675  0.33208709  0.73713248  1
  O2-  O231  1  0.21210526  0.83376564  0.06921286  1
  O2-  O232  1  0.20045187  0.82372795  0.39727106  1
  O2-  O233  1  0.19860833  0.83338302  0.72766445  1
  O2-  O234  1  0.70588401  0.33409969  0.07052991  1
  O2-  O235  1  0.70733222  0.33549939  0.40054190  1
  O2-  O236  1  0.71005687  0.33809841  0.73085150  1
  O2-  O237  1  0.70546428  0.83338815  0.06525850  1
  O2-  O238  1  0.70696860  0.83839693  0.39576610  1
  O2-  O239  1  0.70099386  0.83225985  0.72764579  1
  O2-  O240  1  0.45418227  0.40960191  0.27039649  1
  O2-  O241  1  0.45992071  0.40909445  0.60031343  1
  O2-  O242  1  0.46225860  0.42088778  0.93108140  1
  O2-  O243  1  0.46257112  0.92008610  0.26203251  1
  O2-  O244  1  0.46210341  0.92030071  0.59962296  1
  O2-  O245  1  0.45245900  0.91268573  0.93826324  1
  O2-  O246  1  0.95449894  0.41155943  0.27315583  1
  O2-  O247  1  0.94431363  0.41724097  0.60643707  1
  O2-  O248  1  0.95364055  0.42255079  0.93257107  1
  O2-  O249  1  0.95271202  0.91946300  0.27166656  1
  O2-  O250  1  0.95584667  0.92115101  0.59648552  1
  O2-  O251  1  0.96267550  0.91496766  0.93514987  1
  O2-  O252  1  0.33699999  0.28925525  0.27180813  1
  O2-  O253  1  0.33702914  0.29200733  0.60391176  1
  O2-  O254  1  0.33071192  0.29950843  0.92797946  1
  O2-  O255  1  0.32988412  0.79631060  0.26183924  1
  O2-  O256  1  0.32868549  0.79996569  0.60035330  1
  O2-  O257  1  0.33725160  0.78873598  0.93850462  1
  O2-  O258  1  0.83544407  0.29171328  0.27142071  1
  O2-  O259  1  0.83374836  0.28958668  0.60000023  1
  O2-  O260  1  0.82806640  0.29888237  0.93721460  1
  O2-  O261  1  0.83527276  0.79758751  0.26949207  1
  O2-  O262  1  0.83019946  0.79637874  0.59855249  1
  O2-  O263  1  0.83330176  0.79152390  0.93213296  1
  O2-  O264  1  0.41806183  0.04699120  0.06002382  1
  O2-  O265  1  0.42361896  0.04740087  0.39725173  1
  O2-  O266  1  0.42123837  0.04370476  0.73618596  1
  O2-  O267  1  0.41238825  0.54242479  0.06500895  1
  O2-  O268  1  0.41598817  0.54009967  0.39415036  1
  O2-  O269  1  0.41874621  0.53884445  0.73398420  1
  O2-  O270  1  0.91472504  0.03682785  0.07078095  1
  O2-  O271  1  0.91324886  0.04763418  0.39636313  1
  O2-  O272  1  0.92013298  0.04257608  0.73197734  1
  O2-  O273  1  0.91917434  0.55349217  0.05820632  1
  O2-  O274  1  0.91137415  0.53501598  0.40449206  1
  O2-  O275  1  0.90835347  0.54406138  0.73336020  1
  O2-  O276  1  0.30116785  0.16919783  0.05723965  1
  O2-  O277  1  0.29073037  0.16593837  0.40134981  1
  O2-  O278  1  0.29159445  0.16635472  0.73603714  1
  O2-  O279  1  0.29387454  0.66176989  0.06688214  1
  O2-  O280  1  0.30454528  0.66727972  0.38808425  1
  O2-  O281  1  0.29584074  0.67192660  0.73346755  1
  O2-  O282  1  0.78959253  0.16623901  0.06946154  1
  O2-  O283  1  0.79021582  0.16363194  0.39789491  1
  O2-  O284  1  0.78644219  0.16550960  0.73462905  1
  O2-  O285  1  0.79274640  0.66628929  0.06333888  1
  O2-  O286  1  0.79123821  0.66899404  0.40049506  1
  O2-  O287  1  0.79116973  0.66520970  0.72916180  1
