# generated using pymatgen
data_Ca2Al2SiO7
_symmetry_space_group_name_H-M   'P 1'
_cell_length_a   15.46166251
_cell_length_b   15.46314879
_cell_length_c   15.28679049
_cell_angle_alpha   90.00475558
_cell_angle_beta   89.99626677
_cell_angle_gamma   89.96831666
_symmetry_Int_Tables_number   1
_chemical_formula_structural   Ca2Al2SiO7
_chemical_formula_sum   'Ca48 Al48 Si24 O168'
_cell_volume   3654.85682689
_cell_formula_units_Z   24
loop_
 _symmetry_equiv_pos_site_id
 _symmetry_equiv_pos_as_xyz
  1  'x, y, z'
loop_
 _atom_type_symbol
 _atom_type_oxidation_number
  Ca2+  2.0
  Al0+  0.0
  Si0+  0.0
  O2-  -2.0
loop_
 _atom_site_type_symbol
 _atom_site_label
 _atom_site_symmetry_multiplicity
 _atom_site_fract_x
 _atom_site_fract_y
 _atom_site_fract_z
 _atom_site_occupancy
  Ca2+  Ca0  1  0.16798742  0.09273943  0.17599743  1
  Ca2+  Ca1  1  0.17019912  0.08869995  0.49795744  1
  Ca2+  Ca2  1  0.16485408  0.08466691  0.83912861  1
  Ca2+  Ca3  1  0.16231565  0.57127669  0.17538731  1
  Ca2+  Ca4  1  0.16579750  0.57859970  0.50224024  1
  Ca2+  Ca5  1  0.17442433  0.57844243  0.83727846  1
  Ca2+  Ca6  1  0.66608643  0.08004245  0.17410073  1
  Ca2+  Ca7  1  0.67064683  0.08816654  0.50920493  1
  Ca2+  Ca8  1  0.67314296  0.08811421  0.83062710  1
  Ca2+  Ca9  1  0.67282748  0.57753653  0.17346363  1
  Ca2+  Ca10  1  0.66667457  0.57991129  0.50288241  1
  Ca2+  Ca11  1  0.66286983  0.57134042  0.83459303  1
  Ca2+  Ca12  1  0.07856171  0.33391827  0.16204760  1
  Ca2+  Ca13  1  0.07303221  0.33356089  0.48940271  1
  Ca2+  Ca14  1  0.07534870  0.33537776  0.83537365  1
  Ca2+  Ca15  1  0.07331980  0.82888755  0.16610579  1
  Ca2+  Ca16  1  0.07307798  0.82550140  0.49382822  1
  Ca2+  Ca17  1  0.07370141  0.83339955  0.82844678  1
  Ca2+  Ca18  1  0.57290903  0.33552015  0.16333217  1
  Ca2+  Ca19  1  0.58299011  0.32492761  0.49530589  1
  Ca2+  Ca20  1  0.58414036  0.33627860  0.82677390  1
  Ca2+  Ca21  1  0.58631909  0.82466949  0.16788299  1
  Ca2+  Ca22  1  0.58042761  0.82144163  0.49763697  1
  Ca2+  Ca23  1  0.57651182  0.82286602  0.82225090  1
  Ca2+  Ca24  1  0.32306712  0.40378574  0.17175889  1
  Ca2+  Ca25  1  0.32804712  0.41650599  0.50046321  1
  Ca2+  Ca26  1  0.33315588  0.42196224  0.84077629  1
  Ca2+  Ca27  1  0.32852625  0.92802803  0.17774713  1
  Ca2+  Ca28  1  0.33674455  0.92139757  0.50469221  1
  Ca2+  Ca29  1  0.33455883  0.91663157  0.83628497  1
  Ca2+  Ca30  1  0.83250099  0.41559687  0.17353883  1
  Ca2+  Ca31  1  0.83376890  0.42006529  0.50617767  1
  Ca2+  Ca32  1  0.82348717  0.40701100  0.83635110  1
  Ca2+  Ca33  1  0.83809458  0.91462347  0.17167474  1
  Ca2+  Ca34  1  0.83823281  0.92224544  0.50610262  1
  Ca2+  Ca35  1  0.84181964  0.92188713  0.83486917  1
  Ca2+  Ca36  1  0.41506274  0.17584680  0.16994060  1
  Ca2+  Ca37  1  0.42770086  0.16897553  0.48975088  1
  Ca2+  Ca38  1  0.42414099  0.17666543  0.82979580  1
  Ca2+  Ca39  1  0.42532712  0.65911803  0.16729030  1
  Ca2+  Ca40  1  0.42524029  0.66040353  0.50094783  1
  Ca2+  Ca41  1  0.42045808  0.66789841  0.81963870  1
  Ca2+  Ca42  1  0.92793496  0.17948993  0.16344921  1
  Ca2+  Ca43  1  0.91592977  0.17856079  0.49569256  1
  Ca2+  Ca44  1  0.91802877  0.17590108  0.82867429  1
  Ca2+  Ca45  1  0.91492821  0.67072680  0.16968538  1
  Ca2+  Ca46  1  0.91435657  0.67473355  0.48837089  1
  Ca2+  Ca47  1  0.91275505  0.67874631  0.82906595  1
  Al0+  Al48  1  0.00130048  -0.00095945  -0.00480784  1
  Al0+  Al49  1  -0.00057062  0.00036005  0.32909387  1
  Al0+  Al50  1  0.00145533  0.00039149  0.66773149  1
  Al0+  Al51  1  0.00088857  0.50206386  -0.00171568  1
  Al0+  Al52  1  -0.00169332  0.50263000  0.33618603  1
  Al0+  Al53  1  -0.00063663  0.50065508  0.66757696  1
  Al0+  Al54  1  0.50118458  -0.00085095  0.00178811  1
  Al0+  Al55  1  0.49975733  -0.00120635  0.33503979  1
  Al0+  Al56  1  0.50070550  0.00036406  0.66365335  1
  Al0+  Al57  1  0.50239823  0.49938959  0.00062584  1
  Al0+  Al58  1  0.49906751  0.49961738  0.32576216  1
  Al0+  Al59  1  0.49797783  0.49966549  0.67004035  1
  Al0+  Al60  1  0.25329108  0.25075989  -0.00659661  1
  Al0+  Al61  1  0.25145918  0.24964871  0.34084874  1
  Al0+  Al62  1  0.24901528  0.24863364  0.67058514  1
  Al0+  Al63  1  0.25091770  0.75180809  0.00359713  1
  Al0+  Al64  1  0.24921867  0.75025036  0.33094429  1
  Al0+  Al65  1  0.24905412  0.75112477  0.66835554  1
  Al0+  Al66  1  0.75057427  0.24762095  0.00535292  1
  Al0+  Al67  1  0.74883041  0.24740855  0.32615956  1
  Al0+  Al68  1  0.75139601  0.24985564  0.66755255  1
  Al0+  Al69  1  0.74936021  0.75088094  -0.00516035  1
  Al0+  Al70  1  0.74749594  0.74923821  0.33015721  1
  Al0+  Al71  1  0.74847633  0.75068216  0.66007661  1
  Al0+  Al72  1  0.57212861  0.17572790  0.31738001  1
  Al0+  Al73  1  0.43207989  0.32061960  0.98447754  1
  Al0+  Al74  1  0.56933956  0.67880004  0.31799498  1
  Al0+  Al75  1  0.92974871  0.81895296  0.98442713  1
  Al0+  Al76  1  0.07287089  0.67777181  0.31872217  1
  Al0+  Al77  1  0.92799099  0.82111637  0.31844404  1
  Al0+  Al78  1  0.31822178  0.56943537  0.67883321  1
  Al0+  Al79  1  0.56984336  0.67562959  0.65124287  1
  Al0+  Al80  1  0.42965587  0.32055242  0.32027631  1
  Al0+  Al81  1  0.92751866  0.32399477  0.31950667  1
  Al0+  Al82  1  0.81871241  0.57028198  0.34647476  1
  Al0+  Al83  1  0.07237676  0.18023438  0.98431900  1
  Al0+  Al84  1  0.68015860  0.42742406  0.01571582  1
  Al0+  Al85  1  0.57075354  0.18165444  0.65524505  1
  Al0+  Al86  1  0.42640500  0.82179343  0.65205534  1
  Al0+  Al87  1  0.92914495  0.82173150  0.65218743  1
  Al0+  Al88  1  0.92703178  0.32354689  0.98406914  1
  Al0+  Al89  1  0.92998240  0.32087080  0.65340558  1
  Al0+  Al90  1  0.18073551  0.43032817  0.01310812  1
  Al0+  Al91  1  0.07116947  0.18103219  0.32195439  1
  Al0+  Al92  1  0.32034154  0.07039954  0.34896687  1
  Al0+  Al93  1  0.17886456  0.42963680  0.34758568  1
  Al0+  Al94  1  0.68110254  0.43010257  0.67729501  1
  Al0+  Al95  1  0.82161231  0.06969382  0.68025616  1
  Si0+  Si96  1  0.07156816  0.67870062  0.65194052  1
  Si0+  Si97  1  0.57247235  0.17449498  0.98343894  1
  Si0+  Si98  1  0.82323748  0.57519994  0.68309986  1
  Si0+  Si99  1  0.67852997  0.92780023  0.34939068  1
  Si0+  Si100  1  0.42528521  0.32219334  0.65093980  1
  Si0+  Si101  1  0.32358736  0.57402588  0.34927425  1
  Si0+  Si102  1  0.18038611  0.93047479  0.68285632  1
  Si0+  Si103  1  0.07345714  0.17755895  0.64977603  1
  Si0+  Si104  1  0.82066018  0.07006700  0.34728400  1
  Si0+  Si105  1  0.67663157  0.42647076  0.34865417  1
  Si0+  Si106  1  0.82032623  0.57513995  0.01448168  1
  Si0+  Si107  1  0.17524090  0.42595734  0.68551583  1
  Si0+  Si108  1  0.17826426  0.92903700  0.01645602  1
  Si0+  Si109  1  0.32379576  0.07130395  0.68441197  1
  Si0+  Si110  1  0.07558354  0.67832064  0.98198970  1
  Si0+  Si111  1  0.82318078  0.06883426  0.01688712  1
  Si0+  Si112  1  0.56980110  0.68003334  0.98395620  1
  Si0+  Si113  1  0.17622314  0.92712105  0.35108809  1
  Si0+  Si114  1  0.67931596  0.92842255  0.01468943  1
  Si0+  Si115  1  0.42909216  0.82219191  0.98724172  1
  Si0+  Si116  1  0.67712592  0.92711313  0.68328564  1
  Si0+  Si117  1  0.42741297  0.82284438  0.31595877  1
  Si0+  Si118  1  0.32180505  0.06972578  0.01439939  1
  Si0+  Si119  1  0.32328327  0.57391976  0.01782828  1
  O2-  O120  1  0.24783425  0.00184998  0.05723238  1
  O2-  O121  1  0.24588281  -0.00522915  0.39584135  1
  O2-  O122  1  0.25216399  0.00067847  0.72669288  1
  O2-  O123  1  0.25383856  0.50649069  0.06143558  1
  O2-  O124  1  0.25258522  0.50724626  0.39224107  1
  O2-  O125  1  0.24613524  0.49354958  0.72801736  1
  O2-  O126  1  0.75044373  -0.00161623  0.05801423  1
  O2-  O127  1  0.74818274  0.00050135  0.39038574  1
  O2-  O128  1  0.74841091  -0.00714309  0.72849329  1
  O2-  O129  1  0.75903539  0.49972411  0.05895886  1
  O2-  O130  1  0.74774842  0.49198117  0.39335015  1
  O2-  O131  1  0.75504764  0.50558377  0.72635091  1
  O2-  O132  1  0.00313534  0.25522031  0.27059654  1
  O2-  O133  1  0.00842072  0.24986311  0.60748180  1
  O2-  O134  1  -0.00046247  0.25122208  0.93439517  1
  O2-  O135  1  0.00044859  0.74955237  0.26891971  1
  O2-  O136  1  -0.00241781  0.74123776  0.60740563  1
  O2-  O137  1  0.00469635  0.74473326  0.93745314  1
  O2-  O138  1  0.50283921  0.25029904  0.26858020  1
  O2-  O139  1  0.49335824  0.25272438  0.60810476  1
  O2-  O140  1  0.51035853  0.24883310  0.93900648  1
  O2-  O141  1  0.49242068  0.75148345  0.27038295  1
  O2-  O142  1  0.49786729  0.74921757  0.60309797  1
  O2-  O143  1  0.49424272  0.74714836  0.94363030  1
  O2-  O144  1  0.07186729  0.17948401  0.09746177  1
  O2-  O145  1  0.06754329  0.18029100  0.43568791  1
  O2-  O146  1  0.07362750  0.17616137  0.75544343  1
  O2-  O147  1  0.07803284  0.68080874  0.08703461  1
  O2-  O148  1  0.07299813  0.68069199  0.43261590  1
  O2-  O149  1  0.07300467  0.68203838  0.75785392  1
  O2-  O150  1  0.56756988  0.16858523  0.08830960  1
  O2-  O151  1  0.57242245  0.17624775  0.43114542  1
  O2-  O152  1  0.56941336  0.18244213  0.76875580  1
  O2-  O153  1  0.57108004  0.68247345  0.08913627  1
  O2-  O154  1  0.56849288  0.67939311  0.43050222  1
  O2-  O155  1  0.56796243  0.67703648  0.76563230  1
  O2-  O156  1  0.18083095  0.42835527  0.23426019  1
  O2-  O157  1  0.17459165  0.42567047  0.58016932  1
  O2-  O158  1  0.18402499  0.43321429  0.89975501  1
  O2-  O159  1  0.17801682  0.92758365  0.24515849  1
  O2-  O160  1  0.17962911  0.93143939  0.57822912  1
  O2-  O161  1  0.18093893  0.92672879  0.91102635  1
  O2-  O162  1  0.67658348  0.42983885  0.24282380  1
  O2-  O163  1  0.68180663  0.42976061  0.56444783  1
  O2-  O164  1  0.67772702  0.43044005  0.90231535  1
  O2-  O165  1  0.67836984  0.92765292  0.24352391  1
  O2-  O166  1  0.67611300  0.92856586  0.57795056  1
  O2-  O167  1  0.67658411  0.92812331  0.90991152  1
  O2-  O168  1  0.42952544  0.31715686  0.09694755  1
  O2-  O169  1  0.43138792  0.32016735  0.43412336  1
  O2-  O170  1  0.42564653  0.32075090  0.75694251  1
  O2-  O171  1  0.43160092  0.82456501  0.09203843  1
  O2-  O172  1  0.42994315  0.82446677  0.42117986  1
  O2-  O173  1  0.42807289  0.82073372  0.76672612  1
  O2-  O174  1  0.92796373  0.32207538  0.09719385  1
  O2-  O175  1  0.92611832  0.32077306  0.43335555  1
  O2-  O176  1  0.92956105  0.31845827  0.76642647  1
  O2-  O177  1  0.92923498  0.81854822  0.09688241  1
  O2-  O178  1  0.92910106  0.82175944  0.43194881  1
  O2-  O179  1  0.93271392  0.82193330  0.76564948  1
  O2-  O180  1  0.31987448  0.06817481  0.23517239  1
  O2-  O181  1  0.32312180  0.07171217  0.57976009  1
  O2-  O182  1  0.32456691  0.06497184  0.90908533  1
  O2-  O183  1  0.32413820  0.57441835  0.24359410  1
  O2-  O184  1  0.31659169  0.56849026  0.56600927  1
  O2-  O185  1  0.32253524  0.57603438  0.91201750  1
  O2-  O186  1  0.82026648  0.06691318  0.24193894  1
  O2-  O187  1  0.82041431  0.06933295  0.56714675  1
  O2-  O188  1  0.82202535  0.06809813  0.91150609  1
  O2-  O189  1  0.81534067  0.57267087  0.23304077  1
  O2-  O190  1  0.82423648  0.57486003  0.57777313  1
  O2-  O191  1  0.81414963  0.58096467  0.90906343  1
  O2-  O192  1  0.04321162  0.08339498  0.26725337  1
  O2-  O193  1  0.04660546  0.08467514  0.60436364  1
  O2-  O194  1  0.04487080  0.08099132  0.93147599  1
  O2-  O195  1  0.04209201  0.58113002  0.26549342  1
  O2-  O196  1  0.05298308  0.58280645  0.60887409  1
  O2-  O197  1  0.05338843  0.58472976  0.93539502  1
  O2-  O198  1  0.54158246  0.07727913  0.26547439  1
  O2-  O199  1  0.54382284  0.08419280  0.60207419  1
  O2-  O200  1  0.54128643  0.08286590  0.93505293  1
  O2-  O201  1  0.54006406  0.58389169  0.26036609  1
  O2-  O202  1  0.53739163  0.57871261  0.59834073  1
  O2-  O203  1  0.54492169  0.58736363  0.93799108  1
  O2-  O204  1  0.17183812  0.20451975  0.27353045  1
  O2-  O205  1  0.16941737  0.19892632  0.60641069  1
  O2-  O206  1  0.17071359  0.20591425  0.92968364  1
  O2-  O207  1  0.17119969  0.70458934  0.26400566  1
  O2-  O208  1  0.16223334  0.71060747  0.60499891  1
  O2-  O209  1  0.16897825  0.70841795  0.93620724  1
  O2-  O210  1  0.67019756  0.19820595  0.26226042  1
  O2-  O211  1  0.66614503  0.21296860  0.60074012  1
  O2-  O212  1  0.66916955  0.19407654  0.94279674  1
  O2-  O213  1  0.66246626  0.71482225  0.26118521  1
  O2-  O214  1  0.66761137  0.70317547  0.59777142  1
  O2-  O215  1  0.65850097  0.71301803  0.93470864  1
  O2-  O216  1  0.08254343  0.45943456  0.06555059  1
  O2-  O217  1  0.08281385  0.46081614  0.40248319  1
  O2-  O218  1  0.08277579  0.45469951  0.73286728  1
  O2-  O219  1  0.08548578  0.95467536  0.06208730  1
  O2-  O220  1  0.08271352  0.95466235  0.39642527  1
  O2-  O221  1  0.08993341  0.96023558  0.73275672  1
  O2-  O222  1  0.58464401  0.46299311  0.06974325  1
  O2-  O223  1  0.58316666  0.45606712  0.39261020  1
  O2-  O224  1  0.58415352  0.45944781  0.73308255  1
  O2-  O225  1  0.58804777  0.95613204  0.06460925  1
  O2-  O226  1  0.58614620  0.95238270  0.39657869  1
  O2-  O227  1  0.58425508  0.95537680  0.73096837  1
  O2-  O228  1  0.21514591  0.33274887  0.06309652  1
  O2-  O229  1  0.21186281  0.33587090  0.40564408  1
  O2-  O230  1  0.19889746  0.33145482  0.73128052  1
  O2-  O231  1  0.20771895  0.83852379  0.06598584  1
  O2-  O232  1  0.20129897  0.83293637  0.39644322  1
  O2-  O233  1  0.20666536  0.83927917  0.73299866  1
  O2-  O234  1  0.70370731  0.32884535  0.06925433  1
  O2-  O235  1  0.69831722  0.32987672  0.39001570  1
  O2-  O236  1  0.71312301  0.33507739  0.73417547  1
  O2-  O237  1  0.70761924  0.83635010  0.06186333  1
  O2-  O238  1  0.70742314  0.83672706  0.39659915  1
  O2-  O239  1  0.69966247  0.83174750  0.72784527  1
  O2-  O240  1  0.45323510  0.41791275  0.26329260  1
  O2-  O241  1  0.44987770  0.41571750  0.60688643  1
  O2-  O242  1  0.46074653  0.41897417  0.93206202  1
  O2-  O243  1  0.45741495  0.91420264  0.26799617  1
  O2-  O244  1  0.45518376  0.91967097  0.59959428  1
  O2-  O245  1  0.46089163  0.91207294  0.93800311  1
  O2-  O246  1  0.95164547  0.42340696  0.26924378  1
  O2-  O247  1  0.95574313  0.42006350  0.60209573  1
  O2-  O248  1  0.95296541  0.42334032  0.93207297  1
  O2-  O249  1  0.95748456  0.91812818  0.26372470  1
  O2-  O250  1  0.96571842  0.91688083  0.59975645  1
  O2-  O251  1  0.96257554  0.91449386  0.92991532  1
  O2-  O252  1  0.33259666  0.28613244  0.26906099  1
  O2-  O253  1  0.33064573  0.29649660  0.60743449  1
  O2-  O254  1  0.33889933  0.28693911  0.92632590  1
  O2-  O255  1  0.33232228  0.80307455  0.27092724  1
  O2-  O256  1  0.32711125  0.79681364  0.60072033  1
  O2-  O257  1  0.33493371  0.80038163  0.94147214  1
  O2-  O258  1  0.83138144  0.29228455  0.26483227  1
  O2-  O259  1  0.83561435  0.28587283  0.59928506  1
  O2-  O260  1  0.82795475  0.29008843  0.93430731  1
  O2-  O261  1  0.83005988  0.79244780  0.26529732  1
  O2-  O262  1  0.83048449  0.79966516  0.59981314  1
  O2-  O263  1  0.83271890  0.79020862  0.92920755  1
  O2-  O264  1  0.41186952  0.03750041  0.06316707  1
  O2-  O265  1  0.41682583  0.03699217  0.40281700  1
  O2-  O266  1  0.41520219  0.04255266  0.73253927  1
  O2-  O267  1  0.41746686  0.54770215  0.06159616  1
  O2-  O268  1  0.41691625  0.54458331  0.39421508  1
  O2-  O269  1  0.41408993  0.54081733  0.73635205  1
  O2-  O270  1  0.91449431  0.03699448  0.06237155  1
  O2-  O271  1  0.91209380  0.04096859  0.39474430  1
  O2-  O272  1  0.91825861  0.03902157  0.73550879  1
  O2-  O273  1  0.91781409  0.55905627  0.05529106  1
  O2-  O274  1  0.91581720  0.54716046  0.40245829  1
  O2-  O275  1  0.91750918  0.55271522  0.72999015  1
  O2-  O276  1  0.29647508  0.16293524  0.05849270  1
  O2-  O277  1  0.29142228  0.16455239  0.40778179  1
  O2-  O278  1  0.29597075  0.16309190  0.73315385  1
  O2-  O279  1  0.30137723  0.66889745  0.06383859  1
  O2-  O280  1  0.30211222  0.66946795  0.39378150  1
  O2-  O281  1  0.28773588  0.66656277  0.73469832  1
  O2-  O282  1  0.79726018  0.15976446  0.06600836  1
  O2-  O283  1  0.79320483  0.16273407  0.39346920  1
  O2-  O284  1  0.78688347  0.16392499  0.73648929  1
  O2-  O285  1  0.78641171  0.66599935  0.06251972  1
  O2-  O286  1  0.78312199  0.66634952  0.39976690  1
  O2-  O287  1  0.79605703  0.66953300  0.72783879  1
