# generated using pymatgen
data_Ca2Al2SiO7
_symmetry_space_group_name_H-M   'P 1'
_cell_length_a   15.46540580
_cell_length_b   15.46627709
_cell_length_c   15.28974289
_cell_angle_alpha   89.99390855
_cell_angle_beta   90.00788825
_cell_angle_gamma   90.02093275
_symmetry_Int_Tables_number   1
_chemical_formula_structural   Ca2Al2SiO7
_chemical_formula_sum   'Ca48 Al48 Si24 O168'
_cell_volume   3657.18772630
_cell_formula_units_Z   24
loop_
 _symmetry_equiv_pos_site_id
 _symmetry_equiv_pos_as_xyz
  1  'x, y, z'
loop_
 _atom_type_symbol
 _atom_type_oxidation_number
  Ca2+  2.0
  Al0+  0.0
  Si0+  0.0
  O2-  -2.0
loop_
 _atom_site_type_symbol
 _atom_site_label
 _atom_site_symmetry_multiplicity
 _atom_site_fract_x
 _atom_site_fract_y
 _atom_site_fract_z
 _atom_site_occupancy
  Ca2+  Ca0  1  0.17403105  0.09224651  0.16796127  1
  Ca2+  Ca1  1  0.16940799  0.08684904  0.50372231  1
  Ca2+  Ca2  1  0.16875180  0.07818274  0.83874879  1
  Ca2+  Ca3  1  0.17641603  0.57094851  0.17148280  1
  Ca2+  Ca4  1  0.17298862  0.57580498  0.50015072  1
  Ca2+  Ca5  1  0.17705768  0.57509032  0.84663204  1
  Ca2+  Ca6  1  0.67172821  0.08303052  0.17638734  1
  Ca2+  Ca7  1  0.67897297  0.07830837  0.50899018  1
  Ca2+  Ca8  1  0.66969856  0.08665762  0.83842322  1
  Ca2+  Ca9  1  0.66132908  0.57789250  0.16387142  1
  Ca2+  Ca10  1  0.66219989  0.57871696  0.50745842  1
  Ca2+  Ca11  1  0.65663579  0.57477837  0.83657137  1
  Ca2+  Ca12  1  0.08395298  0.32689368  0.15950521  1
  Ca2+  Ca13  1  0.08478199  0.32032670  0.49115979  1
  Ca2+  Ca14  1  0.08869505  0.32162654  0.83129747  1
  Ca2+  Ca15  1  0.08437892  0.83551992  0.16039643  1
  Ca2+  Ca16  1  0.08627743  0.83636994  0.49910728  1
  Ca2+  Ca17  1  0.08858173  0.83846165  0.82741638  1
  Ca2+  Ca18  1  0.57703916  0.32826912  0.15834506  1
  Ca2+  Ca19  1  0.57237412  0.33784562  0.49894807  1
  Ca2+  Ca20  1  0.58150117  0.33216156  0.82911990  1
  Ca2+  Ca21  1  0.58241753  0.82904135  0.15871937  1
  Ca2+  Ca22  1  0.59005502  0.83204950  0.49899778  1
  Ca2+  Ca23  1  0.57644471  0.82276192  0.82270253  1
  Ca2+  Ca24  1  0.32739877  0.42091821  0.17330965  1
  Ca2+  Ca25  1  0.33517869  0.41372635  0.49966752  1
  Ca2+  Ca26  1  0.33265474  0.41980724  0.84091907  1
  Ca2+  Ca27  1  0.33082010  0.93152404  0.16633705  1
  Ca2+  Ca28  1  0.33118544  0.92419790  0.50641730  1
  Ca2+  Ca29  1  0.32601463  0.91765456  0.83938371  1
  Ca2+  Ca30  1  0.82725086  0.40552905  0.16341249  1
  Ca2+  Ca31  1  0.82508513  0.41781773  0.50807436  1
  Ca2+  Ca32  1  0.82201393  0.40927779  0.83922938  1
  Ca2+  Ca33  1  0.82490068  0.92557235  0.17579811  1
  Ca2+  Ca34  1  0.82413756  0.92547086  0.50366386  1
  Ca2+  Ca35  1  0.82763178  0.92253521  0.83003891  1
  Ca2+  Ca36  1  0.41569484  0.16802182  0.16209381  1
  Ca2+  Ca37  1  0.41090197  0.17815535  0.49316810  1
  Ca2+  Ca38  1  0.41846518  0.16982961  0.83188321  1
  Ca2+  Ca39  1  0.41568207  0.66380609  0.16082164  1
  Ca2+  Ca40  1  0.41727149  0.67384070  0.49974187  1
  Ca2+  Ca41  1  0.42288737  0.66750630  0.82648945  1
  Ca2+  Ca42  1  0.92802778  0.16701362  0.15959932  1
  Ca2+  Ca43  1  0.92599704  0.15288721  0.49788023  1
  Ca2+  Ca44  1  0.92692043  0.16748912  0.83086971  1
  Ca2+  Ca45  1  0.91704624  0.67198394  0.16103575  1
  Ca2+  Ca46  1  0.91778740  0.66975652  0.49546360  1
  Ca2+  Ca47  1  0.92002618  0.66886499  0.83058125  1
  Al0+  Al48  1  -0.00267330  -0.00043817  -0.00165293  1
  Al0+  Al49  1  -0.00107770  -0.00142748  0.32965190  1
  Al0+  Al50  1  0.00077980  -0.00078605  0.66976114  1
  Al0+  Al51  1  -0.00301643  0.50285759  -0.00093303  1
  Al0+  Al52  1  -0.00023310  0.49956255  0.33576541  1
  Al0+  Al53  1  0.00088310  0.49886122  0.66650293  1
  Al0+  Al54  1  0.49905254  -0.00139682  -0.00190653  1
  Al0+  Al55  1  0.49774901  -0.00219671  0.34089694  1
  Al0+  Al56  1  0.50019348  0.00055062  0.66666389  1
  Al0+  Al57  1  0.50222993  0.49982173  0.00505827  1
  Al0+  Al58  1  0.49929043  0.50203026  0.33207522  1
  Al0+  Al59  1  0.50039801  0.50059532  0.66229264  1
  Al0+  Al60  1  0.24971635  0.24954736  0.00102403  1
  Al0+  Al61  1  0.24890833  0.25073494  0.33171187  1
  Al0+  Al62  1  0.24934488  0.24972743  0.65942956  1
  Al0+  Al63  1  0.24892924  0.75118036  0.00763833  1
  Al0+  Al64  1  0.25145910  0.74810959  0.33412072  1
  Al0+  Al65  1  0.25146182  0.74920400  0.66521156  1
  Al0+  Al66  1  0.74990516  0.24988288  -0.00150453  1
  Al0+  Al67  1  0.75089922  0.25004269  0.34102189  1
  Al0+  Al68  1  0.75195327  0.25191857  0.67420991  1
  Al0+  Al69  1  0.74919484  0.74918665  -0.00576882  1
  Al0+  Al70  1  0.75033318  0.74849751  0.33424238  1
  Al0+  Al71  1  0.75262042  0.75027916  0.66595204  1
  Al0+  Al72  1  0.82174447  0.07100547  0.68536561  1
  Al0+  Al73  1  0.32290496  0.57020200  0.01417219  1
  Al0+  Al74  1  0.57135762  0.68070796  0.64975472  1
  Al0+  Al75  1  0.43045202  0.31928890  0.65405927  1
  Al0+  Al76  1  0.17607384  0.42811682  0.01323736  1
  Al0+  Al77  1  0.32244067  0.07120449  0.01342266  1
  Al0+  Al78  1  0.68084293  0.42814783  0.01474763  1
  Al0+  Al79  1  0.31946000  0.07194118  0.34800252  1
  Al0+  Al80  1  0.67848642  0.43210489  0.68040185  1
  Al0+  Al81  1  0.82194608  0.07187649  0.34782901  1
  Al0+  Al82  1  0.32291713  0.57145912  0.35207545  1
  Al0+  Al83  1  0.56990693  0.67851205  0.98630828  1
  Al0+  Al84  1  0.06847281  0.17882195  0.65141905  1
  Al0+  Al85  1  0.67719268  0.92789150  0.68428839  1
  Al0+  Al86  1  0.67783231  0.92678612  0.34689747  1
  Al0+  Al87  1  0.18243339  0.92915608  0.67810304  1
  Al0+  Al88  1  0.57083889  0.17698216  0.98874481  1
  Al0+  Al89  1  0.07265781  0.17886899  0.98303099  1
  Al0+  Al90  1  0.06880602  0.17859064  0.31831778  1
  Al0+  Al91  1  0.17829341  0.42854915  0.35021458  1
  Al0+  Al92  1  0.43070281  0.32129512  0.31759216  1
  Al0+  Al93  1  0.42721228  0.82311406  0.65101213  1
  Al0+  Al94  1  0.17577720  0.92992837  0.01551326  1
  Al0+  Al95  1  0.92843056  0.32295590  0.98455071  1
  Si0+  Si96  1  0.32224142  0.07563629  0.68213212  1
  Si0+  Si97  1  0.42656362  0.82133526  0.98446669  1
  Si0+  Si98  1  0.57207264  0.68100330  0.31642113  1
  Si0+  Si99  1  0.07146348  0.67753722  0.31766681  1
  Si0+  Si100  1  0.92760916  0.32321706  0.64920721  1
  Si0+  Si101  1  0.92554152  0.32498090  0.31806885  1
  Si0+  Si102  1  0.42908394  0.32173547  0.98557708  1
  Si0+  Si103  1  0.82563072  0.57230738  0.68365003  1
  Si0+  Si104  1  0.67886568  0.42970124  0.34795884  1
  Si0+  Si105  1  0.57576875  0.17791917  0.65072892  1
  Si0+  Si106  1  0.07129582  0.68139543  0.98585856  1
  Si0+  Si107  1  0.81859356  0.07057543  0.01537563  1
  Si0+  Si108  1  0.82083717  0.57528401  0.01655506  1
  Si0+  Si109  1  0.82104582  0.57165245  0.34731658  1
  Si0+  Si110  1  0.93166805  0.81979472  0.65053797  1
  Si0+  Si111  1  0.57263159  0.17741742  0.32141325  1
  Si0+  Si112  1  0.92741945  0.82118865  0.98314381  1
  Si0+  Si113  1  0.17869881  0.42756352  0.68125453  1
  Si0+  Si114  1  0.42730057  0.82232803  0.31639122  1
  Si0+  Si115  1  0.17793512  0.92721810  0.34845243  1
  Si0+  Si116  1  0.67948504  0.92714146  0.01264280  1
  Si0+  Si117  1  0.07257016  0.67632494  0.65142578  1
  Si0+  Si118  1  0.31959307  0.56950116  0.68086003  1
  Si0+  Si119  1  0.92898248  0.81821507  0.31753418  1
  O2-  O120  1  0.24528412  0.00435548  0.06422486  1
  O2-  O121  1  0.24382795  -0.00279079  0.39343756  1
  O2-  O122  1  0.25921662  0.00097542  0.72478741  1
  O2-  O123  1  0.25117052  0.49725858  0.06285726  1
  O2-  O124  1  0.25253833  0.49781276  0.40188522  1
  O2-  O125  1  0.24896185  0.49875635  0.72356910  1
  O2-  O126  1  0.74559522  0.00122282  0.05727297  1
  O2-  O127  1  0.74536919  0.00348040  0.39566221  1
  O2-  O128  1  0.74343000  0.00500870  0.73530103  1
  O2-  O129  1  0.75646513  0.50289078  0.06123185  1
  O2-  O130  1  0.75263842  0.49871146  0.38898590  1
  O2-  O131  1  0.75499072  0.50580674  0.72661453  1
  O2-  O132  1  -0.00693392  0.25476931  0.27541459  1
  O2-  O133  1  -0.00698767  0.25281668  0.60383857  1
  O2-  O134  1  0.00401833  0.25514985  0.93402531  1
  O2-  O135  1  0.00215016  0.74997265  0.27447047  1
  O2-  O136  1  0.00164897  0.74721175  0.60822717  1
  O2-  O137  1  0.00293765  0.75416791  0.94182454  1
  O2-  O138  1  0.50510192  0.24497823  0.27343644  1
  O2-  O139  1  0.50431006  0.24349928  0.60635697  1
  O2-  O140  1  0.49541763  0.25081787  0.94168046  1
  O2-  O141  1  0.50126477  0.75280446  0.27546116  1
  O2-  O142  1  0.50436323  0.75697395  0.59885248  1
  O2-  O143  1  0.49216355  0.74971475  0.94073570  1
  O2-  O144  1  0.06881352  0.17702780  0.09656687  1
  O2-  O145  1  0.06666994  0.17692142  0.43164219  1
  O2-  O146  1  0.07074932  0.18032273  0.76396513  1
  O2-  O147  1  0.06765505  0.68250666  0.09105772  1
  O2-  O148  1  0.06862419  0.67831898  0.42310307  1
  O2-  O149  1  0.07157095  0.67540892  0.75656077  1
  O2-  O150  1  0.57274359  0.17788684  0.10221086  1
  O2-  O151  1  0.57327905  0.18157574  0.42675938  1
  O2-  O152  1  0.57502486  0.18084206  0.75650208  1
  O2-  O153  1  0.57345662  0.68291304  0.09987042  1
  O2-  O154  1  0.57530994  0.68094257  0.42114962  1
  O2-  O155  1  0.56687592  0.67750758  0.76314422  1
  O2-  O156  1  0.17606577  0.43238426  0.23704163  1
  O2-  O157  1  0.17723686  0.42980991  0.57650163  1
  O2-  O158  1  0.17884948  0.43126858  0.89873197  1
  O2-  O159  1  0.17898714  0.92573039  0.24318991  1
  O2-  O160  1  0.18099566  0.92974106  0.56489150  1
  O2-  O161  1  0.17873297  0.92775889  0.90190519  1
  O2-  O162  1  0.67977263  0.42969192  0.24298915  1
  O2-  O163  1  0.68037108  0.43448271  0.56655874  1
  O2-  O164  1  0.67968889  0.43032632  0.90201470  1
  O2-  O165  1  0.68160195  0.92449190  0.23258912  1
  O2-  O166  1  0.68383126  0.92703101  0.57081739  1
  O2-  O167  1  0.68318279  0.92619183  0.90821471  1
  O2-  O168  1  0.43193763  0.32217042  0.09119368  1
  O2-  O169  1  0.43399398  0.32201829  0.43094130  1
  O2-  O170  1  0.42943350  0.32019395  0.76723516  1
  O2-  O171  1  0.43048013  0.82333244  0.09034505  1
  O2-  O172  1  0.42457957  0.82080589  0.42098544  1
  O2-  O173  1  0.42275856  0.81512682  0.76449986  1
  O2-  O174  1  0.92638966  0.31735608  0.09856647  1
  O2-  O175  1  0.92534398  0.32959171  0.42343008  1
  O2-  O176  1  0.93095145  0.32662399  0.75423311  1
  O2-  O177  1  0.92382231  0.81834811  0.08849236  1
  O2-  O178  1  0.92860625  0.81523917  0.42256646  1
  O2-  O179  1  0.93245386  0.81785130  0.75582864  1
  O2-  O180  1  0.32144060  0.07015913  0.23523583  1
  O2-  O181  1  0.31746964  0.07795049  0.57644535  1
  O2-  O182  1  0.32523819  0.06783906  0.89989971  1
  O2-  O183  1  0.32055394  0.57225559  0.23880237  1
  O2-  O184  1  0.31733071  0.57011275  0.57604911  1
  O2-  O185  1  0.32106340  0.57020544  0.89980447  1
  O2-  O186  1  0.82119942  0.06950915  0.23369606  1
  O2-  O187  1  0.82316845  0.06635536  0.57177097  1
  O2-  O188  1  0.81907954  0.06838186  0.91062344  1
  O2-  O189  1  0.82020075  0.57676811  0.24266507  1
  O2-  O190  1  0.82909257  0.57064186  0.57758316  1
  O2-  O191  1  0.82022033  0.58008937  0.91143609  1
  O2-  O192  1  0.03881913  0.08151290  0.26387059  1
  O2-  O193  1  0.03757082  0.08116167  0.59919858  1
  O2-  O194  1  0.03837605  0.08082422  0.93153400  1
  O2-  O195  1  0.03998073  0.58703042  0.27028896  1
  O2-  O196  1  0.04362244  0.58518619  0.60244646  1
  O2-  O197  1  0.04158682  0.59136576  0.93606888  1
  O2-  O198  1  0.54875341  0.08171553  0.27873699  1
  O2-  O199  1  0.55638425  0.08230322  0.60703320  1
  O2-  O200  1  0.54303882  0.08036132  0.93278389  1
  O2-  O201  1  0.54360099  0.58945322  0.26916849  1
  O2-  O202  1  0.53862593  0.58436974  0.59523455  1
  O2-  O203  1  0.54185982  0.58025818  0.93472788  1
  O2-  O204  1  0.16482218  0.21072766  0.26524009  1
  O2-  O205  1  0.16349268  0.21176950  0.59576711  1
  O2-  O206  1  0.17265996  0.20336273  0.93066686  1
  O2-  O207  1  0.16364514  0.70432965  0.27114615  1
  O2-  O208  1  0.16305817  0.70468618  0.60270866  1
  O2-  O209  1  0.16413457  0.70729554  0.93958033  1
  O2-  O210  1  0.66769287  0.20300278  0.27689924  1
  O2-  O211  1  0.66952531  0.20689597  0.60652281  1
  O2-  O212  1  0.66574027  0.20949957  0.93350658  1
  O2-  O213  1  0.66457249  0.70757956  0.26866192  1
  O2-  O214  1  0.67350174  0.70289952  0.59981465  1
  O2-  O215  1  0.66530892  0.71017428  0.93054429  1
  O2-  O216  1  0.07810072  0.46049494  0.06474947  1
  O2-  O217  1  0.08028633  0.46036872  0.40395449  1
  O2-  O218  1  0.08672802  0.45516638  0.72817635  1
  O2-  O219  1  0.07419493  0.95144667  0.06552344  1
  O2-  O220  1  0.08219045  0.94854271  0.39161844  1
  O2-  O221  1  0.08627598  0.95853272  0.73269554  1
  O2-  O222  1  0.58656375  0.46036189  0.07179497  1
  O2-  O223  1  0.58908802  0.46296244  0.39494515  1
  O2-  O224  1  0.58213152  0.46464052  0.73360783  1
  O2-  O225  1  0.58581492  0.94900501  0.05803140  1
  O2-  O226  1  0.57813242  0.94508876  0.39914764  1
  O2-  O227  1  0.57509851  0.94708882  0.73310736  1
  O2-  O228  1  0.20050449  0.32907049  0.06462811  1
  O2-  O229  1  0.20610661  0.33030436  0.40194786  1
  O2-  O230  1  0.20890587  0.33590607  0.72638723  1
  O2-  O231  1  0.20380788  0.83261145  0.07110433  1
  O2-  O232  1  0.20364285  0.83345949  0.39415155  1
  O2-  O233  1  0.20839768  0.83030692  0.73159974  1
  O2-  O234  1  0.71237372  0.33202986  0.07003202  1
  O2-  O235  1  0.70305019  0.33858275  0.39808956  1
  O2-  O236  1  0.70721705  0.33606121  0.73581645  1
  O2-  O237  1  0.71255716  0.83678461  0.06025545  1
  O2-  O238  1  0.71441623  0.83073868  0.40056454  1
  O2-  O239  1  0.71331578  0.83039673  0.73563484  1
  O2-  O240  1  0.46272075  0.41832084  0.26476747  1
  O2-  O241  1  0.46289811  0.41443740  0.59797190  1
  O2-  O242  1  0.45840130  0.41448282  0.94023847  1
  O2-  O243  1  0.45360682  0.91503848  0.26962948  1
  O2-  O244  1  0.44621998  0.92526174  0.60166855  1
  O2-  O245  1  0.45447530  0.91256158  0.93579291  1
  O2-  O246  1  0.94982079  0.41895883  0.27098202  1
  O2-  O247  1  0.95386975  0.41708725  0.60218049  1
  O2-  O248  1  0.94530423  0.42576619  0.93510979  1
  O2-  O249  1  0.95383203  0.90957878  0.26827344  1
  O2-  O250  1  0.96257423  0.90989220  0.60289226  1
  O2-  O251  1  0.95094517  0.91317026  0.93513245  1
  O2-  O252  1  0.33338884  0.29209627  0.26584532  1
  O2-  O253  1  0.33486383  0.28990772  0.59680217  1
  O2-  O254  1  0.33476257  0.29999971  0.93989330  1
  O2-  O255  1  0.33666567  0.79107352  0.26815829  1
  O2-  O256  1  0.33138405  0.78751058  0.59511901  1
  O2-  O257  1  0.33084316  0.79816552  0.94203865  1
  O2-  O258  1  0.83034680  0.29968901  0.27437422  1
  O2-  O259  1  0.83178208  0.30134294  0.60613702  1
  O2-  O260  1  0.83191592  0.28937955  0.93102989  1
  O2-  O261  1  0.83887601  0.78564675  0.26865430  1
  O2-  O262  1  0.84098418  0.79178732  0.60122970  1
  O2-  O263  1  0.83916266  0.78767131  0.93239353  1
  O2-  O264  1  0.41933279  0.03767087  0.06861289  1
  O2-  O265  1  0.41483434  0.04199963  0.40439626  1
  O2-  O266  1  0.41888725  0.05892072  0.72419997  1
  O2-  O267  1  0.42047024  0.54420155  0.06896660  1
  O2-  O268  1  0.42275616  0.54585442  0.40290294  1
  O2-  O269  1  0.41151201  0.54076114  0.72610372  1
  O2-  O270  1  0.90906461  0.03897456  0.06251575  1
  O2-  O271  1  0.91796263  0.03436713  0.39990509  1
  O2-  O272  1  0.91697077  0.03359847  0.73866726  1
  O2-  O273  1  0.91570879  0.55612340  0.06254529  1
  O2-  O274  1  0.91303246  0.54770160  0.39614931  1
  O2-  O275  1  0.91901926  0.54621629  0.73096400  1
  O2-  O276  1  0.29899065  0.17067967  0.06584942  1
  O2-  O277  1  0.28786479  0.16789360  0.40131236  1
  O2-  O278  1  0.28963112  0.16682297  0.72889459  1
  O2-  O279  1  0.29368629  0.66777233  0.06810130  1
  O2-  O280  1  0.29024663  0.66913406  0.40465628  1
  O2-  O281  1  0.29073138  0.66042695  0.72848509  1
  O2-  O282  1  0.79202388  0.16194830  0.06269502  1
  O2-  O283  1  0.80024220  0.17066571  0.40349043  1
  O2-  O284  1  0.80106129  0.17161184  0.73649953  1
  O2-  O285  1  0.79023135  0.66723750  0.06485167  1
  O2-  O286  1  0.79151026  0.66139916  0.39806202  1
  O2-  O287  1  0.80438938  0.66725258  0.72752308  1
