# generated using pymatgen
data_Ca2Al2SiO7
_symmetry_space_group_name_H-M   'P 1'
_cell_length_a   15.46072996
_cell_length_b   15.46136741
_cell_length_c   15.28543792
_cell_angle_alpha   90.02513684
_cell_angle_beta   89.99982104
_cell_angle_gamma   90.00955751
_symmetry_Int_Tables_number   1
_chemical_formula_structural   Ca2Al2SiO7
_chemical_formula_sum   'Ca48 Al48 Si24 O168'
_cell_volume   3653.89222135
_cell_formula_units_Z   24
loop_
 _symmetry_equiv_pos_site_id
 _symmetry_equiv_pos_as_xyz
  1  'x, y, z'
loop_
 _atom_type_symbol
 _atom_type_oxidation_number
  Ca2+  2.0
  Al0+  0.0
  Si0+  0.0
  O2-  -2.0
loop_
 _atom_site_type_symbol
 _atom_site_label
 _atom_site_symmetry_multiplicity
 _atom_site_fract_x
 _atom_site_fract_y
 _atom_site_fract_z
 _atom_site_occupancy
  Ca2+  Ca0  1  0.16466223  0.07509971  0.17401024  1
  Ca2+  Ca1  1  0.17236688  0.07069596  0.50824411  1
  Ca2+  Ca2  1  0.16979876  0.07979910  0.82723838  1
  Ca2+  Ca3  1  0.17171886  0.58132415  0.18079593  1
  Ca2+  Ca4  1  0.16432393  0.58037880  0.50178383  1
  Ca2+  Ca5  1  0.15882871  0.58221462  0.82669735  1
  Ca2+  Ca6  1  0.67450895  0.07792966  0.17099188  1
  Ca2+  Ca7  1  0.67761681  0.08046303  0.50608809  1
  Ca2+  Ca8  1  0.67330663  0.06986716  0.82925240  1
  Ca2+  Ca9  1  0.67250486  0.57288122  0.17278287  1
  Ca2+  Ca10  1  0.66237568  0.57271218  0.50582216  1
  Ca2+  Ca11  1  0.66218856  0.57499255  0.83583438  1
  Ca2+  Ca12  1  0.07086398  0.33922970  0.16527203  1
  Ca2+  Ca13  1  0.07448514  0.33863098  0.49485068  1
  Ca2+  Ca14  1  0.07151098  0.33435435  0.82240470  1
  Ca2+  Ca15  1  0.08156637  0.82901388  0.16605637  1
  Ca2+  Ca16  1  0.09104969  0.82766587  0.49607617  1
  Ca2+  Ca17  1  0.07301501  0.83059722  0.82142352  1
  Ca2+  Ca18  1  0.58166716  0.34012812  0.16773393  1
  Ca2+  Ca19  1  0.58118413  0.33605469  0.49237034  1
  Ca2+  Ca20  1  0.58676875  0.33475638  0.82696713  1
  Ca2+  Ca21  1  0.57852750  0.83565788  0.16248291  1
  Ca2+  Ca22  1  0.57340205  0.83785422  0.49969726  1
  Ca2+  Ca23  1  0.58419557  0.83163761  0.81822560  1
  Ca2+  Ca24  1  0.32633308  0.42424201  0.18198354  1
  Ca2+  Ca25  1  0.32354304  0.41876739  0.50240153  1
  Ca2+  Ca26  1  0.32398099  0.41829935  0.83337269  1
  Ca2+  Ca27  1  0.32745073  0.91575903  0.17758594  1
  Ca2+  Ca28  1  0.32792097  0.91247458  0.50690564  1
  Ca2+  Ca29  1  0.33251716  0.91523537  0.82776716  1
  Ca2+  Ca30  1  0.82564896  0.40457020  0.17156570  1
  Ca2+  Ca31  1  0.82667728  0.41170512  0.50711791  1
  Ca2+  Ca32  1  0.82723650  0.41358794  0.83460837  1
  Ca2+  Ca33  1  0.83173386  0.91799264  0.17229206  1
  Ca2+  Ca34  1  0.83436295  0.92843907  0.51147976  1
  Ca2+  Ca35  1  0.82813408  0.90853442  0.83723908  1
  Ca2+  Ca36  1  0.41572150  0.17578153  0.16621182  1
  Ca2+  Ca37  1  0.41624935  0.17040055  0.49520223  1
  Ca2+  Ca38  1  0.41898533  0.16539699  0.82463825  1
  Ca2+  Ca39  1  0.41315256  0.66929420  0.17075689  1
  Ca2+  Ca40  1  0.41840552  0.67262661  0.49711618  1
  Ca2+  Ca41  1  0.42697632  0.67401949  0.82139432  1
  Ca2+  Ca42  1  0.91252176  0.17314981  0.16823702  1
  Ca2+  Ca43  1  0.90787797  0.17345280  0.49636329  1
  Ca2+  Ca44  1  0.90669863  0.17754829  0.82863690  1
  Ca2+  Ca45  1  0.92564462  0.66776122  0.16352491  1
  Ca2+  Ca46  1  0.92843635  0.67230281  0.50063616  1
  Ca2+  Ca47  1  0.91897222  0.67744445  0.82315207  1
  Al0+  Al48  1  0.00170516  0.00060084  -0.00325072  1
  Al0+  Al49  1  -0.00026025  0.00131704  0.34068536  1
  Al0+  Al50  1  0.00214432  0.00556208  0.67373142  1
  Al0+  Al51  1  -0.00039214  0.49944456  -0.00499523  1
  Al0+  Al52  1  -0.00195049  0.50124006  0.32610551  1
  Al0+  Al53  1  -0.00222338  0.50005701  0.66373249  1
  Al0+  Al54  1  0.49992976  0.00189586  0.00420403  1
  Al0+  Al55  1  0.50063087  0.00029817  0.32620531  1
  Al0+  Al56  1  0.50258053  0.00203918  0.66811166  1
  Al0+  Al57  1  0.49827907  0.50031182  0.00404432  1
  Al0+  Al58  1  0.50003498  0.50063406  0.33521243  1
  Al0+  Al59  1  0.49824490  0.49974439  0.66810457  1
  Al0+  Al60  1  0.25017573  0.25043174  0.00051345  1
  Al0+  Al61  1  0.24919475  0.24949065  0.33047317  1
  Al0+  Al62  1  0.24843781  0.25110416  0.67512546  1
  Al0+  Al63  1  0.25154476  0.75010437  -0.00139097  1
  Al0+  Al64  1  0.25122269  0.74961035  0.33138481  1
  Al0+  Al65  1  0.25125452  0.74923538  0.66665199  1
  Al0+  Al66  1  0.74786858  0.24781231  0.00017596  1
  Al0+  Al67  1  0.74908474  0.24785362  0.33557476  1
  Al0+  Al68  1  0.74753272  0.24931171  0.67099182  1
  Al0+  Al69  1  0.74914647  0.74716717  0.00373175  1
  Al0+  Al70  1  0.74851489  0.74900454  0.33374576  1
  Al0+  Al71  1  0.75169737  0.74725135  0.65813553  1
  Al0+  Al72  1  0.57330134  0.67520025  0.65106402  1
  Al0+  Al73  1  0.82326003  0.07248333  0.68334666  1
  Al0+  Al74  1  0.81956414  0.06876351  0.34665987  1
  Al0+  Al75  1  0.92831813  0.31991913  0.32014668  1
  Al0+  Al76  1  0.43052721  0.82042743  0.31817895  1
  Al0+  Al77  1  0.32274496  0.07163295  0.68038336  1
  Al0+  Al78  1  0.17958357  0.92607086  0.68343719  1
  Al0+  Al79  1  0.17659098  0.43046925  0.68055366  1
  Al0+  Al80  1  0.92813207  0.31889383  0.98482589  1
  Al0+  Al81  1  0.67943170  0.42803724  0.01528522  1
  Al0+  Al82  1  0.07095225  0.68035152  0.65090370  1
  Al0+  Al83  1  0.68180096  0.43004416  0.34730674  1
  Al0+  Al84  1  0.92783299  0.31805869  0.65225844  1
  Al0+  Al85  1  0.43200577  0.82275596  0.65213296  1
  Al0+  Al86  1  0.32105110  0.57161295  0.34992813  1
  Al0+  Al87  1  0.67897442  0.92626703  0.01437307  1
  Al0+  Al88  1  0.92890829  0.81998372  0.98885092  1
  Al0+  Al89  1  0.17572001  0.42763692  0.34691854  1
  Al0+  Al90  1  0.92847824  0.82636019  0.65132464  1
  Al0+  Al91  1  0.42775788  0.32172206  0.32074554  1
  Al0+  Al92  1  0.07022657  0.68054984  0.31878614  1
  Al0+  Al93  1  0.18058685  0.92976291  0.34540247  1
  Al0+  Al94  1  0.68282538  0.92688178  0.67781761  1
  Al0+  Al95  1  0.67731227  0.43035576  0.68060181  1
  Si0+  Si96  1  0.07579981  0.18067836  0.64942441  1
  Si0+  Si97  1  0.42995993  0.82273227  0.98479494  1
  Si0+  Si98  1  0.82229122  0.57030200  0.68218376  1
  Si0+  Si99  1  0.42637901  0.32116444  0.65374018  1
  Si0+  Si100  1  0.32180344  0.07216228  0.01739960  1
  Si0+  Si101  1  0.32410701  0.07283941  0.34722507  1
  Si0+  Si102  1  0.17784099  0.42909010  0.01488285  1
  Si0+  Si103  1  0.57310222  0.67670629  0.31394123  1
  Si0+  Si104  1  0.07440829  0.67848784  0.98260523  1
  Si0+  Si105  1  0.56924531  0.67826516  0.98723471  1
  Si0+  Si106  1  0.67595552  0.92637713  0.34922583  1
  Si0+  Si107  1  0.56864678  0.17864948  0.98362105  1
  Si0+  Si108  1  0.82309558  0.57083118  0.01693874  1
  Si0+  Si109  1  0.42879729  0.32229745  0.98412453  1
  Si0+  Si110  1  0.32183409  0.57138120  0.68512081  1
  Si0+  Si111  1  0.82249552  0.07013036  0.01723907  1
  Si0+  Si112  1  0.07186001  0.17618630  0.31791722  1
  Si0+  Si113  1  0.82322290  0.57497035  0.35066041  1
  Si0+  Si114  1  0.18045590  0.92919068  0.01520200  1
  Si0+  Si115  1  0.31987201  0.57071534  0.01522802  1
  Si0+  Si116  1  0.57167871  0.17917162  0.31440611  1
  Si0+  Si117  1  0.56961190  0.18086484  0.65189735  1
  Si0+  Si118  1  0.92796421  0.82463006  0.31854221  1
  Si0+  Si119  1  0.07483994  0.17786271  0.98147490  1
  O2-  O120  1  0.25092304  0.00069425  0.05861720  1
  O2-  O121  1  0.25633534  0.00406591  0.39052745  1
  O2-  O122  1  0.25354458  -0.00216562  0.73249906  1
  O2-  O123  1  0.24616081  0.50233969  0.05702331  1
  O2-  O124  1  0.24895731  0.49819261  0.39717602  1
  O2-  O125  1  0.25046000  0.50527285  0.72965030  1
  O2-  O126  1  0.75773055  -0.00286005  0.06106997  1
  O2-  O127  1  0.74885458  -0.00988242  0.39195998  1
  O2-  O128  1  0.76111806  -0.00966635  0.73132414  1
  O2-  O129  1  0.75854364  0.49811262  0.06163024  1
  O2-  O130  1  0.75578670  0.50462024  0.39393458  1
  O2-  O131  1  0.74908000  0.50696394  0.72823466  1
  O2-  O132  1  0.00700612  0.24864084  0.27316791  1
  O2-  O133  1  0.00244646  0.24378950  0.60509081  1
  O2-  O134  1  0.00489550  0.24593744  0.93861724  1
  O2-  O135  1  -0.00574761  0.75466056  0.27213877  1
  O2-  O136  1  0.00563117  0.75918162  0.60190662  1
  O2-  O137  1  0.00381284  0.74601949  0.94130842  1
  O2-  O138  1  0.50193692  0.24759446  0.27065054  1
  O2-  O139  1  0.49709313  0.25078698  0.61093805  1
  O2-  O140  1  0.49931266  0.25171998  0.94084224  1
  O2-  O141  1  0.50689627  0.74808450  0.26917607  1
  O2-  O142  1  0.50468954  0.75122865  0.60253083  1
  O2-  O143  1  0.50445488  0.75487109  0.94424060  1
  O2-  O144  1  0.07776072  0.17718833  0.08717842  1
  O2-  O145  1  0.07189997  0.17400465  0.42273669  1
  O2-  O146  1  0.07987822  0.18605588  0.75532233  1
  O2-  O147  1  0.07709302  0.67909280  0.08821371  1
  O2-  O148  1  0.07031877  0.68116614  0.43094084  1
  O2-  O149  1  0.06620534  0.67906470  0.76533485  1
  O2-  O150  1  0.56636817  0.17811632  0.08871388  1
  O2-  O151  1  0.57097626  0.17841589  0.41984803  1
  O2-  O152  1  0.56880373  0.18176075  0.75749332  1
  O2-  O153  1  0.56583160  0.67689933  0.09213535  1
  O2-  O154  1  0.57293797  0.67585424  0.41875731  1
  O2-  O155  1  0.56881529  0.67332414  0.76584979  1
  O2-  O156  1  0.17754505  0.42999913  0.23212317  1
  O2-  O157  1  0.17870722  0.42924215  0.56816622  1
  O2-  O158  1  0.17981703  0.42886731  0.90991624  1
  O2-  O159  1  0.18063617  0.93201532  0.23106066  1
  O2-  O160  1  0.18247616  0.92757655  0.56993852  1
  O2-  O161  1  0.18295178  0.92823478  0.91090831  1
  O2-  O162  1  0.68313304  0.43047572  0.23361487  1
  O2-  O163  1  0.67758396  0.42839457  0.56780457  1
  O2-  O164  1  0.67649628  0.43095043  0.90255112  1
  O2-  O165  1  0.67626491  0.92846140  0.24287636  1
  O2-  O166  1  0.67817682  0.93432446  0.56468759  1
  O2-  O167  1  0.67650956  0.92713456  0.90188446  1
  O2-  O168  1  0.42791051  0.32143504  0.08911356  1
  O2-  O169  1  0.42835855  0.31856418  0.43377078  1
  O2-  O170  1  0.42786229  0.32058088  0.75960560  1
  O2-  O171  1  0.42767476  0.82091739  0.08985194  1
  O2-  O172  1  0.43219614  0.82289856  0.43027347  1
  O2-  O173  1  0.43376387  0.82091184  0.76688026  1
  O2-  O174  1  0.92892652  0.31601037  0.09805971  1
  O2-  O175  1  0.92601889  0.31751369  0.43257307  1
  O2-  O176  1  0.92816591  0.31768827  0.76594014  1
  O2-  O177  1  0.93225450  0.81914290  0.10234955  1
  O2-  O178  1  0.92992781  0.82498480  0.42329160  1
  O2-  O179  1  0.92744317  0.81958607  0.76563929  1
  O2-  O180  1  0.32285973  0.07196415  0.24081802  1
  O2-  O181  1  0.32102994  0.07517659  0.56706480  1
  O2-  O182  1  0.32382273  0.07329221  0.91293678  1
  O2-  O183  1  0.31898812  0.57060118  0.23491892  1
  O2-  O184  1  0.32503397  0.56840418  0.58030632  1
  O2-  O185  1  0.32279156  0.56938601  0.91051111  1
  O2-  O186  1  0.81811956  0.06808062  0.23275645  1
  O2-  O187  1  0.81572374  0.07653696  0.57007782  1
  O2-  O188  1  0.81939227  0.07194130  0.91232802  1
  O2-  O189  1  0.82074522  0.57751216  0.24451102  1
  O2-  O190  1  0.82432407  0.56493236  0.57688014  1
  O2-  O191  1  0.82062666  0.57285936  0.91174808  1
  O2-  O192  1  0.04037915  0.08449401  0.26904599  1
  O2-  O193  1  0.05723125  0.08409632  0.60833099  1
  O2-  O194  1  0.05174237  0.08380314  0.93556821  1
  O2-  O195  1  0.03950310  0.58563148  0.25996892  1
  O2-  O196  1  0.03614864  0.58415284  0.59792605  1
  O2-  O197  1  0.05070679  0.58405603  0.93743118  1
  O2-  O198  1  0.54686114  0.08644342  0.26504834  1
  O2-  O199  1  0.54326028  0.09013990  0.60267077  1
  O2-  O200  1  0.53695458  0.08783324  0.93616841  1
  O2-  O201  1  0.54433432  0.58443080  0.26632948  1
  O2-  O202  1  0.53798416  0.57843221  0.59820028  1
  O2-  O203  1  0.53482345  0.58839411  0.93915431  1
  O2-  O204  1  0.16646835  0.19563233  0.26998630  1
  O2-  O205  1  0.16790722  0.21092883  0.60308394  1
  O2-  O206  1  0.16844901  0.20521676  0.93546040  1
  O2-  O207  1  0.16580240  0.71276024  0.26282692  1
  O2-  O208  1  0.17237721  0.70007029  0.60201700  1
  O2-  O209  1  0.16769029  0.70515179  0.93594860  1
  O2-  O210  1  0.66375794  0.20734514  0.26683880  1
  O2-  O211  1  0.65953659  0.21200152  0.60394540  1
  O2-  O212  1  0.66061972  0.20478267  0.93686645  1
  O2-  O213  1  0.66779205  0.70006310  0.26720624  1
  O2-  O214  1  0.67275667  0.69296781  0.59774729  1
  O2-  O215  1  0.66361069  0.69806602  0.94247928  1
  O2-  O216  1  0.08405881  0.45393260  0.05968509  1
  O2-  O217  1  0.07632788  0.45715548  0.39546350  1
  O2-  O218  1  0.08047674  0.46281986  0.73532197  1
  O2-  O219  1  0.08840081  0.95738691  0.06228703  1
  O2-  O220  1  0.08554506  0.95955513  0.40083681  1
  O2-  O221  1  0.08327822  0.95829182  0.73902622  1
  O2-  O222  1  0.58271895  0.46181229  0.06863746  1
  O2-  O223  1  0.58437196  0.45904129  0.39918212  1
  O2-  O224  1  0.57978645  0.45802617  0.73586404  1
  O2-  O225  1  0.58361191  0.96257438  0.06929813  1
  O2-  O226  1  0.58342252  0.95825994  0.39283950  1
  O2-  O227  1  0.58755916  0.96351419  0.73351786  1
  O2-  O228  1  0.20737156  0.33747701  0.06167806  1
  O2-  O229  1  0.20214498  0.32754592  0.39657131  1
  O2-  O230  1  0.20991386  0.33707226  0.73953345  1
  O2-  O231  1  0.20972357  0.83691351  0.06203307  1
  O2-  O232  1  0.21325301  0.83433244  0.39724210  1
  O2-  O233  1  0.20779960  0.82786305  0.73769172  1
  O2-  O234  1  0.70621664  0.32943524  0.06777082  1
  O2-  O235  1  0.70934225  0.33257611  0.39971036  1
  O2-  O236  1  0.70937681  0.33510892  0.73613272  1
  O2-  O237  1  0.70396385  0.82855859  0.06967638  1
  O2-  O238  1  0.69321688  0.83018649  0.39166579  1
  O2-  O239  1  0.70237024  0.82440552  0.72668291  1
  O2-  O240  1  0.45968927  0.41795255  0.26573292  1
  O2-  O241  1  0.45361918  0.41245250  0.60696151  1
  O2-  O242  1  0.45606572  0.41474248  0.93785911  1
  O2-  O243  1  0.45878208  0.91747258  0.26074706  1
  O2-  O244  1  0.45953112  0.92189883  0.60019278  1
  O2-  O245  1  0.45341117  0.91708779  0.94128837  1
  O2-  O246  1  0.95328881  0.41664102  0.26270012  1
  O2-  O247  1  0.95785217  0.41463165  0.59972411  1
  O2-  O248  1  0.95597205  0.41688475  0.93171226  1
  O2-  O249  1  0.95576775  0.91782455  0.27207062  1
  O2-  O250  1  0.95065769  0.92966470  0.60714230  1
  O2-  O251  1  0.95773872  0.91719949  0.93536931  1
  O2-  O252  1  0.33206816  0.29074659  0.26259484  1
  O2-  O253  1  0.33423996  0.29285288  0.60852719  1
  O2-  O254  1  0.33644756  0.29388132  0.93743704  1
  O2-  O255  1  0.33564466  0.78742297  0.26130852  1
  O2-  O256  1  0.33338520  0.79344968  0.60213294  1
  O2-  O257  1  0.33920284  0.79150051  0.93702977  1
  O2-  O258  1  0.83329769  0.28197755  0.26568989  1
  O2-  O259  1  0.83000104  0.28613167  0.60153653  1
  O2-  O260  1  0.83055547  0.28703778  0.93291798  1
  O2-  O261  1  0.83215301  0.80121032  0.27448546  1
  O2-  O262  1  0.83277450  0.79563783  0.59501502  1
  O2-  O263  1  0.83120061  0.78820142  0.93727120  1
  O2-  O264  1  0.41271000  0.04542106  0.06690329  1
  O2-  O265  1  0.41917655  0.04891585  0.39010425  1
  O2-  O266  1  0.42129418  0.04599918  0.73513973  1
  O2-  O267  1  0.40960622  0.54070953  0.06539512  1
  O2-  O268  1  0.41962166  0.54478403  0.40099627  1
  O2-  O269  1  0.41271935  0.54063039  0.73489272  1
  O2-  O270  1  0.91888928  0.05015662  0.06060218  1
  O2-  O271  1  0.91594889  0.04450515  0.40257448  1
  O2-  O272  1  0.92526514  0.06306543  0.73432571  1
  O2-  O273  1  0.91925798  0.54895021  0.06036265  1
  O2-  O274  1  0.91752773  0.55016656  0.39296686  1
  O2-  O275  1  0.91250345  0.53984577  0.73233805  1
  O2-  O276  1  0.29362348  0.16476400  0.06450727  1
  O2-  O277  1  0.30008782  0.16663420  0.39210332  1
  O2-  O278  1  0.29183689  0.16773389  0.73876508  1
  O2-  O279  1  0.29429725  0.66409732  0.06179342  1
  O2-  O280  1  0.29254343  0.66960445  0.40064074  1
  O2-  O281  1  0.29899705  0.66494475  0.73231732  1
  O2-  O282  1  0.78961248  0.16124645  0.06465985  1
  O2-  O283  1  0.78290703  0.16231789  0.40156890  1
  O2-  O284  1  0.77973888  0.16455144  0.73975809  1
  O2-  O285  1  0.79382115  0.66139194  0.06742151  1
  O2-  O286  1  0.79749014  0.66817836  0.39754861  1
  O2-  O287  1  0.80198646  0.66622403  0.72519289  1
