# generated using pymatgen
data_Ca2Al2SiO7
_symmetry_space_group_name_H-M   'P 1'
_cell_length_a   15.45985501
_cell_length_b   15.45959404
_cell_length_c   15.28501619
_cell_angle_alpha   90.00365916
_cell_angle_beta   89.98374338
_cell_angle_gamma   90.00346934
_symmetry_Int_Tables_number   1
_chemical_formula_structural   Ca2Al2SiO7
_chemical_formula_sum   'Ca48 Al48 Si24 O168'
_cell_volume   3653.16582048
_cell_formula_units_Z   24
loop_
 _symmetry_equiv_pos_site_id
 _symmetry_equiv_pos_as_xyz
  1  'x, y, z'
loop_
 _atom_type_symbol
 _atom_type_oxidation_number
  Ca2+  2.0
  Al0+  0.0
  Si0+  0.0
  O2-  -2.0
loop_
 _atom_site_type_symbol
 _atom_site_label
 _atom_site_symmetry_multiplicity
 _atom_site_fract_x
 _atom_site_fract_y
 _atom_site_fract_z
 _atom_site_occupancy
  Ca2+  Ca0  1  0.17599340  0.07445695  0.16998807  1
  Ca2+  Ca1  1  0.17992532  0.07713769  0.50197120  1
  Ca2+  Ca2  1  0.17942088  0.07811709  0.83945349  1
  Ca2+  Ca3  1  0.16827593  0.58581040  0.16809573  1
  Ca2+  Ca4  1  0.16815750  0.58062848  0.50613838  1
  Ca2+  Ca5  1  0.17786320  0.57934104  0.83394630  1
  Ca2+  Ca6  1  0.66767228  0.07781368  0.17594700  1
  Ca2+  Ca7  1  0.66591468  0.08148746  0.50324173  1
  Ca2+  Ca8  1  0.66887812  0.08736489  0.83039367  1
  Ca2+  Ca9  1  0.66843877  0.58151283  0.16840853  1
  Ca2+  Ca10  1  0.66438551  0.58794279  0.50055404  1
  Ca2+  Ca11  1  0.67093677  0.57573525  0.84568890  1
  Ca2+  Ca12  1  0.07746308  0.33022190  0.15933012  1
  Ca2+  Ca13  1  0.08696782  0.33391100  0.49868440  1
  Ca2+  Ca14  1  0.07866985  0.33927491  0.83053410  1
  Ca2+  Ca15  1  0.07877981  0.83999184  0.16273028  1
  Ca2+  Ca16  1  0.07461469  0.83616081  0.49106039  1
  Ca2+  Ca17  1  0.07608520  0.83935892  0.83121062  1
  Ca2+  Ca18  1  0.58052939  0.32602716  0.15940182  1
  Ca2+  Ca19  1  0.57704494  0.32064428  0.49966110  1
  Ca2+  Ca20  1  0.57318893  0.33179589  0.82945207  1
  Ca2+  Ca21  1  0.57900892  0.83450917  0.17153510  1
  Ca2+  Ca22  1  0.57227742  0.83344451  0.49125173  1
  Ca2+  Ca23  1  0.57527198  0.82876374  0.82649172  1
  Ca2+  Ca24  1  0.34297597  0.42242449  0.16547006  1
  Ca2+  Ca25  1  0.32887506  0.42412777  0.51263590  1
  Ca2+  Ca26  1  0.33919861  0.42265693  0.83793776  1
  Ca2+  Ca27  1  0.32619544  0.92345914  0.17615656  1
  Ca2+  Ca28  1  0.33910952  0.92101352  0.50342341  1
  Ca2+  Ca29  1  0.33438539  0.92659877  0.84017129  1
  Ca2+  Ca30  1  0.83173019  0.41869737  0.16576944  1
  Ca2+  Ca31  1  0.82964668  0.42019490  0.50577856  1
  Ca2+  Ca32  1  0.82598501  0.42205438  0.84645896  1
  Ca2+  Ca33  1  0.82894535  0.90777925  0.17276460  1
  Ca2+  Ca34  1  0.82893493  0.91355463  0.50385600  1
  Ca2+  Ca35  1  0.83773293  0.91886277  0.83526739  1
  Ca2+  Ca36  1  0.41771061  0.16416910  0.16226314  1
  Ca2+  Ca37  1  0.42121302  0.16196425  0.49619043  1
  Ca2+  Ca38  1  0.41525251  0.17400255  0.82450988  1
  Ca2+  Ca39  1  0.41688296  0.67059800  0.16508629  1
  Ca2+  Ca40  1  0.41486823  0.67726070  0.49470863  1
  Ca2+  Ca41  1  0.41009457  0.66928936  0.82683792  1
  Ca2+  Ca42  1  0.91938898  0.17092623  0.15852051  1
  Ca2+  Ca43  1  0.91606610  0.16482693  0.49955108  1
  Ca2+  Ca44  1  0.91649195  0.16990992  0.82838430  1
  Ca2+  Ca45  1  0.92208418  0.67576239  0.16189062  1
  Ca2+  Ca46  1  0.92468409  0.67757424  0.49127197  1
  Ca2+  Ca47  1  0.91309835  0.67684569  0.83038158  1
  Al0+  Al48  1  0.00012875  0.00014902  -0.00207662  1
  Al0+  Al49  1  0.00119300  0.00355532  0.33190661  1
  Al0+  Al50  1  -0.00219138  0.00215314  0.66589001  1
  Al0+  Al51  1  0.00081907  0.50185253  -0.00138645  1
  Al0+  Al52  1  -0.00101085  0.50177011  0.33090132  1
  Al0+  Al53  1  -0.00120139  0.50099505  0.67046015  1
  Al0+  Al54  1  0.50241022  -0.00074538  0.00182171  1
  Al0+  Al55  1  0.50339136  0.00056311  0.33196508  1
  Al0+  Al56  1  0.50181411  -0.00188494  0.66563371  1
  Al0+  Al57  1  0.50153203  0.49764178  0.00550157  1
  Al0+  Al58  1  0.50071337  0.49883386  0.33362481  1
  Al0+  Al59  1  0.50060526  0.49846543  0.66606172  1
  Al0+  Al60  1  0.25137154  0.24998997  -0.00055040  1
  Al0+  Al61  1  0.24901881  0.25143900  0.33600013  1
  Al0+  Al62  1  0.24637991  0.24970655  0.67027508  1
  Al0+  Al63  1  0.24875489  0.74919381  0.00583291  1
  Al0+  Al64  1  0.24813445  0.74942393  0.33035930  1
  Al0+  Al65  1  0.24757603  0.74847472  0.66637197  1
  Al0+  Al66  1  0.75023099  0.24927185  -0.00059152  1
  Al0+  Al67  1  0.74752850  0.25171155  0.33100742  1
  Al0+  Al68  1  0.75000958  0.24971406  0.66656218  1
  Al0+  Al69  1  0.75134904  0.74959663  -0.00156781  1
  Al0+  Al70  1  0.75032534  0.74897430  0.33278011  1
  Al0+  Al71  1  0.74995682  0.75114613  0.66392747  1
  Al0+  Al72  1  0.67981588  0.42754270  0.01685570  1
  Al0+  Al73  1  0.42732702  0.81948586  0.65579146  1
  Al0+  Al74  1  0.82250331  0.57293418  0.01625962  1
  Al0+  Al75  1  0.32377133  0.07241259  0.01506825  1
  Al0+  Al76  1  0.42529665  0.32170242  0.65131303  1
  Al0+  Al77  1  0.32192467  0.07091029  0.34926607  1
  Al0+  Al78  1  0.93066610  0.82347376  0.31780302  1
  Al0+  Al79  1  0.42846016  0.82206814  0.31716156  1
  Al0+  Al80  1  0.68200739  0.92791953  0.34732805  1
  Al0+  Al81  1  0.57068849  0.17964236  0.31846430  1
  Al0+  Al82  1  0.57069760  0.67657112  0.31770405  1
  Al0+  Al83  1  0.92923076  0.82041319  0.98380270  1
  Al0+  Al84  1  0.32165169  0.57007725  0.01559763  1
  Al0+  Al85  1  0.17668421  0.42783781  0.68256373  1
  Al0+  Al86  1  0.32208160  0.57096070  0.68047657  1
  Al0+  Al87  1  0.17756970  0.92731501  0.34955912  1
  Al0+  Al88  1  0.07140497  0.67728219  0.31719996  1
  Al0+  Al89  1  0.57105585  0.17957128  0.65155952  1
  Al0+  Al90  1  0.43014476  0.32006815  0.98663368  1
  Al0+  Al91  1  0.92936624  0.82273197  0.65166834  1
  Al0+  Al92  1  0.92922137  0.32127633  0.98594043  1
  Al0+  Al93  1  0.32347364  0.06879192  0.68055731  1
  Al0+  Al94  1  0.17821226  0.92963263  0.01423262  1
  Al0+  Al95  1  0.82047974  0.07077008  0.68023098  1
  Si0+  Si96  1  0.32219575  0.57016549  0.34798529  1
  Si0+  Si97  1  0.17786204  0.42782375  0.01733266  1
  Si0+  Si98  1  0.07228788  0.18141614  0.31830095  1
  Si0+  Si99  1  0.67985091  0.92764080  0.01416916  1
  Si0+  Si100  1  0.07468601  0.67781404  0.97985278  1
  Si0+  Si101  1  0.92913793  0.32219254  0.65184978  1
  Si0+  Si102  1  0.81957683  0.57221382  0.68081807  1
  Si0+  Si103  1  0.68039667  0.42856415  0.68085510  1
  Si0+  Si104  1  0.07153089  0.17859619  0.98172446  1
  Si0+  Si105  1  0.17674712  0.43030228  0.34681921  1
  Si0+  Si106  1  0.82189160  0.07597761  0.34829198  1
  Si0+  Si107  1  0.92816059  0.32169312  0.31976282  1
  Si0+  Si108  1  0.57277019  0.67671536  0.65261117  1
  Si0+  Si109  1  0.57288960  0.17478960  0.98225192  1
  Si0+  Si110  1  0.17646475  0.92827321  0.68192785  1
  Si0+  Si111  1  0.57019293  0.67923521  0.98633852  1
  Si0+  Si112  1  0.82104922  0.56927338  0.34991204  1
  Si0+  Si113  1  0.67874495  0.42775598  0.35133194  1
  Si0+  Si114  1  0.82070386  0.07060032  0.01378000  1
  Si0+  Si115  1  0.06928726  0.67727033  0.65066347  1
  Si0+  Si116  1  0.42637331  0.32088951  0.31735058  1
  Si0+  Si117  1  0.67903931  0.92646309  0.68478881  1
  Si0+  Si118  1  0.42844378  0.82046334  0.98631577  1
  Si0+  Si119  1  0.07006998  0.17899972  0.65091432  1
  O2-  O120  1  0.25312411  -0.00128265  0.06353927  1
  O2-  O121  1  0.25439831  -0.00565995  0.39964047  1
  O2-  O122  1  0.25046958  -0.00875166  0.72602887  1
  O2-  O123  1  0.24747204  0.49448655  0.06290577  1
  O2-  O124  1  0.24822114  0.50083364  0.38819110  1
  O2-  O125  1  0.25440675  0.49455197  0.73086517  1
  O2-  O126  1  0.75066781  -0.00055215  0.05573407  1
  O2-  O127  1  0.75826386  0.00268800  0.39193194  1
  O2-  O128  1  0.74745216  -0.00437085  0.72897534  1
  O2-  O129  1  0.75300651  0.49868218  0.06712973  1
  O2-  O130  1  0.74802541  0.50062403  0.39386058  1
  O2-  O131  1  0.74686177  0.50368348  0.72296293  1
  O2-  O132  1  -0.00211570  0.24999415  0.27736274  1
  O2-  O133  1  0.00153379  0.25370023  0.60844130  1
  O2-  O134  1  0.00481711  0.24926551  0.93663787  1
  O2-  O135  1  0.00568334  0.75505653  0.26724575  1
  O2-  O136  1  0.00475554  0.74924812  0.60575375  1
  O2-  O137  1  0.00476038  0.74637010  0.93672367  1
  O2-  O138  1  0.49219467  0.25017356  0.27249985  1
  O2-  O139  1  0.49339514  0.24579320  0.60130678  1
  O2-  O140  1  0.50172009  0.24190227  0.94046080  1
  O2-  O141  1  0.49854795  0.74755346  0.26673986  1
  O2-  O142  1  0.50008884  0.74174057  0.61059615  1
  O2-  O143  1  0.49711064  0.74727043  0.94295722  1
  O2-  O144  1  0.06800223  0.17965566  0.08775237  1
  O2-  O145  1  0.07287041  0.18381288  0.42354495  1
  O2-  O146  1  0.06653101  0.17717640  0.75576513  1
  O2-  O147  1  0.07352334  0.67713281  0.08521528  1
  O2-  O148  1  0.06493439  0.66929747  0.43066936  1
  O2-  O149  1  0.06661539  0.67537918  0.75603487  1
  O2-  O150  1  0.57510707  0.17434959  0.08783392  1
  O2-  O151  1  0.57552651  0.18361446  0.43110104  1
  O2-  O152  1  0.57426652  0.18406761  0.76510920  1
  O2-  O153  1  0.57100114  0.68165344  0.09099140  1
  O2-  O154  1  0.56753942  0.67535886  0.43172539  1
  O2-  O155  1  0.57713224  0.67853875  0.75845105  1
  O2-  O156  1  0.17440369  0.42838061  0.24197199  1
  O2-  O157  1  0.17216207  0.43291377  0.56839944  1
  O2-  O158  1  0.17713088  0.42970611  0.91205225  1
  O2-  O159  1  0.17557861  0.93385325  0.23637138  1
  O2-  O160  1  0.17416423  0.93153905  0.57663686  1
  O2-  O161  1  0.17875120  0.93190706  0.89998929  1
  O2-  O162  1  0.68168339  0.42537904  0.24674644  1
  O2-  O163  1  0.68407258  0.42808650  0.57539512  1
  O2-  O164  1  0.68007191  0.43013322  0.90258727  1
  O2-  O165  1  0.68369846  0.92987864  0.23356115  1
  O2-  O166  1  0.68072926  0.92410601  0.57952421  1
  O2-  O167  1  0.67841870  0.92717071  0.90900743  1
  O2-  O168  1  0.43326060  0.32017523  0.09992460  1
  O2-  O169  1  0.42726086  0.32229363  0.42272846  1
  O2-  O170  1  0.43076234  0.32339219  0.76485553  1
  O2-  O171  1  0.43129530  0.82113946  0.09090140  1
  O2-  O172  1  0.43019410  0.82000666  0.43109223  1
  O2-  O173  1  0.43027121  0.81910819  0.76967760  1
  O2-  O174  1  0.93059413  0.31724689  0.09967797  1
  O2-  O175  1  0.92848267  0.32281907  0.42527520  1
  O2-  O176  1  0.92827376  0.32166437  0.75665295  1
  O2-  O177  1  0.92771775  0.82071159  0.09625424  1
  O2-  O178  1  0.93004662  0.82013848  0.43167054  1
  O2-  O179  1  0.92938049  0.82078854  0.76492754  1
  O2-  O180  1  0.31760667  0.07425998  0.23598214  1
  O2-  O181  1  0.32214280  0.06827175  0.56776259  1
  O2-  O182  1  0.32380665  0.07066376  0.90112538  1
  O2-  O183  1  0.32474351  0.56612726  0.24289888  1
  O2-  O184  1  0.31923333  0.57176589  0.56660027  1
  O2-  O185  1  0.32158913  0.57066343  0.90271992  1
  O2-  O186  1  0.81964153  0.08115825  0.24258099  1
  O2-  O187  1  0.82021853  0.07183918  0.56734473  1
  O2-  O188  1  0.81999323  0.07122295  0.90860722  1
  O2-  O189  1  0.82282980  0.56583174  0.24539290  1
  O2-  O190  1  0.82046630  0.56963666  0.57538810  1
  O2-  O191  1  0.81704565  0.57335400  0.90182718  1
  O2-  O192  1  0.04600366  0.09080286  0.26876468  1
  O2-  O193  1  0.03686121  0.09038648  0.60091476  1
  O2-  O194  1  0.04203982  0.08711118  0.93422315  1
  O2-  O195  1  0.03668204  0.58108748  0.26132201  1
  O2-  O196  1  0.03826622  0.58511812  0.60356006  1
  O2-  O197  1  0.05030512  0.58380536  0.93416764  1
  O2-  O198  1  0.54646618  0.08254496  0.26393961  1
  O2-  O199  1  0.55022974  0.07843759  0.60194737  1
  O2-  O200  1  0.55110501  0.08009035  0.93600586  1
  O2-  O201  1  0.54416777  0.57702727  0.26541918  1
  O2-  O202  1  0.55386563  0.58169337  0.60717255  1
  O2-  O203  1  0.54548965  0.58570184  0.94137812  1
  O2-  O204  1  0.16148230  0.21443576  0.26907147  1
  O2-  O205  1  0.16139516  0.20477554  0.60216338  1
  O2-  O206  1  0.16605992  0.20192300  0.93740497  1
  O2-  O207  1  0.17219767  0.69500301  0.26644190  1
  O2-  O208  1  0.16400729  0.69767943  0.60539217  1
  O2-  O209  1  0.16844204  0.70465865  0.93430216  1
  O2-  O210  1  0.66573974  0.21507762  0.26255546  1
  O2-  O211  1  0.66801647  0.21428036  0.59761346  1
  O2-  O212  1  0.66613684  0.20253265  0.93650855  1
  O2-  O213  1  0.66985456  0.70343122  0.26684319  1
  O2-  O214  1  0.66445505  0.70542213  0.60362768  1
  O2-  O215  1  0.66052952  0.70939340  0.93695249  1
  O2-  O216  1  0.08442332  0.45439973  0.06366036  1
  O2-  O217  1  0.08465124  0.45759249  0.39503675  1
  O2-  O218  1  0.07960457  0.46131021  0.73744262  1
  O2-  O219  1  0.08034193  0.96217473  0.06660862  1
  O2-  O220  1  0.08019413  0.96299802  0.40215636  1
  O2-  O221  1  0.08512327  0.96106520  0.72876326  1
  O2-  O222  1  0.58389456  0.45716361  0.07251126  1
  O2-  O223  1  0.58656342  0.45420654  0.39861980  1
  O2-  O224  1  0.58766822  0.45235451  0.72756771  1
  O2-  O225  1  0.58895821  0.95466712  0.06341222  1
  O2-  O226  1  0.58629796  0.96020083  0.40122678  1
  O2-  O227  1  0.58625402  0.95184477  0.73214261  1
  O2-  O228  1  0.19991353  0.33292182  0.06203127  1
  O2-  O229  1  0.20366617  0.33929162  0.39645654  1
  O2-  O230  1  0.19339792  0.32706058  0.73414872  1
  O2-  O231  1  0.20108285  0.83054199  0.06660044  1
  O2-  O232  1  0.19685062  0.82499192  0.39839267  1
  O2-  O233  1  0.19390448  0.83201919  0.72514927  1
  O2-  O234  1  0.70913867  0.32853198  0.06870186  1
  O2-  O235  1  0.71123568  0.33787455  0.40017627  1
  O2-  O236  1  0.71375927  0.33974126  0.72939775  1
  O2-  O237  1  0.70923192  0.83691624  0.06158430  1
  O2-  O238  1  0.71051911  0.83082479  0.40230546  1
  O2-  O239  1  0.70597160  0.83303782  0.73191493  1
  O2-  O240  1  0.45670271  0.41318906  0.27153996  1
  O2-  O241  1  0.45837179  0.41899323  0.59731907  1
  O2-  O242  1  0.46500185  0.41661867  0.93381676  1
  O2-  O243  1  0.46177754  0.91850424  0.26392486  1
  O2-  O244  1  0.46212773  0.91360437  0.60057937  1
  O2-  O245  1  0.46058559  0.91133342  0.93872264  1
  O2-  O246  1  0.95742910  0.41198469  0.27122092  1
  O2-  O247  1  0.95498112  0.41505643  0.60465497  1
  O2-  O248  1  0.95720180  0.41913733  0.93270191  1
  O2-  O249  1  0.95208174  0.92494522  0.26711403  1
  O2-  O250  1  0.95711330  0.92031306  0.59884471  1
  O2-  O251  1  0.95904497  0.91822781  0.93041715  1
  O2-  O252  1  0.33105729  0.30037122  0.27231035  1
  O2-  O253  1  0.32312018  0.30057293  0.60342711  1
  O2-  O254  1  0.33146713  0.29564175  0.93347519  1
  O2-  O255  1  0.32933409  0.79579230  0.26578745  1
  O2-  O256  1  0.32984690  0.79210342  0.60160611  1
  O2-  O257  1  0.33544152  0.79429001  0.94118986  1
  O2-  O258  1  0.83665291  0.29511288  0.27193769  1
  O2-  O259  1  0.83887535  0.29216513  0.60268190  1
  O2-  O260  1  0.83307840  0.28886940  0.93174441  1
  O2-  O261  1  0.83330330  0.78951176  0.26684034  1
  O2-  O262  1  0.83266678  0.79062696  0.59861889  1
  O2-  O263  1  0.83258695  0.78890684  0.92868132  1
  O2-  O264  1  0.42318411  0.04478290  0.06630184  1
  O2-  O265  1  0.42273245  0.04683682  0.39793058  1
  O2-  O266  1  0.42078175  0.04008660  0.73425713  1
  O2-  O267  1  0.41717891  0.53846476  0.07074074  1
  O2-  O268  1  0.41280325  0.53995737  0.39660835  1
  O2-  O269  1  0.42289665  0.54744698  0.73208213  1
  O2-  O270  1  0.91315478  0.04545528  0.06041236  1
  O2-  O271  1  0.91792616  0.05739762  0.39156216  1
  O2-  O272  1  0.91682314  0.04164072  0.73599102  1
  O2-  O273  1  0.92218724  0.54650963  0.06656711  1
  O2-  O274  1  0.91113101  0.53675011  0.39891864  1
  O2-  O275  1  0.90957548  0.54291901  0.72975613  1
  O2-  O276  1  0.29451144  0.17080481  0.06738946  1
  O2-  O277  1  0.28777826  0.16893387  0.40198869  1
  O2-  O278  1  0.28889573  0.16479482  0.73316333  1
  O2-  O279  1  0.29124917  0.66583692  0.07056566  1
  O2-  O280  1  0.29674934  0.66288527  0.39350548  1
  O2-  O281  1  0.28909974  0.66801755  0.73521798  1
  O2-  O282  1  0.79372766  0.16189672  0.06248101  1
  O2-  O283  1  0.79199451  0.16816923  0.39624867  1
  O2-  O284  1  0.78977891  0.16778819  0.73479662  1
  O2-  O285  1  0.79034127  0.67011367  0.06879018  1
  O2-  O286  1  0.79434548  0.66086133  0.39769957  1
  O2-  O287  1  0.79298220  0.66473768  0.72721840  1
