# generated using pymatgen
data_Ca2Al2SiO7
_symmetry_space_group_name_H-M   'P 1'
_cell_length_a   15.45389337
_cell_length_b   15.45386623
_cell_length_c   15.27986253
_cell_angle_alpha   90.00488850
_cell_angle_beta   89.99761281
_cell_angle_gamma   89.99869760
_symmetry_Int_Tables_number   1
_chemical_formula_structural   Ca2Al2SiO7
_chemical_formula_sum   'Ca48 Al48 Si24 O168'
_cell_volume   3649.17343694
_cell_formula_units_Z   24
loop_
 _symmetry_equiv_pos_site_id
 _symmetry_equiv_pos_as_xyz
  1  'x, y, z'
loop_
 _atom_type_symbol
 _atom_type_oxidation_number
  Ca2+  2.0
  Al0+  0.0
  Si0+  0.0
  O2-  -2.0
loop_
 _atom_site_type_symbol
 _atom_site_label
 _atom_site_symmetry_multiplicity
 _atom_site_fract_x
 _atom_site_fract_y
 _atom_site_fract_z
 _atom_site_occupancy
  Ca2+  Ca0  1  0.16852166  0.07433081  0.17422064  1
  Ca2+  Ca1  1  0.16623498  0.07258390  0.50225659  1
  Ca2+  Ca2  1  0.16165668  0.07139436  0.83684216  1
  Ca2+  Ca3  1  0.17229391  0.57694705  0.16949842  1
  Ca2+  Ca4  1  0.16710853  0.57518261  0.51011119  1
  Ca2+  Ca5  1  0.17727812  0.58342848  0.83241224  1
  Ca2+  Ca6  1  0.67161711  0.08579891  0.17198388  1
  Ca2+  Ca7  1  0.67183408  0.08140702  0.50769645  1
  Ca2+  Ca8  1  0.65916385  0.08259223  0.83280420  1
  Ca2+  Ca9  1  0.67650360  0.58542969  0.16668159  1
  Ca2+  Ca10  1  0.67433032  0.58588969  0.50368317  1
  Ca2+  Ca11  1  0.66922129  0.58500612  0.84151455  1
  Ca2+  Ca12  1  0.07660791  0.33712030  0.16656712  1
  Ca2+  Ca13  1  0.07701018  0.34219069  0.49525095  1
  Ca2+  Ca14  1  0.07272221  0.34427294  0.82776495  1
  Ca2+  Ca15  1  0.07432338  0.84235192  0.16292906  1
  Ca2+  Ca16  1  0.08853205  0.82845001  0.49567004  1
  Ca2+  Ca17  1  0.08238933  0.83083952  0.82847936  1
  Ca2+  Ca18  1  0.57586354  0.32470624  0.15444269  1
  Ca2+  Ca19  1  0.57459323  0.33088777  0.50201259  1
  Ca2+  Ca20  1  0.57328364  0.32549175  0.82759726  1
  Ca2+  Ca21  1  0.58093037  0.82663951  0.15942532  1
  Ca2+  Ca22  1  0.58815706  0.83065366  0.50208683  1
  Ca2+  Ca23  1  0.58597918  0.82147366  0.82599832  1
  Ca2+  Ca24  1  0.33209190  0.41798776  0.16988979  1
  Ca2+  Ca25  1  0.32055266  0.41775805  0.51082517  1
  Ca2+  Ca26  1  0.33957356  0.42193919  0.83574931  1
  Ca2+  Ca27  1  0.32074568  0.92140160  0.17406175  1
  Ca2+  Ca28  1  0.32503187  0.92035214  0.50428168  1
  Ca2+  Ca29  1  0.31919798  0.91054245  0.83747894  1
  Ca2+  Ca30  1  0.84249193  0.42778533  0.17117177  1
  Ca2+  Ca31  1  0.84055382  0.42047775  0.50315086  1
  Ca2+  Ca32  1  0.83560143  0.42074000  0.83999042  1
  Ca2+  Ca33  1  0.83708437  0.92068753  0.17405418  1
  Ca2+  Ca34  1  0.83365681  0.92203691  0.50239080  1
  Ca2+  Ca35  1  0.82805051  0.91363556  0.83729119  1
  Ca2+  Ca36  1  0.41852093  0.16913210  0.15843337  1
  Ca2+  Ca37  1  0.41637370  0.16366138  0.49876574  1
  Ca2+  Ca38  1  0.42240566  0.17590055  0.82695275  1
  Ca2+  Ca39  1  0.42235653  0.66411099  0.15771695  1
  Ca2+  Ca40  1  0.42068785  0.66058212  0.50293840  1
  Ca2+  Ca41  1  0.42433077  0.65720048  0.82717142  1
  Ca2+  Ca42  1  0.91226076  0.17800840  0.16318175  1
  Ca2+  Ca43  1  0.91462771  0.17741762  0.49418580  1
  Ca2+  Ca44  1  0.91726599  0.18046279  0.82895967  1
  Ca2+  Ca45  1  0.91221459  0.67600442  0.16191635  1
  Ca2+  Ca46  1  0.92409645  0.67137305  0.49349954  1
  Ca2+  Ca47  1  0.92220788  0.66939863  0.83010457  1
  Al0+  Al48  1  -0.00343865  0.00011184  -0.00093023  1
  Al0+  Al49  1  -0.00103288  0.00034547  0.33911789  1
  Al0+  Al50  1  -0.00202169  0.00342268  0.67209241  1
  Al0+  Al51  1  0.00089453  0.50250765  0.00139294  1
  Al0+  Al52  1  0.00080177  0.50241897  0.33571324  1
  Al0+  Al53  1  0.00105012  0.50386295  0.66299035  1
  Al0+  Al54  1  0.49840339  -0.00239141  -0.00273182  1
  Al0+  Al55  1  0.49964622  -0.00190230  0.33459408  1
  Al0+  Al56  1  0.50148346  -0.00125734  0.66802154  1
  Al0+  Al57  1  0.50133047  0.49915551  -0.00078317  1
  Al0+  Al58  1  0.50226753  0.49852503  0.33106921  1
  Al0+  Al59  1  0.50281105  0.49874662  0.65878433  1
  Al0+  Al60  1  0.24842885  0.24851040  -0.00426110  1
  Al0+  Al61  1  0.24977196  0.25012161  0.33976957  1
  Al0+  Al62  1  0.24615545  0.24882093  0.66853588  1
  Al0+  Al63  1  0.24840085  0.74838841  0.01241858  1
  Al0+  Al64  1  0.25285261  0.74834464  0.33419021  1
  Al0+  Al65  1  0.25058356  0.74919994  0.66973668  1
  Al0+  Al66  1  0.74968465  0.24940070  -0.00809644  1
  Al0+  Al67  1  0.74846611  0.25099996  0.33261651  1
  Al0+  Al68  1  0.75020120  0.25181633  0.65939180  1
  Al0+  Al69  1  0.75018781  0.75086715  -0.00310477  1
  Al0+  Al70  1  0.75156122  0.74849863  0.33344359  1
  Al0+  Al71  1  0.75015686  0.75221296  0.66573148  1
  Al0+  Al72  1  0.32325297  0.56825927  0.68080260  1
  Al0+  Al73  1  0.57296396  0.67860871  0.65128779  1
  Al0+  Al74  1  0.17615870  0.42787637  0.68336952  1
  Al0+  Al75  1  0.56958574  0.17717393  0.64839611  1
  Al0+  Al76  1  0.57157701  0.17552768  0.98465754  1
  Al0+  Al77  1  0.68025383  0.92955760  0.68139158  1
  Al0+  Al78  1  0.81975323  0.57093907  0.34807953  1
  Al0+  Al79  1  0.32334230  0.56814115  0.01491794  1
  Al0+  Al80  1  0.93132200  0.32331756  0.98722009  1
  Al0+  Al81  1  0.82135434  0.57152656  0.01259322  1
  Al0+  Al82  1  0.81979080  0.07340486  0.34616907  1
  Al0+  Al83  1  0.56992166  0.68094003  0.98728504  1
  Al0+  Al84  1  0.07194160  0.68277366  0.65395505  1
  Al0+  Al85  1  0.17867021  0.92897765  0.68163331  1
  Al0+  Al86  1  0.93140459  0.32216657  0.65171656  1
  Al0+  Al87  1  0.18019886  0.43136534  0.34638209  1
  Al0+  Al88  1  0.42631383  0.32058381  0.64921663  1
  Al0+  Al89  1  0.32256800  0.07107393  0.34818360  1
  Al0+  Al90  1  0.93073877  0.82099861  0.32105644  1
  Al0+  Al91  1  0.17664752  0.92924351  0.01551042  1
  Al0+  Al92  1  0.42653158  0.32090095  0.98547399  1
  Al0+  Al93  1  0.17765163  0.92771352  0.34964559  1
  Al0+  Al94  1  0.92900061  0.32201321  0.31843036  1
  Al0+  Al95  1  0.92945500  0.82185169  0.98553830  1
  Si0+  Si96  1  0.42766550  0.32006349  0.31842246  1
  Si0+  Si97  1  0.67986199  0.42642931  0.01515501  1
  Si0+  Si98  1  0.07384912  0.67875856  0.98490203  1
  Si0+  Si99  1  0.68077564  0.42904636  0.68061362  1
  Si0+  Si100  1  0.67649184  0.42782935  0.35039671  1
  Si0+  Si101  1  0.42784071  0.82088585  0.65054967  1
  Si0+  Si102  1  0.82024064  0.07528000  0.68585732  1
  Si0+  Si103  1  0.07058024  0.17690692  0.98402296  1
  Si0+  Si104  1  0.32151804  0.07162907  0.01471956  1
  Si0+  Si105  1  0.92798883  0.82403902  0.65043076  1
  Si0+  Si106  1  0.82073527  0.57197885  0.68126280  1
  Si0+  Si107  1  0.67828633  0.92722846  0.34853162  1
  Si0+  Si108  1  0.56987421  0.17752805  0.31841058  1
  Si0+  Si109  1  0.32652263  0.57118748  0.35019942  1
  Si0+  Si110  1  0.17728155  0.42613715  0.01671883  1
  Si0+  Si111  1  0.32281377  0.07167343  0.68555271  1
  Si0+  Si112  1  0.57159071  0.67866440  0.31702154  1
  Si0+  Si113  1  0.07245056  0.17835436  0.31810522  1
  Si0+  Si114  1  0.07066812  0.17487764  0.64914318  1
  Si0+  Si115  1  0.07447248  0.67834108  0.31510055  1
  Si0+  Si116  1  0.42912793  0.82102636  0.31762653  1
  Si0+  Si117  1  0.81870043  0.07213502  0.01406573  1
  Si0+  Si118  1  0.67836303  0.92832061  0.01477212  1
  Si0+  Si119  1  0.42474417  0.82027690  0.98498892  1
  O2-  O120  1  0.25231180  0.00415738  0.06020575  1
  O2-  O121  1  0.25039818  -0.00046001  0.39834507  1
  O2-  O122  1  0.25314205  0.00358010  0.72970896  1
  O2-  O123  1  0.25027680  0.49092690  0.06055166  1
  O2-  O124  1  0.25583550  0.50497407  0.39292857  1
  O2-  O125  1  0.25422025  0.49398027  0.73235112  1
  O2-  O126  1  0.74545833  0.00299401  0.05677702  1
  O2-  O127  1  0.74585568  -0.00275074  0.39171734  1
  O2-  O128  1  0.75243155  0.00563061  0.73013666  1
  O2-  O129  1  0.74998515  0.49341383  0.06024546  1
  O2-  O130  1  0.74766856  0.49390459  0.39495414  1
  O2-  O131  1  0.75039693  0.50084506  0.72407492  1
  O2-  O132  1  0.00303775  0.24596283  0.27218513  1
  O2-  O133  1  0.00748492  0.24881881  0.60532048  1
  O2-  O134  1  0.00789602  0.25125325  0.93990343  1
  O2-  O135  1  0.00859903  0.75048485  0.27176171  1
  O2-  O136  1  0.00076020  0.76049176  0.60618519  1
  O2-  O137  1  0.00584448  0.74846639  0.94081137  1
  O2-  O138  1  0.49755409  0.24742793  0.27643468  1
  O2-  O139  1  0.49410696  0.24489442  0.59752076  1
  O2-  O140  1  0.49797403  0.24711480  0.93765820  1
  O2-  O141  1  0.49888311  0.74827265  0.27548517  1
  O2-  O142  1  0.49683245  0.75237881  0.60516320  1
  O2-  O143  1  0.49215037  0.75149188  0.93943451  1
  O2-  O144  1  0.06855521  0.17504951  0.08973335  1
  O2-  O145  1  0.07149777  0.17916410  0.42347042  1
  O2-  O146  1  0.06564462  0.16996016  0.75478581  1
  O2-  O147  1  0.07267449  0.67773028  0.09062961  1
  O2-  O148  1  0.07304425  0.67858226  0.42080578  1
  O2-  O149  1  0.06970451  0.68273056  0.76726595  1
  O2-  O150  1  0.57189425  0.17672346  0.09923733  1
  O2-  O151  1  0.57017913  0.17730916  0.42291632  1
  O2-  O152  1  0.56898372  0.18007732  0.76173952  1
  O2-  O153  1  0.57071507  0.68410443  0.10106888  1
  O2-  O154  1  0.57197290  0.67927383  0.42197103  1
  O2-  O155  1  0.57514132  0.67972120  0.76427735  1
  O2-  O156  1  0.18248474  0.43173485  0.23268340  1
  O2-  O157  1  0.17454843  0.43311002  0.56966861  1
  O2-  O158  1  0.17406268  0.42921481  0.91181625  1
  O2-  O159  1  0.17846438  0.93099689  0.23585670  1
  O2-  O160  1  0.18015687  0.92962496  0.56884630  1
  O2-  O161  1  0.17752293  0.92931485  0.90230072  1
  O2-  O162  1  0.67231508  0.42999110  0.24484529  1
  O2-  O163  1  0.68238371  0.43001004  0.57523070  1
  O2-  O164  1  0.68074767  0.42780859  0.90944173  1
  O2-  O165  1  0.67673823  0.92744232  0.24246776  1
  O2-  O166  1  0.68455872  0.92830712  0.56796353  1
  O2-  O167  1  0.68052602  0.92637974  0.91001268  1
  O2-  O168  1  0.42811671  0.31870521  0.10021440  1
  O2-  O169  1  0.42967151  0.32224562  0.42282914  1
  O2-  O170  1  0.43178873  0.32159758  0.76258903  1
  O2-  O171  1  0.42893422  0.82101507  0.09111288  1
  O2-  O172  1  0.42970883  0.82201707  0.42241852  1
  O2-  O173  1  0.42829302  0.81989366  0.75623629  1
  O2-  O174  1  0.93161381  0.32204665  0.10046751  1
  O2-  O175  1  0.93008536  0.32123196  0.43123625  1
  O2-  O176  1  0.93003917  0.32165290  0.76519914  1
  O2-  O177  1  0.92840954  0.82301429  0.09887413  1
  O2-  O178  1  0.92804629  0.81795325  0.43385285  1
  O2-  O179  1  0.92671581  0.82053496  0.75627709  1
  O2-  O180  1  0.32355412  0.06939348  0.23412902  1
  O2-  O181  1  0.32257222  0.06845401  0.57983208  1
  O2-  O182  1  0.32093934  0.06966960  0.90948443  1
  O2-  O183  1  0.32887307  0.56912076  0.24433003  1
  O2-  O184  1  0.32097068  0.56850577  0.56686239  1
  O2-  O185  1  0.32368044  0.57014099  0.90252020  1
  O2-  O186  1  0.81640449  0.07428455  0.23250235  1
  O2-  O187  1  0.82023443  0.07416521  0.58003978  1
  O2-  O188  1  0.81995250  0.07143210  0.90927149  1
  O2-  O189  1  0.81702901  0.57266845  0.23479224  1
  O2-  O190  1  0.81913546  0.57157625  0.57593585  1
  O2-  O191  1  0.82007122  0.57107235  0.89928908  1
  O2-  O192  1  0.04705578  0.08406152  0.27352684  1
  O2-  O193  1  0.03860988  0.08380523  0.60048434  1
  O2-  O194  1  0.03707298  0.08695771  0.93519537  1
  O2-  O195  1  0.04449016  0.58656798  0.26834691  1
  O2-  O196  1  0.03680387  0.58941217  0.59670685  1
  O2-  O197  1  0.04716755  0.58632162  0.93785331  1
  O2-  O198  1  0.54477213  0.08433746  0.27131864  1
  O2-  O199  1  0.54641536  0.07612794  0.59786130  1
  O2-  O200  1  0.54497338  0.07618785  0.93251438  1
  O2-  O201  1  0.54541644  0.58617264  0.26933948  1
  O2-  O202  1  0.54588084  0.58318481  0.59368807  1
  O2-  O203  1  0.54497717  0.58259118  0.93530404  1
  O2-  O204  1  0.16631686  0.20498923  0.27197886  1
  O2-  O205  1  0.16690114  0.19187987  0.60636139  1
  O2-  O206  1  0.16578599  0.19364600  0.93822133  1
  O2-  O207  1  0.17082923  0.69805593  0.27117985  1
  O2-  O208  1  0.16901910  0.71062112  0.59935331  1
  O2-  O209  1  0.16818460  0.70520153  0.94143169  1
  O2-  O210  1  0.66054650  0.20739104  0.26952797  1
  O2-  O211  1  0.66690173  0.20954755  0.59541318  1
  O2-  O212  1  0.66856319  0.20338810  0.92921212  1
  O2-  O213  1  0.66241070  0.70889423  0.26926862  1
  O2-  O214  1  0.66802528  0.71459837  0.59612975  1
  O2-  O215  1  0.66416144  0.71517882  0.93170297  1
  O2-  O216  1  0.08619202  0.45755442  0.06552125  1
  O2-  O217  1  0.08502308  0.46399811  0.40107840  1
  O2-  O218  1  0.07999987  0.46616354  0.73563638  1
  O2-  O219  1  0.07972308  0.96337474  0.06730851  1
  O2-  O220  1  0.08025429  0.95496794  0.40406418  1
  O2-  O221  1  0.08141661  0.96018854  0.73539893  1
  O2-  O222  1  0.58746073  0.45344978  0.06303242  1
  O2-  O223  1  0.58450750  0.45733011  0.39854986  1
  O2-  O224  1  0.58874656  0.45660713  0.72640438  1
  O2-  O225  1  0.58412291  0.95071150  0.06112717  1
  O2-  O226  1  0.58477591  0.95081533  0.39508705  1
  O2-  O227  1  0.58243476  0.95527108  0.73573560  1
  O2-  O228  1  0.19744191  0.32983311  0.06036544  1
  O2-  O229  1  0.20739914  0.33486459  0.40130484  1
  O2-  O230  1  0.19177258  0.32516226  0.73236718  1
  O2-  O231  1  0.20536230  0.83414176  0.07314332  1
  O2-  O232  1  0.20862356  0.82831052  0.39934672  1
  O2-  O233  1  0.21073876  0.83348287  0.73677478  1
  O2-  O234  1  0.70344521  0.33130254  0.05953043  1
  O2-  O235  1  0.69861766  0.33348441  0.39532172  1
  O2-  O236  1  0.70976299  0.33737465  0.72730829  1
  O2-  O237  1  0.70997626  0.83863629  0.06407093  1
  O2-  O238  1  0.70554484  0.83438180  0.39460631  1
  O2-  O239  1  0.71392205  0.83370687  0.73649465  1
  O2-  O240  1  0.45812304  0.41142579  0.26996061  1
  O2-  O241  1  0.46130326  0.41562379  0.59312204  1
  O2-  O242  1  0.45883996  0.41787843  0.93340537  1
  O2-  O243  1  0.45872773  0.91172999  0.26813783  1
  O2-  O244  1  0.45468791  0.91394817  0.60430479  1
  O2-  O245  1  0.44846188  0.91338998  0.93790779  1
  O2-  O246  1  0.96271766  0.41914678  0.26660154  1
  O2-  O247  1  0.96053134  0.41928872  0.59823709  1
  O2-  O248  1  0.96002012  0.42076413  0.93360801  1
  O2-  O249  1  0.95711217  0.92013303  0.26847229  1
  O2-  O250  1  0.94767185  0.92106060  0.60979126  1
  O2-  O251  1  0.95687793  0.91870928  0.93052596  1
  O2-  O252  1  0.33511969  0.29376587  0.27193873  1
  O2-  O253  1  0.32448521  0.29630161  0.60139172  1
  O2-  O254  1  0.32756438  0.29629732  0.93203149  1
  O2-  O255  1  0.33739715  0.79412430  0.26882437  1
  O2-  O256  1  0.33513430  0.79463389  0.60347920  1
  O2-  O257  1  0.32946459  0.79463544  0.94381268  1
  O2-  O258  1  0.83075881  0.29284379  0.26569209  1
  O2-  O259  1  0.83572262  0.29142538  0.59614687  1
  O2-  O260  1  0.83601649  0.29148354  0.93179419  1
  O2-  O261  1  0.83416866  0.78796800  0.26621478  1
  O2-  O262  1  0.83669830  0.79426892  0.60277770  1
  O2-  O263  1  0.83432008  0.78915554  0.93057898  1
  O2-  O264  1  0.41530977  0.04515395  0.06134780  1
  O2-  O265  1  0.42027957  0.04005045  0.40189855  1
  O2-  O266  1  0.41658476  0.04580195  0.73050060  1
  O2-  O267  1  0.42064954  0.53928865  0.07024791  1
  O2-  O268  1  0.42021394  0.54439047  0.39533968  1
  O2-  O269  1  0.42465120  0.54178646  0.72924318  1
  O2-  O270  1  0.90907132  0.04253929  0.06292804  1
  O2-  O271  1  0.91503912  0.04455218  0.40258066  1
  O2-  O272  1  0.91326302  0.05129872  0.73360125  1
  O2-  O273  1  0.91840835  0.54402807  0.06796543  1
  O2-  O274  1  0.91682114  0.54307012  0.40143980  1
  O2-  O275  1  0.91248305  0.54444797  0.72763789  1
  O2-  O276  1  0.29735022  0.16612955  0.06049988  1
  O2-  O277  1  0.29638346  0.16876104  0.40247048  1
  O2-  O278  1  0.29791728  0.16564109  0.73055295  1
  O2-  O279  1  0.29181514  0.66279287  0.07374573  1
  O2-  O280  1  0.30563288  0.66638101  0.39410137  1
  O2-  O281  1  0.29450020  0.66644397  0.73401855  1
  O2-  O282  1  0.79165225  0.16490803  0.06089276  1
  O2-  O283  1  0.78712441  0.16894871  0.40113082  1
  O2-  O284  1  0.79237432  0.16933344  0.72973503  1
  O2-  O285  1  0.78561134  0.66728015  0.06637109  1
  O2-  O286  1  0.78559917  0.66580784  0.40358754  1
  O2-  O287  1  0.79270617  0.66399434  0.72743795  1
