# generated using pymatgen
data_Ca2Al2SiO7
_symmetry_space_group_name_H-M   'P 1'
_cell_length_a   15.46898922
_cell_length_b   15.46859073
_cell_length_c   15.29127832
_cell_angle_alpha   90.00359460
_cell_angle_beta   89.99889386
_cell_angle_gamma   89.97133908
_symmetry_Int_Tables_number   1
_chemical_formula_structural   Ca2Al2SiO7
_chemical_formula_sum   'Ca48 Al48 Si24 O168'
_cell_volume   3658.94956805
_cell_formula_units_Z   24
loop_
 _symmetry_equiv_pos_site_id
 _symmetry_equiv_pos_as_xyz
  1  'x, y, z'
loop_
 _atom_type_symbol
 _atom_type_oxidation_number
  Ca2+  2.0
  Al0+  0.0
  Si0+  0.0
  O2-  -2.0
loop_
 _atom_site_type_symbol
 _atom_site_label
 _atom_site_symmetry_multiplicity
 _atom_site_fract_x
 _atom_site_fract_y
 _atom_site_fract_z
 _atom_site_occupancy
  Ca2+  Ca0  1  0.16635307  0.08405838  0.17253496  1
  Ca2+  Ca1  1  0.15438825  0.07917203  0.49720171  1
  Ca2+  Ca2  1  0.17020752  0.09238539  0.83889620  1
  Ca2+  Ca3  1  0.16628479  0.57197282  0.17929710  1
  Ca2+  Ca4  1  0.17323967  0.58777007  0.50313427  1
  Ca2+  Ca5  1  0.16698465  0.57857555  0.83565758  1
  Ca2+  Ca6  1  0.67182488  0.07458777  0.17616911  1
  Ca2+  Ca7  1  0.67536763  0.08084039  0.49789420  1
  Ca2+  Ca8  1  0.66978251  0.07754494  0.84563697  1
  Ca2+  Ca9  1  0.66787187  0.58465960  0.17459847  1
  Ca2+  Ca10  1  0.66741734  0.58677316  0.50000791  1
  Ca2+  Ca11  1  0.67081398  0.57907655  0.83731545  1
  Ca2+  Ca12  1  0.08895625  0.32675252  0.16493461  1
  Ca2+  Ca13  1  0.08012172  0.32347929  0.48966239  1
  Ca2+  Ca14  1  0.08720087  0.32503402  0.82935339  1
  Ca2+  Ca15  1  0.07464318  0.83946967  0.16851651  1
  Ca2+  Ca16  1  0.08067864  0.82464126  0.48895624  1
  Ca2+  Ca17  1  0.07031936  0.83177142  0.82429756  1
  Ca2+  Ca18  1  0.57508427  0.32456026  0.16544702  1
  Ca2+  Ca19  1  0.56951081  0.33771797  0.49335977  1
  Ca2+  Ca20  1  0.57776701  0.32443906  0.82774406  1
  Ca2+  Ca21  1  0.58509128  0.83588834  0.16804108  1
  Ca2+  Ca22  1  0.57589502  0.82735175  0.48745586  1
  Ca2+  Ca23  1  0.58290408  0.83617726  0.83392628  1
  Ca2+  Ca24  1  0.32165707  0.41791190  0.17649792  1
  Ca2+  Ca25  1  0.33134474  0.42309670  0.50077077  1
  Ca2+  Ca26  1  0.32907820  0.41892678  0.83557239  1
  Ca2+  Ca27  1  0.33023557  0.92473354  0.17658893  1
  Ca2+  Ca28  1  0.32387772  0.90747843  0.49738812  1
  Ca2+  Ca29  1  0.32669029  0.92621460  0.84187406  1
  Ca2+  Ca30  1  0.83211570  0.41438752  0.17595949  1
  Ca2+  Ca31  1  0.83679778  0.41068060  0.50274787  1
  Ca2+  Ca32  1  0.83904293  0.41596249  0.83384398  1
  Ca2+  Ca33  1  0.82817839  0.91631287  0.17784809  1
  Ca2+  Ca34  1  0.83685235  0.91412988  0.49767460  1
  Ca2+  Ca35  1  0.83109286  0.91203395  0.84041161  1
  Ca2+  Ca36  1  0.41405943  0.16997353  0.16078927  1
  Ca2+  Ca37  1  0.41260623  0.18128330  0.49477941  1
  Ca2+  Ca38  1  0.41928037  0.16821119  0.83161666  1
  Ca2+  Ca39  1  0.41406563  0.67068257  0.17534059  1
  Ca2+  Ca40  1  0.41872968  0.66405962  0.48658236  1
  Ca2+  Ca41  1  0.41659404  0.66505953  0.82778770  1
  Ca2+  Ca42  1  0.92683007  0.16266231  0.16962771  1
  Ca2+  Ca43  1  0.92297097  0.17287977  0.49245409  1
  Ca2+  Ca44  1  0.93110805  0.17068380  0.82569454  1
  Ca2+  Ca45  1  0.92195151  0.67697938  0.16777832  1
  Ca2+  Ca46  1  0.92926120  0.67468718  0.49402227  1
  Ca2+  Ca47  1  0.92320816  0.67675771  0.82733622  1
  Al0+  Al48  1  -0.00063819  0.00141504  -0.01079582  1
  Al0+  Al49  1  0.00030930  0.00182636  0.33480223  1
  Al0+  Al50  1  -0.00307126  0.00051175  0.66331192  1
  Al0+  Al51  1  -0.00034657  0.50173438  0.00450058  1
  Al0+  Al52  1  -0.00184243  0.49880937  0.33188225  1
  Al0+  Al53  1  -0.00015152  0.50081323  0.66392425  1
  Al0+  Al54  1  0.49990503  0.00009321  0.00341974  1
  Al0+  Al55  1  0.50115239  0.00008486  0.33795433  1
  Al0+  Al56  1  0.50047970  -0.00105036  0.66784455  1
  Al0+  Al57  1  0.50068423  0.50149952  -0.00003042  1
  Al0+  Al58  1  0.49997190  0.49892965  0.32587247  1
  Al0+  Al59  1  0.50051345  0.49905085  0.67043374  1
  Al0+  Al60  1  0.24992450  0.25253968  0.00258177  1
  Al0+  Al61  1  0.24979643  0.25151446  0.33000596  1
  Al0+  Al62  1  0.25207495  0.24954742  0.65939629  1
  Al0+  Al63  1  0.25074466  0.74982794  -0.00074861  1
  Al0+  Al64  1  0.25250055  0.75011758  0.33059026  1
  Al0+  Al65  1  0.25094167  0.75099846  0.67347720  1
  Al0+  Al66  1  0.74875095  0.25008748  -0.00349650  1
  Al0+  Al67  1  0.74938738  0.24964412  0.33579458  1
  Al0+  Al68  1  0.74996955  0.24682431  0.66800156  1
  Al0+  Al69  1  0.74903687  0.74893235  -0.00118538  1
  Al0+  Al70  1  0.74913898  0.74814203  0.33242909  1
  Al0+  Al71  1  0.74846708  0.74901614  0.66650856  1
  Al0+  Al72  1  0.07422858  0.67795218  0.31766842  1
  Al0+  Al73  1  0.31932900  0.07040288  0.01238477  1
  Al0+  Al74  1  0.43186330  0.32106266  0.65364683  1
  Al0+  Al75  1  0.32024161  0.56884378  0.34691268  1
  Al0+  Al76  1  0.67848682  0.92616978  0.35135239  1
  Al0+  Al77  1  0.42853352  0.82383467  0.31837442  1
  Al0+  Al78  1  0.17991455  0.43191652  0.01294032  1
  Al0+  Al79  1  0.57107397  0.67882165  0.31791380  1
  Al0+  Al80  1  0.17604462  0.42737565  0.35119759  1
  Al0+  Al81  1  0.93029587  0.82131231  0.31876663  1
  Al0+  Al82  1  0.07320927  0.17942587  0.64973091  1
  Al0+  Al83  1  0.32192664  0.57130128  0.68175109  1
  Al0+  Al84  1  0.82112880  0.07108309  0.34956415  1
  Al0+  Al85  1  0.92630286  0.32122091  0.31731362  1
  Al0+  Al86  1  0.42879931  0.32029435  0.31784042  1
  Al0+  Al87  1  0.07063006  0.17967636  0.31602890  1
  Al0+  Al88  1  0.68078146  0.92886554  0.01436787  1
  Al0+  Al89  1  0.57025655  0.17787317  0.98752325  1
  Al0+  Al90  1  0.92610126  0.82035350  0.65037039  1
  Al0+  Al91  1  0.18057078  0.93066369  0.34503442  1
  Al0+  Al92  1  0.07127205  0.18157005  0.98543318  1
  Al0+  Al93  1  0.92916311  0.81965666  0.98618201  1
  Al0+  Al94  1  0.07420040  0.68040024  0.65295021  1
  Al0+  Al95  1  0.92751391  0.32098528  0.65316306  1
  Si0+  Si96  1  0.17847953  0.42696702  0.68220850  1
  Si0+  Si97  1  0.67905736  0.42932879  0.34779579  1
  Si0+  Si98  1  0.56921631  0.67837232  0.65466687  1
  Si0+  Si99  1  0.32375014  0.07411474  0.35112433  1
  Si0+  Si100  1  0.07259733  0.67618149  0.98354970  1
  Si0+  Si101  1  0.32197733  0.07134791  0.68081894  1
  Si0+  Si102  1  0.82350374  0.07331252  0.01478480  1
  Si0+  Si103  1  0.57200521  0.17498297  0.64981728  1
  Si0+  Si104  1  0.81850243  0.56979383  0.01495037  1
  Si0+  Si105  1  0.67864529  0.92852656  0.68354930  1
  Si0+  Si106  1  0.92679136  0.32505302  0.98398748  1
  Si0+  Si107  1  0.17784030  0.92999991  0.68207464  1
  Si0+  Si108  1  0.82047444  0.07103727  0.68540631  1
  Si0+  Si109  1  0.57201388  0.17824785  0.31903834  1
  Si0+  Si110  1  0.67754739  0.42754232  0.01490832  1
  Si0+  Si111  1  0.42897735  0.32280740  0.98251750  1
  Si0+  Si112  1  0.82099454  0.57113007  0.34930170  1
  Si0+  Si113  1  0.57067659  0.67874232  0.98248396  1
  Si0+  Si114  1  0.42842224  0.82164360  0.98402605  1
  Si0+  Si115  1  0.42991981  0.82208807  0.65521273  1
  Si0+  Si116  1  0.17570786  0.92754823  0.01365962  1
  Si0+  Si117  1  0.67899591  0.42789524  0.68238064  1
  Si0+  Si118  1  0.32501291  0.57466936  0.01833385  1
  Si0+  Si119  1  0.82067389  0.57153597  0.68220743  1
  O2-  O120  1  0.24405866  -0.00381554  0.05754954  1
  O2-  O121  1  0.25624409  0.00390797  0.39477267  1
  O2-  O122  1  0.24701592  0.00407355  0.72319784  1
  O2-  O123  1  0.25337982  0.50831995  0.05878106  1
  O2-  O124  1  0.24572889  0.50221463  0.40049135  1
  O2-  O125  1  0.24522933  0.49795535  0.72744820  1
  O2-  O126  1  0.75600485  0.00349573  0.05866050  1
  O2-  O127  1  0.75206706  -0.00373473  0.40145826  1
  O2-  O128  1  0.75029452  -0.00186111  0.72687945  1
  O2-  O129  1  0.75128651  0.49506500  0.05708742  1
  O2-  O130  1  0.75150063  0.49786958  0.39125648  1
  O2-  O131  1  0.75382828  0.49548658  0.72481427  1
  O2-  O132  1  0.00051501  0.25351293  0.26576018  1
  O2-  O133  1  0.00215502  0.25349339  0.60256881  1
  O2-  O134  1  -0.00475543  0.25625860  0.94031500  1
  O2-  O135  1  0.00392626  0.75178637  0.26757190  1
  O2-  O136  1  0.00336118  0.75319234  0.60319395  1
  O2-  O137  1  0.00808832  0.74897832  0.93959401  1
  O2-  O138  1  0.49827049  0.23986817  0.27309974  1
  O2-  O139  1  0.50575349  0.24569413  0.60623589  1
  O2-  O140  1  0.49741379  0.25357685  0.93838178  1
  O2-  O141  1  0.50304680  0.75440960  0.26783036  1
  O2-  O142  1  0.49592147  0.74652039  0.61407207  1
  O2-  O143  1  0.49749285  0.74810724  0.94082403  1
  O2-  O144  1  0.07135373  0.17943041  0.09724496  1
  O2-  O145  1  0.06882010  0.17966391  0.42931448  1
  O2-  O146  1  0.07441643  0.18172017  0.76402269  1
  O2-  O147  1  0.06978378  0.67348370  0.08825810  1
  O2-  O148  1  0.07293548  0.67986320  0.43135938  1
  O2-  O149  1  0.07167671  0.68214285  0.76739390  1
  O2-  O150  1  0.56979102  0.18062567  0.09997939  1
  O2-  O151  1  0.57249548  0.18347999  0.42495338  1
  O2-  O152  1  0.57010902  0.17443089  0.75581843  1
  O2-  O153  1  0.57332550  0.67640276  0.08627097  1
  O2-  O154  1  0.56953852  0.67655175  0.43228154  1
  O2-  O155  1  0.57077444  0.67910483  0.76028628  1
  O2-  O156  1  0.17968727  0.42739280  0.23722056  1
  O2-  O157  1  0.18061862  0.42633412  0.57759574  1
  O2-  O158  1  0.18167888  0.43221838  0.89901735  1
  O2-  O159  1  0.18098351  0.93359280  0.23164509  1
  O2-  O160  1  0.18110210  0.92677585  0.57744984  1
  O2-  O161  1  0.17894777  0.92698009  0.90746522  1
  O2-  O162  1  0.67986079  0.42977718  0.24235087  1
  O2-  O163  1  0.67569770  0.43068052  0.57768444  1
  O2-  O164  1  0.67568117  0.43018079  0.90943707  1
  O2-  O165  1  0.67957613  0.92873896  0.23751619  1
  O2-  O166  1  0.67580950  0.92833960  0.57957329  1
  O2-  O167  1  0.68122197  0.92881171  0.90017850  1
  O2-  O168  1  0.43131087  0.32304446  0.08762335  1
  O2-  O169  1  0.43241679  0.32219920  0.43129028  1
  O2-  O170  1  0.43361952  0.31947538  0.76716294  1
  O2-  O171  1  0.42808144  0.82205286  0.08806719  1
  O2-  O172  1  0.42898244  0.82069267  0.43282466  1
  O2-  O173  1  0.43325609  0.82446130  0.76077418  1
  O2-  O174  1  0.92445352  0.32600234  0.08868003  1
  O2-  O175  1  0.92383776  0.31781482  0.43067986  1
  O2-  O176  1  0.92665285  0.31800733  0.76737523  1
  O2-  O177  1  0.92738970  0.81819525  0.09837129  1
  O2-  O178  1  0.93130558  0.81715275  0.43205621  1
  O2-  O179  1  0.92460894  0.81711434  0.76474090  1
  O2-  O180  1  0.32402842  0.07299788  0.24524438  1
  O2-  O181  1  0.32784853  0.06877228  0.57661572  1
  O2-  O182  1  0.31943624  0.06919513  0.89827525  1
  O2-  O183  1  0.32145028  0.56517898  0.23321484  1
  O2-  O184  1  0.32735812  0.57146037  0.56998141  1
  O2-  O185  1  0.32742208  0.57381563  0.91224704  1
  O2-  O186  1  0.81759890  0.07211456  0.23553332  1
  O2-  O187  1  0.81793792  0.07419134  0.58109324  1
  O2-  O188  1  0.82069552  0.07274500  0.90868147  1
  O2-  O189  1  0.81775153  0.57161303  0.24379722  1
  O2-  O190  1  0.81603582  0.57491644  0.57782387  1
  O2-  O191  1  0.81614836  0.56909337  0.90928680  1
  O2-  O192  1  0.04054864  0.08192534  0.26343985  1
  O2-  O193  1  0.04208067  0.08120632  0.60016012  1
  O2-  O194  1  0.04323575  0.08589297  0.92700176  1
  O2-  O195  1  0.04078511  0.58089459  0.26602224  1
  O2-  O196  1  0.04681851  0.58184462  0.60219436  1
  O2-  O197  1  0.04091841  0.58478766  0.93548598  1
  O2-  O198  1  0.55389306  0.08209304  0.27705404  1
  O2-  O199  1  0.54489727  0.08203138  0.60417509  1
  O2-  O200  1  0.53841121  0.08175992  0.93223607  1
  O2-  O201  1  0.54147167  0.58262836  0.26124804  1
  O2-  O202  1  0.54566414  0.58552576  0.60892115  1
  O2-  O203  1  0.54425704  0.58620482  0.93357761  1
  O2-  O204  1  0.16982991  0.20572985  0.26430948  1
  O2-  O205  1  0.17232496  0.20144350  0.59703469  1
  O2-  O206  1  0.16789221  0.21554264  0.93171916  1
  O2-  O207  1  0.17264620  0.70253306  0.26495547  1
  O2-  O208  1  0.17398432  0.70883088  0.60372372  1
  O2-  O209  1  0.16892580  0.69616740  0.93981166  1
  O2-  O210  1  0.66210661  0.21050956  0.27108228  1
  O2-  O211  1  0.66628444  0.19892982  0.60652204  1
  O2-  O212  1  0.66618582  0.20880627  0.93020346  1
  O2-  O213  1  0.66978066  0.70331736  0.26443837  1
  O2-  O214  1  0.65957680  0.70763290  0.60660634  1
  O2-  O215  1  0.66093031  0.70819390  0.93226199  1
  O2-  O216  1  0.08257182  0.45933230  0.06706632  1
  O2-  O217  1  0.07470878  0.44995382  0.39981440  1
  O2-  O218  1  0.08355539  0.45050496  0.72797548  1
  O2-  O219  1  0.08096910  0.95379332  0.05543285  1
  O2-  O220  1  0.08531209  0.96093757  0.40136599  1
  O2-  O221  1  0.08405364  0.95516387  0.72727495  1
  O2-  O222  1  0.58693563  0.45873254  0.06251060  1
  O2-  O223  1  0.58829956  0.46111487  0.39450631  1
  O2-  O224  1  0.59070817  0.46022271  0.73449588  1
  O2-  O225  1  0.58398572  0.95843020  0.06685140  1
  O2-  O226  1  0.58032279  0.95526091  0.40570939  1
  O2-  O227  1  0.58699673  0.95760077  0.73276144  1
  O2-  O228  1  0.21268632  0.33710752  0.06780635  1
  O2-  O229  1  0.20953242  0.32960140  0.40196817  1
  O2-  O230  1  0.20961857  0.33377762  0.72781469  1
  O2-  O231  1  0.20015649  0.83310290  0.05807271  1
  O2-  O232  1  0.21310620  0.83443817  0.39940733  1
  O2-  O233  1  0.20839242  0.84118472  0.73439433  1
  O2-  O234  1  0.70177574  0.33459095  0.06114900  1
  O2-  O235  1  0.70319971  0.33798414  0.39738984  1
  O2-  O236  1  0.70297354  0.33443901  0.72958176  1
  O2-  O237  1  0.70903368  0.83053755  0.06532593  1
  O2-  O238  1  0.70405784  0.82595234  0.40222508  1
  O2-  O239  1  0.70464255  0.83537961  0.73095796  1
  O2-  O240  1  0.46667248  0.41179180  0.26036958  1
  O2-  O241  1  0.46698128  0.41661915  0.60103025  1
  O2-  O242  1  0.45680269  0.41667010  0.93688784  1
  O2-  O243  1  0.45479141  0.92409759  0.26804777  1
  O2-  O244  1  0.46133961  0.91135861  0.60611961  1
  O2-  O245  1  0.45939423  0.91200315  0.93543108  1
  O2-  O246  1  0.94619345  0.42198566  0.26671565  1
  O2-  O247  1  0.94528763  0.42283038  0.60473723  1
  O2-  O248  1  0.95221462  0.41961116  0.93876416  1
  O2-  O249  1  0.95643790  0.92026099  0.26733446  1
  O2-  O250  1  0.94684643  0.92116901  0.60249316  1
  O2-  O251  1  0.95525595  0.91599176  0.92843899  1
  O2-  O252  1  0.33306979  0.29197784  0.26293971  1
  O2-  O253  1  0.33720886  0.29132685  0.59772552  1
  O2-  O254  1  0.33595658  0.29666354  0.93678309  1
  O2-  O255  1  0.33310189  0.79403465  0.26155342  1
  O2-  O256  1  0.33603877  0.79920473  0.61204963  1
  O2-  O257  1  0.33593317  0.79623778  0.93483015  1
  O2-  O258  1  0.82708843  0.29177186  0.26532157  1
  O2-  O259  1  0.82824603  0.29163935  0.60234315  1
  O2-  O260  1  0.83230222  0.30207217  0.93739037  1
  O2-  O261  1  0.83231269  0.78951775  0.26772508  1
  O2-  O262  1  0.82858005  0.78741540  0.59931350  1
  O2-  O263  1  0.83384079  0.78298144  0.93137851  1
  O2-  O264  1  0.41451365  0.03885519  0.06738042  1
  O2-  O265  1  0.41798317  0.05305714  0.39787679  1
  O2-  O266  1  0.41242521  0.03926754  0.73089714  1
  O2-  O267  1  0.41892569  0.54821749  0.06293449  1
  O2-  O268  1  0.41969808  0.53628000  0.39701737  1
  O2-  O269  1  0.41803406  0.53815836  0.73841616  1
  O2-  O270  1  0.91850160  0.04823578  0.05664421  1
  O2-  O271  1  0.91946019  0.04570075  0.40274763  1
  O2-  O272  1  0.91303086  0.04437791  0.73252658  1
  O2-  O273  1  0.91096690  0.54782168  0.06250730  1
  O2-  O274  1  0.91236493  0.54564978  0.39740541  1
  O2-  O275  1  0.91346305  0.54826450  0.73073909  1
  O2-  O276  1  0.29206380  0.16765376  0.06525137  1
  O2-  O277  1  0.29640420  0.16746600  0.39560723  1
  O2-  O278  1  0.29740140  0.16469997  0.72736350  1
  O2-  O279  1  0.30350137  0.67030986  0.06143292  1
  O2-  O280  1  0.29968860  0.67005689  0.39715382  1
  O2-  O281  1  0.29497673  0.66855918  0.73898335  1
  O2-  O282  1  0.79740438  0.16754580  0.05866508  1
  O2-  O283  1  0.78586762  0.16743773  0.40466358  1
  O2-  O284  1  0.79093410  0.16166636  0.73551436  1
  O2-  O285  1  0.78408438  0.65880703  0.06222930  1
  O2-  O286  1  0.78914905  0.66027401  0.39892280  1
  O2-  O287  1  0.78518636  0.66009453  0.73303429  1
