# generated using pymatgen
data_Ca2Al2SiO7
_symmetry_space_group_name_H-M   'P 1'
_cell_length_a   15.45629115
_cell_length_b   15.45674173
_cell_length_c   15.28281706
_cell_angle_alpha   89.99679410
_cell_angle_beta   89.99594704
_cell_angle_gamma   90.01758725
_symmetry_Int_Tables_number   1
_chemical_formula_structural   Ca2Al2SiO7
_chemical_formula_sum   'Ca48 Al48 Si24 O168'
_cell_volume   3651.12441661
_cell_formula_units_Z   24
loop_
 _symmetry_equiv_pos_site_id
 _symmetry_equiv_pos_as_xyz
  1  'x, y, z'
loop_
 _atom_type_symbol
 _atom_type_oxidation_number
  Ca2+  2.0
  Al0+  0.0
  Si0+  0.0
  O2-  -2.0
loop_
 _atom_site_type_symbol
 _atom_site_label
 _atom_site_symmetry_multiplicity
 _atom_site_fract_x
 _atom_site_fract_y
 _atom_site_fract_z
 _atom_site_occupancy
  Ca2+  Ca0  1  0.17850575  0.09304027  0.17232848  1
  Ca2+  Ca1  1  0.17029031  0.08404418  0.50162303  1
  Ca2+  Ca2  1  0.17067857  0.07710467  0.83856167  1
  Ca2+  Ca3  1  0.16157690  0.57124959  0.17030980  1
  Ca2+  Ca4  1  0.16039065  0.57966213  0.49798979  1
  Ca2+  Ca5  1  0.17631505  0.57551091  0.84432017  1
  Ca2+  Ca6  1  0.67662523  0.08269915  0.17671533  1
  Ca2+  Ca7  1  0.66599055  0.08422608  0.49741048  1
  Ca2+  Ca8  1  0.66833468  0.08453398  0.83775902  1
  Ca2+  Ca9  1  0.67259189  0.57943548  0.16667669  1
  Ca2+  Ca10  1  0.67898735  0.57956140  0.50631382  1
  Ca2+  Ca11  1  0.67342541  0.57518734  0.84085715  1
  Ca2+  Ca12  1  0.08108392  0.33433523  0.16313510  1
  Ca2+  Ca13  1  0.08320766  0.32904910  0.48959853  1
  Ca2+  Ca14  1  0.07809591  0.33798756  0.83712846  1
  Ca2+  Ca15  1  0.07766425  0.82802461  0.16720450  1
  Ca2+  Ca16  1  0.07310494  0.83004921  0.49175015  1
  Ca2+  Ca17  1  0.07807243  0.83276541  0.82320104  1
  Ca2+  Ca18  1  0.58097370  0.32955202  0.15775307  1
  Ca2+  Ca19  1  0.58365850  0.32622738  0.50004670  1
  Ca2+  Ca20  1  0.57655787  0.33769022  0.82666150  1
  Ca2+  Ca21  1  0.58870319  0.82885409  0.16419589  1
  Ca2+  Ca22  1  0.58467748  0.83583737  0.49236477  1
  Ca2+  Ca23  1  0.58449619  0.82482822  0.83388490  1
  Ca2+  Ca24  1  0.32579965  0.41490770  0.16576266  1
  Ca2+  Ca25  1  0.32845157  0.41152300  0.50001782  1
  Ca2+  Ca26  1  0.33159077  0.41280109  0.84424346  1
  Ca2+  Ca27  1  0.33631733  0.93047190  0.17206546  1
  Ca2+  Ca28  1  0.32677351  0.92476841  0.50348605  1
  Ca2+  Ca29  1  0.32716846  0.92274092  0.83850551  1
  Ca2+  Ca30  1  0.83461173  0.42314591  0.16735677  1
  Ca2+  Ca31  1  0.83179855  0.42964716  0.50671062  1
  Ca2+  Ca32  1  0.82258528  0.42171765  0.84333707  1
  Ca2+  Ca33  1  0.82946733  0.92485401  0.17510962  1
  Ca2+  Ca34  1  0.83662119  0.91717391  0.49828312  1
  Ca2+  Ca35  1  0.83581417  0.92301211  0.83713812  1
  Ca2+  Ca36  1  0.41943121  0.16715684  0.16149411  1
  Ca2+  Ca37  1  0.42598715  0.16854965  0.49410875  1
  Ca2+  Ca38  1  0.42009533  0.17807479  0.82739661  1
  Ca2+  Ca39  1  0.42348769  0.66482813  0.15601193  1
  Ca2+  Ca40  1  0.41915621  0.67036454  0.49541946  1
  Ca2+  Ca41  1  0.42561393  0.65318959  0.83575969  1
  Ca2+  Ca42  1  0.91964176  0.16567821  0.16056721  1
  Ca2+  Ca43  1  0.92332457  0.16731099  0.48902667  1
  Ca2+  Ca44  1  0.90832904  0.17528377  0.83475126  1
  Ca2+  Ca45  1  0.91224523  0.66565817  0.16638649  1
  Ca2+  Ca46  1  0.91365511  0.67396324  0.49076241  1
  Ca2+  Ca47  1  0.91214897  0.66869894  0.82812739  1
  Al0+  Al48  1  0.00025984  -0.00154510  0.00225882  1
  Al0+  Al49  1  0.00106077  0.00013404  0.32602631  1
  Al0+  Al50  1  0.00028615  -0.00112757  0.66717843  1
  Al0+  Al51  1  -0.00035687  0.49991743  0.00004405  1
  Al0+  Al52  1  0.00029914  0.50009010  0.33987350  1
  Al0+  Al53  1  0.00230951  0.50108592  0.67083218  1
  Al0+  Al54  1  0.49886182  -0.00257436  0.00130216  1
  Al0+  Al55  1  0.50030564  0.00189923  0.33697420  1
  Al0+  Al56  1  0.50111677  0.00045056  0.66554260  1
  Al0+  Al57  1  0.50064808  0.49887382  -0.00063947  1
  Al0+  Al58  1  0.49780461  0.50042650  0.33430915  1
  Al0+  Al59  1  0.49968539  0.49961142  0.66067521  1
  Al0+  Al60  1  0.25014339  0.24736627  0.00154159  1
  Al0+  Al61  1  0.24967050  0.25139835  0.33897112  1
  Al0+  Al62  1  0.25120218  0.25052284  0.66433870  1
  Al0+  Al63  1  0.24937344  0.75052237  0.00167076  1
  Al0+  Al64  1  0.25002093  0.74976211  0.32789546  1
  Al0+  Al65  1  0.24962419  0.74996531  0.67048937  1
  Al0+  Al66  1  0.75169970  0.24902492  0.00326988  1
  Al0+  Al67  1  0.74858356  0.24988398  0.33358040  1
  Al0+  Al68  1  0.74996736  0.25064121  0.66456576  1
  Al0+  Al69  1  0.74956755  0.74985922  -0.00346801  1
  Al0+  Al70  1  0.74877697  0.75035804  0.33623893  1
  Al0+  Al71  1  0.75070959  0.75268409  0.66613223  1
  Al0+  Al72  1  0.82203167  0.57340783  0.68300668  1
  Al0+  Al73  1  0.81920241  0.56906107  0.34757785  1
  Al0+  Al74  1  0.17885520  0.92986254  0.67875821  1
  Al0+  Al75  1  0.57289235  0.17764385  0.65070319  1
  Al0+  Al76  1  0.07174927  0.17953395  0.31996312  1
  Al0+  Al77  1  0.92908061  0.32110800  0.98686654  1
  Al0+  Al78  1  0.92676707  0.82040187  0.31520338  1
  Al0+  Al79  1  0.17871070  0.42831984  0.01482476  1
  Al0+  Al80  1  0.57058759  0.67950276  0.98622000  1
  Al0+  Al81  1  0.42748100  0.32278850  0.64855845  1
  Al0+  Al82  1  0.82405260  0.07261380  0.34903998  1
  Al0+  Al83  1  0.92959920  0.82109803  0.65237372  1
  Al0+  Al84  1  0.32269539  0.57150163  0.01471134  1
  Al0+  Al85  1  0.42963475  0.31816446  0.98794290  1
  Al0+  Al86  1  0.82081246  0.07073368  0.01250923  1
  Al0+  Al87  1  0.68037699  0.93009592  0.34854505  1
  Al0+  Al88  1  0.57042905  0.17968931  0.31719172  1
  Al0+  Al89  1  0.82086783  0.57274752  0.01535053  1
  Al0+  Al90  1  0.32000258  0.06875834  0.01234629  1
  Al0+  Al91  1  0.07080640  0.67703681  0.31698250  1
  Al0+  Al92  1  0.18024869  0.43113781  0.34829913  1
  Al0+  Al93  1  0.67945990  0.42848912  0.68117281  1
  Al0+  Al94  1  0.32051900  0.07173753  0.34903311  1
  Al0+  Al95  1  0.67788974  0.42760773  0.01546921  1
  Si0+  Si96  1  0.92766810  0.32238721  0.31915443  1
  Si0+  Si97  1  0.17899823  0.92575004  0.34813897  1
  Si0+  Si98  1  0.57306839  0.17553792  0.98477693  1
  Si0+  Si99  1  0.32082593  0.57193109  0.68007403  1
  Si0+  Si100  1  0.82213682  0.07043721  0.68062365  1
  Si0+  Si101  1  0.18014134  0.42686305  0.68273599  1
  Si0+  Si102  1  0.57053111  0.68061608  0.65036227  1
  Si0+  Si103  1  0.56969777  0.67863742  0.31969884  1
  Si0+  Si104  1  0.42873581  0.82194916  0.31911404  1
  Si0+  Si105  1  0.17613337  0.92647893  0.01884402  1
  Si0+  Si106  1  0.07409142  0.67773542  0.65119547  1
  Si0+  Si107  1  0.42773940  0.32232041  0.31508289  1
  Si0+  Si108  1  0.93013778  0.82087771  0.98324540  1
  Si0+  Si109  1  0.42609981  0.82322628  0.98225844  1
  Si0+  Si110  1  0.67380786  0.42733604  0.35069640  1
  Si0+  Si111  1  0.32352213  0.57439822  0.35066043  1
  Si0+  Si112  1  0.67817755  0.92774545  0.01450114  1
  Si0+  Si113  1  0.07187856  0.17651620  0.98209694  1
  Si0+  Si114  1  0.06994592  0.17943558  0.65378023  1
  Si0+  Si115  1  0.32275456  0.07193458  0.68381380  1
  Si0+  Si116  1  0.93001348  0.32266173  0.65246499  1
  Si0+  Si117  1  0.67683784  0.92920293  0.68328189  1
  Si0+  Si118  1  0.42782315  0.82145453  0.65240188  1
  Si0+  Si119  1  0.07190958  0.67853264  0.98323373  1
  O2-  O120  1  0.24618809  -0.00580375  0.06131447  1
  O2-  O121  1  0.24431194  -0.00291155  0.39381796  1
  O2-  O122  1  0.25357611  0.00345074  0.72744270  1
  O2-  O123  1  0.24957903  0.50157178  0.06491676  1
  O2-  O124  1  0.25361904  0.50757618  0.39551571  1
  O2-  O125  1  0.25223739  0.49822495  0.72188912  1
  O2-  O126  1  0.74281191  -0.00033945  0.05793615  1
  O2-  O127  1  0.75320714  0.00022845  0.40069221  1
  O2-  O128  1  0.74774995  0.00183734  0.72265038  1
  O2-  O129  1  0.75098085  0.49877459  0.06490360  1
  O2-  O130  1  0.74487912  0.49396006  0.39419245  1
  O2-  O131  1  0.75177180  0.49959271  0.73191936  1
  O2-  O132  1  -0.00785850  0.24953581  0.27487487  1
  O2-  O133  1  0.00148345  0.25215856  0.61042547  1
  O2-  O134  1  0.00242518  0.24467370  0.93789626  1
  O2-  O135  1  -0.00207276  0.74717617  0.26520879  1
  O2-  O136  1  0.00162977  0.74270614  0.60804388  1
  O2-  O137  1  0.00096450  0.74970658  0.94064553  1
  O2-  O138  1  0.49858198  0.25670844  0.27033362  1
  O2-  O139  1  0.50003613  0.24976496  0.60166186  1
  O2-  O140  1  0.50601068  0.24528668  0.94006726  1
  O2-  O141  1  0.49805078  0.74919018  0.27751377  1
  O2-  O142  1  0.49957157  0.75222142  0.60824579  1
  O2-  O143  1  0.49189010  0.75123828  0.93837001  1
  O2-  O144  1  0.07195427  0.17614753  0.08742701  1
  O2-  O145  1  0.07225286  0.18228290  0.43414114  1
  O2-  O146  1  0.06971158  0.17940583  0.75885334  1
  O2-  O147  1  0.07273810  0.67978488  0.08786598  1
  O2-  O148  1  0.07145894  0.67976958  0.43112580  1
  O2-  O149  1  0.07726796  0.67991207  0.75688646  1
  O2-  O150  1  0.57042720  0.17433937  0.09018931  1
  O2-  O151  1  0.56836642  0.17984154  0.43018406  1
  O2-  O152  1  0.57034393  0.17447017  0.76456015  1
  O2-  O153  1  0.57131844  0.68387624  0.09947685  1
  O2-  O154  1  0.56711464  0.67916598  0.42527892  1
  O2-  O155  1  0.56887762  0.68088958  0.75541057  1
  O2-  O156  1  0.18140204  0.42995100  0.23590889  1
  O2-  O157  1  0.17811420  0.42672861  0.57779693  1
  O2-  O158  1  0.17989706  0.42999765  0.90038974  1
  O2-  O159  1  0.18424291  0.92358359  0.24270002  1
  O2-  O160  1  0.18084040  0.93165911  0.56597082  1
  O2-  O161  1  0.17519688  0.92744143  0.91262226  1
  O2-  O162  1  0.67047663  0.43022353  0.24542770  1
  O2-  O163  1  0.68235108  0.43097709  0.56726499  1
  O2-  O164  1  0.67762348  0.42920687  0.90175068  1
  O2-  O165  1  0.67925863  0.93015986  0.23477399  1
  O2-  O166  1  0.67474600  0.92686279  0.57886682  1
  O2-  O167  1  0.67897569  0.92718225  0.90826697  1
  O2-  O168  1  0.42853149  0.31541281  0.10082903  1
  O2-  O169  1  0.42882881  0.32199289  0.42079908  1
  O2-  O170  1  0.42437719  0.32144648  0.76221209  1
  O2-  O171  1  0.42855085  0.82641510  0.08774264  1
  O2-  O172  1  0.42791265  0.81965614  0.42486922  1
  O2-  O173  1  0.42862450  0.82184021  0.75724822  1
  O2-  O174  1  0.93123073  0.32034189  0.09965401  1
  O2-  O175  1  0.93143243  0.32242847  0.42559800  1
  O2-  O176  1  0.93031357  0.32149159  0.75756235  1
  O2-  O177  1  0.93030749  0.82185132  0.08772936  1
  O2-  O178  1  0.92884856  0.81913066  0.42920450  1
  O2-  O179  1  0.93211348  0.82379804  0.76597529  1
  O2-  O180  1  0.32057170  0.07036022  0.23583069  1
  O2-  O181  1  0.32153999  0.07049624  0.57828480  1
  O2-  O182  1  0.31769159  0.06646417  0.89888489  1
  O2-  O183  1  0.32769395  0.57380983  0.24587327  1
  O2-  O184  1  0.31839099  0.57636857  0.57504158  1
  O2-  O185  1  0.32039207  0.57006270  0.90020975  1
  O2-  O186  1  0.82180569  0.07151021  0.23552241  1
  O2-  O187  1  0.82598874  0.06893567  0.57616084  1
  O2-  O188  1  0.82068172  0.06828026  0.89841401  1
  O2-  O189  1  0.81722412  0.56835051  0.23482540  1
  O2-  O190  1  0.82074774  0.57298247  0.56921388  1
  O2-  O191  1  0.81889866  0.57385914  0.90182430  1
  O2-  O192  1  0.04998476  0.08229306  0.26383661  1
  O2-  O193  1  0.04038653  0.08868653  0.60590687  1
  O2-  O194  1  0.04643051  0.08173510  0.93693007  1
  O2-  O195  1  0.04210066  0.57739488  0.26766266  1
  O2-  O196  1  0.05295892  0.58190266  0.60725269  1
  O2-  O197  1  0.04533685  0.58697412  0.93499110  1
  O2-  O198  1  0.53710160  0.08276085  0.26521861  1
  O2-  O199  1  0.54436758  0.07845949  0.59783190  1
  O2-  O200  1  0.54675592  0.08116623  0.93919992  1
  O2-  O201  1  0.54148661  0.58696487  0.27233416  1
  O2-  O202  1  0.54201719  0.59045535  0.60055586  1
  O2-  O203  1  0.54021900  0.58360654  0.93048482  1
  O2-  O204  1  0.16755933  0.21573794  0.26777608  1
  O2-  O205  1  0.16261265  0.20483435  0.60664519  1
  O2-  O206  1  0.16468520  0.20272206  0.93480697  1
  O2-  O207  1  0.16980120  0.70445059  0.26333626  1
  O2-  O208  1  0.16667859  0.70638696  0.60410946  1
  O2-  O209  1  0.16432748  0.70682051  0.93547943  1
  O2-  O210  1  0.66881577  0.20687393  0.26466854  1
  O2-  O211  1  0.67162000  0.20532396  0.59696828  1
  O2-  O212  1  0.66796945  0.19800060  0.94066354  1
  O2-  O213  1  0.66034872  0.70773017  0.27236945  1
  O2-  O214  1  0.66174823  0.71068509  0.60371748  1
  O2-  O215  1  0.66442217  0.71514535  0.92830260  1
  O2-  O216  1  0.08108092  0.45794475  0.06710348  1
  O2-  O217  1  0.08496763  0.46028928  0.40644131  1
  O2-  O218  1  0.08896786  0.45469481  0.73153847  1
  O2-  O219  1  0.08343695  0.95222116  0.06530145  1
  O2-  O220  1  0.08373744  0.94898301  0.39021747  1
  O2-  O221  1  0.08390894  0.96240075  0.73563654  1
  O2-  O222  1  0.58074962  0.45721412  0.06866567  1
  O2-  O223  1  0.58125744  0.45608461  0.39817937  1
  O2-  O224  1  0.57896564  0.45827562  0.72922699  1
  O2-  O225  1  0.58286934  0.94625042  0.05942729  1
  O2-  O226  1  0.58230842  0.95887655  0.40286396  1
  O2-  O227  1  0.58486439  0.95510817  0.73232079  1
  O2-  O228  1  0.20597343  0.32948951  0.06583756  1
  O2-  O229  1  0.21296621  0.33679990  0.40587512  1
  O2-  O230  1  0.20702802  0.33475482  0.72999518  1
  O2-  O231  1  0.19970039  0.83256170  0.06391207  1
  O2-  O232  1  0.20776115  0.83322583  0.39550242  1
  O2-  O233  1  0.20972840  0.83391137  0.73514638  1
  O2-  O234  1  0.70538846  0.32931952  0.06781426  1
  O2-  O235  1  0.69736965  0.33299280  0.39498131  1
  O2-  O236  1  0.70601929  0.32897055  0.73295139  1
  O2-  O237  1  0.70820454  0.83609791  0.06063398  1
  O2-  O238  1  0.70471050  0.83117321  0.40299186  1
  O2-  O239  1  0.70635102  0.83844247  0.73176773  1
  O2-  O240  1  0.44910860  0.41841127  0.27175202  1
  O2-  O241  1  0.45319509  0.42134398  0.59354486  1
  O2-  O242  1  0.45699140  0.41559645  0.93364721  1
  O2-  O243  1  0.45926702  0.91283549  0.27238472  1
  O2-  O244  1  0.45430148  0.91337250  0.60468019  1
  O2-  O245  1  0.45580554  0.91460942  0.93247658  1
  O2-  O246  1  0.95919445  0.41412790  0.27410417  1
  O2-  O247  1  0.95946442  0.41495313  0.60637252  1
  O2-  O248  1  0.96108363  0.41683521  0.93037755  1
  O2-  O249  1  0.95615768  0.91802231  0.26139159  1
  O2-  O250  1  0.96420245  0.91658761  0.59813846  1
  O2-  O251  1  0.95994495  0.91257315  0.93519043  1
  O2-  O252  1  0.33440741  0.29337907  0.27202594  1
  O2-  O253  1  0.32891617  0.29276888  0.59520016  1
  O2-  O254  1  0.33329352  0.28517488  0.93293438  1
  O2-  O255  1  0.33760177  0.79747781  0.26945090  1
  O2-  O256  1  0.33654337  0.79111396  0.60484612  1
  O2-  O257  1  0.33041820  0.80248535  0.93763865  1
  O2-  O258  1  0.83199296  0.30392825  0.27546418  1
  O2-  O259  1  0.83896557  0.29560355  0.60433750  1
  O2-  O260  1  0.83296619  0.28799851  0.93133800  1
  O2-  O261  1  0.82703894  0.79193152  0.26488738  1
  O2-  O262  1  0.83123415  0.79557246  0.59915527  1
  O2-  O263  1  0.83805276  0.79488837  0.93509096  1
  O2-  O264  1  0.41635204  0.03726087  0.06716404  1
  O2-  O265  1  0.41464435  0.03707834  0.40446082  1
  O2-  O266  1  0.41592948  0.04445937  0.72927969  1
  O2-  O267  1  0.42053894  0.54407892  0.06692859  1
  O2-  O268  1  0.41586321  0.54742692  0.40028737  1
  O2-  O269  1  0.41438638  0.54625844  0.72415037  1
  O2-  O270  1  0.91680499  0.03799396  0.06566732  1
  O2-  O271  1  0.92478215  0.04520550  0.39856534  1
  O2-  O272  1  0.91164096  0.03930135  0.73073410  1
  O2-  O273  1  0.92011628  0.54658304  0.06581119  1
  O2-  O274  1  0.91480195  0.53960330  0.40406801  1
  O2-  O275  1  0.92274914  0.54884291  0.73337608  1
  O2-  O276  1  0.28868428  0.16340059  0.06826585  1
  O2-  O277  1  0.28927380  0.16669146  0.40489266  1
  O2-  O278  1  0.29533765  0.16572354  0.72833464  1
  O2-  O279  1  0.29938994  0.67255993  0.06456099  1
  O2-  O280  1  0.29959461  0.66947303  0.39531194  1
  O2-  O281  1  0.29294593  0.66196368  0.73106386  1
  O2-  O282  1  0.79586329  0.16686524  0.06801923  1
  O2-  O283  1  0.79591875  0.17180225  0.40140831  1
  O2-  O284  1  0.79627730  0.16339740  0.72677918  1
  O2-  O285  1  0.78958651  0.67113036  0.06653096  1
  O2-  O286  1  0.78620508  0.66482080  0.40160180  1
  O2-  O287  1  0.79166112  0.67240514  0.73369216  1
