# generated using pymatgen
data_Ca2Al2SiO7
_symmetry_space_group_name_H-M   'P 1'
_cell_length_a   15.45992191
_cell_length_b   15.45948867
_cell_length_c   15.28475220
_cell_angle_alpha   89.99895829
_cell_angle_beta   89.99672784
_cell_angle_gamma   89.99876587
_symmetry_Int_Tables_number   1
_chemical_formula_structural   Ca2Al2SiO7
_chemical_formula_sum   'Ca48 Al48 Si24 O168'
_cell_volume   3653.09379208
_cell_formula_units_Z   24
loop_
 _symmetry_equiv_pos_site_id
 _symmetry_equiv_pos_as_xyz
  1  'x, y, z'
loop_
 _atom_type_symbol
 _atom_type_oxidation_number
  Ca2+  2.0
  Al0+  0.0
  Si0+  0.0
  O2-  -2.0
loop_
 _atom_site_type_symbol
 _atom_site_label
 _atom_site_symmetry_multiplicity
 _atom_site_fract_x
 _atom_site_fract_y
 _atom_site_fract_z
 _atom_site_occupancy
  Ca2+  Ca0  1  0.16636706  0.08052841  0.16896581  1
  Ca2+  Ca1  1  0.16406253  0.08592423  0.49975586  1
  Ca2+  Ca2  1  0.17158632  0.07602317  0.84543598  1
  Ca2+  Ca3  1  0.16881961  0.58204540  0.16978544  1
  Ca2+  Ca4  1  0.16979394  0.57779855  0.50721289  1
  Ca2+  Ca5  1  0.17343783  0.59541019  0.83605694  1
  Ca2+  Ca6  1  0.67624643  0.08178783  0.16941242  1
  Ca2+  Ca7  1  0.67369605  0.09180308  0.50424239  1
  Ca2+  Ca8  1  0.67563370  0.07783788  0.83856551  1
  Ca2+  Ca9  1  0.66127863  0.57877849  0.16532190  1
  Ca2+  Ca10  1  0.67526762  0.57247295  0.51168152  1
  Ca2+  Ca11  1  0.66695740  0.57242393  0.84066283  1
  Ca2+  Ca12  1  0.08207286  0.33119893  0.16880241  1
  Ca2+  Ca13  1  0.07212718  0.33129757  0.48972875  1
  Ca2+  Ca14  1  0.07413445  0.32953699  0.82671215  1
  Ca2+  Ca15  1  0.07897954  0.83022082  0.15424493  1
  Ca2+  Ca16  1  0.07808309  0.82731285  0.50326300  1
  Ca2+  Ca17  1  0.07679136  0.83005843  0.83278893  1
  Ca2+  Ca18  1  0.58349046  0.32870356  0.16513284  1
  Ca2+  Ca19  1  0.58590233  0.32436113  0.49621866  1
  Ca2+  Ca20  1  0.58965019  0.32970663  0.82735521  1
  Ca2+  Ca21  1  0.58092731  0.82977269  0.15855095  1
  Ca2+  Ca22  1  0.57612072  0.83009287  0.49322585  1
  Ca2+  Ca23  1  0.59105646  0.82756645  0.83525611  1
  Ca2+  Ca24  1  0.32962434  0.42129191  0.17341911  1
  Ca2+  Ca25  1  0.32735459  0.41355419  0.50226263  1
  Ca2+  Ca26  1  0.33238922  0.42968636  0.83937974  1
  Ca2+  Ca27  1  0.33007101  0.91714884  0.16729411  1
  Ca2+  Ca28  1  0.33399482  0.91514541  0.50277949  1
  Ca2+  Ca29  1  0.32498964  0.92313607  0.84403449  1
  Ca2+  Ca30  1  0.82978902  0.41442939  0.16962758  1
  Ca2+  Ca31  1  0.83195670  0.41398556  0.51045604  1
  Ca2+  Ca32  1  0.82535572  0.41729052  0.83171012  1
  Ca2+  Ca33  1  0.83453427  0.92344282  0.16824254  1
  Ca2+  Ca34  1  0.83769310  0.92990294  0.50594739  1
  Ca2+  Ca35  1  0.83788282  0.92405607  0.84129395  1
  Ca2+  Ca36  1  0.41683678  0.17123388  0.16383689  1
  Ca2+  Ca37  1  0.43199806  0.17192517  0.48961803  1
  Ca2+  Ca38  1  0.42341354  0.16519144  0.82756561  1
  Ca2+  Ca39  1  0.41818684  0.67088596  0.15891967  1
  Ca2+  Ca40  1  0.41337957  0.66998200  0.49750302  1
  Ca2+  Ca41  1  0.41834163  0.66083473  0.83341149  1
  Ca2+  Ca42  1  0.91336953  0.16611137  0.16820381  1
  Ca2+  Ca43  1  0.91289146  0.17594675  0.49358527  1
  Ca2+  Ca44  1  0.90722088  0.16866321  0.82697354  1
  Ca2+  Ca45  1  0.92492042  0.67436385  0.15202423  1
  Ca2+  Ca46  1  0.91603299  0.66627535  0.50142222  1
  Ca2+  Ca47  1  0.92250732  0.67828219  0.82354750  1
  Al0+  Al48  1  0.00201113  0.00195427  0.00443447  1
  Al0+  Al49  1  -0.00000175  -0.00036667  0.33660217  1
  Al0+  Al50  1  0.00093329  -0.00134793  0.66732447  1
  Al0+  Al51  1  0.00029227  0.49849361  -0.00654371  1
  Al0+  Al52  1  0.00128381  0.49995969  0.33289570  1
  Al0+  Al53  1  0.00022412  0.49961517  0.66406383  1
  Al0+  Al54  1  0.50148847  0.00170255  0.00580559  1
  Al0+  Al55  1  0.49964801  -0.00212744  0.32538213  1
  Al0+  Al56  1  0.50087834  -0.00002061  0.66225159  1
  Al0+  Al57  1  0.49846605  0.50003929  0.00516339  1
  Al0+  Al58  1  0.50114618  0.50069557  0.33352831  1
  Al0+  Al59  1  0.49745920  0.49910903  0.67199474  1
  Al0+  Al60  1  0.24981853  0.25260752  0.00005004  1
  Al0+  Al61  1  0.24977776  0.24970164  0.33223362  1
  Al0+  Al62  1  0.25086481  0.25011067  0.66844483  1
  Al0+  Al63  1  0.25139050  0.75105707  0.00486615  1
  Al0+  Al64  1  0.24995967  0.75095307  0.33102301  1
  Al0+  Al65  1  0.24901749  0.75031599  0.66656240  1
  Al0+  Al66  1  0.74817004  0.25069847  0.00711490  1
  Al0+  Al67  1  0.75028697  0.25032252  0.32878942  1
  Al0+  Al68  1  0.74991174  0.24813410  0.66665540  1
  Al0+  Al69  1  0.74940586  0.74969015  -0.00523121  1
  Al0+  Al70  1  0.74968058  0.75067624  0.33439589  1
  Al0+  Al71  1  0.74927279  0.75098232  0.66191014  1
  Al0+  Al72  1  0.82045327  0.06859899  0.67897191  1
  Al0+  Al73  1  0.42778345  0.81925738  0.31867850  1
  Al0+  Al74  1  0.67911316  0.43033263  0.01615180  1
  Al0+  Al75  1  0.18043114  0.93023821  0.01620373  1
  Al0+  Al76  1  0.67965657  0.42864036  0.68078896  1
  Al0+  Al77  1  0.93012173  0.31834417  0.65495582  1
  Al0+  Al78  1  0.57233958  0.17879782  0.31468798  1
  Al0+  Al79  1  0.56935911  0.67779935  0.98582923  1
  Al0+  Al80  1  0.17945901  0.42833584  0.34742576  1
  Al0+  Al81  1  0.92652911  0.82297206  0.64931974  1
  Al0+  Al82  1  0.07213847  0.67986708  0.64985073  1
  Al0+  Al83  1  0.92893244  0.32304165  0.31634023  1
  Al0+  Al84  1  0.31926856  0.57038806  0.01541618  1
  Al0+  Al85  1  0.82346019  0.57381280  0.68201897  1
  Al0+  Al86  1  0.31857570  0.57122292  0.68032981  1
  Al0+  Al87  1  0.67970748  0.92539863  0.01477034  1
  Al0+  Al88  1  0.92878812  0.82345397  0.98567599  1
  Al0+  Al89  1  0.82160536  0.07153400  0.01637692  1
  Al0+  Al90  1  0.32255031  0.07454014  0.01554732  1
  Al0+  Al91  1  0.81953508  0.06965274  0.34968758  1
  Al0+  Al92  1  0.07061645  0.17716563  0.31804076  1
  Al0+  Al93  1  0.56955272  0.17931030  0.65460496  1
  Al0+  Al94  1  0.07325275  0.67764163  0.98481653  1
  Al0+  Al95  1  0.42854728  0.32239987  0.31823602  1
  Si0+  Si96  1  0.18086568  0.93019705  0.68093864  1
  Si0+  Si97  1  0.67967816  0.43018867  0.34864266  1
  Si0+  Si98  1  0.17709668  0.42593206  0.68409826  1
  Si0+  Si99  1  0.07032698  0.67946713  0.31862191  1
  Si0+  Si100  1  0.32337923  0.07095041  0.67848756  1
  Si0+  Si101  1  0.82305215  0.57086126  0.01442249  1
  Si0+  Si102  1  0.07543756  0.17683872  0.65215784  1
  Si0+  Si103  1  0.07192374  0.18087207  0.98530279  1
  Si0+  Si104  1  0.17949301  0.92778038  0.35134162  1
  Si0+  Si105  1  0.57024530  0.67575200  0.65213161  1
  Si0+  Si106  1  0.42925594  0.82385359  0.98260136  1
  Si0+  Si107  1  0.42826017  0.32136283  0.98380566  1
  Si0+  Si108  1  0.32161847  0.57279441  0.35029275  1
  Si0+  Si109  1  0.67418477  0.92738366  0.68061522  1
  Si0+  Si110  1  0.57373955  0.67855638  0.31779320  1
  Si0+  Si111  1  0.17528149  0.42733980  0.01621365  1
  Si0+  Si112  1  0.67649932  0.92638503  0.35118379  1
  Si0+  Si113  1  0.42628711  0.32342642  0.65129300  1
  Si0+  Si114  1  0.82199418  0.57285186  0.34626320  1
  Si0+  Si115  1  0.92895049  0.82045481  0.31910933  1
  Si0+  Si116  1  0.32226010  0.07027812  0.34940834  1
  Si0+  Si117  1  0.57098057  0.18008931  0.98405534  1
  Si0+  Si118  1  0.42959999  0.81999302  0.65388126  1
  Si0+  Si119  1  0.92613085  0.31965677  0.98357389  1
  O2-  O120  1  0.25214099  0.00215898  0.06718491  1
  O2-  O121  1  0.25083011  -0.00050701  0.39317586  1
  O2-  O122  1  0.24852719  0.00524644  0.72142711  1
  O2-  O123  1  0.24059245  0.49937359  0.05997351  1
  O2-  O124  1  0.25649162  0.50113141  0.39457523  1
  O2-  O125  1  0.24428033  0.49630015  0.72775569  1
  O2-  O126  1  0.75306136  -0.00460499  0.06521502  1
  O2-  O127  1  0.74223877  -0.00308595  0.39649489  1
  O2-  O128  1  0.74899531  -0.01019327  0.72343248  1
  O2-  O129  1  0.75411637  0.50496053  0.06292702  1
  O2-  O130  1  0.75226073  0.50047538  0.38878866  1
  O2-  O131  1  0.74867269  0.50377698  0.73098094  1
  O2-  O132  1  -0.00024011  0.24952128  0.26667677  1
  O2-  O133  1  0.00747167  0.24598488  0.60883413  1
  O2-  O134  1  -0.00266189  0.24776716  0.94262825  1
  O2-  O135  1  -0.00209675  0.74832886  0.27653070  1
  O2-  O136  1  -0.00530253  0.74634773  0.59937514  1
  O2-  O137  1  -0.00094593  0.74861229  0.93694876  1
  O2-  O138  1  0.49892016  0.25036895  0.26557412  1
  O2-  O139  1  0.49499486  0.25459793  0.60827126  1
  O2-  O140  1  0.49730192  0.24850696  0.94120095  1
  O2-  O141  1  0.50369921  0.74564127  0.27396303  1
  O2-  O142  1  0.50043010  0.74885196  0.61088123  1
  O2-  O143  1  0.49814483  0.75581513  0.93741759  1
  O2-  O144  1  0.07471872  0.18337078  0.08973278  1
  O2-  O145  1  0.06911387  0.17780218  0.43218956  1
  O2-  O146  1  0.07901511  0.17803036  0.75785047  1
  O2-  O147  1  0.07013491  0.67700210  0.09933099  1
  O2-  O148  1  0.07152553  0.68062373  0.42361495  1
  O2-  O149  1  0.07684580  0.68733462  0.76252382  1
  O2-  O150  1  0.57126471  0.18301591  0.08873607  1
  O2-  O151  1  0.57174188  0.18114091  0.42889492  1
  O2-  O152  1  0.56648047  0.17728910  0.76786119  1
  O2-  O153  1  0.56554847  0.67710271  0.09913420  1
  O2-  O154  1  0.57423096  0.67924174  0.42375206  1
  O2-  O155  1  0.56879406  0.67511614  0.75699720  1
  O2-  O156  1  0.17837063  0.43379101  0.23439272  1
  O2-  O157  1  0.18059461  0.42337909  0.57854770  1
  O2-  O158  1  0.17823957  0.42220604  0.91068966  1
  O2-  O159  1  0.17975201  0.92578801  0.24694280  1
  O2-  O160  1  0.18332368  0.92894061  0.57535647  1
  O2-  O161  1  0.18201524  0.93280135  0.90188737  1
  O2-  O162  1  0.67805495  0.43272114  0.24354205  1
  O2-  O163  1  0.67974392  0.42918773  0.56664963  1
  O2-  O164  1  0.67994141  0.42799568  0.90326860  1
  O2-  O165  1  0.68029096  0.92165142  0.24628294  1
  O2-  O166  1  0.66796144  0.93011592  0.57519393  1
  O2-  O167  1  0.67728075  0.92962814  0.90071670  1
  O2-  O168  1  0.42801972  0.32109906  0.08859904  1
  O2-  O169  1  0.43058827  0.32109520  0.43231833  1
  O2-  O170  1  0.42367445  0.32148053  0.75694993  1
  O2-  O171  1  0.42932319  0.82089050  0.08819235  1
  O2-  O172  1  0.42734030  0.81710812  0.43291462  1
  O2-  O173  1  0.42926275  0.82241147  0.75837004  1
  O2-  O174  1  0.92720508  0.32184113  0.08830527  1
  O2-  O175  1  0.92878004  0.32333276  0.43006711  1
  O2-  O176  1  0.92981078  0.31505033  0.76847926  1
  O2-  O177  1  0.93104458  0.82061744  0.10027877  1
  O2-  O178  1  0.92982501  0.81907319  0.42410999  1
  O2-  O179  1  0.93146365  0.82718254  0.76222161  1
  O2-  O180  1  0.32103276  0.06909938  0.24481249  1
  O2-  O181  1  0.32456946  0.06843643  0.57332180  1
  O2-  O182  1  0.32011494  0.07358426  0.90072829  1
  O2-  O183  1  0.31934634  0.57428164  0.24498482  1
  O2-  O184  1  0.31854464  0.57158053  0.56705223  1
  O2-  O185  1  0.32022018  0.56792908  0.90209845  1
  O2-  O186  1  0.82059765  0.06551178  0.23712123  1
  O2-  O187  1  0.81858054  0.07044589  0.56590491  1
  O2-  O188  1  0.81790825  0.07419921  0.90247714  1
  O2-  O189  1  0.82030443  0.57525912  0.24123463  1
  O2-  O190  1  0.81932082  0.57135662  0.56742076  1
  O2-  O191  1  0.82160955  0.56689428  0.90925231  1
  O2-  O192  1  0.04254172  0.07768372  0.26690565  1
  O2-  O193  1  0.05157173  0.08290584  0.60708910  1
  O2-  O194  1  0.04901141  0.08747620  0.93931505  1
  O2-  O195  1  0.04472679  0.58780815  0.27111173  1
  O2-  O196  1  0.05041713  0.57897331  0.59932064  1
  O2-  O197  1  0.05011718  0.57798726  0.93157780  1
  O2-  O198  1  0.54649892  0.07948512  0.26399993  1
  O2-  O199  1  0.53772163  0.08428811  0.59695240  1
  O2-  O200  1  0.54548314  0.08682284  0.93834625  1
  O2-  O201  1  0.54992091  0.58451489  0.27263655  1
  O2-  O202  1  0.53918327  0.58493912  0.60429358  1
  O2-  O203  1  0.53365597  0.58184323  0.93280647  1
  O2-  O204  1  0.16963968  0.20348276  0.26642702  1
  O2-  O205  1  0.16986751  0.20072041  0.60530134  1
  O2-  O206  1  0.16228703  0.21163076  0.93516900  1
  O2-  O207  1  0.16140375  0.70930171  0.27137843  1
  O2-  O208  1  0.16830329  0.71570832  0.59445226  1
  O2-  O209  1  0.17217018  0.70943416  0.93521566  1
  O2-  O210  1  0.66863962  0.21028955  0.26106338  1
  O2-  O211  1  0.66445807  0.21191561  0.59948732  1
  O2-  O212  1  0.66211615  0.21250409  0.93792564  1
  O2-  O213  1  0.66661541  0.70512420  0.27038423  1
  O2-  O214  1  0.66130816  0.70121175  0.60228888  1
  O2-  O215  1  0.66637658  0.70355537  0.93017236  1
  O2-  O216  1  0.08003280  0.44919128  0.06039770  1
  O2-  O217  1  0.08343650  0.46174439  0.40206745  1
  O2-  O218  1  0.08273119  0.44839390  0.72838014  1
  O2-  O219  1  0.08363741  0.95927045  0.07101227  1
  O2-  O220  1  0.08848374  0.95559724  0.40032846  1
  O2-  O221  1  0.08916464  0.95514650  0.72874723  1
  O2-  O222  1  0.58373127  0.46237500  0.07111578  1
  O2-  O223  1  0.58825613  0.45836953  0.39745761  1
  O2-  O224  1  0.58003099  0.45314926  0.73327568  1
  O2-  O225  1  0.58201664  0.95457217  0.06867135  1
  O2-  O226  1  0.58002911  0.94856443  0.39336127  1
  O2-  O227  1  0.58326727  0.95833275  0.72984562  1
  O2-  O228  1  0.20521231  0.33622142  0.06438521  1
  O2-  O229  1  0.20797936  0.33100022  0.40188195  1
  O2-  O230  1  0.20376325  0.33259650  0.73205807  1
  O2-  O231  1  0.20898345  0.83305496  0.07093522  1
  O2-  O232  1  0.21045170  0.83653550  0.39931538  1
  O2-  O233  1  0.21419416  0.84123235  0.72912110  1
  O2-  O234  1  0.71048680  0.33566289  0.07227570  1
  O2-  O235  1  0.70694949  0.33768552  0.39379042  1
  O2-  O236  1  0.71157888  0.33179113  0.73427536  1
  O2-  O237  1  0.70248225  0.82477770  0.06640100  1
  O2-  O238  1  0.70313622  0.83300660  0.39926696  1
  O2-  O239  1  0.69272101  0.83077597  0.72238376  1
  O2-  O240  1  0.45632276  0.42209907  0.26705360  1
  O2-  O241  1  0.45002810  0.41745665  0.60571104  1
  O2-  O242  1  0.45916936  0.41245564  0.93756221  1
  O2-  O243  1  0.45409892  0.91522379  0.26300762  1
  O2-  O244  1  0.45725433  0.91058635  0.60293468  1
  O2-  O245  1  0.45256487  0.91929238  0.93886734  1
  O2-  O246  1  0.95852238  0.42152765  0.26327301  1
  O2-  O247  1  0.95641860  0.41566475  0.60050840  1
  O2-  O248  1  0.95401364  0.41039788  0.93412823  1
  O2-  O249  1  0.95956803  0.91132546  0.27339531  1
  O2-  O250  1  0.96369921  0.91912442  0.59509496  1
  O2-  O251  1  0.96059398  0.92228021  0.93499867  1
  O2-  O252  1  0.33008225  0.29532205  0.26590876  1
  O2-  O253  1  0.33270377  0.29704149  0.60467381  1
  O2-  O254  1  0.33580260  0.29652899  0.93522113  1
  O2-  O255  1  0.33201195  0.78797012  0.26334544  1
  O2-  O256  1  0.33891570  0.79144686  0.60445000  1
  O2-  O257  1  0.33564056  0.79686601  0.93775716  1
  O2-  O258  1  0.83111296  0.29554788  0.26332074  1
  O2-  O259  1  0.83504971  0.28519650  0.59985069  1
  O2-  O260  1  0.83382590  0.29012133  0.93834091  1
  O2-  O261  1  0.83591498  0.79477428  0.27322541  1
  O2-  O262  1  0.82635969  0.80143495  0.59546408  1
  O2-  O263  1  0.82999837  0.79916334  0.93241696  1
  O2-  O264  1  0.42076032  0.04943014  0.06859294  1
  O2-  O265  1  0.41454039  0.03975630  0.39527495  1
  O2-  O266  1  0.41304811  0.03850259  0.72723918  1
  O2-  O267  1  0.41295571  0.53575929  0.07167499  1
  O2-  O268  1  0.41763782  0.55244097  0.39432776  1
  O2-  O269  1  0.41417965  0.54114564  0.73652814  1
  O2-  O270  1  0.92153013  0.04964148  0.06791128  1
  O2-  O271  1  0.91598825  0.03679748  0.40378560  1
  O2-  O272  1  0.91924214  0.04312561  0.73219217  1
  O2-  O273  1  0.91694833  0.54328296  0.05972586  1
  O2-  O274  1  0.91444666  0.54765062  0.39300391  1
  O2-  O275  1  0.92233652  0.54553813  0.73283178  1
  O2-  O276  1  0.29262092  0.17302980  0.06669771  1
  O2-  O277  1  0.29541700  0.16191451  0.39738980  1
  O2-  O278  1  0.30155245  0.16437282  0.72573435  1
  O2-  O279  1  0.29425854  0.66775235  0.06975506  1
  O2-  O280  1  0.29149778  0.66559868  0.39649143  1
  O2-  O281  1  0.28867811  0.66837526  0.73419964  1
  O2-  O282  1  0.78805756  0.16731099  0.07116045  1
  O2-  O283  1  0.78938646  0.16896762  0.39910408  1
  O2-  O284  1  0.78542811  0.16271495  0.73409766  1
  O2-  O285  1  0.80007981  0.66575240  0.05805099  1
  O2-  O286  1  0.79279474  0.66376699  0.39592401  1
  O2-  O287  1  0.79783395  0.67505931  0.72977123  1
