# generated using pymatgen
data_Ca2Al2SiO7
_symmetry_space_group_name_H-M   'P 1'
_cell_length_a   15.45076078
_cell_length_b   15.45158659
_cell_length_c   15.27847786
_cell_angle_alpha   89.99229837
_cell_angle_beta   90.00381964
_cell_angle_gamma   89.99369739
_symmetry_Int_Tables_number   1
_chemical_formula_structural   Ca2Al2SiO7
_chemical_formula_sum   'Ca48 Al48 Si24 O168'
_cell_volume   3647.56491651
_cell_formula_units_Z   24
loop_
 _symmetry_equiv_pos_site_id
 _symmetry_equiv_pos_as_xyz
  1  'x, y, z'
loop_
 _atom_type_symbol
 _atom_type_oxidation_number
  Ca2+  2.0
  Al0+  0.0
  Si0+  0.0
  O2-  -2.0
loop_
 _atom_site_type_symbol
 _atom_site_label
 _atom_site_symmetry_multiplicity
 _atom_site_fract_x
 _atom_site_fract_y
 _atom_site_fract_z
 _atom_site_occupancy
  Ca2+  Ca0  1  0.16913343  0.08918408  0.16833699  1
  Ca2+  Ca1  1  0.17093494  0.08815907  0.50592886  1
  Ca2+  Ca2  1  0.17551867  0.09313411  0.83860019  1
  Ca2+  Ca3  1  0.15881250  0.57811044  0.17738611  1
  Ca2+  Ca4  1  0.17029348  0.57995994  0.50284872  1
  Ca2+  Ca5  1  0.17196755  0.58883440  0.83717802  1
  Ca2+  Ca6  1  0.67200215  0.08079426  0.16906266  1
  Ca2+  Ca7  1  0.66849069  0.07182770  0.51202881  1
  Ca2+  Ca8  1  0.67595042  0.08454551  0.84026204  1
  Ca2+  Ca9  1  0.66830872  0.58680836  0.17099557  1
  Ca2+  Ca10  1  0.66721031  0.58144162  0.50232147  1
  Ca2+  Ca11  1  0.66090096  0.56981343  0.84043849  1
  Ca2+  Ca12  1  0.08363051  0.32651329  0.16481415  1
  Ca2+  Ca13  1  0.08999386  0.32304435  0.49362195  1
  Ca2+  Ca14  1  0.07966439  0.32189726  0.82968513  1
  Ca2+  Ca15  1  0.07785134  0.81926712  0.15761769  1
  Ca2+  Ca16  1  0.07446550  0.82862969  0.49543975  1
  Ca2+  Ca17  1  0.06890106  0.83812110  0.83205943  1
  Ca2+  Ca18  1  0.57726726  0.33366298  0.15931887  1
  Ca2+  Ca19  1  0.58149288  0.32905460  0.49972223  1
  Ca2+  Ca20  1  0.59200957  0.32278319  0.82875705  1
  Ca2+  Ca21  1  0.58736467  0.82621936  0.16890231  1
  Ca2+  Ca22  1  0.57975811  0.83532884  0.49028580  1
  Ca2+  Ca23  1  0.58954928  0.82745570  0.82942633  1
  Ca2+  Ca24  1  0.32731029  0.41539272  0.17481175  1
  Ca2+  Ca25  1  0.33227732  0.41853250  0.50061109  1
  Ca2+  Ca26  1  0.33394989  0.42297544  0.83422920  1
  Ca2+  Ca27  1  0.33834560  0.92228131  0.16900343  1
  Ca2+  Ca28  1  0.33230207  0.91969124  0.50661211  1
  Ca2+  Ca29  1  0.33217958  0.93064522  0.83740387  1
  Ca2+  Ca30  1  0.82607291  0.42306298  0.17130727  1
  Ca2+  Ca31  1  0.83006723  0.42570134  0.50312899  1
  Ca2+  Ca32  1  0.81945713  0.41034787  0.83720225  1
  Ca2+  Ca33  1  0.83194418  0.91713385  0.16811911  1
  Ca2+  Ca34  1  0.82147266  0.91660581  0.50809504  1
  Ca2+  Ca35  1  0.83577617  0.92160455  0.83347592  1
  Ca2+  Ca36  1  0.42134450  0.17236799  0.16084702  1
  Ca2+  Ca37  1  0.42090711  0.16837634  0.49742072  1
  Ca2+  Ca38  1  0.42759537  0.15896888  0.82865167  1
  Ca2+  Ca39  1  0.42729164  0.67233713  0.16374177  1
  Ca2+  Ca40  1  0.42229695  0.67200866  0.49080017  1
  Ca2+  Ca41  1  0.42010265  0.66495211  0.83021044  1
  Ca2+  Ca42  1  0.92724403  0.16063009  0.15970920  1
  Ca2+  Ca43  1  0.92583992  0.16182045  0.49980300  1
  Ca2+  Ca44  1  0.92509834  0.15334849  0.82748229  1
  Ca2+  Ca45  1  0.92132633  0.66797952  0.16098947  1
  Ca2+  Ca46  1  0.91428942  0.67112195  0.49311399  1
  Ca2+  Ca47  1  0.91711705  0.67917193  0.83107245  1
  Al0+  Al48  1  0.00150929  -0.00098183  -0.00206383  1
  Al0+  Al49  1  0.00240216  0.00006851  0.32948472  1
  Al0+  Al50  1  -0.00063009  -0.00296550  0.65672042  1
  Al0+  Al51  1  -0.00028842  0.49926834  -0.00641591  1
  Al0+  Al52  1  -0.00119231  0.49767671  0.34137233  1
  Al0+  Al53  1  0.00058451  0.49928608  0.66855259  1
  Al0+  Al54  1  0.49965337  0.00126939  0.00278614  1
  Al0+  Al55  1  0.50047641  0.00119629  0.33311752  1
  Al0+  Al56  1  0.49941419  -0.00193006  0.67027809  1
  Al0+  Al57  1  0.49742734  0.50065081  0.00197134  1
  Al0+  Al58  1  0.49923259  0.49925096  0.32585769  1
  Al0+  Al59  1  0.49903305  0.49938452  0.67400032  1
  Al0+  Al60  1  0.25026481  0.25273531  0.00053609  1
  Al0+  Al61  1  0.25101877  0.25084062  0.32975390  1
  Al0+  Al62  1  0.25048788  0.25143941  0.66785295  1
  Al0+  Al63  1  0.25158870  0.75105820  -0.00218892  1
  Al0+  Al64  1  0.24965668  0.75204123  0.32567299  1
  Al0+  Al65  1  0.25027918  0.74951279  0.67198047  1
  Al0+  Al66  1  0.74881756  0.24958391  0.00983963  1
  Al0+  Al67  1  0.75226652  0.25059035  0.33592051  1
  Al0+  Al68  1  0.75177402  0.24972682  0.66626893  1
  Al0+  Al69  1  0.74895947  0.74889283  -0.00917068  1
  Al0+  Al70  1  0.74965443  0.75144145  0.33839235  1
  Al0+  Al71  1  0.75047878  0.74892697  0.66564728  1
  Al0+  Al72  1  0.67773714  0.42890433  0.01611657  1
  Al0+  Al73  1  0.07145403  0.18074768  0.65226324  1
  Al0+  Al74  1  0.92843321  0.81885273  0.64852177  1
  Al0+  Al75  1  0.43059550  0.31954501  0.32055370  1
  Al0+  Al76  1  0.17984515  0.42864427  0.34708135  1
  Al0+  Al77  1  0.56914637  0.67904280  0.98419607  1
  Al0+  Al78  1  0.67730980  0.92702093  0.68352693  1
  Al0+  Al79  1  0.81968978  0.57036396  0.34591210  1
  Al0+  Al80  1  0.57218082  0.17753988  0.65364899  1
  Al0+  Al81  1  0.07000834  0.17976261  0.31835502  1
  Al0+  Al82  1  0.57249341  0.67946817  0.31998281  1
  Al0+  Al83  1  0.42756416  0.82434392  0.31827787  1
  Al0+  Al84  1  0.31946101  0.07177008  0.67897367  1
  Al0+  Al85  1  0.06945131  0.67732489  0.32303989  1
  Al0+  Al86  1  0.92875212  0.82088285  0.98495675  1
  Al0+  Al87  1  0.07270249  0.67551479  0.98371120  1
  Al0+  Al88  1  0.57097662  0.18003374  0.98798611  1
  Al0+  Al89  1  0.32122078  0.07240739  0.01599376  1
  Al0+  Al90  1  0.68033485  0.43038887  0.67916429  1
  Al0+  Al91  1  0.07083306  0.18079982  0.98621365  1
  Al0+  Al92  1  0.31960550  0.57120125  0.67957511  1
  Al0+  Al93  1  0.82180682  0.06955250  0.67998108  1
  Al0+  Al94  1  0.82291404  0.06919524  0.01507399  1
  Al0+  Al95  1  0.68020335  0.93200103  0.34621494  1
  Si0+  Si96  1  0.42835043  0.82011548  0.65379345  1
  Si0+  Si97  1  0.32015230  0.57315214  0.01790249  1
  Si0+  Si98  1  0.07389128  0.67726680  0.64948615  1
  Si0+  Si99  1  0.82569183  0.07301498  0.35065032  1
  Si0+  Si100  1  0.56878488  0.67659683  0.65274889  1
  Si0+  Si101  1  0.82116895  0.57208226  0.01394733  1
  Si0+  Si102  1  0.17851151  0.92745276  0.34741705  1
  Si0+  Si103  1  0.67792267  0.92573892  0.01700035  1
  Si0+  Si104  1  0.92727907  0.32447951  0.64850599  1
  Si0+  Si105  1  0.57436503  0.17795037  0.31788903  1
  Si0+  Si106  1  0.42928660  0.32311371  0.65123247  1
  Si0+  Si107  1  0.92634681  0.32166453  0.98448592  1
  Si0+  Si108  1  0.92663088  0.32263133  0.31693026  1
  Si0+  Si109  1  0.17713301  0.42736068  0.68542516  1
  Si0+  Si110  1  0.32218809  0.57372825  0.34710157  1
  Si0+  Si111  1  0.82407619  0.57268716  0.68532301  1
  Si0+  Si112  1  0.42739648  0.32229464  0.98169082  1
  Si0+  Si113  1  0.17844245  0.43132785  0.01476020  1
  Si0+  Si114  1  0.42823940  0.82354501  0.98092403  1
  Si0+  Si115  1  0.17917183  0.92830888  0.01786976  1
  Si0+  Si116  1  0.92779653  0.82116296  0.31681270  1
  Si0+  Si117  1  0.67461530  0.42709733  0.35034194  1
  Si0+  Si118  1  0.31936623  0.07098704  0.34788345  1
  Si0+  Si119  1  0.17751507  0.92729520  0.68226308  1
  O2-  O120  1  0.24688495  -0.00238970  0.06350316  1
  O2-  O121  1  0.25026223  -0.00207423  0.39007332  1
  O2-  O122  1  0.24222801  -0.00013342  0.72634080  1
  O2-  O123  1  0.24417038  0.50681882  0.05833631  1
  O2-  O124  1  0.25264535  0.50628597  0.39248425  1
  O2-  O125  1  0.24287721  0.49932010  0.72867885  1
  O2-  O126  1  0.74760369  -0.00590443  0.06066714  1
  O2-  O127  1  0.75373503  0.00762813  0.39360020  1
  O2-  O128  1  0.74711071  0.00167488  0.73244870  1
  O2-  O129  1  0.75222845  0.50493282  0.06044651  1
  O2-  O130  1  0.74254728  0.49731529  0.39291471  1
  O2-  O131  1  0.75607652  0.50309300  0.72844202  1
  O2-  O132  1  -0.00867449  0.25045669  0.27213411  1
  O2-  O133  1  -0.00268757  0.25612854  0.60528342  1
  O2-  O134  1  -0.00825681  0.25030034  0.93915584  1
  O2-  O135  1  -0.00416255  0.75134603  0.27384152  1
  O2-  O136  1  0.00191366  0.74120337  0.60399037  1
  O2-  O137  1  0.00153606  0.74859382  0.93517396  1
  O2-  O138  1  0.50979846  0.25019738  0.27339139  1
  O2-  O139  1  0.49598195  0.25196016  0.60772950  1
  O2-  O140  1  0.49667783  0.25421968  0.93856235  1
  O2-  O141  1  0.49953411  0.75111735  0.27035318  1
  O2-  O142  1  0.50111911  0.75100552  0.61096959  1
  O2-  O143  1  0.49708566  0.75555069  0.93583467  1
  O2-  O144  1  0.07146946  0.18434867  0.09935713  1
  O2-  O145  1  0.07172641  0.18062782  0.43152778  1
  O2-  O146  1  0.07230670  0.18296004  0.76539540  1
  O2-  O147  1  0.06965907  0.67384622  0.09768400  1
  O2-  O148  1  0.07016984  0.68048826  0.43612628  1
  O2-  O149  1  0.07452661  0.67973047  0.75477672  1
  O2-  O150  1  0.56889395  0.18222677  0.10140588  1
  O2-  O151  1  0.57121637  0.17751899  0.42364026  1
  O2-  O152  1  0.57174416  0.17936630  0.76673754  1
  O2-  O153  1  0.56894178  0.68022690  0.09712526  1
  O2-  O154  1  0.56919668  0.67884708  0.43411074  1
  O2-  O155  1  0.56536317  0.67543817  0.75788570  1
  O2-  O156  1  0.18044527  0.42887609  0.23362221  1
  O2-  O157  1  0.17893644  0.42634302  0.57978716  1
  O2-  O158  1  0.18191681  0.42972762  0.90969473  1
  O2-  O159  1  0.17665064  0.92817590  0.24268404  1
  O2-  O160  1  0.18166930  0.92404718  0.57624371  1
  O2-  O161  1  0.18092849  0.92876426  0.91210741  1
  O2-  O162  1  0.67629882  0.42584432  0.24493028  1
  O2-  O163  1  0.67839173  0.43420675  0.56586956  1
  O2-  O164  1  0.67894139  0.42841883  0.90279066  1
  O2-  O165  1  0.68262090  0.93179804  0.23290205  1
  O2-  O166  1  0.67672183  0.92722667  0.56957721  1
  O2-  O167  1  0.67715857  0.92678648  0.91165891  1
  O2-  O168  1  0.42645974  0.32149589  0.08760809  1
  O2-  O169  1  0.42957979  0.31791648  0.43391529  1
  O2-  O170  1  0.42927924  0.32507579  0.75663940  1
  O2-  O171  1  0.42765338  0.82155631  0.08644034  1
  O2-  O172  1  0.42645024  0.82364001  0.43253464  1
  O2-  O173  1  0.42675909  0.81808518  0.75872644  1
  O2-  O174  1  0.93065741  0.32522762  0.09010169  1
  O2-  O175  1  0.92647520  0.32230562  0.42246873  1
  O2-  O176  1  0.92855752  0.32697324  0.75410259  1
  O2-  O177  1  0.92958798  0.81806021  0.09904379  1
  O2-  O178  1  0.92952423  0.82086227  0.42246087  1
  O2-  O179  1  0.93070025  0.81949061  0.76133203  1
  O2-  O180  1  0.31807724  0.07136572  0.24279898  1
  O2-  O181  1  0.31912313  0.06989645  0.56529179  1
  O2-  O182  1  0.32013798  0.07146386  0.90277202  1
  O2-  O183  1  0.32118437  0.57174421  0.24153310  1
  O2-  O184  1  0.32005277  0.57160940  0.56635579  1
  O2-  O185  1  0.32140360  0.57067951  0.91249284  1
  O2-  O186  1  0.82641301  0.07175184  0.24496326  1
  O2-  O187  1  0.82093288  0.06707383  0.56608697  1
  O2-  O188  1  0.82337485  0.06963149  0.90232696  1
  O2-  O189  1  0.82070029  0.56865401  0.23258763  1
  O2-  O190  1  0.82334578  0.57186078  0.57940845  1
  O2-  O191  1  0.81986008  0.56983296  0.90845583  1
  O2-  O192  1  0.04382991  0.08205219  0.26337974  1
  O2-  O193  1  0.04337912  0.08410423  0.59678228  1
  O2-  O194  1  0.04634649  0.08246364  0.93404433  1
  O2-  O195  1  0.03832976  0.57947454  0.27218362  1
  O2-  O196  1  0.05342836  0.58044342  0.60737618  1
  O2-  O197  1  0.04624907  0.57791329  0.92775974  1
  O2-  O198  1  0.54482742  0.08673560  0.27025128  1
  O2-  O199  1  0.53871597  0.08066447  0.60105445  1
  O2-  O200  1  0.54050492  0.08282217  0.93520409  1
  O2-  O201  1  0.54671278  0.58143650  0.26520514  1
  O2-  O202  1  0.53651048  0.58606241  0.60567972  1
  O2-  O203  1  0.53325001  0.58288651  0.93177728  1
  O2-  O204  1  0.16496230  0.21470721  0.26442546  1
  O2-  O205  1  0.16849948  0.21329183  0.59853090  1
  O2-  O206  1  0.16610320  0.21726385  0.93287232  1
  O2-  O207  1  0.16488465  0.70635087  0.26611892  1
  O2-  O208  1  0.16729382  0.70633555  0.60434808  1
  O2-  O209  1  0.17260156  0.70358226  0.93368752  1
  O2-  O210  1  0.67083403  0.19842968  0.27524381  1
  O2-  O211  1  0.66792063  0.20966524  0.59862390  1
  O2-  O212  1  0.66885096  0.21170407  0.93722688  1
  O2-  O213  1  0.67021906  0.71127568  0.26731800  1
  O2-  O214  1  0.66283277  0.69884665  0.60808457  1
  O2-  O215  1  0.66532324  0.70461948  0.92749667  1
  O2-  O216  1  0.08395676  0.45410306  0.05985197  1
  O2-  O217  1  0.08407165  0.45461462  0.40444944  1
  O2-  O218  1  0.08217172  0.44854221  0.73104392  1
  O2-  O219  1  0.08566209  0.95266216  0.06374228  1
  O2-  O220  1  0.08696876  0.95644844  0.39578593  1
  O2-  O221  1  0.08229498  0.95091989  0.72356821  1
  O2-  O222  1  0.58018788  0.46025950  0.06808178  1
  O2-  O223  1  0.58000107  0.45175266  0.39470551  1
  O2-  O224  1  0.58537184  0.46119779  0.73638803  1
  O2-  O225  1  0.58468248  0.95189094  0.06339634  1
  O2-  O226  1  0.58251935  0.96150044  0.40052489  1
  O2-  O227  1  0.57766519  0.94925401  0.73564960  1
  O2-  O228  1  0.21084487  0.34179034  0.06424331  1
  O2-  O229  1  0.21705380  0.33375393  0.40117969  1
  O2-  O230  1  0.20701031  0.33613854  0.73356372  1
  O2-  O231  1  0.20640699  0.83415408  0.06339938  1
  O2-  O232  1  0.20596246  0.83555703  0.39543548  1
  O2-  O233  1  0.20586848  0.83634520  0.73208845  1
  O2-  O234  1  0.70844017  0.33491567  0.07461009  1
  O2-  O235  1  0.70167353  0.33357152  0.39716798  1
  O2-  O236  1  0.71180860  0.33386725  0.73301048  1
  O2-  O237  1  0.70481378  0.83094453  0.06043161  1
  O2-  O238  1  0.70947458  0.83628787  0.40279379  1
  O2-  O239  1  0.70804112  0.82805168  0.73399591  1
  O2-  O240  1  0.45438070  0.41623315  0.26294348  1
  O2-  O241  1  0.45814552  0.41593344  0.60470602  1
  O2-  O242  1  0.45143765  0.41688333  0.93758569  1
  O2-  O243  1  0.45773166  0.92211366  0.26475151  1
  O2-  O244  1  0.45346090  0.91200012  0.60552783  1
  O2-  O245  1  0.45243885  0.91825320  0.93732604  1
  O2-  O246  1  0.95663480  0.41464252  0.27106114  1
  O2-  O247  1  0.95270113  0.41900378  0.60249187  1
  O2-  O248  1  0.95356586  0.41282695  0.93387442  1
  O2-  O249  1  0.95484649  0.91418599  0.27072377  1
  O2-  O250  1  0.96124493  0.91228925  0.58980929  1
  O2-  O251  1  0.96111522  0.91735223  0.93028920  1
  O2-  O252  1  0.33690748  0.28501942  0.26315303  1
  O2-  O253  1  0.33503502  0.29930217  0.60564527  1
  O2-  O254  1  0.33402226  0.29757000  0.93534055  1
  O2-  O255  1  0.33025679  0.79876321  0.26185844  1
  O2-  O256  1  0.33629575  0.79104900  0.60647762  1
  O2-  O257  1  0.33507989  0.79757155  0.93413584  1
  O2-  O258  1  0.83119236  0.30220069  0.27112530  1
  O2-  O259  1  0.83465338  0.29934155  0.60091997  1
  O2-  O260  1  0.83091695  0.29784018  0.94330770  1
  O2-  O261  1  0.83427075  0.79568917  0.27231787  1
  O2-  O262  1  0.83126442  0.78724034  0.59488999  1
  O2-  O263  1  0.83195338  0.79346248  0.92881563  1
  O2-  O264  1  0.41734593  0.04140352  0.07151580  1
  O2-  O265  1  0.41237096  0.04615478  0.39446394  1
  O2-  O266  1  0.41365177  0.03720781  0.73471914  1
  O2-  O267  1  0.40944069  0.54033489  0.06678479  1
  O2-  O268  1  0.41576563  0.54548610  0.39224972  1
  O2-  O269  1  0.41309822  0.53747055  0.73829768  1
  O2-  O270  1  0.91994685  0.03748090  0.06876996  1
  O2-  O271  1  0.91957806  0.04492488  0.39526518  1
  O2-  O272  1  0.92086803  0.03605054  0.72922193  1
  O2-  O273  1  0.91570904  0.54493668  0.05826572  1
  O2-  O274  1  0.91285793  0.53696102  0.40571091  1
  O2-  O275  1  0.91893248  0.54970184  0.73040893  1
  O2-  O276  1  0.28939082  0.16989714  0.06835883  1
  O2-  O277  1  0.28846375  0.16159333  0.39527273  1
  O2-  O278  1  0.29192448  0.16904080  0.73347891  1
  O2-  O279  1  0.29952900  0.66783447  0.06255547  1
  O2-  O280  1  0.29754762  0.66863566  0.39122022  1
  O2-  O281  1  0.29114622  0.66685621  0.73786933  1
  O2-  O282  1  0.79254018  0.16451665  0.07239162  1
  O2-  O283  1  0.80555117  0.16880184  0.39532328  1
  O2-  O284  1  0.80091617  0.17036653  0.73072229  1
  O2-  O285  1  0.79518438  0.66628818  0.05841960  1
  O2-  O286  1  0.79065459  0.66623495  0.40241594  1
  O2-  O287  1  0.79725985  0.66568147  0.73023984  1
