# generated using pymatgen
data_Ca2Al2SiO7
_symmetry_space_group_name_H-M   'P 1'
_cell_length_a   15.46206643
_cell_length_b   15.46222531
_cell_length_c   15.28736805
_cell_angle_alpha   89.99178720
_cell_angle_beta   89.99943235
_cell_angle_gamma   89.99287506
_symmetry_Int_Tables_number   1
_chemical_formula_structural   Ca2Al2SiO7
_chemical_formula_sum   'Ca48 Al48 Si24 O168'
_cell_volume   3654.87262256
_cell_formula_units_Z   24
loop_
 _symmetry_equiv_pos_site_id
 _symmetry_equiv_pos_as_xyz
  1  'x, y, z'
loop_
 _atom_type_symbol
 _atom_type_oxidation_number
  Ca2+  2.0
  Al0+  0.0
  Si0+  0.0
  O2-  -2.0
loop_
 _atom_site_type_symbol
 _atom_site_label
 _atom_site_symmetry_multiplicity
 _atom_site_fract_x
 _atom_site_fract_y
 _atom_site_fract_z
 _atom_site_occupancy
  Ca2+  Ca0  1  0.16587516  0.07910972  0.16761798  1
  Ca2+  Ca1  1  0.16352948  0.07236610  0.50844783  1
  Ca2+  Ca2  1  0.16955476  0.08355265  0.83521077  1
  Ca2+  Ca3  1  0.17278173  0.57815272  0.17110512  1
  Ca2+  Ca4  1  0.17744498  0.57924959  0.50610363  1
  Ca2+  Ca5  1  0.17421870  0.58371468  0.84313984  1
  Ca2+  Ca6  1  0.66931725  0.08000016  0.17062154  1
  Ca2+  Ca7  1  0.67103039  0.08284196  0.50451617  1
  Ca2+  Ca8  1  0.66796033  0.08099598  0.84007168  1
  Ca2+  Ca9  1  0.67554111  0.59413738  0.16962616  1
  Ca2+  Ca10  1  0.67145099  0.59280295  0.50058386  1
  Ca2+  Ca11  1  0.67071428  0.59008059  0.83823129  1
  Ca2+  Ca12  1  0.07955952  0.34181832  0.15928060  1
  Ca2+  Ca13  1  0.08733980  0.32683259  0.49327659  1
  Ca2+  Ca14  1  0.09123953  0.32656450  0.83524728  1
  Ca2+  Ca15  1  0.08195554  0.82899912  0.16510072  1
  Ca2+  Ca16  1  0.08718520  0.83086370  0.49656895  1
  Ca2+  Ca17  1  0.09103439  0.82094909  0.83046600  1
  Ca2+  Ca18  1  0.57550509  0.33531576  0.16704949  1
  Ca2+  Ca19  1  0.56815871  0.33527543  0.49562479  1
  Ca2+  Ca20  1  0.57373641  0.33358355  0.82663804  1
  Ca2+  Ca21  1  0.57458207  0.82146783  0.15961705  1
  Ca2+  Ca22  1  0.57834438  0.82204117  0.49469584  1
  Ca2+  Ca23  1  0.57293439  0.82341352  0.83430054  1
  Ca2+  Ca24  1  0.32315779  0.42407449  0.17259393  1
  Ca2+  Ca25  1  0.33597596  0.42086766  0.50021519  1
  Ca2+  Ca26  1  0.33032180  0.42653499  0.83918015  1
  Ca2+  Ca27  1  0.33114588  0.91904188  0.16836592  1
  Ca2+  Ca28  1  0.31978237  0.92158923  0.50852387  1
  Ca2+  Ca29  1  0.33237985  0.92553482  0.83843011  1
  Ca2+  Ca30  1  0.84048595  0.42722169  0.17071304  1
  Ca2+  Ca31  1  0.83539099  0.42015241  0.49697327  1
  Ca2+  Ca32  1  0.83057006  0.42018338  0.84390899  1
  Ca2+  Ca33  1  0.83525328  0.91463400  0.17475224  1
  Ca2+  Ca34  1  0.83436908  0.91133923  0.50153852  1
  Ca2+  Ca35  1  0.83150484  0.91607124  0.83626444  1
  Ca2+  Ca36  1  0.40822400  0.17251686  0.16305684  1
  Ca2+  Ca37  1  0.40409156  0.17816824  0.50071125  1
  Ca2+  Ca38  1  0.40351357  0.17281587  0.82755354  1
  Ca2+  Ca39  1  0.42134124  0.66300211  0.15898234  1
  Ca2+  Ca40  1  0.42613774  0.65158621  0.49552126  1
  Ca2+  Ca41  1  0.42135978  0.65964506  0.82776212  1
  Ca2+  Ca42  1  0.92642604  0.18195929  0.15844391  1
  Ca2+  Ca43  1  0.92417537  0.17316191  0.49381727  1
  Ca2+  Ca44  1  0.93057889  0.17255884  0.83164516  1
  Ca2+  Ca45  1  0.92005461  0.66500401  0.16136924  1
  Ca2+  Ca46  1  0.92570569  0.66956720  0.49317648  1
  Ca2+  Ca47  1  0.93221556  0.65737338  0.83422307  1
  Al0+  Al48  1  -0.00093375  0.00194316  -0.00319113  1
  Al0+  Al49  1  -0.00010693  -0.00019002  0.33319974  1
  Al0+  Al50  1  -0.00219915  0.00065752  0.66878319  1
  Al0+  Al51  1  -0.00292647  0.50156459  -0.00138300  1
  Al0+  Al52  1  0.00065529  0.49964185  0.34023398  1
  Al0+  Al53  1  -0.00119434  0.50156892  0.66176731  1
  Al0+  Al54  1  0.49999464  -0.00084492  0.00220081  1
  Al0+  Al55  1  0.50197148  -0.00117536  0.33605029  1
  Al0+  Al56  1  0.50131344  -0.00044322  0.66982697  1
  Al0+  Al57  1  0.50211743  0.49822037  -0.00124348  1
  Al0+  Al58  1  0.50265400  0.49668658  0.32494600  1
  Al0+  Al59  1  0.50177645  0.49838377  0.66249296  1
  Al0+  Al60  1  0.24898526  0.24887104  0.00454797  1
  Al0+  Al61  1  0.25088534  0.24933810  0.33017440  1
  Al0+  Al62  1  0.24687901  0.25002078  0.65941541  1
  Al0+  Al63  1  0.25004845  0.75375321  -0.00229405  1
  Al0+  Al64  1  0.25278254  0.75128713  0.34182127  1
  Al0+  Al65  1  0.25100167  0.74968222  0.66943785  1
  Al0+  Al66  1  0.74967525  0.24978958  -0.00173163  1
  Al0+  Al67  1  0.75197101  0.25012664  0.33020018  1
  Al0+  Al68  1  0.74899207  0.25073327  0.66751644  1
  Al0+  Al69  1  0.74694074  0.75094076  -0.00035540  1
  Al0+  Al70  1  0.75061449  0.75048974  0.33124638  1
  Al0+  Al71  1  0.74889670  0.75034100  0.66545068  1
  Al0+  Al72  1  0.32436698  0.57017865  0.34789894  1
  Al0+  Al73  1  0.92833697  0.32344434  0.98403070  1
  Al0+  Al74  1  0.42745251  0.82278388  0.98507207  1
  Al0+  Al75  1  0.93124068  0.82023635  0.32103324  1
  Al0+  Al76  1  0.06861460  0.17973545  0.65106178  1
  Al0+  Al77  1  0.32348375  0.57415017  0.01396270  1
  Al0+  Al78  1  0.31932253  0.07204430  0.68072775  1
  Al0+  Al79  1  0.42886141  0.31935464  0.65426317  1
  Al0+  Al80  1  0.56990082  0.68044742  0.65109124  1
  Al0+  Al81  1  0.17845136  0.93018299  0.34676065  1
  Al0+  Al82  1  0.42857214  0.31861171  0.31618913  1
  Al0+  Al83  1  0.82000021  0.57245421  0.34845603  1
  Al0+  Al84  1  0.07245395  0.17876052  0.98432360  1
  Al0+  Al85  1  0.81833386  0.57083082  0.01228446  1
  Al0+  Al86  1  0.32066834  0.07014528  0.01496721  1
  Al0+  Al87  1  0.17922473  0.43053532  0.01315342  1
  Al0+  Al88  1  0.32277828  0.56781018  0.68011606  1
  Al0+  Al89  1  0.07384634  0.67853044  0.65187891  1
  Al0+  Al90  1  0.93020067  0.32228223  0.31923218  1
  Al0+  Al91  1  0.56948440  0.67737372  0.98325417  1
  Al0+  Al92  1  0.56996761  0.67930613  0.31841236  1
  Al0+  Al93  1  0.17852782  0.42812122  0.34983228  1
  Al0+  Al94  1  0.07038639  0.68013962  0.98992061  1
  Al0+  Al95  1  0.17592769  0.92774271  0.68499585  1
  Si0+  Si96  1  0.07487392  0.67846256  0.31905241  1
  Si0+  Si97  1  0.67986729  0.42895643  0.68052243  1
  Si0+  Si98  1  0.67750440  0.42403573  0.01749843  1
  Si0+  Si99  1  0.57358927  0.17589810  0.31708433  1
  Si0+  Si100  1  0.42942487  0.31877562  0.98534889  1
  Si0+  Si101  1  0.57134278  0.17770368  0.98615170  1
  Si0+  Si102  1  0.92600737  0.82325683  0.98382011  1
  Si0+  Si103  1  0.81932539  0.07313807  0.68305474  1
  Si0+  Si104  1  0.67975007  0.92786154  0.68308514  1
  Si0+  Si105  1  0.32442378  0.07132995  0.35024911  1
  Si0+  Si106  1  0.67971662  0.42548162  0.35005233  1
  Si0+  Si107  1  0.67985888  0.93065517  0.01674566  1
  Si0+  Si108  1  0.92774135  0.82063540  0.65206075  1
  Si0+  Si109  1  0.92409668  0.32237835  0.64856113  1
  Si0+  Si110  1  0.17488132  0.92806884  0.01723604  1
  Si0+  Si111  1  0.17516842  0.42858457  0.68225143  1
  Si0+  Si112  1  0.82023405  0.07129107  0.34814637  1
  Si0+  Si113  1  0.42753098  0.82436873  0.31827952  1
  Si0+  Si114  1  0.82144686  0.07152443  0.01590355  1
  Si0+  Si115  1  0.68004599  0.92871612  0.34959915  1
  Si0+  Si116  1  0.07140575  0.17752629  0.31591735  1
  Si0+  Si117  1  0.42843164  0.82447376  0.64909563  1
  Si0+  Si118  1  0.82027929  0.57196896  0.68146786  1
  Si0+  Si119  1  0.57424535  0.17629244  0.65117027  1
  O2-  O120  1  0.24550152  -0.00445287  0.06062333  1
  O2-  O121  1  0.25439374  0.00399094  0.39317912  1
  O2-  O122  1  0.24951592  -0.00044789  0.73297375  1
  O2-  O123  1  0.24978138  0.50384161  0.06328661  1
  O2-  O124  1  0.25090853  0.50006965  0.39921346  1
  O2-  O125  1  0.24294382  0.49821225  0.72611067  1
  O2-  O126  1  0.75314180  -0.00101612  0.06000367  1
  O2-  O127  1  0.74980259  0.00072663  0.39280988  1
  O2-  O128  1  0.74808030  0.00193383  0.72523865  1
  O2-  O129  1  0.74468737  0.49500174  0.05947469  1
  O2-  O130  1  0.74549966  0.49674969  0.39519915  1
  O2-  O131  1  0.75236545  0.49779608  0.72279788  1
  O2-  O132  1  0.00936859  0.25252432  0.27274050  1
  O2-  O133  1  -0.00485784  0.25613818  0.60487854  1
  O2-  O134  1  0.00245021  0.25355837  0.93490001  1
  O2-  O135  1  0.00542024  0.74644095  0.27403634  1
  O2-  O136  1  0.00049934  0.75684110  0.60807965  1
  O2-  O137  1  -0.00437999  0.75558949  0.94118473  1
  O2-  O138  1  0.50225368  0.24048425  0.27184938  1
  O2-  O139  1  0.50108100  0.24002960  0.60828203  1
  O2-  O140  1  0.50075945  0.24763491  0.94291047  1
  O2-  O141  1  0.49051765  0.75025036  0.27455486  1
  O2-  O142  1  0.49225622  0.75151719  0.60378820  1
  O2-  O143  1  0.49072309  0.74273135  0.93432200  1
  O2-  O144  1  0.06788693  0.17416396  0.09764321  1
  O2-  O145  1  0.06673800  0.17525028  0.42172768  1
  O2-  O146  1  0.06789503  0.18054656  0.76372913  1
  O2-  O147  1  0.06819236  0.68172089  0.10310178  1
  O2-  O148  1  0.07262470  0.68130022  0.42480278  1
  O2-  O149  1  0.06994635  0.67538792  0.76499976  1
  O2-  O150  1  0.57357741  0.17768368  0.09123246  1
  O2-  O151  1  0.57694979  0.17593343  0.42257209  1
  O2-  O152  1  0.58065609  0.17931208  0.75657097  1
  O2-  O153  1  0.57379437  0.68281145  0.09652390  1
  O2-  O154  1  0.57144925  0.68297438  0.43188912  1
  O2-  O155  1  0.57346864  0.68254033  0.76359648  1
  O2-  O156  1  0.17800385  0.43023052  0.23643957  1
  O2-  O157  1  0.17571229  0.42896518  0.57673312  1
  O2-  O158  1  0.18370214  0.42865662  0.89914917  1
  O2-  O159  1  0.17667236  0.93217551  0.23374212  1
  O2-  O160  1  0.17494497  0.93118854  0.57099001  1
  O2-  O161  1  0.17233514  0.92961106  0.91216489  1
  O2-  O162  1  0.68206845  0.42201177  0.24480990  1
  O2-  O163  1  0.68047455  0.42673743  0.57565586  1
  O2-  O164  1  0.67775819  0.41990133  0.91158017  1
  O2-  O165  1  0.68053237  0.93130907  0.24457689  1
  O2-  O166  1  0.68199502  0.92786633  0.57777034  1
  O2-  O167  1  0.68138819  0.93339888  0.91136311  1
  O2-  O168  1  0.43205812  0.31688886  0.09026954  1
  O2-  O169  1  0.43112236  0.31715215  0.42953391  1
  O2-  O170  1  0.43242001  0.31918913  0.76757784  1
  O2-  O171  1  0.43336585  0.82742252  0.09876562  1
  O2-  O172  1  0.43262995  0.83130836  0.42344108  1
  O2-  O173  1  0.43390488  0.82766505  0.75423941  1
  O2-  O174  1  0.92702712  0.32107383  0.09759343  1
  O2-  O175  1  0.92570900  0.31582887  0.43241680  1
  O2-  O176  1  0.91874877  0.31987338  0.75355034  1
  O2-  O177  1  0.92555516  0.82462263  0.08948798  1
  O2-  O178  1  0.93038133  0.82046255  0.43415340  1
  O2-  O179  1  0.92229956  0.81813239  0.75743458  1
  O2-  O180  1  0.32661549  0.06863234  0.24460802  1
  O2-  O181  1  0.31821964  0.07024980  0.56697604  1
  O2-  O182  1  0.32215627  0.07065495  0.90227537  1
  O2-  O183  1  0.32302294  0.57047766  0.23454380  1
  O2-  O184  1  0.32561427  0.56307342  0.56734298  1
  O2-  O185  1  0.32393276  0.56908874  0.90004049  1
  O2-  O186  1  0.81753139  0.06975941  0.24310322  1
  O2-  O187  1  0.81705777  0.07419479  0.57767790  1
  O2-  O188  1  0.81793684  0.07071288  0.91057076  1
  O2-  O189  1  0.81862626  0.57382797  0.23560247  1
  O2-  O190  1  0.81858675  0.57355693  0.57639072  1
  O2-  O191  1  0.81657416  0.57017477  0.89855582  1
  O2-  O192  1  0.03770526  0.08717110  0.26870504  1
  O2-  O193  1  0.03284905  0.08338524  0.59848687  1
  O2-  O194  1  0.03866527  0.08245051  0.92918948  1
  O2-  O195  1  0.04801550  0.58436933  0.27657390  1
  O2-  O196  1  0.03881497  0.58408650  0.59551326  1
  O2-  O197  1  0.03695486  0.58626400  0.93264095  1
  O2-  O198  1  0.55211151  0.08031285  0.27250233  1
  O2-  O199  1  0.55591716  0.08016515  0.60733452  1
  O2-  O200  1  0.54622720  0.08555834  0.93896286  1
  O2-  O201  1  0.54916696  0.58098426  0.26464480  1
  O2-  O202  1  0.54433289  0.58235493  0.59787976  1
  O2-  O203  1  0.55128405  0.57563768  0.93206568  1
  O2-  O204  1  0.16759814  0.19433189  0.27325022  1
  O2-  O205  1  0.16357045  0.20794706  0.59327960  1
  O2-  O206  1  0.17150207  0.20666773  0.93244040  1
  O2-  O207  1  0.16898582  0.70573290  0.27553238  1
  O2-  O208  1  0.17131235  0.70701186  0.59873138  1
  O2-  O209  1  0.16602707  0.71005002  0.93387154  1
  O2-  O210  1  0.66580319  0.20377594  0.26886778  1
  O2-  O211  1  0.66586853  0.20621917  0.60211160  1
  O2-  O212  1  0.66276330  0.20440906  0.93672063  1
  O2-  O213  1  0.66424148  0.71782411  0.26519306  1
  O2-  O214  1  0.66548175  0.71658373  0.59705139  1
  O2-  O215  1  0.66538399  0.71551307  0.92957513  1
  O2-  O216  1  0.07947922  0.45782249  0.06298259  1
  O2-  O217  1  0.08033155  0.45206806  0.40519059  1
  O2-  O218  1  0.07972155  0.45175806  0.72593545  1
  O2-  O219  1  0.08102707  0.95614790  0.06300020  1
  O2-  O220  1  0.08201955  0.96254924  0.40152851  1
  O2-  O221  1  0.07625556  0.95551841  0.73593842  1
  O2-  O222  1  0.58356215  0.44772174  0.06286005  1
  O2-  O223  1  0.58491638  0.44926424  0.39322734  1
  O2-  O224  1  0.58953233  0.45820808  0.72916994  1
  O2-  O225  1  0.59077503  0.96243034  0.06633216  1
  O2-  O226  1  0.58892239  0.95569453  0.39931979  1
  O2-  O227  1  0.58845920  0.95355812  0.73191548  1
  O2-  O228  1  0.20689385  0.33266282  0.06734257  1
  O2-  O229  1  0.20794161  0.32765437  0.39919857  1
  O2-  O230  1  0.20210545  0.33427458  0.72507637  1
  O2-  O231  1  0.19899501  0.83492836  0.06425251  1
  O2-  O232  1  0.20755371  0.83492638  0.40409110  1
  O2-  O233  1  0.20445954  0.82911679  0.73605816  1
  O2-  O234  1  0.70286320  0.33056907  0.06476927  1
  O2-  O235  1  0.70787502  0.33259241  0.39772705  1
  O2-  O236  1  0.70487345  0.33648647  0.72970716  1
  O2-  O237  1  0.70605051  0.83893116  0.06419240  1
  O2-  O238  1  0.71106467  0.83896539  0.39816019  1
  O2-  O239  1  0.71284270  0.83843813  0.73192462  1
  O2-  O240  1  0.46373666  0.41168846  0.25910917  1
  O2-  O241  1  0.46759648  0.41139825  0.59716490  1
  O2-  O242  1  0.45845427  0.40957164  0.93695474  1
  O2-  O243  1  0.45983753  0.91579959  0.27008066  1
  O2-  O244  1  0.46018982  0.91642265  0.60182054  1
  O2-  O245  1  0.46832517  0.91747792  0.93083266  1
  O2-  O246  1  0.95644284  0.42165769  0.26922402  1
  O2-  O247  1  0.94592573  0.41730669  0.60430420  1
  O2-  O248  1  0.95087352  0.42215596  0.93065233  1
  O2-  O249  1  0.95861284  0.91783190  0.26613268  1
  O2-  O250  1  0.94555424  0.91702640  0.60854783  1
  O2-  O251  1  0.94845438  0.91748951  0.93739877  1
  O2-  O252  1  0.33264790  0.28803697  0.26071486  1
  O2-  O253  1  0.33324898  0.29167304  0.59729465  1
  O2-  O254  1  0.33809353  0.28937468  0.93964300  1
  O2-  O255  1  0.33150049  0.80493362  0.27559223  1
  O2-  O256  1  0.33260505  0.80439294  0.60726161  1
  O2-  O257  1  0.32602809  0.80934065  0.93472108  1
  O2-  O258  1  0.83535977  0.28689749  0.26420575  1
  O2-  O259  1  0.83160907  0.29274876  0.60097569  1
  O2-  O260  1  0.83026839  0.29009024  0.93134223  1
  O2-  O261  1  0.83431040  0.79235085  0.26646538  1
  O2-  O262  1  0.83605404  0.79110260  0.60316644  1
  O2-  O263  1  0.83216890  0.79850532  0.93803994  1
  O2-  O264  1  0.41825417  0.04088886  0.06918105  1
  O2-  O265  1  0.41869687  0.04757738  0.39671297  1
  O2-  O266  1  0.42133867  0.04943644  0.73106846  1
  O2-  O267  1  0.42267840  0.54338874  0.06414193  1
  O2-  O268  1  0.42367462  0.53583209  0.39667688  1
  O2-  O269  1  0.41926252  0.53270995  0.73296439  1
  O2-  O270  1  0.91339499  0.04532574  0.06296082  1
  O2-  O271  1  0.91110169  0.04278213  0.39621948  1
  O2-  O272  1  0.90933277  0.04425640  0.73204934  1
  O2-  O273  1  0.91432580  0.54208310  0.06754464  1
  O2-  O274  1  0.91567392  0.54264064  0.40448741  1
  O2-  O275  1  0.91326457  0.54571309  0.72706676  1
  O2-  O276  1  0.28945690  0.16518906  0.07120428  1
  O2-  O277  1  0.29938788  0.16580196  0.39307260  1
  O2-  O278  1  0.28854092  0.17140011  0.73063345  1
  O2-  O279  1  0.29928455  0.67508765  0.06305115  1
  O2-  O280  1  0.30322585  0.66999014  0.40163152  1
  O2-  O281  1  0.29954434  0.66728305  0.73075554  1
  O2-  O282  1  0.78983639  0.16218392  0.06339170  1
  O2-  O283  1  0.79076304  0.16216856  0.39670787  1
  O2-  O284  1  0.78977803  0.16398306  0.73153487  1
  O2-  O285  1  0.78723765  0.66822851  0.06566055  1
  O2-  O286  1  0.78668785  0.66872479  0.40274653  1
  O2-  O287  1  0.78813211  0.66240448  0.72866183  1
