# generated using pymatgen
data_Ca2Al2SiO7
_symmetry_space_group_name_H-M   'P 1'
_cell_length_a   15.46349407
_cell_length_b   15.46629756
_cell_length_c   15.28912324
_cell_angle_alpha   89.99822521
_cell_angle_beta   89.99381556
_cell_angle_gamma   89.99401639
_symmetry_Int_Tables_number   1
_chemical_formula_structural   Ca2Al2SiO7
_chemical_formula_sum   'Ca48 Al48 Si24 O168'
_cell_volume   3656.59254649
_cell_formula_units_Z   24
loop_
 _symmetry_equiv_pos_site_id
 _symmetry_equiv_pos_as_xyz
  1  'x, y, z'
loop_
 _atom_type_symbol
 _atom_type_oxidation_number
  Ca2+  2.0
  Al0+  0.0
  Si0+  0.0
  O2-  -2.0
loop_
 _atom_site_type_symbol
 _atom_site_label
 _atom_site_symmetry_multiplicity
 _atom_site_fract_x
 _atom_site_fract_y
 _atom_site_fract_z
 _atom_site_occupancy
  Ca2+  Ca0  1  0.16211770  0.07307410  0.17312940  1
  Ca2+  Ca1  1  0.15587689  0.07213311  0.50567285  1
  Ca2+  Ca2  1  0.15326049  0.07794760  0.83321891  1
  Ca2+  Ca3  1  0.17133635  0.58411767  0.16894627  1
  Ca2+  Ca4  1  0.17645870  0.59223137  0.50430076  1
  Ca2+  Ca5  1  0.17356543  0.58495931  0.84130175  1
  Ca2+  Ca6  1  0.67798367  0.08250407  0.17014626  1
  Ca2+  Ca7  1  0.67368329  0.08587826  0.50083567  1
  Ca2+  Ca8  1  0.67423898  0.07836361  0.84171897  1
  Ca2+  Ca9  1  0.68126776  0.58468718  0.17022279  1
  Ca2+  Ca10  1  0.67116039  0.57280775  0.50444044  1
  Ca2+  Ca11  1  0.67052320  0.58278626  0.83753797  1
  Ca2+  Ca12  1  0.07168791  0.33861727  0.15928585  1
  Ca2+  Ca13  1  0.06933289  0.33364616  0.49519203  1
  Ca2+  Ca14  1  0.07029874  0.33796622  0.82912816  1
  Ca2+  Ca15  1  0.08222271  0.82164277  0.16368823  1
  Ca2+  Ca16  1  0.09258152  0.82565127  0.49739532  1
  Ca2+  Ca17  1  0.08143701  0.82390486  0.83120892  1
  Ca2+  Ca18  1  0.57307155  0.34697063  0.16672229  1
  Ca2+  Ca19  1  0.58100750  0.34382211  0.49256971  1
  Ca2+  Ca20  1  0.57631008  0.34355908  0.83072239  1
  Ca2+  Ca21  1  0.57916671  0.82574094  0.15784708  1
  Ca2+  Ca22  1  0.58121736  0.82456960  0.49848219  1
  Ca2+  Ca23  1  0.58462377  0.81639053  0.82972211  1
  Ca2+  Ca24  1  0.33032890  0.42203844  0.16791127  1
  Ca2+  Ca25  1  0.33536272  0.42592171  0.50277127  1
  Ca2+  Ca26  1  0.32441341  0.42417161  0.84258816  1
  Ca2+  Ca27  1  0.32614175  0.91693784  0.17427307  1
  Ca2+  Ca28  1  0.32027135  0.91658254  0.50571747  1
  Ca2+  Ca29  1  0.32666801  0.91773259  0.83427939  1
  Ca2+  Ca30  1  0.83516429  0.42579625  0.17317029  1
  Ca2+  Ca31  1  0.82688447  0.41229836  0.50113688  1
  Ca2+  Ca32  1  0.83033845  0.41572792  0.83979827  1
  Ca2+  Ca33  1  0.84630882  0.92767287  0.16787997  1
  Ca2+  Ca34  1  0.83987680  0.92529957  0.50139967  1
  Ca2+  Ca35  1  0.84101756  0.92257881  0.84332165  1
  Ca2+  Ca36  1  0.41647405  0.18208679  0.16102012  1
  Ca2+  Ca37  1  0.42116772  0.17548659  0.49067624  1
  Ca2+  Ca38  1  0.41594680  0.17526434  0.83216825  1
  Ca2+  Ca39  1  0.42230098  0.65520453  0.16119532  1
  Ca2+  Ca40  1  0.42005061  0.65480914  0.49842325  1
  Ca2+  Ca41  1  0.42519771  0.65273215  0.83043108  1
  Ca2+  Ca42  1  0.90736337  0.17670710  0.16396507  1
  Ca2+  Ca43  1  0.91622178  0.17576200  0.49755948  1
  Ca2+  Ca44  1  0.91773261  0.17707248  0.82969625  1
  Ca2+  Ca45  1  0.92579004  0.66294311  0.15676225  1
  Ca2+  Ca46  1  0.93124111  0.66226204  0.49186798  1
  Ca2+  Ca47  1  0.93021741  0.65948893  0.83308184  1
  Al0+  Al48  1  -0.00032943  -0.00010261  0.00372973  1
  Al0+  Al49  1  -0.00006537  -0.00115010  0.34353009  1
  Al0+  Al50  1  -0.00039010  0.00067670  0.66991915  1
  Al0+  Al51  1  -0.00023947  0.49877433  -0.00297227  1
  Al0+  Al52  1  0.00241580  0.49956684  0.32815929  1
  Al0+  Al53  1  -0.00002339  0.50151384  0.65525768  1
  Al0+  Al54  1  0.49942169  0.00015609  0.00033832  1
  Al0+  Al55  1  0.50048738  -0.00004627  0.33252968  1
  Al0+  Al56  1  0.49983096  0.00012886  0.66715769  1
  Al0+  Al57  1  0.49843824  0.49924190  -0.00635883  1
  Al0+  Al58  1  0.49975731  0.50039319  0.33458204  1
  Al0+  Al59  1  0.50199430  0.50036563  0.66920994  1
  Al0+  Al60  1  0.24986568  0.24895305  -0.00153012  1
  Al0+  Al61  1  0.25046922  0.24936245  0.32850963  1
  Al0+  Al62  1  0.25025848  0.24939354  0.66153833  1
  Al0+  Al63  1  0.25171496  0.75137948  0.00120521  1
  Al0+  Al64  1  0.25113611  0.75031338  0.33666622  1
  Al0+  Al65  1  0.25096885  0.75348851  0.67462151  1
  Al0+  Al66  1  0.74841121  0.24758654  0.00100516  1
  Al0+  Al67  1  0.74960882  0.24806259  0.33670756  1
  Al0+  Al68  1  0.74738707  0.24978574  0.66941143  1
  Al0+  Al69  1  0.74817366  0.75078882  -0.00363329  1
  Al0+  Al70  1  0.75151385  0.75153561  0.33683700  1
  Al0+  Al71  1  0.74889977  0.74975770  0.66013904  1
  Al0+  Al72  1  0.42853556  0.32037855  0.98404435  1
  Al0+  Al73  1  0.92982176  0.82238310  0.98720383  1
  Al0+  Al74  1  0.68082352  0.43209143  0.34575660  1
  Al0+  Al75  1  0.92743472  0.32080299  0.98756097  1
  Al0+  Al76  1  0.82616411  0.57367589  0.34845871  1
  Al0+  Al77  1  0.31922147  0.56850755  0.34721821  1
  Al0+  Al78  1  0.57025044  0.67778443  0.64961007  1
  Al0+  Al79  1  0.07314382  0.68136470  0.65242396  1
  Al0+  Al80  1  0.07250510  0.67830533  0.98468651  1
  Al0+  Al81  1  0.07070653  0.17798041  0.65171494  1
  Al0+  Al82  1  0.07297530  0.68008183  0.31890468  1
  Al0+  Al83  1  0.32110349  0.57104433  0.01553273  1
  Al0+  Al84  1  0.17896145  0.93168701  0.68450257  1
  Al0+  Al85  1  0.31938548  0.56954383  0.68135857  1
  Al0+  Al86  1  0.18137251  0.93019836  0.34777419  1
  Al0+  Al87  1  0.82039017  0.57138462  0.00994648  1
  Al0+  Al88  1  0.56996708  0.67919596  0.98704736  1
  Al0+  Al89  1  0.82075422  0.07008469  0.01413836  1
  Al0+  Al90  1  0.81932573  0.06969651  0.34969109  1
  Al0+  Al91  1  0.42956739  0.32216267  0.31904505  1
  Al0+  Al92  1  0.92824100  0.31908990  0.31742073  1
  Al0+  Al93  1  0.68147646  0.42938019  0.68241236  1
  Al0+  Al94  1  0.17730819  0.42698138  0.01389919  1
  Al0+  Al95  1  0.92612096  0.32153645  0.65023415  1
  Si0+  Si96  1  0.56966502  0.17657709  0.65209169  1
  Si0+  Si97  1  0.67626903  0.92746407  0.01619059  1
  Si0+  Si98  1  0.07192576  0.17687097  0.98619044  1
  Si0+  Si99  1  0.92762885  0.82284027  0.64982167  1
  Si0+  Si100  1  0.42752732  0.82535923  0.98287769  1
  Si0+  Si101  1  0.17605136  0.42614834  0.67981652  1
  Si0+  Si102  1  0.32324374  0.07380819  0.34912766  1
  Si0+  Si103  1  0.67748360  0.42730175  0.01548937  1
  Si0+  Si104  1  0.57133276  0.67988714  0.31885428  1
  Si0+  Si105  1  0.43056287  0.32096139  0.65121712  1
  Si0+  Si106  1  0.42981547  0.82192022  0.31986789  1
  Si0+  Si107  1  0.32370269  0.07148935  0.01592287  1
  Si0+  Si108  1  0.57203581  0.17576405  0.31539138  1
  Si0+  Si109  1  0.17742694  0.42454492  0.34980565  1
  Si0+  Si110  1  0.18000780  0.93072126  0.01680700  1
  Si0+  Si111  1  0.07054192  0.17546104  0.31701189  1
  Si0+  Si112  1  0.81854888  0.06925456  0.68388184  1
  Si0+  Si113  1  0.42938735  0.82370596  0.65003820  1
  Si0+  Si114  1  0.67726359  0.92735262  0.68169152  1
  Si0+  Si115  1  0.82373147  0.57360828  0.68168529  1
  Si0+  Si116  1  0.92799849  0.82315387  0.31865819  1
  Si0+  Si117  1  0.57079497  0.17641536  0.98281488  1
  Si0+  Si118  1  0.67411856  0.92695837  0.35155329  1
  Si0+  Si119  1  0.32445940  0.07402453  0.68358391  1
  O2-  O120  1  0.25215946  0.00133196  0.05835529  1
  O2-  O121  1  0.25368764  0.00766913  0.39480117  1
  O2-  O122  1  0.25173035  0.01028904  0.72913453  1
  O2-  O123  1  0.24717694  0.50105539  0.06488701  1
  O2-  O124  1  0.24483412  0.49415154  0.39481128  1
  O2-  O125  1  0.24163543  0.49701388  0.72540680  1
  O2-  O126  1  0.74745566  -0.00679625  0.06050584  1
  O2-  O127  1  0.74445732  -0.00595430  0.39576303  1
  O2-  O128  1  0.75051815  -0.00513450  0.72543483  1
  O2-  O129  1  0.74795787  0.49450112  0.05793104  1
  O2-  O130  1  0.75465943  0.50072959  0.39811638  1
  O2-  O131  1  0.75871963  0.50192235  0.72710840  1
  O2-  O132  1  0.00532645  0.24565131  0.27107366  1
  O2-  O133  1  0.00179293  0.25214861  0.60123826  1
  O2-  O134  1  0.00604155  0.24858172  0.94317276  1
  O2-  O135  1  -0.00894936  0.74933487  0.27519809  1
  O2-  O136  1  -0.00473623  0.75350141  0.60565888  1
  O2-  O137  1  -0.00231407  0.74827216  0.93507070  1
  O2-  O138  1  0.50396920  0.24579796  0.27290711  1
  O2-  O139  1  0.49943229  0.24755432  0.60939396  1
  O2-  O140  1  0.50475637  0.24668735  0.93721390  1
  O2-  O141  1  0.50307416  0.75403643  0.27728007  1
  O2-  O142  1  0.49387601  0.75195325  0.60420509  1
  O2-  O143  1  0.49338345  0.75331057  0.94063510  1
  O2-  O144  1  0.07124066  0.17353592  0.09170677  1
  O2-  O145  1  0.06869182  0.17577834  0.42246062  1
  O2-  O146  1  0.06588136  0.17686603  0.76545352  1
  O2-  O147  1  0.07394928  0.68177518  0.09821994  1
  O2-  O148  1  0.07641479  0.68512915  0.43215585  1
  O2-  O149  1  0.07325569  0.68163536  0.76515224  1
  O2-  O150  1  0.56795832  0.17275468  0.08800537  1
  O2-  O151  1  0.56902015  0.17197409  0.42137693  1
  O2-  O152  1  0.56793166  0.17315197  0.75692758  1
  O2-  O153  1  0.56967982  0.68181186  0.10065980  1
  O2-  O154  1  0.56894667  0.68025506  0.42399124  1
  O2-  O155  1  0.57068162  0.67965079  0.76256587  1
  O2-  O156  1  0.17923809  0.42363746  0.24443870  1
  O2-  O157  1  0.17987045  0.42464845  0.57419797  1
  O2-  O158  1  0.17913435  0.42560061  0.89984961  1
  O2-  O159  1  0.18341774  0.93130689  0.23434304  1
  O2-  O160  1  0.18182885  0.93186517  0.57143956  1
  O2-  O161  1  0.17992135  0.93291922  0.91181648  1
  O2-  O162  1  0.67801415  0.43635006  0.23231258  1
  O2-  O163  1  0.67885260  0.42946127  0.56958628  1
  O2-  O164  1  0.67827276  0.42768513  0.90957734  1
  O2-  O165  1  0.66909200  0.92765228  0.24634982  1
  O2-  O166  1  0.67578186  0.93066427  0.57667545  1
  O2-  O167  1  0.67312537  0.93112376  0.91046396  1
  O2-  O168  1  0.43060290  0.31965968  0.09711901  1
  O2-  O169  1  0.43188823  0.32039023  0.43263347  1
  O2-  O170  1  0.43137474  0.31907991  0.75621716  1
  O2-  O171  1  0.42971470  0.83073551  0.08866085  1
  O2-  O172  1  0.43114064  0.82394420  0.42476660  1
  O2-  O173  1  0.43395364  0.82845830  0.75531216  1
  O2-  O174  1  0.92518985  0.31849717  0.10052281  1
  O2-  O175  1  0.92728482  0.31610247  0.43038703  1
  O2-  O176  1  0.92443840  0.31920177  0.76399194  1
  O2-  O177  1  0.93528128  0.82557044  0.10062303  1
  O2-  O178  1  0.93014509  0.82570242  0.42437503  1
  O2-  O179  1  0.92765393  0.82422141  0.75520879  1
  O2-  O180  1  0.32376733  0.07094144  0.24338215  1
  O2-  O181  1  0.33040684  0.07053622  0.57836430  1
  O2-  O182  1  0.32660364  0.06967492  0.91092936  1
  O2-  O183  1  0.32151193  0.56855864  0.23472200  1
  O2-  O184  1  0.32069670  0.56716187  0.56790821  1
  O2-  O185  1  0.32148254  0.56821296  0.90191604  1
  O2-  O186  1  0.81874961  0.06780218  0.23670411  1
  O2-  O187  1  0.81623509  0.06883731  0.57871689  1
  O2-  O188  1  0.81885304  0.06909919  0.90074891  1
  O2-  O189  1  0.82292086  0.57502286  0.23453420  1
  O2-  O190  1  0.82067598  0.57456111  0.57628521  1
  O2-  O191  1  0.81902991  0.57008834  0.89674642  1
  O2-  O192  1  0.04225124  0.08111704  0.27362783  1
  O2-  O193  1  0.03747417  0.08028396  0.59936972  1
  O2-  O194  1  0.04099190  0.08530763  0.93894399  1
  O2-  O195  1  0.04989347  0.58185413  0.26559233  1
  O2-  O196  1  0.04805866  0.58500741  0.59515399  1
  O2-  O197  1  0.04520148  0.58027610  0.93101015  1
  O2-  O198  1  0.54620035  0.08243459  0.26789441  1
  O2-  O199  1  0.54220362  0.08550693  0.60213822  1
  O2-  O200  1  0.54276930  0.08363981  0.93488931  1
  O2-  O201  1  0.53878492  0.59041228  0.27141250  1
  O2-  O202  1  0.53746130  0.58151065  0.59647118  1
  O2-  O203  1  0.54014690  0.58400776  0.93030087  1
  O2-  O204  1  0.16649835  0.19420953  0.27250213  1
  O2-  O205  1  0.17235029  0.19635942  0.59997965  1
  O2-  O206  1  0.16690288  0.19476974  0.93995457  1
  O2-  O207  1  0.16801157  0.71811727  0.26579719  1
  O2-  O208  1  0.17003402  0.71808986  0.60195306  1
  O2-  O209  1  0.17083554  0.71121286  0.93359228  1
  O2-  O210  1  0.66605689  0.19974645  0.27142552  1
  O2-  O211  1  0.66157346  0.20373556  0.60552792  1
  O2-  O212  1  0.66489094  0.19906454  0.93710767  1
  O2-  O213  1  0.66470473  0.70627317  0.27357458  1
  O2-  O214  1  0.66522852  0.71109415  0.59361202  1
  O2-  O215  1  0.66399340  0.71203244  0.92904264  1
  O2-  O216  1  0.07845198  0.45348892  0.06577276  1
  O2-  O217  1  0.08350974  0.44930005  0.39409617  1
  O2-  O218  1  0.07997008  0.44990126  0.72112985  1
  O2-  O219  1  0.09004158  0.96099100  0.06581250  1
  O2-  O220  1  0.08600250  0.95828279  0.40507248  1
  O2-  O221  1  0.08184186  0.96163898  0.73864659  1
  O2-  O222  1  0.58370039  0.45568087  0.05830456  1
  O2-  O223  1  0.58391013  0.46372151  0.40081325  1
  O2-  O224  1  0.58614365  0.46369062  0.73672407  1
  O2-  O225  1  0.58375974  0.95652423  0.06413354  1
  O2-  O226  1  0.58156345  0.95492340  0.39998031  1
  O2-  O227  1  0.58692216  0.95853500  0.73013678  1
  O2-  O228  1  0.20654674  0.32796662  0.06623026  1
  O2-  O229  1  0.20322771  0.33016851  0.39477287  1
  O2-  O230  1  0.20323059  0.33244227  0.72540885  1
  O2-  O231  1  0.20877245  0.83968482  0.06442906  1
  O2-  O232  1  0.21794040  0.83682716  0.40359401  1
  O2-  O233  1  0.21387825  0.83864376  0.74198775  1
  O2-  O234  1  0.69746698  0.33209547  0.05997317  1
  O2-  O235  1  0.70230391  0.33119298  0.39726463  1
  O2-  O236  1  0.70531453  0.33077093  0.73688807  1
  O2-  O237  1  0.69690152  0.83311646  0.06129933  1
  O2-  O238  1  0.69811913  0.83346003  0.39815047  1
  O2-  O239  1  0.70203065  0.83365756  0.72642606  1
  O2-  O240  1  0.46343001  0.41763295  0.26464263  1
  O2-  O241  1  0.46326767  0.41111655  0.60454186  1
  O2-  O242  1  0.45922994  0.41495892  0.92703089  1
  O2-  O243  1  0.45468992  0.91442804  0.27068079  1
  O2-  O244  1  0.45859339  0.91580050  0.60139075  1
  O2-  O245  1  0.45532436  0.91771205  0.93452117  1
  O2-  O246  1  0.95819531  0.41599556  0.26413364  1
  O2-  O247  1  0.95036989  0.41970543  0.59502951  1
  O2-  O248  1  0.95601111  0.41590241  0.93042496  1
  O2-  O249  1  0.96060234  0.91560970  0.27379653  1
  O2-  O250  1  0.95477323  0.91670360  0.60512146  1
  O2-  O251  1  0.96273212  0.91978407  0.93330458  1
  O2-  O252  1  0.33350940  0.29126440  0.26355285  1
  O2-  O253  1  0.33842679  0.29688419  0.60285601  1
  O2-  O254  1  0.33328164  0.28569252  0.92922548  1
  O2-  O255  1  0.33922436  0.79283865  0.27202624  1
  O2-  O256  1  0.33395225  0.80139687  0.60812584  1
  O2-  O257  1  0.33299339  0.80394546  0.93823198  1
  O2-  O258  1  0.83149004  0.28454918  0.26615210  1
  O2-  O259  1  0.82819176  0.28621109  0.59958370  1
  O2-  O260  1  0.83133372  0.28619286  0.93397531  1
  O2-  O261  1  0.83093747  0.80785615  0.27526243  1
  O2-  O262  1  0.83315086  0.80236400  0.60290735  1
  O2-  O263  1  0.82827261  0.80437048  0.93702446  1
  O2-  O264  1  0.41455435  0.04298434  0.06531268  1
  O2-  O265  1  0.41702683  0.04719817  0.39489946  1
  O2-  O266  1  0.41604828  0.04345206  0.73271879  1
  O2-  O267  1  0.41984467  0.53821527  0.06580543  1
  O2-  O268  1  0.41512560  0.53622994  0.40207437  1
  O2-  O269  1  0.41532729  0.53504111  0.73369024  1
  O2-  O270  1  0.91665983  0.03999983  0.07026532  1
  O2-  O271  1  0.91402583  0.03827509  0.40702728  1
  O2-  O272  1  0.91046059  0.04338605  0.73097435  1
  O2-  O273  1  0.91719181  0.54253500  0.06316096  1
  O2-  O274  1  0.92580952  0.54571540  0.39811307  1
  O2-  O275  1  0.92008315  0.55104362  0.72297234  1
  O2-  O276  1  0.29698563  0.16329237  0.06275446  1
  O2-  O277  1  0.30110324  0.16854820  0.39387782  1
  O2-  O278  1  0.30350597  0.16986957  0.72695229  1
  O2-  O279  1  0.30001294  0.67259881  0.06625160  1
  O2-  O280  1  0.29140889  0.66580284  0.40152819  1
  O2-  O281  1  0.29571500  0.66803291  0.73427639  1
  O2-  O282  1  0.78539896  0.16453546  0.06976959  1
  O2-  O283  1  0.78549712  0.16372766  0.40623818  1
  O2-  O284  1  0.78632884  0.15921751  0.73151242  1
  O2-  O285  1  0.78786058  0.66797094  0.06380267  1
  O2-  O286  1  0.79965245  0.67307734  0.40088695  1
  O2-  O287  1  0.79417611  0.66725387  0.72579869  1
