# generated using pymatgen
data_Ca2Al2SiO7
_symmetry_space_group_name_H-M   'P 1'
_cell_length_a   15.46304390
_cell_length_b   15.46313601
_cell_length_c   15.28761061
_cell_angle_alpha   89.99388442
_cell_angle_beta   90.00228840
_cell_angle_gamma   90.02547062
_symmetry_Int_Tables_number   1
_chemical_formula_structural   Ca2Al2SiO7
_chemical_formula_sum   'Ca48 Al48 Si24 O168'
_cell_volume   3655.37663229
_cell_formula_units_Z   24
loop_
 _symmetry_equiv_pos_site_id
 _symmetry_equiv_pos_as_xyz
  1  'x, y, z'
loop_
 _atom_type_symbol
 _atom_type_oxidation_number
  Ca2+  2.0
  Al0+  0.0
  Si0+  0.0
  O2-  -2.0
loop_
 _atom_site_type_symbol
 _atom_site_label
 _atom_site_symmetry_multiplicity
 _atom_site_fract_x
 _atom_site_fract_y
 _atom_site_fract_z
 _atom_site_occupancy
  Ca2+  Ca0  1  0.17498194  0.08343402  0.17373780  1
  Ca2+  Ca1  1  0.17906866  0.08126826  0.50957406  1
  Ca2+  Ca2  1  0.16550298  0.08453851  0.83002322  1
  Ca2+  Ca3  1  0.16269860  0.57718043  0.16406216  1
  Ca2+  Ca4  1  0.17713902  0.58138132  0.50728724  1
  Ca2+  Ca5  1  0.17335698  0.58157498  0.84017697  1
  Ca2+  Ca6  1  0.67284907  0.07692209  0.17740036  1
  Ca2+  Ca7  1  0.66767784  0.07445918  0.50935104  1
  Ca2+  Ca8  1  0.66253647  0.08210612  0.82988499  1
  Ca2+  Ca9  1  0.66727941  0.57824844  0.17217484  1
  Ca2+  Ca10  1  0.66581060  0.57526985  0.50488828  1
  Ca2+  Ca11  1  0.67438613  0.57422479  0.84025652  1
  Ca2+  Ca12  1  0.07443271  0.33501450  0.15563099  1
  Ca2+  Ca13  1  0.08093417  0.32581459  0.49866323  1
  Ca2+  Ca14  1  0.07532821  0.33584120  0.83050506  1
  Ca2+  Ca15  1  0.07806997  0.82407340  0.15919705  1
  Ca2+  Ca16  1  0.08336236  0.83679642  0.49886799  1
  Ca2+  Ca17  1  0.08383349  0.82968521  0.82748054  1
  Ca2+  Ca18  1  0.57482225  0.34377549  0.16304435  1
  Ca2+  Ca19  1  0.58376800  0.33184349  0.49644234  1
  Ca2+  Ca20  1  0.58211441  0.33548898  0.82779373  1
  Ca2+  Ca21  1  0.58984725  0.82336243  0.16728236  1
  Ca2+  Ca22  1  0.58565398  0.83006371  0.49015594  1
  Ca2+  Ca23  1  0.58944594  0.82614137  0.82915407  1
  Ca2+  Ca24  1  0.32994037  0.40729491  0.16870300  1
  Ca2+  Ca25  1  0.33911166  0.42209813  0.50259843  1
  Ca2+  Ca26  1  0.33007306  0.41797942  0.83839299  1
  Ca2+  Ca27  1  0.33531865  0.92110010  0.17495853  1
  Ca2+  Ca28  1  0.33529844  0.92543459  0.50680251  1
  Ca2+  Ca29  1  0.33195123  0.92421686  0.83070771  1
  Ca2+  Ca30  1  0.82333204  0.42342533  0.17000785  1
  Ca2+  Ca31  1  0.82064882  0.42643283  0.50438194  1
  Ca2+  Ca32  1  0.82314435  0.41848008  0.84130714  1
  Ca2+  Ca33  1  0.82817162  0.92291667  0.17591232  1
  Ca2+  Ca34  1  0.82060921  0.92296294  0.50276442  1
  Ca2+  Ca35  1  0.83176814  0.92360516  0.82862071  1
  Ca2+  Ca36  1  0.41741458  0.17473821  0.16544436  1
  Ca2+  Ca37  1  0.42003805  0.16608149  0.49518518  1
  Ca2+  Ca38  1  0.42086509  0.17386218  0.82579532  1
  Ca2+  Ca39  1  0.43221276  0.67005073  0.16523467  1
  Ca2+  Ca40  1  0.42240555  0.67398853  0.49030717  1
  Ca2+  Ca41  1  0.42381676  0.66170428  0.82932268  1
  Ca2+  Ca42  1  0.91305259  0.17358620  0.16078822  1
  Ca2+  Ca43  1  0.92013450  0.15300551  0.49949170  1
  Ca2+  Ca44  1  0.91745556  0.17344189  0.82271693  1
  Ca2+  Ca45  1  0.91772239  0.65743872  0.15897235  1
  Ca2+  Ca46  1  0.91234233  0.66217670  0.49707500  1
  Ca2+  Ca47  1  0.91898654  0.65650137  0.83126430  1
  Al0+  Al48  1  0.00141659  -0.00154582  0.00181006  1
  Al0+  Al49  1  0.00267370  -0.00264678  0.33205642  1
  Al0+  Al50  1  -0.00048565  -0.00142961  0.66843843  1
  Al0+  Al51  1  0.00214753  0.49883192  -0.00326439  1
  Al0+  Al52  1  0.00020576  0.49670194  0.33764339  1
  Al0+  Al53  1  0.00090897  0.50017846  0.66358219  1
  Al0+  Al54  1  0.49933750  0.00029288  0.00191803  1
  Al0+  Al55  1  0.49884583  0.00129398  0.33542472  1
  Al0+  Al56  1  0.49836348  0.00063235  0.67267412  1
  Al0+  Al57  1  0.49885321  0.50239587  -0.00610502  1
  Al0+  Al58  1  0.49782615  0.49963067  0.32844679  1
  Al0+  Al59  1  0.49977501  0.50150550  0.67263405  1
  Al0+  Al60  1  0.25138502  0.24981207  -0.00020069  1
  Al0+  Al61  1  0.24934266  0.24791196  0.33398374  1
  Al0+  Al62  1  0.24808811  0.25118590  0.66496433  1
  Al0+  Al63  1  0.24922856  0.75188241  -0.00247617  1
  Al0+  Al64  1  0.24906138  0.74827195  0.32684600  1
  Al0+  Al65  1  0.25042403  0.74957582  0.67337408  1
  Al0+  Al66  1  0.74882460  0.24974944  0.00027024  1
  Al0+  Al67  1  0.75315108  0.25166184  0.33983993  1
  Al0+  Al68  1  0.74774800  0.25061613  0.66661687  1
  Al0+  Al69  1  0.75093974  0.75232431  -0.00266195  1
  Al0+  Al70  1  0.75355562  0.75118753  0.33417846  1
  Al0+  Al71  1  0.75192242  0.74968689  0.67183605  1
  Al0+  Al72  1  0.82055458  0.07106358  0.68178324  1
  Al0+  Al73  1  0.31996384  0.07094613  0.34640720  1
  Al0+  Al74  1  0.67879578  0.92998402  0.34673588  1
  Al0+  Al75  1  0.92815679  0.31938498  0.98666543  1
  Al0+  Al76  1  0.17874456  0.92920536  0.68171662  1
  Al0+  Al77  1  0.82303922  0.57071549  0.34798679  1
  Al0+  Al78  1  0.32117653  0.07396871  0.68373082  1
  Al0+  Al79  1  0.06915223  0.17856747  0.65197268  1
  Al0+  Al80  1  0.82126932  0.57088636  0.01440765  1
  Al0+  Al81  1  0.82238091  0.57101926  0.68262959  1
  Al0+  Al82  1  0.06977731  0.67942551  0.98489856  1
  Al0+  Al83  1  0.67614479  0.42791461  0.01659070  1
  Al0+  Al84  1  0.57343911  0.67975316  0.31994824  1
  Al0+  Al85  1  0.56962990  0.17893203  0.65264242  1
  Al0+  Al86  1  0.67680170  0.92829104  0.68306598  1
  Al0+  Al87  1  0.32064888  0.57112627  0.67921202  1
  Al0+  Al88  1  0.67800766  0.42860866  0.68280416  1
  Al0+  Al89  1  0.82418413  0.07252184  0.34706489  1
  Al0+  Al90  1  0.57180467  0.68106024  0.98380848  1
  Al0+  Al91  1  0.42886168  0.31952402  0.32034096  1
  Al0+  Al92  1  0.42882391  0.32052683  0.98543811  1
  Al0+  Al93  1  0.18182320  0.42916392  0.01272558  1
  Al0+  Al94  1  0.67447022  0.43041726  0.34888367  1
  Al0+  Al95  1  0.42747774  0.82391381  0.31929777  1
  Si0+  Si96  1  0.17767525  0.42809576  0.68191489  1
  Si0+  Si97  1  0.82247549  0.07082237  0.01400965  1
  Si0+  Si98  1  0.93173710  0.82052013  0.31832249  1
  Si0+  Si99  1  0.92852876  0.82495368  0.98107943  1
  Si0+  Si100  1  0.42791632  0.82431492  0.98151831  1
  Si0+  Si101  1  0.42770392  0.32402451  0.64996624  1
  Si0+  Si102  1  0.31906547  0.57101525  0.34483857  1
  Si0+  Si103  1  0.32198832  0.57504073  0.01876016  1
  Si0+  Si104  1  0.92934595  0.82005637  0.65003335  1
  Si0+  Si105  1  0.07031261  0.17829114  0.31782619  1
  Si0+  Si106  1  0.42801745  0.81978563  0.65404176  1
  Si0+  Si107  1  0.57132967  0.17578951  0.98472498  1
  Si0+  Si108  1  0.07120109  0.67518832  0.31860889  1
  Si0+  Si109  1  0.32046699  0.07036448  0.01652201  1
  Si0+  Si110  1  0.07299000  0.67896482  0.65028468  1
  Si0+  Si111  1  0.17842434  0.92832955  0.01734693  1
  Si0+  Si112  1  0.67841529  0.93004477  0.01557674  1
  Si0+  Si113  1  0.17954318  0.92494922  0.34773921  1
  Si0+  Si114  1  0.57474209  0.17864059  0.31850609  1
  Si0+  Si115  1  0.57162713  0.68032211  0.65236194  1
  Si0+  Si116  1  0.07214224  0.17663474  0.98459181  1
  Si0+  Si117  1  0.92672538  0.32309762  0.64689839  1
  Si0+  Si118  1  0.17869785  0.42748616  0.34866627  1
  Si0+  Si119  1  0.93021628  0.32187179  0.31836745  1
  O2-  O120  1  0.24954517  -0.00102962  0.05913419  1
  O2-  O121  1  0.25094386  -0.00983954  0.39123720  1
  O2-  O122  1  0.24712610  0.00363581  0.73349777  1
  O2-  O123  1  0.25616042  0.50299815  0.06282198  1
  O2-  O124  1  0.25017858  0.49859385  0.38897871  1
  O2-  O125  1  0.24692004  0.49577744  0.72551237  1
  O2-  O126  1  0.75044029  0.00095715  0.05636823  1
  O2-  O127  1  0.74644106  0.00653673  0.39579220  1
  O2-  O128  1  0.74573546  0.00330837  0.73360339  1
  O2-  O129  1  0.74718251  0.50190811  0.06532556  1
  O2-  O130  1  0.74478309  0.50543369  0.39693356  1
  O2-  O131  1  0.75302178  0.49745610  0.73209106  1
  O2-  O132  1  -0.00379672  0.24544813  0.27578459  1
  O2-  O133  1  -0.00745814  0.25058631  0.60271607  1
  O2-  O134  1  0.00154590  0.24262807  0.94057550  1
  O2-  O135  1  -0.00178899  0.74450234  0.27693084  1
  O2-  O136  1  0.00027981  0.74781842  0.60773247  1
  O2-  O137  1  -0.00654934  0.75222528  0.93775475  1
  O2-  O138  1  0.50808488  0.24916061  0.27328742  1
  O2-  O139  1  0.49442113  0.25370796  0.60597732  1
  O2-  O140  1  0.50733478  0.24919677  0.94119151  1
  O2-  O141  1  0.50335486  0.75522857  0.27048683  1
  O2-  O142  1  0.50213730  0.75300492  0.61025324  1
  O2-  O143  1  0.49538588  0.75512956  0.93693474  1
  O2-  O144  1  0.07128791  0.17615215  0.09079526  1
  O2-  O145  1  0.07174078  0.17919169  0.42264659  1
  O2-  O146  1  0.06834777  0.18157583  0.76520555  1
  O2-  O147  1  0.07012879  0.68189335  0.09872877  1
  O2-  O148  1  0.07497118  0.67614175  0.42362864  1
  O2-  O149  1  0.07377818  0.67932405  0.75506998  1
  O2-  O150  1  0.56847874  0.16946772  0.09022427  1
  O2-  O151  1  0.57136838  0.17789503  0.42378750  1
  O2-  O152  1  0.56646718  0.17955131  0.76604042  1
  O2-  O153  1  0.57211543  0.68373911  0.09689503  1
  O2-  O154  1  0.56896404  0.67905168  0.43396773  1
  O2-  O155  1  0.56980300  0.68125541  0.75741940  1
  O2-  O156  1  0.17637448  0.42782518  0.24360527  1
  O2-  O157  1  0.17714335  0.43000294  0.57568718  1
  O2-  O158  1  0.18304443  0.42990714  0.89985927  1
  O2-  O159  1  0.17698959  0.92720176  0.24180427  1
  O2-  O160  1  0.18234747  0.92713784  0.56783194  1
  O2-  O161  1  0.17655070  0.92883062  0.91290154  1
  O2-  O162  1  0.67535206  0.43070076  0.23542801  1
  O2-  O163  1  0.67469157  0.43239669  0.56922059  1
  O2-  O164  1  0.67867040  0.42660174  0.90350829  1
  O2-  O165  1  0.68332520  0.93046827  0.23236910  1
  O2-  O166  1  0.67817240  0.92587800  0.56975105  1
  O2-  O167  1  0.67691130  0.93162452  0.91090769  1
  O2-  O168  1  0.42568036  0.31511136  0.09866952  1
  O2-  O169  1  0.42491636  0.31888571  0.43304220  1
  O2-  O170  1  0.42753077  0.32370892  0.75562397  1
  O2-  O171  1  0.42875095  0.82599410  0.08701847  1
  O2-  O172  1  0.42204736  0.81899942  0.43290200  1
  O2-  O173  1  0.42718739  0.81632511  0.75920802  1
  O2-  O174  1  0.93027462  0.31667389  0.10035905  1
  O2-  O175  1  0.93587000  0.32632426  0.42280784  1
  O2-  O176  1  0.93108273  0.32430325  0.75260956  1
  O2-  O177  1  0.93261642  0.83026277  0.08684095  1
  O2-  O178  1  0.93550351  0.82394078  0.42307548  1
  O2-  O179  1  0.93106057  0.82077852  0.75509639  1
  O2-  O180  1  0.31469179  0.07320398  0.23281499  1
  O2-  O181  1  0.32062415  0.07185226  0.57012043  1
  O2-  O182  1  0.31995260  0.06979587  0.91198669  1
  O2-  O183  1  0.31592202  0.57196506  0.24012955  1
  O2-  O184  1  0.31937112  0.57184518  0.56528076  1
  O2-  O185  1  0.31859177  0.57568127  0.91301493  1
  O2-  O186  1  0.82538165  0.06932870  0.23251973  1
  O2-  O187  1  0.82156784  0.06447830  0.56866104  1
  O2-  O188  1  0.82523356  0.06946975  0.90957784  1
  O2-  O189  1  0.82897435  0.56575557  0.23504955  1
  O2-  O190  1  0.82018571  0.57130045  0.56902355  1
  O2-  O191  1  0.82074606  0.56782894  0.90131974  1
  O2-  O192  1  0.04802091  0.08462927  0.27033014  1
  O2-  O193  1  0.04112394  0.08022996  0.59895976  1
  O2-  O194  1  0.04919534  0.08153890  0.94045164  1
  O2-  O195  1  0.04420695  0.58221813  0.27270110  1
  O2-  O196  1  0.04900865  0.58651158  0.60126157  1
  O2-  O197  1  0.04413190  0.58259666  0.92990895  1
  O2-  O198  1  0.54676315  0.08601906  0.27107201  1
  O2-  O199  1  0.53786797  0.08073876  0.60114289  1
  O2-  O200  1  0.53984612  0.08439298  0.93650790  1
  O2-  O201  1  0.53867726  0.58432976  0.26470096  1
  O2-  O202  1  0.54000071  0.58882980  0.60674535  1
  O2-  O203  1  0.54010127  0.58597198  0.92790084  1
  O2-  O204  1  0.16003084  0.21036002  0.26877436  1
  O2-  O205  1  0.16533576  0.21168652  0.59648034  1
  O2-  O206  1  0.16525313  0.20325257  0.93946448  1
  O2-  O207  1  0.16074790  0.70339586  0.26688885  1
  O2-  O208  1  0.16467305  0.70964803  0.60330018  1
  O2-  O209  1  0.16608314  0.71320703  0.93128065  1
  O2-  O210  1  0.67100296  0.19988026  0.27536551  1
  O2-  O211  1  0.66715621  0.20623079  0.59842357  1
  O2-  O212  1  0.66675741  0.19519766  0.94065799  1
  O2-  O213  1  0.67285872  0.70691802  0.26731997  1
  O2-  O214  1  0.66466081  0.70669734  0.60720357  1
  O2-  O215  1  0.66771754  0.71446633  0.92959174  1
  O2-  O216  1  0.08603799  0.46135200  0.06761289  1
  O2-  O217  1  0.08924770  0.45612574  0.39931528  1
  O2-  O218  1  0.08472263  0.45533593  0.72712225  1
  O2-  O219  1  0.08701469  0.95577617  0.06695377  1
  O2-  O220  1  0.08761057  0.95336609  0.39475380  1
  O2-  O221  1  0.08028230  0.95422544  0.73512009  1
  O2-  O222  1  0.57579214  0.45791301  0.06460411  1
  O2-  O223  1  0.57434601  0.45614535  0.40001088  1
  O2-  O224  1  0.58130053  0.45966279  0.73684843  1
  O2-  O225  1  0.58665972  0.95764273  0.06347477  1
  O2-  O226  1  0.57884603  0.95186144  0.39800309  1
  O2-  O227  1  0.57873230  0.95311852  0.73764267  1
  O2-  O228  1  0.21072303  0.33182388  0.06801403  1
  O2-  O229  1  0.20683985  0.33622423  0.39608184  1
  O2-  O230  1  0.20056107  0.33482931  0.72820374  1
  O2-  O231  1  0.20614528  0.83650560  0.06496061  1
  O2-  O232  1  0.19946568  0.82915654  0.39145116  1
  O2-  O233  1  0.20934756  0.83279627  0.73741973  1
  O2-  O234  1  0.70342259  0.32794898  0.06830939  1
  O2-  O235  1  0.70570313  0.33290787  0.40162974  1
  O2-  O236  1  0.70190069  0.32911782  0.73397413  1
  O2-  O237  1  0.70763892  0.83888592  0.06248478  1
  O2-  O238  1  0.71171392  0.83351711  0.40011483  1
  O2-  O239  1  0.71145936  0.83266703  0.73732821  1
  O2-  O240  1  0.45209147  0.41697578  0.26412094  1
  O2-  O241  1  0.45572841  0.41807599  0.60502360  1
  O2-  O242  1  0.45129868  0.41906972  0.93224770  1
  O2-  O243  1  0.45025177  0.92424833  0.26721623  1
  O2-  O244  1  0.45075349  0.91401517  0.61014833  1
  O2-  O245  1  0.45459041  0.91811953  0.93600825  1
  O2-  O246  1  0.96555033  0.41056727  0.26896385  1
  O2-  O247  1  0.95874247  0.41465170  0.59895233  1
  O2-  O248  1  0.96378941  0.41304232  0.93115817  1
  O2-  O249  1  0.96517383  0.90929913  0.26632166  1
  O2-  O250  1  0.95924849  0.91041311  0.60143397  1
  O2-  O251  1  0.96077435  0.91643216  0.93340280  1
  O2-  O252  1  0.33250854  0.28429126  0.26590401  1
  O2-  O253  1  0.33231773  0.30316004  0.60530098  1
  O2-  O254  1  0.33356112  0.28578581  0.93042456  1
  O2-  O255  1  0.33036787  0.79216286  0.26282425  1
  O2-  O256  1  0.33710050  0.78834717  0.60678150  1
  O2-  O257  1  0.33313097  0.80123205  0.93698043  1
  O2-  O258  1  0.83664100  0.29887820  0.27223933  1
  O2-  O259  1  0.83155059  0.30232966  0.60373777  1
  O2-  O260  1  0.83162505  0.28889117  0.93267295  1
  O2-  O261  1  0.83915497  0.79966690  0.26994412  1
  O2-  O262  1  0.83742425  0.79142252  0.60307601  1
  O2-  O263  1  0.83354613  0.80614462  0.93662247  1
  O2-  O264  1  0.41188692  0.04194305  0.06469344  1
  O2-  O265  1  0.41742336  0.04722199  0.40023118  1
  O2-  O266  1  0.41616529  0.04200028  0.74014570  1
  O2-  O267  1  0.41699375  0.55226026  0.06093726  1
  O2-  O268  1  0.41032474  0.54434525  0.39250703  1
  O2-  O269  1  0.41511898  0.54175838  0.73641129  1
  O2-  O270  1  0.91425934  0.04226144  0.06253872  1
  O2-  O271  1  0.92145849  0.03662300  0.39793458  1
  O2-  O272  1  0.91704236  0.03837207  0.73602341  1
  O2-  O273  1  0.92068815  0.54104237  0.06414302  1
  O2-  O274  1  0.91956560  0.53711770  0.40380934  1
  O2-  O275  1  0.92413608  0.54620992  0.72995209  1
  O2-  O276  1  0.29110411  0.16126088  0.06442449  1
  O2-  O277  1  0.28212101  0.16410548  0.40220181  1
  O2-  O278  1  0.29257805  0.17335099  0.73410180  1
  O2-  O279  1  0.29234601  0.66813940  0.06377494  1
  O2-  O280  1  0.28814284  0.66184450  0.39301109  1
  O2-  O281  1  0.28856839  0.66451291  0.73739506  1
  O2-  O282  1  0.79542872  0.16211923  0.06227381  1
  O2-  O283  1  0.80871970  0.17320777  0.39835359  1
  O2-  O284  1  0.79740021  0.17135787  0.73145568  1
  O2-  O285  1  0.79948776  0.67375177  0.06236643  1
  O2-  O286  1  0.80588475  0.67289476  0.39613716  1
  O2-  O287  1  0.79660964  0.66895820  0.73596143  1
