# generated using pymatgen
data_Ca2Al2SiO7
_symmetry_space_group_name_H-M   'P 1'
_cell_length_a   15.45704984
_cell_length_b   15.45729226
_cell_length_c   15.28281885
_cell_angle_alpha   89.98811486
_cell_angle_beta   89.99155027
_cell_angle_gamma   89.99913755
_symmetry_Int_Tables_number   1
_chemical_formula_structural   Ca2Al2SiO7
_chemical_formula_sum   'Ca48 Al48 Si24 O168'
_cell_volume   3651.43418358
_cell_formula_units_Z   24
loop_
 _symmetry_equiv_pos_site_id
 _symmetry_equiv_pos_as_xyz
  1  'x, y, z'
loop_
 _atom_type_symbol
 _atom_type_oxidation_number
  Ca2+  2.0
  Al0+  0.0
  Si0+  0.0
  O2-  -2.0
loop_
 _atom_site_type_symbol
 _atom_site_label
 _atom_site_symmetry_multiplicity
 _atom_site_fract_x
 _atom_site_fract_y
 _atom_site_fract_z
 _atom_site_occupancy
  Ca2+  Ca0  1  0.17452375  0.08096181  0.17279238  1
  Ca2+  Ca1  1  0.17210967  0.07674492  0.50417772  1
  Ca2+  Ca2  1  0.17763456  0.09047152  0.84091780  1
  Ca2+  Ca3  1  0.17139645  0.59382702  0.16896314  1
  Ca2+  Ca4  1  0.17226749  0.58521168  0.50689548  1
  Ca2+  Ca5  1  0.16823468  0.58325150  0.83450353  1
  Ca2+  Ca6  1  0.67013128  0.08857998  0.16593911  1
  Ca2+  Ca7  1  0.66998546  0.08525696  0.50290491  1
  Ca2+  Ca8  1  0.67761755  0.09086522  0.84041256  1
  Ca2+  Ca9  1  0.67318629  0.57515137  0.17065380  1
  Ca2+  Ca10  1  0.67741799  0.58598654  0.50186377  1
  Ca2+  Ca11  1  0.66969892  0.57264056  0.84275198  1
  Ca2+  Ca12  1  0.07722411  0.32658976  0.15791117  1
  Ca2+  Ca13  1  0.08192100  0.33747601  0.50289997  1
  Ca2+  Ca14  1  0.07647713  0.33306062  0.82942313  1
  Ca2+  Ca15  1  0.08058236  0.82818680  0.16279696  1
  Ca2+  Ca16  1  0.08387615  0.82475464  0.49124632  1
  Ca2+  Ca17  1  0.08377731  0.82340686  0.83424922  1
  Ca2+  Ca18  1  0.58403852  0.32387138  0.16045848  1
  Ca2+  Ca19  1  0.57302521  0.32636503  0.49609050  1
  Ca2+  Ca20  1  0.57773864  0.33165229  0.83228232  1
  Ca2+  Ca21  1  0.57375996  0.83112020  0.15950079  1
  Ca2+  Ca22  1  0.58046562  0.83246088  0.49625431  1
  Ca2+  Ca23  1  0.57624064  0.83394073  0.83525917  1
  Ca2+  Ca24  1  0.33078434  0.42898871  0.17040592  1
  Ca2+  Ca25  1  0.32567823  0.42384193  0.51110920  1
  Ca2+  Ca26  1  0.33082216  0.42387857  0.83592845  1
  Ca2+  Ca27  1  0.32753601  0.92233232  0.17029917  1
  Ca2+  Ca28  1  0.32785994  0.92572992  0.50054334  1
  Ca2+  Ca29  1  0.33340829  0.92557230  0.84109839  1
  Ca2+  Ca30  1  0.83144447  0.41613811  0.16611617  1
  Ca2+  Ca31  1  0.83676734  0.42073014  0.50335347  1
  Ca2+  Ca32  1  0.82935978  0.40682427  0.84147485  1
  Ca2+  Ca33  1  0.84301975  0.91815159  0.16787651  1
  Ca2+  Ca34  1  0.83456345  0.91978125  0.50421643  1
  Ca2+  Ca35  1  0.83735331  0.92670933  0.84029266  1
  Ca2+  Ca36  1  0.42593115  0.15647374  0.16019949  1
  Ca2+  Ca37  1  0.41167522  0.16897945  0.49508050  1
  Ca2+  Ca38  1  0.41975368  0.16623861  0.82711084  1
  Ca2+  Ca39  1  0.40777039  0.67161574  0.15843922  1
  Ca2+  Ca40  1  0.41316304  0.66179590  0.49614462  1
  Ca2+  Ca41  1  0.40581563  0.67013136  0.83243037  1
  Ca2+  Ca42  1  0.92500401  0.16840068  0.15193942  1
  Ca2+  Ca43  1  0.91243680  0.17135226  0.50047881  1
  Ca2+  Ca44  1  0.91579272  0.17226335  0.83227190  1
  Ca2+  Ca45  1  0.92511206  0.67503158  0.16091696  1
  Ca2+  Ca46  1  0.92976068  0.66866422  0.48819993  1
  Ca2+  Ca47  1  0.93095640  0.66534189  0.82894692  1
  Al0+  Al48  1  0.00212646  -0.00027893  -0.00426700  1
  Al0+  Al49  1  -0.00003165  0.00093755  0.33643535  1
  Al0+  Al50  1  -0.00086673  -0.00017567  0.67120114  1
  Al0+  Al51  1  -0.00061945  0.49974053  -0.00609954  1
  Al0+  Al52  1  -0.00046870  0.50039206  0.33120059  1
  Al0+  Al53  1  0.00104887  0.50038562  0.66092184  1
  Al0+  Al54  1  0.50205217  -0.00069078  -0.00603130  1
  Al0+  Al55  1  0.50230455  0.00006802  0.33379054  1
  Al0+  Al56  1  0.50105037  -0.00259867  0.66834725  1
  Al0+  Al57  1  0.50115187  0.49893898  0.01091185  1
  Al0+  Al58  1  0.50047250  0.49783003  0.33685825  1
  Al0+  Al59  1  0.50089029  0.49978543  0.66457538  1
  Al0+  Al60  1  0.25206506  0.25292976  0.00405328  1
  Al0+  Al61  1  0.25007499  0.25349651  0.33481367  1
  Al0+  Al62  1  0.24909758  0.25086647  0.66920807  1
  Al0+  Al63  1  0.25012646  0.75170587  -0.00524626  1
  Al0+  Al64  1  0.25019302  0.75104914  0.33843090  1
  Al0+  Al65  1  0.25062311  0.75198348  0.66434285  1
  Al0+  Al66  1  0.74828324  0.24831018  0.00308032  1
  Al0+  Al67  1  0.74672291  0.24994749  0.33108010  1
  Al0+  Al68  1  0.75014008  0.24956681  0.66407206  1
  Al0+  Al69  1  0.74871182  0.75047373  -0.00403722  1
  Al0+  Al70  1  0.74975432  0.75030662  0.33399808  1
  Al0+  Al71  1  0.74875595  0.75008426  0.66859639  1
  Al0+  Al72  1  0.92872177  0.31890499  0.98622341  1
  Al0+  Al73  1  0.31800150  0.57126807  0.01362734  1
  Al0+  Al74  1  0.56880220  0.17894418  0.31860000  1
  Al0+  Al75  1  0.32068764  0.07071836  0.68088962  1
  Al0+  Al76  1  0.07308455  0.67874106  0.31707057  1
  Al0+  Al77  1  0.07148311  0.67921827  0.98318531  1
  Al0+  Al78  1  0.32320665  0.07285652  0.01334658  1
  Al0+  Al79  1  0.17671710  0.42964051  0.68312202  1
  Al0+  Al80  1  0.07568833  0.17848114  0.98580454  1
  Al0+  Al81  1  0.92816000  0.31922241  0.65098365  1
  Al0+  Al82  1  0.07083653  0.68104429  0.64962719  1
  Al0+  Al83  1  0.42765641  0.32108086  0.65385161  1
  Al0+  Al84  1  0.32251724  0.57180256  0.68270312  1
  Al0+  Al85  1  0.82020699  0.57057553  0.34566458  1
  Al0+  Al86  1  0.42982665  0.81975266  0.98668298  1
  Al0+  Al87  1  0.32034309  0.57087780  0.34741629  1
  Al0+  Al88  1  0.67982277  0.42796329  0.01487147  1
  Al0+  Al89  1  0.32342858  0.07183048  0.34752472  1
  Al0+  Al90  1  0.92747130  0.82281770  0.31932043  1
  Al0+  Al91  1  0.56891386  0.17949986  0.98497880  1
  Al0+  Al92  1  0.81918430  0.07099814  0.68048203  1
  Al0+  Al93  1  0.17743303  0.93018142  0.34847901  1
  Al0+  Al94  1  0.82127106  0.06829706  0.01450066  1
  Al0+  Al95  1  0.92655752  0.82250156  0.98275022  1
  Si0+  Si96  1  0.17819473  0.92821106  0.68524026  1
  Si0+  Si97  1  0.92770457  0.32051085  0.31827827  1
  Si0+  Si98  1  0.82323722  0.57368365  0.01479898  1
  Si0+  Si99  1  0.57206749  0.67684671  0.31924738  1
  Si0+  Si100  1  0.57065042  0.17753966  0.64987972  1
  Si0+  Si101  1  0.43058571  0.82131740  0.64924356  1
  Si0+  Si102  1  0.57250604  0.67798862  0.65091358  1
  Si0+  Si103  1  0.07241672  0.17628185  0.64920027  1
  Si0+  Si104  1  0.17617007  0.42730605  0.35003544  1
  Si0+  Si105  1  0.67757055  0.92545940  0.68550914  1
  Si0+  Si106  1  0.42899341  0.32545908  0.98569020  1
  Si0+  Si107  1  0.17506765  0.42851871  0.01786042  1
  Si0+  Si108  1  0.17981278  0.92874937  0.01546695  1
  Si0+  Si109  1  0.67884327  0.92859389  0.34771420  1
  Si0+  Si110  1  0.92637820  0.82252532  0.64997651  1
  Si0+  Si111  1  0.57148491  0.67492743  0.98507195  1
  Si0+  Si112  1  0.68045394  0.42979118  0.67974636  1
  Si0+  Si113  1  0.43102180  0.81945408  0.32032772  1
  Si0+  Si114  1  0.67789590  0.92646684  0.01710018  1
  Si0+  Si115  1  0.82135827  0.57140692  0.68077979  1
  Si0+  Si116  1  0.07115664  0.17939583  0.32096925  1
  Si0+  Si117  1  0.67917174  0.42595154  0.35348293  1
  Si0+  Si118  1  0.82075176  0.07247235  0.34724900  1
  Si0+  Si119  1  0.42673219  0.32319576  0.31520281  1
  O2-  O120  1  0.24486150  0.00166308  0.05925504  1
  O2-  O121  1  0.24864378  0.00362542  0.39828279  1
  O2-  O122  1  0.24368121  -0.00023093  0.72934139  1
  O2-  O123  1  0.24168813  0.49942319  0.06218859  1
  O2-  O124  1  0.24446289  0.49725983  0.39262082  1
  O2-  O125  1  0.25043638  0.50033510  0.73261854  1
  O2-  O126  1  0.75063293  -0.01015490  0.06268251  1
  O2-  O127  1  0.75213097  -0.00172572  0.38849950  1
  O2-  O128  1  0.74632761  -0.00553315  0.72722686  1
  O2-  O129  1  0.75532062  0.50366180  0.05880605  1
  O2-  O130  1  0.74702861  0.49578294  0.39695951  1
  O2-  O131  1  0.75246653  0.49889786  0.72348084  1
  O2-  O132  1  -0.00080807  0.24940476  0.27823925  1
  O2-  O133  1  0.00301612  0.24447840  0.60383667  1
  O2-  O134  1  0.00261773  0.24947255  0.93570241  1
  O2-  O135  1  -0.00003311  0.75134983  0.26992292  1
  O2-  O136  1  -0.00532780  0.75538874  0.60420712  1
  O2-  O137  1  -0.00444214  0.74770191  0.93336125  1
  O2-  O138  1  0.49103325  0.25025929  0.27167632  1
  O2-  O139  1  0.49738559  0.24122407  0.60582445  1
  O2-  O140  1  0.49110315  0.25145431  0.93994200  1
  O2-  O141  1  0.49685612  0.74332307  0.27755641  1
  O2-  O142  1  0.50011889  0.74765797  0.60816433  1
  O2-  O143  1  0.50231404  0.74213351  0.93966534  1
  O2-  O144  1  0.07373654  0.17975289  0.10054158  1
  O2-  O145  1  0.06983548  0.17960884  0.42612055  1
  O2-  O146  1  0.07193294  0.17625666  0.75430121  1
  O2-  O147  1  0.07269361  0.68193507  0.09659861  1
  O2-  O148  1  0.07186727  0.67926031  0.43079951  1
  O2-  O149  1  0.06995717  0.68170101  0.76240343  1
  O2-  O150  1  0.56921844  0.17983877  0.09829185  1
  O2-  O151  1  0.57200219  0.18145326  0.43194536  1
  O2-  O152  1  0.57229203  0.18023733  0.75518717  1
  O2-  O153  1  0.57203264  0.67711130  0.09091871  1
  O2-  O154  1  0.57375382  0.67997823  0.42473416  1
  O2-  O155  1  0.57642994  0.67835431  0.75555686  1
  O2-  O156  1  0.17714582  0.42291596  0.24471771  1
  O2-  O157  1  0.17743920  0.43207943  0.56895076  1
  O2-  O158  1  0.17598069  0.42720286  0.91270006  1
  O2-  O159  1  0.17865525  0.93137667  0.23490836  1
  O2-  O160  1  0.17987230  0.92880458  0.57946889  1
  O2-  O161  1  0.18402550  0.92685690  0.90976601  1
  O2-  O162  1  0.67998885  0.42526305  0.24811460  1
  O2-  O163  1  0.68142539  0.43182782  0.57455635  1
  O2-  O164  1  0.67884069  0.42998967  0.90105106  1
  O2-  O165  1  0.67432156  0.92750786  0.24333713  1
  O2-  O166  1  0.67644710  0.92321726  0.57947030  1
  O2-  O167  1  0.67632007  0.92834992  0.91155180  1
  O2-  O168  1  0.43250693  0.32755209  0.09128770  1
  O2-  O169  1  0.42909813  0.32423081  0.42098876  1
  O2-  O170  1  0.43355839  0.32343636  0.76668688  1
  O2-  O171  1  0.43052965  0.81897107  0.10038541  1
  O2-  O172  1  0.43557427  0.82064163  0.42569995  1
  O2-  O173  1  0.43265562  0.82274798  0.75411243  1
  O2-  O174  1  0.92982231  0.31740207  0.10061770  1
  O2-  O175  1  0.92646797  0.31918702  0.42356840  1
  O2-  O176  1  0.92397140  0.31682226  0.76316369  1
  O2-  O177  1  0.92756610  0.82062304  0.09642697  1
  O2-  O178  1  0.92573569  0.82125369  0.43321596  1
  O2-  O179  1  0.92504591  0.81990024  0.75504019  1
  O2-  O180  1  0.32425299  0.06733793  0.23415389  1
  O2-  O181  1  0.32108745  0.06767497  0.56768250  1
  O2-  O182  1  0.32379052  0.06994279  0.90006190  1
  O2-  O183  1  0.32121160  0.57098875  0.23431554  1
  O2-  O184  1  0.32262885  0.56995101  0.56893289  1
  O2-  O185  1  0.31974580  0.56911252  0.90108571  1
  O2-  O186  1  0.82032501  0.07429691  0.24262559  1
  O2-  O187  1  0.81567160  0.07067492  0.56639452  1
  O2-  O188  1  0.81724755  0.07038539  0.90154366  1
  O2-  O189  1  0.81666698  0.56832522  0.23290365  1
  O2-  O190  1  0.81764392  0.57260319  0.57548758  1
  O2-  O191  1  0.82020882  0.57360645  0.90881370  1
  O2-  O192  1  0.04380930  0.08798981  0.27373700  1
  O2-  O193  1  0.04529973  0.08195815  0.60404257  1
  O2-  O194  1  0.05163422  0.08000445  0.93298945  1
  O2-  O195  1  0.04511099  0.57963129  0.26506604  1
  O2-  O196  1  0.03967637  0.58504801  0.59526178  1
  O2-  O197  1  0.04543456  0.58042835  0.92991767  1
  O2-  O198  1  0.54314675  0.08058773  0.26524446  1
  O2-  O199  1  0.55130901  0.08073894  0.60692277  1
  O2-  O200  1  0.54349864  0.08308417  0.92876893  1
  O2-  O201  1  0.55013126  0.58217692  0.27508397  1
  O2-  O202  1  0.54775559  0.58667716  0.60115331  1
  O2-  O203  1  0.54693366  0.58020956  0.94160549  1
  O2-  O204  1  0.16311069  0.20771812  0.27375839  1
  O2-  O205  1  0.16551301  0.20243028  0.60259999  1
  O2-  O206  1  0.17442459  0.20902140  0.93463609  1
  O2-  O207  1  0.17229936  0.70967861  0.26703162  1
  O2-  O208  1  0.16793270  0.71345550  0.59700956  1
  O2-  O209  1  0.16731550  0.71234601  0.92827556  1
  O2-  O210  1  0.66448123  0.21292372  0.26359487  1
  O2-  O211  1  0.66160892  0.20875006  0.60146842  1
  O2-  O212  1  0.66410651  0.21474542  0.93215259  1
  O2-  O213  1  0.66122266  0.70897120  0.27024116  1
  O2-  O214  1  0.66347420  0.70934870  0.60143988  1
  O2-  O215  1  0.66385914  0.70012424  0.93592004  1
  O2-  O216  1  0.07976884  0.45135736  0.06216954  1
  O2-  O217  1  0.08150454  0.45055989  0.39479694  1
  O2-  O218  1  0.07760575  0.45934599  0.73389155  1
  O2-  O219  1  0.08473601  0.94924035  0.05959437  1
  O2-  O220  1  0.07975332  0.95856799  0.40448368  1
  O2-  O221  1  0.08275485  0.94790746  0.72954910  1
  O2-  O222  1  0.58660716  0.45983618  0.07511965  1
  O2-  O223  1  0.58529913  0.45100740  0.39913610  1
  O2-  O224  1  0.58998374  0.45982831  0.72773438  1
  O2-  O225  1  0.58594026  0.95707431  0.06360946  1
  O2-  O226  1  0.58979053  0.95927362  0.39975346  1
  O2-  O227  1  0.58412917  0.95032528  0.73161807  1
  O2-  O228  1  0.20339267  0.33694857  0.06743438  1
  O2-  O229  1  0.20232398  0.33510694  0.39965871  1
  O2-  O230  1  0.20153995  0.33027478  0.73451393  1
  O2-  O231  1  0.21164492  0.83757103  0.06258098  1
  O2-  O232  1  0.20976118  0.83430556  0.40399400  1
  O2-  O233  1  0.20965341  0.83662607  0.73095156  1
  O2-  O234  1  0.71181571  0.33340145  0.07140508  1
  O2-  O235  1  0.70669570  0.33305281  0.40035373  1
  O2-  O236  1  0.70690550  0.33737627  0.72590399  1
  O2-  O237  1  0.69574521  0.82981902  0.06120362  1
  O2-  O238  1  0.70411419  0.83707157  0.39792784  1
  O2-  O239  1  0.70142985  0.83170141  0.73281463  1
  O2-  O240  1  0.45851178  0.41535807  0.26891744  1
  O2-  O241  1  0.46395699  0.41555054  0.59736260  1
  O2-  O242  1  0.46280579  0.41663348  0.93938370  1
  O2-  O243  1  0.46473981  0.90890357  0.27243925  1
  O2-  O244  1  0.46331721  0.91125692  0.59977584  1
  O2-  O245  1  0.46553328  0.91264739  0.92883816  1
  O2-  O246  1  0.95419133  0.41196659  0.27044743  1
  O2-  O247  1  0.95799739  0.41584262  0.59599457  1
  O2-  O248  1  0.95040587  0.41834978  0.93288311  1
  O2-  O249  1  0.95424225  0.92307094  0.26902472  1
  O2-  O250  1  0.94986121  0.91801780  0.60622589  1
  O2-  O251  1  0.95759755  0.91930208  0.92897484  1
  O2-  O252  1  0.33087824  0.30499473  0.27098766  1
  O2-  O253  1  0.32988388  0.29428209  0.59998149  1
  O2-  O254  1  0.33300886  0.30769406  0.94306985  1
  O2-  O255  1  0.33793761  0.79593628  0.27498400  1
  O2-  O256  1  0.33869263  0.79664304  0.60139109  1
  O2-  O257  1  0.33528964  0.79089728  0.92903706  1
  O2-  O258  1  0.83543536  0.29288610  0.27230727  1
  O2-  O259  1  0.83219014  0.28718701  0.59415017  1
  O2-  O260  1  0.83077193  0.28729303  0.93503296  1
  O2-  O261  1  0.82808795  0.79550755  0.26711647  1
  O2-  O262  1  0.83094347  0.79787704  0.60557129  1
  O2-  O263  1  0.82553227  0.80025368  0.93123235  1
  O2-  O264  1  0.41966031  0.03594892  0.06399210  1
  O2-  O265  1  0.42089115  0.03991165  0.40127450  1
  O2-  O266  1  0.41795898  0.03732643  0.73250515  1
  O2-  O267  1  0.41429394  0.54179202  0.06982089  1
  O2-  O268  1  0.41852516  0.54122719  0.40054887  1
  O2-  O269  1  0.42311186  0.54532334  0.73267425  1
  O2-  O270  1  0.92052107  0.04150060  0.06603444  1
  O2-  O271  1  0.91225218  0.04904137  0.39693052  1
  O2-  O272  1  0.91660351  0.04412816  0.73433374  1
  O2-  O273  1  0.91706442  0.54847555  0.05974540  1
  O2-  O274  1  0.91674108  0.53940565  0.39976761  1
  O2-  O275  1  0.91384181  0.54543278  0.72489585  1
  O2-  O276  1  0.29970897  0.17128819  0.06755891  1
  O2-  O277  1  0.29789890  0.17273236  0.39668327  1
  O2-  O278  1  0.29462065  0.16842156  0.73358441  1
  O2-  O279  1  0.28866480  0.66981871  0.06501224  1
  O2-  O280  1  0.29466984  0.66797529  0.40238460  1
  O2-  O281  1  0.29521215  0.67242996  0.73099802  1
  O2-  O282  1  0.78582505  0.16254080  0.07006705  1
  O2-  O283  1  0.78744600  0.16275196  0.39551171  1
  O2-  O284  1  0.78486554  0.16695733  0.73341308  1
  O2-  O285  1  0.79476772  0.66683713  0.06040988  1
  O2-  O286  1  0.78636486  0.66597439  0.40164869  1
  O2-  O287  1  0.79094389  0.66225003  0.72875765  1
