# generated using pymatgen
data_Ca2Al2SiO7
_symmetry_space_group_name_H-M   'P 1'
_cell_length_a   15.46199508
_cell_length_b   15.46313396
_cell_length_c   15.28584237
_cell_angle_alpha   89.98633998
_cell_angle_beta   90.00558294
_cell_angle_gamma   89.96615734
_symmetry_Int_Tables_number   1
_chemical_formula_structural   Ca2Al2SiO7
_chemical_formula_sum   'Ca48 Al48 Si24 O168'
_cell_volume   3654.70506917
_cell_formula_units_Z   24
loop_
 _symmetry_equiv_pos_site_id
 _symmetry_equiv_pos_as_xyz
  1  'x, y, z'
loop_
 _atom_type_symbol
 _atom_type_oxidation_number
  Ca2+  2.0
  Al0+  0.0
  Si0+  0.0
  O2-  -2.0
loop_
 _atom_site_type_symbol
 _atom_site_label
 _atom_site_symmetry_multiplicity
 _atom_site_fract_x
 _atom_site_fract_y
 _atom_site_fract_z
 _atom_site_occupancy
  Ca2+  Ca0  1  0.17519442  0.09060339  0.17315850  1
  Ca2+  Ca1  1  0.17625235  0.08915487  0.50502712  1
  Ca2+  Ca2  1  0.17717221  0.08804560  0.83850944  1
  Ca2+  Ca3  1  0.16324157  0.58630561  0.17097144  1
  Ca2+  Ca4  1  0.16184325  0.58471152  0.50578829  1
  Ca2+  Ca5  1  0.16347357  0.58669512  0.83841265  1
  Ca2+  Ca6  1  0.66616648  0.07987950  0.16268668  1
  Ca2+  Ca7  1  0.66648416  0.08272495  0.50637869  1
  Ca2+  Ca8  1  0.66683109  0.08239123  0.84633981  1
  Ca2+  Ca9  1  0.66008792  0.57752946  0.17272449  1
  Ca2+  Ca10  1  0.66822514  0.58126491  0.51143525  1
  Ca2+  Ca11  1  0.66141835  0.57379039  0.83537520  1
  Ca2+  Ca12  1  0.07794802  0.32220332  0.16654545  1
  Ca2+  Ca13  1  0.07831055  0.32407992  0.49350841  1
  Ca2+  Ca14  1  0.08176909  0.32067274  0.82995129  1
  Ca2+  Ca15  1  0.08270706  0.82651456  0.16463435  1
  Ca2+  Ca16  1  0.07718047  0.82242948  0.49361744  1
  Ca2+  Ca17  1  0.08207942  0.82412067  0.82939723  1
  Ca2+  Ca18  1  0.57803564  0.32949224  0.16094615  1
  Ca2+  Ca19  1  0.58147458  0.32989843  0.49815637  1
  Ca2+  Ca20  1  0.59288425  0.32459669  0.83144336  1
  Ca2+  Ca21  1  0.57427436  0.83814840  0.16281833  1
  Ca2+  Ca22  1  0.57572871  0.82435174  0.49653427  1
  Ca2+  Ca23  1  0.57382280  0.84055029  0.82830012  1
  Ca2+  Ca24  1  0.33271311  0.41655027  0.17527944  1
  Ca2+  Ca25  1  0.33385760  0.41599350  0.50188454  1
  Ca2+  Ca26  1  0.33109255  0.42107355  0.83687647  1
  Ca2+  Ca27  1  0.33944681  0.92599642  0.17101810  1
  Ca2+  Ca28  1  0.34001633  0.92350707  0.50354873  1
  Ca2+  Ca29  1  0.33986121  0.92449362  0.83833815  1
  Ca2+  Ca30  1  0.82925197  0.41319837  0.16998999  1
  Ca2+  Ca31  1  0.82975890  0.42185517  0.50911606  1
  Ca2+  Ca32  1  0.82257209  0.42066738  0.83481094  1
  Ca2+  Ca33  1  0.83227013  0.91753807  0.16828819  1
  Ca2+  Ca34  1  0.83455682  0.91349068  0.50159401  1
  Ca2+  Ca35  1  0.82292576  0.92386674  0.84375209  1
  Ca2+  Ca36  1  0.41485849  0.16780046  0.16142054  1
  Ca2+  Ca37  1  0.41786666  0.16665039  0.49769149  1
  Ca2+  Ca38  1  0.42689965  0.15880893  0.83005808  1
  Ca2+  Ca39  1  0.41962505  0.68040137  0.16423813  1
  Ca2+  Ca40  1  0.42637467  0.67615172  0.49410512  1
  Ca2+  Ca41  1  0.42309909  0.68263268  0.82561075  1
  Ca2+  Ca42  1  0.92548606  0.16348483  0.16001865  1
  Ca2+  Ca43  1  0.92927711  0.17108401  0.49090060  1
  Ca2+  Ca44  1  0.92649693  0.15778678  0.82981479  1
  Ca2+  Ca45  1  0.92578877  0.67055918  0.16621935  1
  Ca2+  Ca46  1  0.92223759  0.66525713  0.49396392  1
  Ca2+  Ca47  1  0.92352322  0.66036057  0.82828821  1
  Al0+  Al48  1  0.00148203  -0.00221485  -0.00208327  1
  Al0+  Al49  1  0.00168921  -0.00198802  0.32865833  1
  Al0+  Al50  1  0.00324442  -0.00199905  0.66226960  1
  Al0+  Al51  1  -0.00033665  0.49842186  -0.00274292  1
  Al0+  Al52  1  -0.00106762  0.49745850  0.32732174  1
  Al0+  Al53  1  -0.00062581  0.49839938  0.66893701  1
  Al0+  Al54  1  0.49944052  0.00250268  0.00179304  1
  Al0+  Al55  1  0.50189215  -0.00052603  0.33736074  1
  Al0+  Al56  1  0.49993945  0.00323762  0.66132209  1
  Al0+  Al57  1  0.49779395  0.50198663  0.00480967  1
  Al0+  Al58  1  0.49855584  0.49799571  0.32929762  1
  Al0+  Al59  1  0.49815639  0.49952102  0.67054455  1
  Al0+  Al60  1  0.24797750  0.25269684  -0.00030926  1
  Al0+  Al61  1  0.25102619  0.25142543  0.33280330  1
  Al0+  Al62  1  0.25080181  0.24988229  0.66932983  1
  Al0+  Al63  1  0.25111322  0.75098878  -0.00810228  1
  Al0+  Al64  1  0.25221200  0.75092235  0.32878331  1
  Al0+  Al65  1  0.24775743  0.75188474  0.65917140  1
  Al0+  Al66  1  0.74985390  0.25245024  0.00598065  1
  Al0+  Al67  1  0.74968173  0.24948019  0.33325110  1
  Al0+  Al68  1  0.75085548  0.25016037  0.66591039  1
  Al0+  Al69  1  0.74992440  0.74818196  0.00488699  1
  Al0+  Al70  1  0.75126646  0.74743880  0.32786454  1
  Al0+  Al71  1  0.75025257  0.75096293  0.67102554  1
  Al0+  Al72  1  0.43101664  0.82322087  0.31702507  1
  Al0+  Al73  1  0.57190087  0.67747139  0.65475264  1
  Al0+  Al74  1  0.67810703  0.43100486  0.01707912  1
  Al0+  Al75  1  0.82175746  0.57253925  0.68173947  1
  Al0+  Al76  1  0.92776188  0.82146904  0.31757576  1
  Al0+  Al77  1  0.32038893  0.07042506  0.68182702  1
  Al0+  Al78  1  0.07184184  0.17886425  0.31853603  1
  Al0+  Al79  1  0.06906779  0.67963328  0.98493790  1
  Al0+  Al80  1  0.67656497  0.42768103  0.68175262  1
  Al0+  Al81  1  0.07117071  0.17765454  0.98469519  1
  Al0+  Al82  1  0.57155219  0.67733726  0.31844943  1
  Al0+  Al83  1  0.67755133  0.92845833  0.01557800  1
  Al0+  Al84  1  0.42890316  0.82344863  0.65026431  1
  Al0+  Al85  1  0.57268729  0.18082088  0.65383727  1
  Al0+  Al86  1  0.43027266  0.31891227  0.32130358  1
  Al0+  Al87  1  0.92669798  0.32023809  0.31855352  1
  Al0+  Al88  1  0.07202580  0.67791928  0.31879333  1
  Al0+  Al89  1  0.82370638  0.07112156  0.01489637  1
  Al0+  Al90  1  0.07281401  0.17796498  0.65261622  1
  Al0+  Al91  1  0.56883084  0.18312784  0.98882023  1
  Al0+  Al92  1  0.06861503  0.67727216  0.65303443  1
  Al0+  Al93  1  0.32047591  0.07124525  0.34877937  1
  Al0+  Al94  1  0.31878521  0.07156177  0.01376898  1
  Al0+  Al95  1  0.43208656  0.82214098  0.98534357  1
  Si0+  Si96  1  0.82093879  0.56866496  0.34727701  1
  Si0+  Si97  1  0.17707230  0.92665224  0.68357267  1
  Si0+  Si98  1  0.31860680  0.57276242  0.01527298  1
  Si0+  Si99  1  0.92911495  0.32006610  0.65134168  1
  Si0+  Si100  1  0.57272851  0.67599013  0.98373329  1
  Si0+  Si101  1  0.17920746  0.42933971  0.68215303  1
  Si0+  Si102  1  0.92551496  0.82154760  0.98158966  1
  Si0+  Si103  1  0.68091340  0.92778278  0.35006112  1
  Si0+  Si104  1  0.31939743  0.57375877  0.68078318  1
  Si0+  Si105  1  0.57330876  0.17680828  0.31672184  1
  Si0+  Si106  1  0.67944930  0.93152770  0.67946945  1
  Si0+  Si107  1  0.82451812  0.57051207  0.01972916  1
  Si0+  Si108  1  0.42610268  0.32541694  0.98289218  1
  Si0+  Si109  1  0.17855069  0.43082351  0.34872650  1
  Si0+  Si110  1  0.82406241  0.07039852  0.67795891  1
  Si0+  Si111  1  0.17933288  0.92560153  0.01550009  1
  Si0+  Si112  1  0.92708336  0.82235056  0.65209297  1
  Si0+  Si113  1  0.17821848  0.43015301  0.01632998  1
  Si0+  Si114  1  0.67672478  0.42824012  0.34957802  1
  Si0+  Si115  1  0.17735194  0.92572519  0.35072338  1
  Si0+  Si116  1  0.42666762  0.32278704  0.65249489  1
  Si0+  Si117  1  0.92742668  0.32111016  0.98131192  1
  Si0+  Si118  1  0.82287188  0.07084501  0.34905636  1
  Si0+  Si119  1  0.32129925  0.57164282  0.34853474  1
  O2-  O120  1  0.24230942  -0.00115961  0.06075258  1
  O2-  O121  1  0.24509145  -0.00402688  0.39478542  1
  O2-  O122  1  0.24647067  -0.00545285  0.72789991  1
  O2-  O123  1  0.24895546  0.50106652  0.05898341  1
  O2-  O124  1  0.24642279  0.50470777  0.39202286  1
  O2-  O125  1  0.24753504  0.50342973  0.72411618  1
  O2-  O126  1  0.75293778  -0.00231555  0.06532510  1
  O2-  O127  1  0.75268092  -0.00097436  0.39247386  1
  O2-  O128  1  0.75161703  0.00176483  0.72083165  1
  O2-  O129  1  0.75106309  0.50721900  0.06464444  1
  O2-  O130  1  0.74838409  0.49921494  0.39034423  1
  O2-  O131  1  0.74548003  0.50386236  0.73062112  1
  O2-  O132  1  -0.00560790  0.24468003  0.26828110  1
  O2-  O133  1  -0.00394266  0.25028567  0.60669569  1
  O2-  O134  1  -0.00826433  0.24775929  0.93752244  1
  O2-  O135  1  0.00287313  0.75211143  0.26887941  1
  O2-  O136  1  -0.00893023  0.74902784  0.60820828  1
  O2-  O137  1  -0.00765058  0.75121327  0.93701603  1
  O2-  O138  1  0.50269115  0.24359068  0.27355297  1
  O2-  O139  1  0.49879955  0.25731202  0.60941334  1
  O2-  O140  1  0.49520054  0.25783233  0.93918207  1
  O2-  O141  1  0.50338295  0.75178052  0.26710913  1
  O2-  O142  1  0.49950967  0.74812889  0.60374802  1
  O2-  O143  1  0.51091110  0.75075389  0.93977165  1
  O2-  O144  1  0.07323056  0.18218308  0.09733240  1
  O2-  O145  1  0.07192240  0.18285172  0.43241708  1
  O2-  O146  1  0.07159481  0.17998612  0.76579835  1
  O2-  O147  1  0.06931413  0.68015063  0.09761729  1
  O2-  O148  1  0.06834161  0.67603661  0.43242726  1
  O2-  O149  1  0.06911707  0.67861552  0.76611232  1
  O2-  O150  1  0.56598298  0.18377117  0.10183204  1
  O2-  O151  1  0.57533098  0.17945402  0.42269773  1
  O2-  O152  1  0.57329664  0.17898810  0.76677794  1
  O2-  O153  1  0.56708891  0.67273297  0.08904013  1
  O2-  O154  1  0.57069249  0.67703110  0.43221961  1
  O2-  O155  1  0.56881506  0.67863446  0.76829286  1
  O2-  O156  1  0.18068801  0.43076047  0.24357100  1
  O2-  O157  1  0.18003645  0.42858981  0.57692426  1
  O2-  O158  1  0.17960451  0.43029460  0.91082231  1
  O2-  O159  1  0.17809246  0.92465067  0.24512479  1
  O2-  O160  1  0.17431849  0.92731146  0.57827890  1
  O2-  O161  1  0.18172117  0.92403703  0.90979675  1
  O2-  O162  1  0.67617262  0.42886023  0.24459374  1
  O2-  O163  1  0.67903383  0.42638728  0.56778151  1
  O2-  O164  1  0.67854168  0.43152681  0.90411333  1
  O2-  O165  1  0.67954284  0.93021149  0.24535902  1
  O2-  O166  1  0.68145654  0.93120548  0.57410316  1
  O2-  O167  1  0.67751029  0.93197881  0.90123876  1
  O2-  O168  1  0.42567514  0.32563665  0.08859517  1
  O2-  O169  1  0.43180153  0.32147036  0.43451222  1
  O2-  O170  1  0.42247610  0.32270292  0.75786406  1
  O2-  O171  1  0.43012323  0.81993694  0.09807935  1
  O2-  O172  1  0.43294461  0.82185897  0.43044260  1
  O2-  O173  1  0.43114323  0.82409122  0.76412524  1
  O2-  O174  1  0.93119421  0.32337666  0.08671894  1
  O2-  O175  1  0.92899510  0.32046553  0.43251798  1
  O2-  O176  1  0.93028344  0.31932729  0.75688001  1
  O2-  O177  1  0.92772750  0.82113111  0.08690257  1
  O2-  O178  1  0.92650294  0.81806805  0.43162390  1
  O2-  O179  1  0.92993852  0.82629578  0.75733493  1
  O2-  O180  1  0.31948897  0.07230023  0.23564744  1
  O2-  O181  1  0.31917994  0.07214217  0.56872055  1
  O2-  O182  1  0.31967554  0.07079480  0.90059073  1
  O2-  O183  1  0.32105387  0.56877846  0.24332796  1
  O2-  O184  1  0.31924984  0.57109554  0.57561905  1
  O2-  O185  1  0.31753202  0.57076260  0.90981926  1
  O2-  O186  1  0.82130585  0.07200319  0.24452791  1
  O2-  O187  1  0.82369164  0.06859738  0.57258285  1
  O2-  O188  1  0.82267661  0.06917930  0.90031353  1
  O2-  O189  1  0.82156568  0.56645004  0.24236381  1
  O2-  O190  1  0.82417384  0.56872975  0.56770252  1
  O2-  O191  1  0.82686734  0.56719724  0.91428092  1
  O2-  O192  1  0.05107694  0.07879724  0.26778893  1
  O2-  O193  1  0.04502988  0.08112169  0.59839488  1
  O2-  O194  1  0.04647865  0.07898130  0.93162216  1
  O2-  O195  1  0.04186590  0.58087575  0.26478292  1
  O2-  O196  1  0.04181437  0.57868135  0.60094706  1
  O2-  O197  1  0.04072343  0.58138026  0.93210720  1
  O2-  O198  1  0.55015305  0.08219935  0.27395131  1
  O2-  O199  1  0.54049583  0.08724034  0.59561156  1
  O2-  O200  1  0.53811215  0.08701351  0.93446564  1
  O2-  O201  1  0.53859804  0.58087018  0.26498575  1
  O2-  O202  1  0.54392268  0.57794990  0.60355386  1
  O2-  O203  1  0.53878137  0.58499228  0.93689779  1
  O2-  O204  1  0.16705217  0.21567310  0.26585747  1
  O2-  O205  1  0.16806517  0.21421828  0.60035123  1
  O2-  O206  1  0.16531509  0.21674196  0.93021806  1
  O2-  O207  1  0.17124712  0.70253095  0.26661704  1
  O2-  O208  1  0.16371475  0.70792719  0.59691700  1
  O2-  O209  1  0.16489779  0.71056346  0.92947384  1
  O2-  O210  1  0.66592526  0.20359384  0.27047119  1
  O2-  O211  1  0.66972360  0.20832450  0.59795191  1
  O2-  O212  1  0.66726180  0.21280487  0.93725775  1
  O2-  O213  1  0.67082441  0.69888317  0.26605495  1
  O2-  O214  1  0.67131690  0.70574015  0.60376965  1
  O2-  O215  1  0.67050749  0.69158868  0.94373195  1
  O2-  O216  1  0.08625705  0.45805617  0.06291887  1
  O2-  O217  1  0.08525086  0.45592999  0.39511661  1
  O2-  O218  1  0.08743297  0.45383857  0.73088740  1
  O2-  O219  1  0.08330778  0.94432511  0.05872941  1
  O2-  O220  1  0.08214938  0.94840512  0.39599411  1
  O2-  O221  1  0.08352982  0.95243115  0.73085091  1
  O2-  O222  1  0.57997119  0.46027914  0.07049116  1
  O2-  O223  1  0.58450311  0.45626266  0.39617670  1
  O2-  O224  1  0.57678372  0.45047748  0.73576955  1
  O2-  O225  1  0.58225137  0.96355989  0.07031637  1
  O2-  O226  1  0.59061104  0.95658972  0.40027163  1
  O2-  O227  1  0.58840778  0.96290343  0.72542742  1
  O2-  O228  1  0.20654318  0.33950162  0.06522062  1
  O2-  O229  1  0.21051583  0.34107133  0.39778749  1
  O2-  O230  1  0.21092704  0.33992057  0.73229538  1
  O2-  O231  1  0.20998325  0.83327686  0.06163221  1
  O2-  O232  1  0.20424571  0.83168035  0.39653818  1
  O2-  O233  1  0.20135330  0.83188003  0.72866461  1
  O2-  O234  1  0.70906607  0.33583628  0.07311738  1
  O2-  O235  1  0.70353637  0.33541673  0.39632472  1
  O2-  O236  1  0.71128905  0.33043218  0.73530732  1
  O2-  O237  1  0.70042473  0.82797638  0.06751525  1
  O2-  O238  1  0.70973441  0.83489097  0.39528168  1
  O2-  O239  1  0.70361988  0.84025174  0.72947555  1
  O2-  O240  1  0.45962485  0.41399000  0.26391841  1
  O2-  O241  1  0.44756434  0.41759916  0.60690145  1
  O2-  O242  1  0.45016651  0.42045811  0.93875690  1
  O2-  O243  1  0.46192391  0.92168015  0.26598276  1
  O2-  O244  1  0.46139206  0.91943737  0.59623602  1
  O2-  O245  1  0.46197945  0.91909506  0.93244519  1
  O2-  O246  1  0.95850396  0.41520565  0.26188581  1
  O2-  O247  1  0.95761412  0.41254543  0.60511375  1
  O2-  O248  1  0.95939946  0.41195570  0.93326293  1
  O2-  O249  1  0.95258287  0.91990065  0.26399302  1
  O2-  O250  1  0.95704988  0.91271413  0.60116531  1
  O2-  O251  1  0.95260656  0.91401010  0.93414993  1
  O2-  O252  1  0.33361002  0.29237114  0.26608108  1
  O2-  O253  1  0.33498133  0.29400436  0.60420633  1
  O2-  O254  1  0.33198521  0.30168116  0.93751787  1
  O2-  O255  1  0.33313318  0.79543546  0.26418279  1
  O2-  O256  1  0.33015065  0.79755459  0.59795958  1
  O2-  O257  1  0.33795801  0.78758451  0.92890396  1
  O2-  O258  1  0.82680732  0.29654476  0.26717072  1
  O2-  O259  1  0.83568095  0.29708636  0.60435065  1
  O2-  O260  1  0.83165826  0.30116438  0.93876361  1
  O2-  O261  1  0.83192664  0.79087463  0.26193616  1
  O2-  O262  1  0.83176061  0.80271165  0.60780094  1
  O2-  O263  1  0.83011751  0.79811939  0.93788959  1
  O2-  O264  1  0.41435114  0.04056603  0.06837079  1
  O2-  O265  1  0.41857694  0.04193527  0.40222302  1
  O2-  O266  1  0.41891151  0.04020115  0.73282951  1
  O2-  O267  1  0.40965487  0.54667284  0.06465347  1
  O2-  O268  1  0.41114484  0.53730992  0.39637419  1
  O2-  O269  1  0.40936219  0.54524217  0.73149941  1
  O2-  O270  1  0.92303707  0.04216392  0.06645170  1
  O2-  O271  1  0.91590688  0.04390846  0.39540812  1
  O2-  O272  1  0.91558980  0.04039559  0.72515799  1
  O2-  O273  1  0.91652343  0.53849067  0.06605348  1
  O2-  O274  1  0.91279703  0.53830182  0.39420830  1
  O2-  O275  1  0.91826539  0.53796028  0.73683419  1
  O2-  O276  1  0.28941820  0.17032521  0.06536232  1
  O2-  O277  1  0.28952158  0.16898157  0.40192326  1
  O2-  O278  1  0.28928544  0.16698322  0.73636793  1
  O2-  O279  1  0.28837611  0.66436807  0.06106613  1
  O2-  O280  1  0.29825017  0.66523058  0.39444134  1
  O2-  O281  1  0.29067130  0.66607115  0.72654609  1
  O2-  O282  1  0.79645256  0.16941299  0.06769973  1
  O2-  O283  1  0.79372119  0.16253397  0.39744879  1
  O2-  O284  1  0.80037802  0.16320519  0.72430921  1
  O2-  O285  1  0.80628590  0.66644993  0.06338318  1
  O2-  O286  1  0.79632457  0.66176610  0.39383282  1
  O2-  O287  1  0.80138958  0.67278524  0.73510689  1
