# generated using pymatgen
data_Ca2Al2SiO7
_symmetry_space_group_name_H-M   'P 1'
_cell_length_a   15.45353151
_cell_length_b   15.45393414
_cell_length_c   15.28090957
_cell_angle_alpha   89.99614061
_cell_angle_beta   90.00816512
_cell_angle_gamma   89.99559936
_symmetry_Int_Tables_number   1
_chemical_formula_structural   Ca2Al2SiO7
_chemical_formula_sum   'Ca48 Al48 Si24 O168'
_cell_volume   3649.35403938
_cell_formula_units_Z   24
loop_
 _symmetry_equiv_pos_site_id
 _symmetry_equiv_pos_as_xyz
  1  'x, y, z'
loop_
 _atom_type_symbol
 _atom_type_oxidation_number
  Ca2+  2.0
  Al0+  0.0
  Si0+  0.0
  O2-  -2.0
loop_
 _atom_site_type_symbol
 _atom_site_label
 _atom_site_symmetry_multiplicity
 _atom_site_fract_x
 _atom_site_fract_y
 _atom_site_fract_z
 _atom_site_occupancy
  Ca2+  Ca0  1  0.16094326  0.07562384  0.17234993  1
  Ca2+  Ca1  1  0.16460140  0.08830503  0.50468109  1
  Ca2+  Ca2  1  0.16482390  0.07793901  0.83869740  1
  Ca2+  Ca3  1  0.16121741  0.57963389  0.16661834  1
  Ca2+  Ca4  1  0.17296787  0.57758994  0.50980826  1
  Ca2+  Ca5  1  0.16594218  0.57420533  0.83953115  1
  Ca2+  Ca6  1  0.67624173  0.09511521  0.17004232  1
  Ca2+  Ca7  1  0.66918102  0.08177551  0.50184178  1
  Ca2+  Ca8  1  0.66800266  0.07950673  0.84180264  1
  Ca2+  Ca9  1  0.66599273  0.57393658  0.17301983  1
  Ca2+  Ca10  1  0.66545144  0.58190134  0.50754910  1
  Ca2+  Ca11  1  0.67810747  0.58131640  0.83919642  1
  Ca2+  Ca12  1  0.07628312  0.32853192  0.15789286  1
  Ca2+  Ca13  1  0.08063565  0.32843850  0.49944129  1
  Ca2+  Ca14  1  0.07447182  0.33793093  0.82699396  1
  Ca2+  Ca15  1  0.08655460  0.82181108  0.15940457  1
  Ca2+  Ca16  1  0.08046748  0.82440570  0.49269618  1
  Ca2+  Ca17  1  0.08533386  0.82854572  0.83517732  1
  Ca2+  Ca18  1  0.58945643  0.32969480  0.16363724  1
  Ca2+  Ca19  1  0.57642282  0.33486840  0.48718870  1
  Ca2+  Ca20  1  0.59309240  0.32812212  0.83496026  1
  Ca2+  Ca21  1  0.57909391  0.82796040  0.16147939  1
  Ca2+  Ca22  1  0.58663948  0.82306192  0.50228944  1
  Ca2+  Ca23  1  0.57465481  0.83138653  0.82224803  1
  Ca2+  Ca24  1  0.32771180  0.41062778  0.17056849  1
  Ca2+  Ca25  1  0.32955440  0.42015619  0.50859368  1
  Ca2+  Ca26  1  0.32118220  0.42091005  0.83530617  1
  Ca2+  Ca27  1  0.33085980  0.91158181  0.16301946  1
  Ca2+  Ca28  1  0.33563169  0.91829481  0.50532813  1
  Ca2+  Ca29  1  0.33233957  0.91172008  0.84015657  1
  Ca2+  Ca30  1  0.82440794  0.41479245  0.16388483  1
  Ca2+  Ca31  1  0.82816764  0.42037252  0.50455726  1
  Ca2+  Ca32  1  0.83670379  0.42274149  0.84128267  1
  Ca2+  Ca33  1  0.83720635  0.93211572  0.17136565  1
  Ca2+  Ca34  1  0.82764454  0.92319190  0.50464742  1
  Ca2+  Ca35  1  0.82604481  0.92350780  0.83788119  1
  Ca2+  Ca36  1  0.43000393  0.17191765  0.16494357  1
  Ca2+  Ca37  1  0.42356050  0.17605997  0.49054147  1
  Ca2+  Ca38  1  0.42331949  0.16544484  0.83272346  1
  Ca2+  Ca39  1  0.42399478  0.66913564  0.16248488  1
  Ca2+  Ca40  1  0.42564812  0.66414487  0.49931562  1
  Ca2+  Ca41  1  0.41977136  0.67510160  0.82482768  1
  Ca2+  Ca42  1  0.91338998  0.16927650  0.16069160  1
  Ca2+  Ca43  1  0.92429269  0.16969601  0.49660762  1
  Ca2+  Ca44  1  0.91701497  0.18006858  0.82870232  1
  Ca2+  Ca45  1  0.92671259  0.65958179  0.16070517  1
  Ca2+  Ca46  1  0.91866508  0.66450512  0.49741664  1
  Ca2+  Ca47  1  0.91985812  0.65459778  0.83163396  1
  Al0+  Al48  1  0.00108486  -0.00278803  0.00809784  1
  Al0+  Al49  1  -0.00058357  -0.00006502  0.33730096  1
  Al0+  Al50  1  0.00025061  0.00014336  0.66395887  1
  Al0+  Al51  1  0.00150085  0.49895503  0.00100293  1
  Al0+  Al52  1  -0.00028825  0.49940752  0.33112417  1
  Al0+  Al53  1  -0.00189945  0.49861868  0.66611538  1
  Al0+  Al54  1  0.49909810  0.00040582  -0.00629323  1
  Al0+  Al55  1  0.49913049  0.00050023  0.33063175  1
  Al0+  Al56  1  0.49885592  -0.00082306  0.66568624  1
  Al0+  Al57  1  0.49887837  0.49955611  0.00089096  1
  Al0+  Al58  1  0.49737137  0.50204492  0.32865394  1
  Al0+  Al59  1  0.49973909  0.49939697  0.67041471  1
  Al0+  Al60  1  0.25227198  0.24900190  0.00453718  1
  Al0+  Al61  1  0.24836551  0.24811351  0.32616869  1
  Al0+  Al62  1  0.25095747  0.24803564  0.66935645  1
  Al0+  Al63  1  0.24988568  0.74979618  -0.00393724  1
  Al0+  Al64  1  0.24861694  0.74924254  0.33134335  1
  Al0+  Al65  1  0.25101346  0.75183666  0.66476266  1
  Al0+  Al66  1  0.75095364  0.25013012  -0.00298256  1
  Al0+  Al67  1  0.75089992  0.25142541  0.34305686  1
  Al0+  Al68  1  0.75235749  0.25016479  0.66029194  1
  Al0+  Al69  1  0.75219338  0.75117312  0.00533977  1
  Al0+  Al70  1  0.75028757  0.75200024  0.32760195  1
  Al0+  Al71  1  0.74981607  0.75088199  0.67226641  1
  Al0+  Al72  1  0.43152340  0.81837682  0.98600681  1
  Al0+  Al73  1  0.82109616  0.07179182  0.35055414  1
  Al0+  Al74  1  0.67862411  0.42975262  0.01406412  1
  Al0+  Al75  1  0.93113047  0.31834227  0.98730571  1
  Al0+  Al76  1  0.07168213  0.17819888  0.65345919  1
  Al0+  Al77  1  0.07026126  0.67869526  0.32049438  1
  Al0+  Al78  1  0.57314707  0.17966860  0.32000974  1
  Al0+  Al79  1  0.67904906  0.93133088  0.67997120  1
  Al0+  Al80  1  0.17945044  0.42800563  0.68057058  1
  Al0+  Al81  1  0.81919921  0.06982046  0.01150417  1
  Al0+  Al82  1  0.32276468  0.57309283  0.68209789  1
  Al0+  Al83  1  0.18115320  0.92916787  0.01414096  1
  Al0+  Al84  1  0.67800152  0.43218629  0.34812713  1
  Al0+  Al85  1  0.06821109  0.67970911  0.98427938  1
  Al0+  Al86  1  0.81928284  0.57058568  0.67869823  1
  Al0+  Al87  1  0.82284225  0.57253959  0.01734606  1
  Al0+  Al88  1  0.57238789  0.67820296  0.65409226  1
  Al0+  Al89  1  0.57061479  0.18244511  0.98514556  1
  Al0+  Al90  1  0.42778871  0.32297883  0.31837357  1
  Al0+  Al91  1  0.17975533  0.42805576  0.01556247  1
  Al0+  Al92  1  0.57203226  0.67959180  0.31887213  1
  Al0+  Al93  1  0.92832450  0.32397358  0.64828412  1
  Al0+  Al94  1  0.42743663  0.82183905  0.64889506  1
  Al0+  Al95  1  0.06943620  0.17827204  0.31780430  1
  Si0+  Si96  1  0.32039779  0.57243406  0.01745467  1
  Si0+  Si97  1  0.67483948  0.92875752  0.01708755  1
  Si0+  Si98  1  0.57138069  0.17806229  0.65162385  1
  Si0+  Si99  1  0.17718379  0.92862163  0.68013343  1
  Si0+  Si100  1  0.82307445  0.07245745  0.68361998  1
  Si0+  Si101  1  0.42962417  0.31963564  0.65453565  1
  Si0+  Si102  1  0.18032078  0.92792424  0.35007186  1
  Si0+  Si103  1  0.67644912  0.42533074  0.68220262  1
  Si0+  Si104  1  0.42498989  0.32366307  0.98061355  1
  Si0+  Si105  1  0.92857585  0.82234809  0.65291066  1
  Si0+  Si106  1  0.82254641  0.57359078  0.34938332  1
  Si0+  Si107  1  0.67603703  0.92662883  0.34950049  1
  Si0+  Si108  1  0.57505027  0.67611279  0.98350418  1
  Si0+  Si109  1  0.07041777  0.67938975  0.65272234  1
  Si0+  Si110  1  0.42695302  0.82249718  0.31603776  1
  Si0+  Si111  1  0.07396967  0.17470049  0.98579092  1
  Si0+  Si112  1  0.31890458  0.57219495  0.34759609  1
  Si0+  Si113  1  0.17827424  0.42724316  0.34769916  1
  Si0+  Si114  1  0.32041522  0.07099066  0.34785624  1
  Si0+  Si115  1  0.92767426  0.82494300  0.98346678  1
  Si0+  Si116  1  0.92832957  0.82277634  0.31670178  1
  Si0+  Si117  1  0.92812519  0.32184114  0.31584622  1
  Si0+  Si118  1  0.32102475  0.07015327  0.68140421  1
  Si0+  Si119  1  0.32476952  0.07208980  0.01890669  1
  O2-  O120  1  0.25259078  0.00637263  0.06252925  1
  O2-  O121  1  0.25018410  -0.00012968  0.39245303  1
  O2-  O122  1  0.24900641  -0.00087085  0.72168652  1
  O2-  O123  1  0.25667532  0.50001408  0.06373440  1
  O2-  O124  1  0.24959646  0.49859153  0.38924216  1
  O2-  O125  1  0.24801699  0.50340512  0.73095394  1
  O2-  O126  1  0.74532506  -0.00479210  0.06142706  1
  O2-  O127  1  0.74354825  -0.00279670  0.39333506  1
  O2-  O128  1  0.75074695  0.00819980  0.72807343  1
  O2-  O129  1  0.74528411  0.50592511  0.06599440  1
  O2-  O130  1  0.75045260  0.50954351  0.39473724  1
  O2-  O131  1  0.74524023  0.49463381  0.72423294  1
  O2-  O132  1  -0.00482289  0.25195309  0.27067851  1
  O2-  O133  1  0.00099089  0.25029727  0.60175829  1
  O2-  O134  1  0.00832264  0.24497287  0.94100779  1
  O2-  O135  1  -0.00622116  0.75098495  0.27319860  1
  O2-  O136  1  -0.00082995  0.75046158  0.61061850  1
  O2-  O137  1  -0.00973209  0.75146052  0.93742335  1
  O2-  O138  1  0.50412092  0.25451244  0.26988693  1
  O2-  O139  1  0.50527637  0.25418590  0.61101233  1
  O2-  O140  1  0.49650049  0.25743457  0.93661735  1
  O2-  O141  1  0.49856555  0.75650510  0.27338101  1
  O2-  O142  1  0.49817150  0.74748699  0.60170731  1
  O2-  O143  1  0.50905172  0.74718968  0.93929229  1
  O2-  O144  1  0.07112776  0.17511123  0.09155398  1
  O2-  O145  1  0.07148733  0.18022400  0.43073216  1
  O2-  O146  1  0.07000626  0.17359919  0.76683427  1
  O2-  O147  1  0.06963428  0.68186038  0.09759130  1
  O2-  O148  1  0.07121469  0.68076945  0.43418344  1
  O2-  O149  1  0.07034137  0.68069691  0.75763018  1
  O2-  O150  1  0.57068675  0.18257077  0.09788933  1
  O2-  O151  1  0.56782261  0.17868284  0.43417474  1
  O2-  O152  1  0.56998212  0.17688935  0.75683668  1
  O2-  O153  1  0.57150212  0.67739179  0.08949553  1
  O2-  O154  1  0.57149033  0.67946336  0.43181324  1
  O2-  O155  1  0.57328327  0.68197006  0.76736925  1
  O2-  O156  1  0.17813373  0.42861754  0.24264820  1
  O2-  O157  1  0.18279844  0.42833228  0.56612063  1
  O2-  O158  1  0.17958243  0.42957257  0.90264873  1
  O2-  O159  1  0.18189058  0.92661797  0.24512687  1
  O2-  O160  1  0.17646298  0.92837399  0.57478594  1
  O2-  O161  1  0.18155711  0.93022719  0.90056315  1
  O2-  O162  1  0.68003501  0.43105412  0.23548703  1
  O2-  O163  1  0.67450082  0.42633014  0.57646303  1
  O2-  O164  1  0.68146961  0.42918969  0.90025808  1
  O2-  O165  1  0.67679575  0.92477211  0.24404370  1
  O2-  O166  1  0.68181872  0.93213213  0.56657689  1
  O2-  O167  1  0.67489105  0.93094468  0.91127172  1
  O2-  O168  1  0.42308243  0.32089297  0.08594656  1
  O2-  O169  1  0.42638775  0.32084075  0.43293507  1
  O2-  O170  1  0.42785987  0.31578762  0.75938211  1
  O2-  O171  1  0.43197996  0.81673585  0.09968040  1
  O2-  O172  1  0.42417981  0.82223085  0.42116818  1
  O2-  O173  1  0.42848972  0.82353581  0.76225732  1
  O2-  O174  1  0.93033177  0.31559342  0.10058965  1
  O2-  O175  1  0.93198095  0.32345280  0.42132671  1
  O2-  O176  1  0.92781430  0.32262566  0.76195275  1
  O2-  O177  1  0.93249723  0.82819579  0.08891155  1
  O2-  O178  1  0.92988782  0.82262151  0.42295776  1
  O2-  O179  1  0.93137275  0.82669159  0.75764179  1
  O2-  O180  1  0.32043616  0.06887786  0.24312611  1
  O2-  O181  1  0.32184642  0.07121570  0.57602472  1
  O2-  O182  1  0.32494268  0.07165845  0.91288119  1
  O2-  O183  1  0.31667937  0.57535149  0.24262731  1
  O2-  O184  1  0.32127387  0.57023440  0.56759918  1
  O2-  O185  1  0.31751124  0.57230164  0.91204500  1
  O2-  O186  1  0.82203553  0.07039340  0.23729155  1
  O2-  O187  1  0.82326470  0.06910327  0.57796974  1
  O2-  O188  1  0.81751212  0.06801904  0.89833661  1
  O2-  O189  1  0.82420053  0.57102419  0.24432175  1
  O2-  O190  1  0.81930394  0.57182484  0.56520112  1
  O2-  O191  1  0.82255667  0.56961718  0.90358513  1
  O2-  O192  1  0.04018808  0.07941512  0.26767817  1
  O2-  O193  1  0.04334791  0.07996749  0.59765546  1
  O2-  O194  1  0.04787789  0.08008639  0.94243412  1
  O2-  O195  1  0.04183479  0.58177424  0.26603904  1
  O2-  O196  1  0.04261911  0.58823648  0.60485967  1
  O2-  O197  1  0.03962435  0.58260051  0.93107665  1
  O2-  O198  1  0.54289421  0.08182896  0.26631078  1
  O2-  O199  1  0.53750435  0.08905068  0.60334352  1
  O2-  O200  1  0.53759170  0.08659308  0.92988644  1
  O2-  O201  1  0.53644756  0.58635029  0.26239999  1
  O2-  O202  1  0.54525256  0.57808111  0.60246754  1
  O2-  O203  1  0.54847646  0.58259942  0.93835025  1
  O2-  O204  1  0.16559841  0.20530169  0.26200042  1
  O2-  O205  1  0.17177575  0.20455628  0.60126781  1
  O2-  O206  1  0.17047309  0.19578652  0.94382775  1
  O2-  O207  1  0.16507896  0.71272776  0.26491979  1
  O2-  O208  1  0.16147474  0.70852931  0.60441947  1
  O2-  O209  1  0.16313750  0.71481596  0.93011335  1
  O2-  O210  1  0.67349119  0.20721214  0.27200883  1
  O2-  O211  1  0.66511556  0.19870359  0.60538921  1
  O2-  O212  1  0.66592826  0.21216367  0.92836015  1
  O2-  O213  1  0.66860965  0.70784939  0.26323628  1
  O2-  O214  1  0.66990999  0.71160507  0.60078833  1
  O2-  O215  1  0.67130838  0.69917954  0.94228873  1
  O2-  O216  1  0.08532596  0.46174412  0.07080113  1
  O2-  O217  1  0.08647143  0.45605246  0.39472750  1
  O2-  O218  1  0.08048314  0.45599963  0.73097116  1
  O2-  O219  1  0.08547202  0.95548983  0.07235994  1
  O2-  O220  1  0.08828300  0.95410013  0.39774332  1
  O2-  O221  1  0.08579855  0.95658611  0.72859717  1
  O2-  O222  1  0.57711296  0.45069479  0.06533203  1
  O2-  O223  1  0.57864440  0.46159476  0.39864655  1
  O2-  O224  1  0.58289319  0.44651618  0.72984291  1
  O2-  O225  1  0.58132675  0.95598535  0.06179662  1
  O2-  O226  1  0.58130265  0.95081129  0.39448187  1
  O2-  O227  1  0.58171017  0.96144616  0.73317388  1
  O2-  O228  1  0.20813101  0.33027949  0.06974450  1
  O2-  O229  1  0.20649528  0.33444720  0.39277147  1
  O2-  O230  1  0.21056922  0.33071736  0.73456542  1
  O2-  O231  1  0.21643959  0.83347433  0.06787424  1
  O2-  O232  1  0.20919898  0.83621620  0.39800320  1
  O2-  O233  1  0.20422549  0.83713543  0.72800043  1
  O2-  O234  1  0.71299298  0.33275528  0.06621810  1
  O2-  O235  1  0.70833878  0.33715778  0.40546672  1
  O2-  O236  1  0.70332621  0.33044850  0.72561457  1
  O2-  O237  1  0.69697818  0.83419762  0.06257479  1
  O2-  O238  1  0.70531694  0.83373465  0.39620470  1
  O2-  O239  1  0.71173839  0.83724945  0.73675388  1
  O2-  O240  1  0.44812647  0.42228106  0.26523891  1
  O2-  O241  1  0.45203040  0.41310346  0.60802293  1
  O2-  O242  1  0.44597896  0.41918268  0.93682523  1
  O2-  O243  1  0.44908585  0.91671914  0.26962720  1
  O2-  O244  1  0.45795706  0.92011127  0.59576919  1
  O2-  O245  1  0.45649293  0.91619272  0.93131157  1
  O2-  O246  1  0.95465780  0.41471902  0.26910326  1
  O2-  O247  1  0.95752615  0.42138551  0.59323095  1
  O2-  O248  1  0.96310077  0.41458018  0.93417717  1
  O2-  O249  1  0.95921006  0.91476378  0.27126505  1
  O2-  O250  1  0.95766722  0.91223336  0.60168330  1
  O2-  O251  1  0.96000659  0.91610169  0.93565172  1
  O2-  O252  1  0.33231438  0.28885496  0.26316888  1
  O2-  O253  1  0.34010350  0.28697766  0.60548598  1
  O2-  O254  1  0.33257318  0.29301972  0.93393538  1
  O2-  O255  1  0.33456681  0.79294848  0.26931340  1
  O2-  O256  1  0.32772301  0.79777989  0.59536531  1
  O2-  O257  1  0.33583534  0.78667561  0.93122394  1
  O2-  O258  1  0.83345760  0.29553792  0.27440572  1
  O2-  O259  1  0.83045525  0.29516947  0.59326283  1
  O2-  O260  1  0.83680374  0.28618982  0.93050974  1
  O2-  O261  1  0.83404656  0.80462147  0.26967970  1
  O2-  O262  1  0.83731580  0.79390853  0.60571547  1
  O2-  O263  1  0.83059377  0.80686509  0.94129303  1
  O2-  O264  1  0.41674217  0.04071319  0.06491752  1
  O2-  O265  1  0.41251195  0.04382553  0.39629899  1
  O2-  O266  1  0.41178906  0.04126330  0.73021619  1
  O2-  O267  1  0.41610800  0.55179727  0.06166830  1
  O2-  O268  1  0.41115074  0.54640102  0.39441962  1
  O2-  O269  1  0.41967873  0.54349873  0.73710882  1
  O2-  O270  1  0.91487857  0.03936822  0.06835204  1
  O2-  O271  1  0.91639817  0.03627644  0.40593071  1
  O2-  O272  1  0.91546989  0.04210784  0.72905283  1
  O2-  O273  1  0.91938552  0.53848177  0.06968909  1
  O2-  O274  1  0.91568825  0.54437940  0.39620582  1
  O2-  O275  1  0.91589929  0.54001348  0.73254054  1
  O2-  O276  1  0.30457059  0.16642085  0.06499804  1
  O2-  O277  1  0.29090360  0.16284635  0.39489643  1
  O2-  O278  1  0.29468254  0.16041914  0.73237497  1
  O2-  O279  1  0.28999159  0.66422030  0.06391680  1
  O2-  O280  1  0.28829732  0.66291730  0.39644882  1
  O2-  O281  1  0.29633359  0.67351347  0.73149420  1
  O2-  O282  1  0.78688556  0.16525115  0.06584305  1
  O2-  O283  1  0.79299768  0.16698550  0.40799738  1
  O2-  O284  1  0.80043665  0.16842112  0.72536301  1
  O2-  O285  1  0.80477110  0.67454418  0.06864820  1
  O2-  O286  1  0.80257125  0.67075037  0.39093122  1
  O2-  O287  1  0.79254357  0.66673682  0.73574254  1
