# generated using pymatgen
data_Ca2Al2SiO7
_symmetry_space_group_name_H-M   'P 1'
_cell_length_a   15.45806340
_cell_length_b   15.45835932
_cell_length_c   15.28401417
_cell_angle_alpha   89.99544915
_cell_angle_beta   89.99108118
_cell_angle_gamma   90.00974114
_symmetry_Int_Tables_number   1
_chemical_formula_structural   Ca2Al2SiO7
_chemical_formula_sum   'Ca48 Al48 Si24 O168'
_cell_volume   3652.21134143
_cell_formula_units_Z   24
loop_
 _symmetry_equiv_pos_site_id
 _symmetry_equiv_pos_as_xyz
  1  'x, y, z'
loop_
 _atom_type_symbol
 _atom_type_oxidation_number
  Ca2+  2.0
  Al0+  0.0
  Si0+  0.0
  O2-  -2.0
loop_
 _atom_site_type_symbol
 _atom_site_label
 _atom_site_symmetry_multiplicity
 _atom_site_fract_x
 _atom_site_fract_y
 _atom_site_fract_z
 _atom_site_occupancy
  Ca2+  Ca0  1  0.16835912  0.07739132  0.17597648  1
  Ca2+  Ca1  1  0.17686043  0.08845256  0.50359188  1
  Ca2+  Ca2  1  0.17074080  0.09381095  0.83402476  1
  Ca2+  Ca3  1  0.17486244  0.57889831  0.17073394  1
  Ca2+  Ca4  1  0.17018876  0.58477977  0.49953777  1
  Ca2+  Ca5  1  0.17244542  0.57155815  0.84289727  1
  Ca2+  Ca6  1  0.67520935  0.08538526  0.17034108  1
  Ca2+  Ca7  1  0.66402104  0.07667424  0.50395826  1
  Ca2+  Ca8  1  0.66334682  0.08574978  0.83710133  1
  Ca2+  Ca9  1  0.67345303  0.58099625  0.17432745  1
  Ca2+  Ca10  1  0.67749236  0.57717270  0.50856587  1
  Ca2+  Ca11  1  0.66956175  0.57446118  0.83016763  1
  Ca2+  Ca12  1  0.07632707  0.32657068  0.15601844  1
  Ca2+  Ca13  1  0.07998208  0.32798930  0.50193432  1
  Ca2+  Ca14  1  0.07824478  0.32722867  0.82993722  1
  Ca2+  Ca15  1  0.09206101  0.82773419  0.16796174  1
  Ca2+  Ca16  1  0.08436197  0.82742182  0.49086346  1
  Ca2+  Ca17  1  0.08074040  0.83000797  0.82913606  1
  Ca2+  Ca18  1  0.57660470  0.32780753  0.16243344  1
  Ca2+  Ca19  1  0.57689604  0.33409541  0.50001663  1
  Ca2+  Ca20  1  0.58206847  0.32261348  0.82374959  1
  Ca2+  Ca21  1  0.57905927  0.83443141  0.16246103  1
  Ca2+  Ca22  1  0.58205377  0.84160839  0.49932890  1
  Ca2+  Ca23  1  0.57250385  0.83639543  0.82556166  1
  Ca2+  Ca24  1  0.32900726  0.42094533  0.17325553  1
  Ca2+  Ca25  1  0.34189564  0.41860229  0.50441521  1
  Ca2+  Ca26  1  0.32908233  0.41647219  0.84126292  1
  Ca2+  Ca27  1  0.33058941  0.92291646  0.17440136  1
  Ca2+  Ca28  1  0.33178774  0.92815491  0.50471696  1
  Ca2+  Ca29  1  0.33965849  0.92033999  0.83281634  1
  Ca2+  Ca30  1  0.83343922  0.41692321  0.17066681  1
  Ca2+  Ca31  1  0.83413046  0.42537396  0.50984102  1
  Ca2+  Ca32  1  0.83520566  0.40925908  0.83175639  1
  Ca2+  Ca33  1  0.82772462  0.93080481  0.17567128  1
  Ca2+  Ca34  1  0.82149513  0.92074757  0.50272601  1
  Ca2+  Ca35  1  0.82446777  0.92524727  0.83729401  1
  Ca2+  Ca36  1  0.41985160  0.16734763  0.16444927  1
  Ca2+  Ca37  1  0.41578623  0.17245808  0.49933848  1
  Ca2+  Ca38  1  0.42600572  0.16907864  0.82123228  1
  Ca2+  Ca39  1  0.40941567  0.67128840  0.16156185  1
  Ca2+  Ca40  1  0.41528311  0.67310649  0.49348743  1
  Ca2+  Ca41  1  0.40993478  0.67732448  0.83062827  1
  Ca2+  Ca42  1  0.91814793  0.16643373  0.15394415  1
  Ca2+  Ca43  1  0.91562522  0.16832150  0.49808301  1
  Ca2+  Ca44  1  0.92482993  0.17310741  0.82933914  1
  Ca2+  Ca45  1  0.92186065  0.66435286  0.16823294  1
  Ca2+  Ca46  1  0.91836497  0.66281141  0.49135411  1
  Ca2+  Ca47  1  0.91630421  0.66524641  0.82625400  1
  Al0+  Al48  1  -0.00006711  -0.00127394  -0.00073640  1
  Al0+  Al49  1  -0.00184716  -0.00148888  0.34028433  1
  Al0+  Al50  1  0.00074609  -0.00318709  0.66206392  1
  Al0+  Al51  1  0.00010352  0.49973112  0.00077998  1
  Al0+  Al52  1  0.00151145  0.50011203  0.33057836  1
  Al0+  Al53  1  0.00330027  0.50030765  0.66740404  1
  Al0+  Al54  1  0.49884941  -0.00240508  -0.00604943  1
  Al0+  Al55  1  0.49947516  0.00147697  0.33728773  1
  Al0+  Al56  1  0.49807824  -0.00012452  0.66623817  1
  Al0+  Al57  1  0.50254222  0.50232723  0.00409540  1
  Al0+  Al58  1  0.49858567  0.50096755  0.33087571  1
  Al0+  Al59  1  0.50330150  0.50295747  0.66989887  1
  Al0+  Al60  1  0.24947794  0.24996540  0.00385253  1
  Al0+  Al61  1  0.24800958  0.25146473  0.33066047  1
  Al0+  Al62  1  0.25031814  0.25049464  0.66443564  1
  Al0+  Al63  1  0.24995287  0.75033985  -0.00263955  1
  Al0+  Al64  1  0.24944241  0.74784979  0.33523905  1
  Al0+  Al65  1  0.24974597  0.75181754  0.66276640  1
  Al0+  Al66  1  0.74944096  0.25011716  -0.00248158  1
  Al0+  Al67  1  0.74838391  0.25021764  0.33629541  1
  Al0+  Al68  1  0.75114691  0.25037657  0.66076337  1
  Al0+  Al69  1  0.74862549  0.74871392  -0.00032886  1
  Al0+  Al70  1  0.75015062  0.74985661  0.33785411  1
  Al0+  Al71  1  0.74999607  0.75125195  0.67601351  1
  Al0+  Al72  1  0.42884742  0.81989409  0.64939941  1
  Al0+  Al73  1  0.93042712  0.32176999  0.64963429  1
  Al0+  Al74  1  0.07298349  0.17560603  0.98647310  1
  Al0+  Al75  1  0.17826531  0.42692355  0.01678440  1
  Al0+  Al76  1  0.07116203  0.67917760  0.31768326  1
  Al0+  Al77  1  0.82159805  0.07432418  0.34958803  1
  Al0+  Al78  1  0.67909623  0.42700677  0.68225780  1
  Al0+  Al79  1  0.92855732  0.32207846  0.98550162  1
  Al0+  Al80  1  0.31805434  0.07113074  0.68194816  1
  Al0+  Al81  1  0.07153203  0.17695079  0.64944690  1
  Al0+  Al82  1  0.32142280  0.57203468  0.01460461  1
  Al0+  Al83  1  0.17930563  0.92721610  0.34817171  1
  Al0+  Al84  1  0.42925006  0.81824703  0.98674131  1
  Al0+  Al85  1  0.57214334  0.17777129  0.64961221  1
  Al0+  Al86  1  0.67831853  0.93185615  0.68341587  1
  Al0+  Al87  1  0.42934534  0.32400979  0.65422768  1
  Al0+  Al88  1  0.81973409  0.07033863  0.01071164  1
  Al0+  Al89  1  0.82184632  0.56820439  0.34488655  1
  Al0+  Al90  1  0.82397545  0.56981230  0.68336225  1
  Al0+  Al91  1  0.42828252  0.32219622  0.31759471  1
  Al0+  Al92  1  0.31996578  0.07402491  0.34796290  1
  Al0+  Al93  1  0.56879568  0.17996629  0.98778063  1
  Al0+  Al94  1  0.67827972  0.92899128  0.34700260  1
  Al0+  Al95  1  0.32107943  0.56934535  0.34845676  1
  Si0+  Si96  1  0.92843117  0.32054579  0.31872580  1
  Si0+  Si97  1  0.32252312  0.06964685  0.01322286  1
  Si0+  Si98  1  0.57217943  0.67928910  0.31893169  1
  Si0+  Si99  1  0.32199673  0.57421451  0.68063897  1
  Si0+  Si100  1  0.92617095  0.82174750  0.31623375  1
  Si0+  Si101  1  0.82137899  0.57320427  0.01668657  1
  Si0+  Si102  1  0.42986804  0.82110400  0.31888841  1
  Si0+  Si103  1  0.67647645  0.42850280  0.34883701  1
  Si0+  Si104  1  0.17807402  0.92828508  0.01339878  1
  Si0+  Si105  1  0.68010890  0.42829936  0.01626376  1
  Si0+  Si106  1  0.67621485  0.92736979  0.01590100  1
  Si0+  Si107  1  0.57141254  0.17726902  0.31559986  1
  Si0+  Si108  1  0.06969966  0.68027128  0.98464924  1
  Si0+  Si109  1  0.17749314  0.92607459  0.68462071  1
  Si0+  Si110  1  0.92680276  0.81958730  0.65166127  1
  Si0+  Si111  1  0.92684140  0.82057026  0.98577527  1
  Si0+  Si112  1  0.07055956  0.67984265  0.65202872  1
  Si0+  Si113  1  0.42822335  0.32393467  0.98612833  1
  Si0+  Si114  1  0.57577910  0.67605007  0.98178497  1
  Si0+  Si115  1  0.82476130  0.07189082  0.68355199  1
  Si0+  Si116  1  0.06905454  0.17735054  0.31840159  1
  Si0+  Si117  1  0.18142807  0.43008261  0.68102668  1
  Si0+  Si118  1  0.57359709  0.68005196  0.64982122  1
  Si0+  Si119  1  0.17767530  0.42842783  0.35141100  1
  O2-  O120  1  0.24669181  0.00249912  0.05397931  1
  O2-  O121  1  0.24740608  0.00223182  0.39797746  1
  O2-  O122  1  0.24167001  -0.00215090  0.73004907  1
  O2-  O123  1  0.25343699  0.49680271  0.06551666  1
  O2-  O124  1  0.24962574  0.49298692  0.39706618  1
  O2-  O125  1  0.25667920  0.49794018  0.72205593  1
  O2-  O126  1  0.74510451  -0.00421866  0.05903259  1
  O2-  O127  1  0.74886303  0.00206470  0.39719616  1
  O2-  O128  1  0.75107788  0.00900710  0.72924648  1
  O2-  O129  1  0.75132004  0.50054801  0.05751280  1
  O2-  O130  1  0.74886502  0.49344995  0.39219586  1
  O2-  O131  1  0.75502994  0.49520061  0.73364336  1
  O2-  O132  1  -0.00599331  0.24448925  0.27646084  1
  O2-  O133  1  -0.00308658  0.24552368  0.59817124  1
  O2-  O134  1  0.00252356  0.25028203  0.93852996  1
  O2-  O135  1  -0.00234824  0.75584820  0.27073777  1
  O2-  O136  1  -0.00308507  0.74764293  0.60986563  1
  O2-  O137  1  -0.00394455  0.74814747  0.94192154  1
  O2-  O138  1  0.50202499  0.24587280  0.27162674  1
  O2-  O139  1  0.50177977  0.25337056  0.60263876  1
  O2-  O140  1  0.49348113  0.25357518  0.94077141  1
  O2-  O141  1  0.50226745  0.75148573  0.27621213  1
  O2-  O142  1  0.50440659  0.74626601  0.60258657  1
  O2-  O143  1  0.50380931  0.74276777  0.94034534  1
  O2-  O144  1  0.06997410  0.17265072  0.10058821  1
  O2-  O145  1  0.07090901  0.18080372  0.42310554  1
  O2-  O146  1  0.07162324  0.17964288  0.76298158  1
  O2-  O147  1  0.07037892  0.68236420  0.08951858  1
  O2-  O148  1  0.06914200  0.67887423  0.43100300  1
  O2-  O149  1  0.07175251  0.68198939  0.75759820  1
  O2-  O150  1  0.56813132  0.18096163  0.10120878  1
  O2-  O151  1  0.57223177  0.17729830  0.42051843  1
  O2-  O152  1  0.56858197  0.17808126  0.76381380  1
  O2-  O153  1  0.58150195  0.67791627  0.08749862  1
  O2-  O154  1  0.57141762  0.67784928  0.42367150  1
  O2-  O155  1  0.57136456  0.68104689  0.75561649  1
  O2-  O156  1  0.17705664  0.43073001  0.24599144  1
  O2-  O157  1  0.17847416  0.43359132  0.57591916  1
  O2-  O158  1  0.17854849  0.42990022  0.90260082  1
  O2-  O159  1  0.18261451  0.92794888  0.23349461  1
  O2-  O160  1  0.18033497  0.92154395  0.57967889  1
  O2-  O161  1  0.17738607  0.92386629  0.90861055  1
  O2-  O162  1  0.67777526  0.42964949  0.24249928  1
  O2-  O163  1  0.67706197  0.43372795  0.56868152  1
  O2-  O164  1  0.67871812  0.42897228  0.91179715  1
  O2-  O165  1  0.67903922  0.92868104  0.23280093  1
  O2-  O166  1  0.68182554  0.92933560  0.57063336  1
  O2-  O167  1  0.67720023  0.92677481  0.91052728  1
  O2-  O168  1  0.43108357  0.32297080  0.09192180  1
  O2-  O169  1  0.43206553  0.32490138  0.43011717  1
  O2-  O170  1  0.42765600  0.32260426  0.76825927  1
  O2-  O171  1  0.42981593  0.81941581  0.10032376  1
  O2-  O172  1  0.43031668  0.81910628  0.42372090  1
  O2-  O173  1  0.42679864  0.81632058  0.76278130  1
  O2-  O174  1  0.92790969  0.32081105  0.09993900  1
  O2-  O175  1  0.93145719  0.32326954  0.42332536  1
  O2-  O176  1  0.93544208  0.32283476  0.76296631  1
  O2-  O177  1  0.92662374  0.81938988  0.09052766  1
  O2-  O178  1  0.92492607  0.81755021  0.42183903  1
  O2-  O179  1  0.92948912  0.81951309  0.75743155  1
  O2-  O180  1  0.32019992  0.07074487  0.23326847  1
  O2-  O181  1  0.31714946  0.07075882  0.56923648  1
  O2-  O182  1  0.32380932  0.06796109  0.90841661  1
  O2-  O183  1  0.31945203  0.57077037  0.23561149  1
  O2-  O184  1  0.31901132  0.57616459  0.57557841  1
  O2-  O185  1  0.31702326  0.57299274  0.90053352  1
  O2-  O186  1  0.82125620  0.07457678  0.23525806  1
  O2-  O187  1  0.82620655  0.06584127  0.57817699  1
  O2-  O188  1  0.81977978  0.06750085  0.89804802  1
  O2-  O189  1  0.82008275  0.56687846  0.23112792  1
  O2-  O190  1  0.82366837  0.57087275  0.56966020  1
  O2-  O191  1  0.82087635  0.57739552  0.91225300  1
  O2-  O192  1  0.04536577  0.08253547  0.27462973  1
  O2-  O193  1  0.04915807  0.07593087  0.59859113  1
  O2-  O194  1  0.04520686  0.07739157  0.93228041  1
  O2-  O195  1  0.03827186  0.58374545  0.26164831  1
  O2-  O196  1  0.04705456  0.58765438  0.60446905  1
  O2-  O197  1  0.04354423  0.58798500  0.93784236  1
  O2-  O198  1  0.54563474  0.08350908  0.26906029  1
  O2-  O199  1  0.53918649  0.08085480  0.59779755  1
  O2-  O200  1  0.54007913  0.08322102  0.93366369  1
  O2-  O201  1  0.54405352  0.58888584  0.26861154  1
  O2-  O202  1  0.55064798  0.58590393  0.60453358  1
  O2-  O203  1  0.55252997  0.58133642  0.93710409  1
  O2-  O204  1  0.15941086  0.20722301  0.26907465  1
  O2-  O205  1  0.16765214  0.21179812  0.59626279  1
  O2-  O206  1  0.17261115  0.20381452  0.93546536  1
  O2-  O207  1  0.16781955  0.71070820  0.26307497  1
  O2-  O208  1  0.16042203  0.71079039  0.60268791  1
  O2-  O209  1  0.15939577  0.71132760  0.93510857  1
  O2-  O210  1  0.66531139  0.20515277  0.26953781  1
  O2-  O211  1  0.67162497  0.20031466  0.59725237  1
  O2-  O212  1  0.66413310  0.21143835  0.93330402  1
  O2-  O213  1  0.66431732  0.70679165  0.27073481  1
  O2-  O214  1  0.66813682  0.70742261  0.60690886  1
  O2-  O215  1  0.66783460  0.70336234  0.93295169  1
  O2-  O216  1  0.08041798  0.45937176  0.06935131  1
  O2-  O217  1  0.08607552  0.45966551  0.39775657  1
  O2-  O218  1  0.09287935  0.46355847  0.73119195  1
  O2-  O219  1  0.08587932  0.95164277  0.06229596  1
  O2-  O220  1  0.07867104  0.94683549  0.39904448  1
  O2-  O221  1  0.08108971  0.94555618  0.72803814  1
  O2-  O222  1  0.58923963  0.45671330  0.06618773  1
  O2-  O223  1  0.58500943  0.45959910  0.39408887  1
  O2-  O224  1  0.58316146  0.46135474  0.73919598  1
  O2-  O225  1  0.58197893  0.95245968  0.06066273  1
  O2-  O226  1  0.58028147  0.95561508  0.40060647  1
  O2-  O227  1  0.58036490  0.95911119  0.73583968  1
  O2-  O228  1  0.20283865  0.32803707  0.07144420  1
  O2-  O229  1  0.19872607  0.33348710  0.39515727  1
  O2-  O230  1  0.20602769  0.33805430  0.72831730  1
  O2-  O231  1  0.20948946  0.83783952  0.06160175  1
  O2-  O232  1  0.20884330  0.82986413  0.40129857  1
  O2-  O233  1  0.20720037  0.83347515  0.73242849  1
  O2-  O234  1  0.70876790  0.33779030  0.06549599  1
  O2-  O235  1  0.69655310  0.33399029  0.39360327  1
  O2-  O236  1  0.70432164  0.32646903  0.73241684  1
  O2-  O237  1  0.70160076  0.83286091  0.06090557  1
  O2-  O238  1  0.70665784  0.83144360  0.40187252  1
  O2-  O239  1  0.71110892  0.83678971  0.73995232  1
  O2-  O240  1  0.46066349  0.41841350  0.26208523  1
  O2-  O241  1  0.45677815  0.42439593  0.60341243  1
  O2-  O242  1  0.45454964  0.41848229  0.94254351  1
  O2-  O243  1  0.45592252  0.91394374  0.27201797  1
  O2-  O244  1  0.45906354  0.91636628  0.59721918  1
  O2-  O245  1  0.46040390  0.91278420  0.92927575  1
  O2-  O246  1  0.96061145  0.41018228  0.26919971  1
  O2-  O247  1  0.96584808  0.41949639  0.59759184  1
  O2-  O248  1  0.95469636  0.42185382  0.93363467  1
  O2-  O249  1  0.94918457  0.91720265  0.27248599  1
  O2-  O250  1  0.95459792  0.90960439  0.60168772  1
  O2-  O251  1  0.95727897  0.91015623  0.93607321  1
  O2-  O252  1  0.33026812  0.29371150  0.26403208  1
  O2-  O253  1  0.33149802  0.29689195  0.60019272  1
  O2-  O254  1  0.33258060  0.30215337  0.94390813  1
  O2-  O255  1  0.33875791  0.79012350  0.27211324  1
  O2-  O256  1  0.33258894  0.78785245  0.59527452  1
  O2-  O257  1  0.33318431  0.78791548  0.93018422  1
  O2-  O258  1  0.83326908  0.29942072  0.27407138  1
  O2-  O259  1  0.83052086  0.30159349  0.59712476  1
  O2-  O260  1  0.83115120  0.29326963  0.93231965  1
  O2-  O261  1  0.83382396  0.79252607  0.26887377  1
  O2-  O262  1  0.83444100  0.79160196  0.60657871  1
  O2-  O263  1  0.83471088  0.79353019  0.93787225  1
  O2-  O264  1  0.41202192  0.03545430  0.06176829  1
  O2-  O265  1  0.41780911  0.04614364  0.40019420  1
  O2-  O266  1  0.41340345  0.03658075  0.73545256  1
  O2-  O267  1  0.42310257  0.55321339  0.06536503  1
  O2-  O268  1  0.41925476  0.54276865  0.40101017  1
  O2-  O269  1  0.41597202  0.55550392  0.72667197  1
  O2-  O270  1  0.91594413  0.03719754  0.06534431  1
  O2-  O271  1  0.91862765  0.04592759  0.40393619  1
  O2-  O272  1  0.91687653  0.03882224  0.72921674  1
  O2-  O273  1  0.91396782  0.54741654  0.06313714  1
  O2-  O274  1  0.91891570  0.53887482  0.39791137  1
  O2-  O275  1  0.92422830  0.54497313  0.73527136  1
  O2-  O276  1  0.30150665  0.16295068  0.06033667  1
  O2-  O277  1  0.29013459  0.17243421  0.39938763  1
  O2-  O278  1  0.28854971  0.16865721  0.73557881  1
  O2-  O279  1  0.28666888  0.66937173  0.06700601  1
  O2-  O280  1  0.28768337  0.66438687  0.40293879  1
  O2-  O281  1  0.28620115  0.66360662  0.72826441  1
  O2-  O282  1  0.78898333  0.16684855  0.06527071  1
  O2-  O283  1  0.79440603  0.17267086  0.40271583  1
  O2-  O284  1  0.80644847  0.16888257  0.72348845  1
  O2-  O285  1  0.79178882  0.66437015  0.06562412  1
  O2-  O286  1  0.79260184  0.66452131  0.39881856  1
  O2-  O287  1  0.79354634  0.66703439  0.73820473  1
