# generated using pymatgen
data_Ca2Al2SiO7
_symmetry_space_group_name_H-M   'P 1'
_cell_length_a   15.46048995
_cell_length_b   15.46140572
_cell_length_c   15.28537692
_cell_angle_alpha   89.99353793
_cell_angle_beta   89.99271106
_cell_angle_gamma   89.98675019
_symmetry_Int_Tables_number   1
_chemical_formula_structural   Ca2Al2SiO7
_chemical_formula_sum   'Ca48 Al48 Si24 O168'
_cell_volume   3653.83022566
_cell_formula_units_Z   24
loop_
 _symmetry_equiv_pos_site_id
 _symmetry_equiv_pos_as_xyz
  1  'x, y, z'
loop_
 _atom_type_symbol
 _atom_type_oxidation_number
  Ca2+  2.0
  Al0+  0.0
  Si0+  0.0
  O2-  -2.0
loop_
 _atom_site_type_symbol
 _atom_site_label
 _atom_site_symmetry_multiplicity
 _atom_site_fract_x
 _atom_site_fract_y
 _atom_site_fract_z
 _atom_site_occupancy
  Ca2+  Ca0  1  0.17613273  0.08765325  0.17419581  1
  Ca2+  Ca1  1  0.17396687  0.08542962  0.50472286  1
  Ca2+  Ca2  1  0.17868304  0.08296635  0.83555421  1
  Ca2+  Ca3  1  0.16122475  0.58069932  0.17067348  1
  Ca2+  Ca4  1  0.17309877  0.59338828  0.50345665  1
  Ca2+  Ca5  1  0.16609467  0.58290032  0.83620674  1
  Ca2+  Ca6  1  0.67002586  0.07151222  0.17190347  1
  Ca2+  Ca7  1  0.67069027  0.07195444  0.51098141  1
  Ca2+  Ca8  1  0.66712387  0.07402013  0.83052594  1
  Ca2+  Ca9  1  0.67608809  0.58373783  0.16881897  1
  Ca2+  Ca10  1  0.66545642  0.58407743  0.50740602  1
  Ca2+  Ca11  1  0.67314881  0.58631364  0.83634107  1
  Ca2+  Ca12  1  0.08473320  0.33021226  0.16073405  1
  Ca2+  Ca13  1  0.08059676  0.32580049  0.49997958  1
  Ca2+  Ca14  1  0.07567653  0.33805149  0.83200407  1
  Ca2+  Ca15  1  0.08397503  0.81997789  0.16396840  1
  Ca2+  Ca16  1  0.07512620  0.82942829  0.49397593  1
  Ca2+  Ca17  1  0.07928538  0.82077404  0.82306466  1
  Ca2+  Ca18  1  0.57849154  0.32987696  0.16263429  1
  Ca2+  Ca19  1  0.57729433  0.32585444  0.50426378  1
  Ca2+  Ca20  1  0.57633228  0.32324825  0.81950632  1
  Ca2+  Ca21  1  0.57995260  0.84348018  0.16742878  1
  Ca2+  Ca22  1  0.57762382  0.83842568  0.50137101  1
  Ca2+  Ca23  1  0.58319355  0.83202970  0.82445320  1
  Ca2+  Ca24  1  0.32385602  0.42497313  0.17314293  1
  Ca2+  Ca25  1  0.33521228  0.42980611  0.50859456  1
  Ca2+  Ca26  1  0.32994476  0.42203232  0.83455172  1
  Ca2+  Ca27  1  0.33433816  0.92640367  0.17437408  1
  Ca2+  Ca28  1  0.33982539  0.92264221  0.50603178  1
  Ca2+  Ca29  1  0.34334453  0.92650277  0.83226644  1
  Ca2+  Ca30  1  0.84297158  0.42206733  0.16315242  1
  Ca2+  Ca31  1  0.83380478  0.41630964  0.50715408  1
  Ca2+  Ca32  1  0.83822606  0.41934032  0.83982862  1
  Ca2+  Ca33  1  0.82149350  0.90570453  0.17322489  1
  Ca2+  Ca34  1  0.82862348  0.91402963  0.50983658  1
  Ca2+  Ca35  1  0.82225378  0.90809220  0.83232071  1
  Ca2+  Ca36  1  0.41384187  0.16071570  0.16281941  1
  Ca2+  Ca37  1  0.41651381  0.16252033  0.49949897  1
  Ca2+  Ca38  1  0.41802433  0.16846995  0.82284099  1
  Ca2+  Ca39  1  0.41171594  0.67355703  0.16854201  1
  Ca2+  Ca40  1  0.41318184  0.67723022  0.49674126  1
  Ca2+  Ca41  1  0.42442012  0.67266281  0.81710954  1
  Ca2+  Ca42  1  0.92507912  0.17126218  0.16269553  1
  Ca2+  Ca43  1  0.91614840  0.16870903  0.49749770  1
  Ca2+  Ca44  1  0.91022108  0.17743462  0.82450261  1
  Ca2+  Ca45  1  0.92351029  0.66814148  0.16214677  1
  Ca2+  Ca46  1  0.92631194  0.67858699  0.49770008  1
  Ca2+  Ca47  1  0.92590866  0.66564270  0.82674479  1
  Al0+  Al48  1  0.00043204  -0.00064997  -0.00103775  1
  Al0+  Al49  1  -0.00124391  0.00223229  0.32185957  1
  Al0+  Al50  1  0.00070205  0.00168288  0.67064455  1
  Al0+  Al51  1  0.00105664  0.49963449  0.00106980  1
  Al0+  Al52  1  -0.00132885  0.49921188  0.33376284  1
  Al0+  Al53  1  0.00069592  0.49838095  0.65672533  1
  Al0+  Al54  1  0.50100398  0.00060278  0.00724443  1
  Al0+  Al55  1  0.50177441  0.00013999  0.33652790  1
  Al0+  Al56  1  0.50233804  -0.00017100  0.66870804  1
  Al0+  Al57  1  0.50031841  0.50055676  0.00087491  1
  Al0+  Al58  1  0.49928288  0.49940587  0.33496022  1
  Al0+  Al59  1  0.50016131  0.49868052  0.66585569  1
  Al0+  Al60  1  0.25061686  0.25172760  0.00693306  1
  Al0+  Al61  1  0.24958636  0.25219175  0.33423318  1
  Al0+  Al62  1  0.24824958  0.25274917  0.66855955  1
  Al0+  Al63  1  0.25110999  0.75275436  -0.00603508  1
  Al0+  Al64  1  0.25038456  0.75127308  0.32691073  1
  Al0+  Al65  1  0.25201509  0.74999738  0.66600041  1
  Al0+  Al66  1  0.74880584  0.24808753  -0.00206298  1
  Al0+  Al67  1  0.74792732  0.25014810  0.33079405  1
  Al0+  Al68  1  0.74860526  0.24968733  0.66134728  1
  Al0+  Al69  1  0.74864059  0.74887901  0.00959916  1
  Al0+  Al70  1  0.74836993  0.74691262  0.33631292  1
  Al0+  Al71  1  0.75119974  0.74804331  0.66453603  1
  Al0+  Al72  1  0.43024885  0.82194545  0.65275519  1
  Al0+  Al73  1  0.31957748  0.07128370  0.34878745  1
  Al0+  Al74  1  0.92853640  0.31975792  0.65293560  1
  Al0+  Al75  1  0.18068890  0.43259790  0.01334689  1
  Al0+  Al76  1  0.68141911  0.92713851  0.68276591  1
  Al0+  Al77  1  0.57293971  0.67749876  0.65291726  1
  Al0+  Al78  1  0.68141161  0.92840620  0.35011521  1
  Al0+  Al79  1  0.31935715  0.57201169  0.34678832  1
  Al0+  Al80  1  0.92551541  0.82164576  0.31697454  1
  Al0+  Al81  1  0.07231250  0.18050848  0.31960411  1
  Al0+  Al82  1  0.07091971  0.67962453  0.31665983  1
  Al0+  Al83  1  0.92948936  0.82282608  0.65450438  1
  Al0+  Al84  1  0.82361849  0.07333348  0.68117527  1
  Al0+  Al85  1  0.42542123  0.32109140  0.65205624  1
  Al0+  Al86  1  0.07248235  0.67803175  0.65088215  1
  Al0+  Al87  1  0.93071995  0.31805756  0.98676898  1
  Al0+  Al88  1  0.56966287  0.17807996  0.65123037  1
  Al0+  Al89  1  0.32023843  0.07113074  0.67980153  1
  Al0+  Al90  1  0.31842443  0.06898934  0.01420342  1
  Al0+  Al91  1  0.07058742  0.67970062  0.98447629  1
  Al0+  Al92  1  0.68188413  0.93053151  0.01560206  1
  Al0+  Al93  1  0.32149002  0.57236911  0.68061845  1
  Al0+  Al94  1  0.43171593  0.82224839  0.31815196  1
  Al0+  Al95  1  0.82026954  0.56827163  0.01277096  1
  Si0+  Si96  1  0.57081639  0.67425600  0.31461673  1
  Si0+  Si97  1  0.67750248  0.42721351  0.34908682  1
  Si0+  Si98  1  0.67893690  0.42809084  0.68136319  1
  Si0+  Si99  1  0.57158977  0.67819208  0.98730507  1
  Si0+  Si100  1  0.92457935  0.82132137  0.98379231  1
  Si0+  Si101  1  0.82271868  0.07402791  0.34747588  1
  Si0+  Si102  1  0.17592054  0.92569596  0.01664181  1
  Si0+  Si103  1  0.17636758  0.42956697  0.68326003  1
  Si0+  Si104  1  0.07538977  0.17710417  0.98234162  1
  Si0+  Si105  1  0.42830418  0.32218849  0.98675731  1
  Si0+  Si106  1  0.17694154  0.92698988  0.68315738  1
  Si0+  Si107  1  0.07331201  0.17751859  0.65302277  1
  Si0+  Si108  1  0.32488857  0.57508181  0.01579614  1
  Si0+  Si109  1  0.17612175  0.42859589  0.35245928  1
  Si0+  Si110  1  0.67590503  0.42508970  0.01595328  1
  Si0+  Si111  1  0.82354804  0.07546214  0.01738920  1
  Si0+  Si112  1  0.82191333  0.56796756  0.67962353  1
  Si0+  Si113  1  0.82082095  0.56834906  0.35111703  1
  Si0+  Si114  1  0.17624013  0.92899330  0.34698803  1
  Si0+  Si115  1  0.43169380  0.82246102  0.98574582  1
  Si0+  Si116  1  0.42937653  0.32242613  0.31683384  1
  Si0+  Si117  1  0.56868488  0.17840728  0.98600284  1
  Si0+  Si118  1  0.56968356  0.17975414  0.31639648  1
  Si0+  Si119  1  0.92558757  0.32120710  0.31526430  1
  O2-  O120  1  0.24084349  -0.00218244  0.06135711  1
  O2-  O121  1  0.24368589  -0.00250754  0.39401779  1
  O2-  O122  1  0.24715099  -0.00483589  0.72717665  1
  O2-  O123  1  0.25425959  0.50868051  0.06018806  1
  O2-  O124  1  0.24168724  0.50072015  0.39462215  1
  O2-  O125  1  0.24521307  0.49874217  0.72676905  1
  O2-  O126  1  0.76115488  0.00129407  0.06192966  1
  O2-  O127  1  0.76104201  0.00000051  0.39230449  1
  O2-  O128  1  0.75538625  -0.00191115  0.73221931  1
  O2-  O129  1  0.74573106  0.49232210  0.06047134  1
  O2-  O130  1  0.74917649  0.49690700  0.39178200  1
  O2-  O131  1  0.75011007  0.49850275  0.72375573  1
  O2-  O132  1  -0.00396523  0.25405280  0.27262684  1
  O2-  O133  1  -0.00060630  0.24079862  0.60869815  1
  O2-  O134  1  0.00165631  0.24041988  0.93848043  1
  O2-  O135  1  -0.00149248  0.75099352  0.26583754  1
  O2-  O136  1  0.00449305  0.75491167  0.60365805  1
  O2-  O137  1  -0.00262839  0.75714725  0.93981543  1
  O2-  O138  1  0.49706841  0.24881318  0.27281625  1
  O2-  O139  1  0.49293999  0.24545835  0.60082348  1
  O2-  O140  1  0.50098404  0.25309890  0.94497564  1
  O2-  O141  1  0.50534212  0.74599009  0.27017207  1
  O2-  O142  1  0.50001186  0.74772372  0.60272016  1
  O2-  O143  1  0.49748717  0.74569034  0.94558171  1
  O2-  O144  1  0.07639684  0.18088549  0.08809397  1
  O2-  O145  1  0.07204622  0.18264982  0.43262372  1
  O2-  O146  1  0.07688943  0.18129534  0.75848988  1
  O2-  O147  1  0.06934404  0.67924359  0.09739169  1
  O2-  O148  1  0.06973059  0.68090046  0.42963903  1
  O2-  O149  1  0.06839084  0.67525481  0.76493045  1
  O2-  O150  1  0.56737716  0.17933995  0.09170114  1
  O2-  O151  1  0.57141242  0.18250851  0.42073128  1
  O2-  O152  1  0.56908698  0.18087540  0.76564470  1
  O2-  O153  1  0.57153204  0.67607327  0.09231272  1
  O2-  O154  1  0.56915171  0.66965726  0.41949585  1
  O2-  O155  1  0.57330950  0.67768058  0.76757160  1
  O2-  O156  1  0.17773259  0.42743451  0.24639666  1
  O2-  O157  1  0.17580548  0.42792273  0.57785346  1
  O2-  O158  1  0.18214140  0.43188718  0.90046863  1
  O2-  O159  1  0.18034913  0.93072054  0.24107394  1
  O2-  O160  1  0.17473039  0.92925619  0.57761359  1
  O2-  O161  1  0.17757014  0.92482628  0.91132566  1
  O2-  O162  1  0.67642298  0.42696368  0.24370515  1
  O2-  O163  1  0.68043516  0.42806731  0.57589580  1
  O2-  O164  1  0.67322346  0.42558695  0.91079128  1
  O2-  O165  1  0.68027082  0.93279418  0.23632144  1
  O2-  O166  1  0.68201785  0.92836819  0.56950157  1
  O2-  O167  1  0.67941324  0.92975729  0.90328115  1
  O2-  O168  1  0.43062089  0.32282408  0.09227559  1
  O2-  O169  1  0.43198284  0.32384615  0.42126521  1
  O2-  O170  1  0.42854165  0.32071870  0.76657592  1
  O2-  O171  1  0.43264212  0.82328555  0.09099356  1
  O2-  O172  1  0.43257747  0.82318509  0.43033856  1
  O2-  O173  1  0.43293360  0.82131872  0.76727064  1
  O2-  O174  1  0.93270672  0.31708234  0.10007980  1
  O2-  O175  1  0.92264549  0.32015929  0.42061078  1
  O2-  O176  1  0.93038236  0.32327178  0.76608211  1
  O2-  O177  1  0.92355607  0.81745811  0.08928006  1
  O2-  O178  1  0.92711543  0.82034355  0.43026618  1
  O2-  O179  1  0.92884698  0.81695912  0.76851205  1
  O2-  O180  1  0.31961061  0.07065351  0.23522804  1
  O2-  O181  1  0.31724848  0.07117221  0.56689155  1
  O2-  O182  1  0.32103595  0.06886130  0.90134795  1
  O2-  O183  1  0.32107326  0.56744188  0.23310203  1
  O2-  O184  1  0.32108399  0.57121295  0.56757315  1
  O2-  O185  1  0.32864431  0.57187932  0.91067576  1
  O2-  O186  1  0.81706856  0.07989077  0.24194750  1
  O2-  O187  1  0.82127229  0.07446873  0.56731908  1
  O2-  O188  1  0.81906976  0.08074960  0.91263833  1
  O2-  O189  1  0.82067586  0.56636020  0.24560762  1
  O2-  O190  1  0.82034448  0.56481941  0.57444439  1
  O2-  O191  1  0.81814495  0.56784790  0.89960531  1
  O2-  O192  1  0.04557605  0.08576302  0.25951011  1
  O2-  O193  1  0.05533132  0.08233277  0.60830770  1
  O2-  O194  1  0.05750307  0.08021906  0.93991181  1
  O2-  O195  1  0.04092576  0.57916323  0.26714996  1
  O2-  O196  1  0.04101850  0.58267414  0.59460444  1
  O2-  O197  1  0.03728506  0.58358805  0.93214427  1
  O2-  O198  1  0.54217595  0.08821535  0.26911802  1
  O2-  O199  1  0.54547562  0.07945837  0.59943427  1
  O2-  O200  1  0.53641442  0.08789321  0.93996101  1
  O2-  O201  1  0.54325138  0.58144666  0.26634386  1
  O2-  O202  1  0.54870325  0.57779829  0.60174289  1
  O2-  O203  1  0.54906375  0.58450405  0.93988460  1
  O2-  O204  1  0.16791026  0.21510817  0.26401254  1
  O2-  O205  1  0.16295663  0.21052132  0.60337646  1
  O2-  O206  1  0.16775479  0.20942384  0.93769769  1
  O2-  O207  1  0.16848797  0.70697689  0.26094373  1
  O2-  O208  1  0.17197207  0.70372894  0.60135671  1
  O2-  O209  1  0.16868024  0.70800721  0.93096190  1
  O2-  O210  1  0.66010107  0.21079385  0.26651399  1
  O2-  O211  1  0.66420480  0.21286488  0.59500253  1
  O2-  O212  1  0.66113037  0.20257053  0.93893238  1
  O2-  O213  1  0.66609182  0.69727678  0.27123721  1
  O2-  O214  1  0.67068981  0.70352791  0.59861065  1
  O2-  O215  1  0.66312872  0.70871394  0.94149564  1
  O2-  O216  1  0.08483872  0.46119316  0.06956636  1
  O2-  O217  1  0.08022378  0.44840607  0.39636432  1
  O2-  O218  1  0.08226584  0.45722897  0.72797790  1
  O2-  O219  1  0.07998967  0.94499981  0.06143460  1
  O2-  O220  1  0.08071353  0.95464208  0.38876642  1
  O2-  O221  1  0.08509725  0.95278459  0.73334713  1
  O2-  O222  1  0.58320366  0.45275982  0.06459940  1
  O2-  O223  1  0.58639717  0.45508146  0.39694870  1
  O2-  O224  1  0.58771861  0.45423143  0.73054146  1
  O2-  O225  1  0.58801283  0.96741357  0.07196950  1
  O2-  O226  1  0.58678877  0.96494059  0.40267584  1
  O2-  O227  1  0.58421819  0.95826239  0.73706472  1
  O2-  O228  1  0.21284689  0.33764918  0.07099078  1
  O2-  O229  1  0.20602637  0.33687595  0.39899884  1
  O2-  O230  1  0.20075563  0.33693921  0.73212144  1
  O2-  O231  1  0.20695328  0.83349751  0.06327666  1
  O2-  O232  1  0.20154594  0.83501130  0.39083341  1
  O2-  O233  1  0.20255959  0.83357465  0.72924205  1
  O2-  O234  1  0.69969179  0.33094024  0.06241770  1
  O2-  O235  1  0.70545828  0.33505234  0.39591874  1
  O2-  O236  1  0.70707796  0.33663735  0.72855448  1
  O2-  O237  1  0.70709959  0.83361986  0.07254844  1
  O2-  O238  1  0.70405031  0.82850661  0.40047410  1
  O2-  O239  1  0.71015122  0.82762036  0.73561999  1
  O2-  O240  1  0.46186384  0.41203395  0.26702815  1
  O2-  O241  1  0.46082788  0.41630626  0.59800833  1
  O2-  O242  1  0.45398830  0.41512149  0.94001283  1
  O2-  O243  1  0.46581724  0.91866579  0.26382139  1
  O2-  O244  1  0.46009722  0.91939067  0.60044351  1
  O2-  O245  1  0.46627590  0.91286599  0.94001230  1
  O2-  O246  1  0.95142094  0.41523058  0.27076255  1
  O2-  O247  1  0.96184886  0.41236287  0.59322729  1
  O2-  O248  1  0.96356782  0.41417116  0.93386117  1
  O2-  O249  1  0.94594300  0.92145701  0.26301112  1
  O2-  O250  1  0.95264403  0.92374794  0.60453381  1
  O2-  O251  1  0.94320351  0.91830290  0.94152025  1
  O2-  O252  1  0.33639730  0.29772580  0.27064207  1
  O2-  O253  1  0.32540564  0.29970510  0.60063856  1
  O2-  O254  1  0.33688225  0.29289652  0.94094764  1
  O2-  O255  1  0.33556798  0.79313723  0.26177273  1
  O2-  O256  1  0.33130547  0.79726747  0.60038052  1
  O2-  O257  1  0.33850727  0.80288064  0.93801736  1
  O2-  O258  1  0.83208455  0.29609870  0.26764430  1
  O2-  O259  1  0.83213800  0.29337896  0.59699190  1
  O2-  O260  1  0.83096625  0.29321693  0.93483279  1
  O2-  O261  1  0.82760736  0.78632982  0.26577222  1
  O2-  O262  1  0.83409700  0.78946142  0.60004671  1
  O2-  O263  1  0.83136521  0.78997692  0.94038075  1
  O2-  O264  1  0.41346629  0.03573032  0.07035405  1
  O2-  O265  1  0.41686984  0.04092894  0.40008361  1
  O2-  O266  1  0.41700456  0.04157773  0.73426311  1
  O2-  O267  1  0.41756661  0.54753354  0.06418576  1
  O2-  O268  1  0.41536613  0.53717504  0.39947194  1
  O2-  O269  1  0.41780056  0.53827234  0.73488992  1
  O2-  O270  1  0.92104785  0.05709720  0.05886090  1
  O2-  O271  1  0.92024860  0.05684059  0.38760494  1
  O2-  O272  1  0.92414745  0.05531671  0.73466084  1
  O2-  O273  1  0.91480083  0.53512510  0.06903139  1
  O2-  O274  1  0.91190405  0.53921103  0.39889989  1
  O2-  O275  1  0.91376355  0.53695895  0.72493220  1
  O2-  O276  1  0.29191873  0.16644426  0.06937374  1
  O2-  O277  1  0.29101482  0.16979467  0.39980539  1
  O2-  O278  1  0.28854188  0.16816836  0.73389894  1
  O2-  O279  1  0.30147672  0.67090794  0.05779636  1
  O2-  O280  1  0.29184773  0.67099364  0.39689586  1
  O2-  O281  1  0.29477350  0.66949929  0.73588578  1
  O2-  O282  1  0.79191836  0.16637129  0.06693623  1
  O2-  O283  1  0.79156034  0.16643019  0.39427835  1
  O2-  O284  1  0.78851654  0.17117833  0.73301346  1
  O2-  O285  1  0.78701427  0.66155879  0.07183371  1
  O2-  O286  1  0.79205524  0.65900693  0.39878759  1
  O2-  O287  1  0.79543359  0.65926791  0.72775763  1
