# generated using pymatgen
data_Ca2Al2SiO7
_symmetry_space_group_name_H-M   'P 1'
_cell_length_a   15.45723947
_cell_length_b   15.45718832
_cell_length_c   15.28281017
_cell_angle_alpha   90.00590304
_cell_angle_beta   90.00372249
_cell_angle_gamma   89.99805438
_symmetry_Int_Tables_number   1
_chemical_formula_structural   Ca2Al2SiO7
_chemical_formula_sum   'Ca48 Al48 Si24 O168'
_cell_volume   3651.45244148
_cell_formula_units_Z   24
loop_
 _symmetry_equiv_pos_site_id
 _symmetry_equiv_pos_as_xyz
  1  'x, y, z'
loop_
 _atom_type_symbol
 _atom_type_oxidation_number
  Ca2+  2.0
  Al0+  0.0
  Si0+  0.0
  O2-  -2.0
loop_
 _atom_site_type_symbol
 _atom_site_label
 _atom_site_symmetry_multiplicity
 _atom_site_fract_x
 _atom_site_fract_y
 _atom_site_fract_z
 _atom_site_occupancy
  Ca2+  Ca0  1  0.16338455  0.07668757  0.17626273  1
  Ca2+  Ca1  1  0.15765943  0.07540751  0.50370859  1
  Ca2+  Ca2  1  0.16309128  0.07930723  0.83032637  1
  Ca2+  Ca3  1  0.17841834  0.59101318  0.17607943  1
  Ca2+  Ca4  1  0.17065156  0.58694380  0.49863218  1
  Ca2+  Ca5  1  0.17634719  0.58391983  0.83770751  1
  Ca2+  Ca6  1  0.66897718  0.07596638  0.17615698  1
  Ca2+  Ca7  1  0.67123484  0.08496901  0.50201643  1
  Ca2+  Ca8  1  0.66163558  0.06680142  0.83680004  1
  Ca2+  Ca9  1  0.66574324  0.57670173  0.17579560  1
  Ca2+  Ca10  1  0.67307865  0.57650497  0.50074148  1
  Ca2+  Ca11  1  0.66602714  0.57661720  0.83562605  1
  Ca2+  Ca12  1  0.07537725  0.33302722  0.16989800  1
  Ca2+  Ca13  1  0.07713765  0.32079290  0.48970456  1
  Ca2+  Ca14  1  0.08246284  0.32589473  0.82389568  1
  Ca2+  Ca15  1  0.07899582  0.83057238  0.16771889  1
  Ca2+  Ca16  1  0.08022884  0.83255467  0.49480670  1
  Ca2+  Ca17  1  0.07023473  0.83579346  0.82528945  1
  Ca2+  Ca18  1  0.58660774  0.33610059  0.16867529  1
  Ca2+  Ca19  1  0.57998978  0.33857721  0.49182562  1
  Ca2+  Ca20  1  0.58108006  0.33965354  0.82806343  1
  Ca2+  Ca21  1  0.59058339  0.81806499  0.16081484  1
  Ca2+  Ca22  1  0.58038835  0.83080632  0.49648673  1
  Ca2+  Ca23  1  0.58512285  0.82854029  0.82592015  1
  Ca2+  Ca24  1  0.33645647  0.42730422  0.17415141  1
  Ca2+  Ca25  1  0.34363933  0.41993869  0.50018823  1
  Ca2+  Ca26  1  0.33569804  0.42113014  0.83816182  1
  Ca2+  Ca27  1  0.32447280  0.91705316  0.17647851  1
  Ca2+  Ca28  1  0.32133113  0.91281896  0.50633840  1
  Ca2+  Ca29  1  0.32862805  0.91079614  0.83157305  1
  Ca2+  Ca30  1  0.82386884  0.42038832  0.18025905  1
  Ca2+  Ca31  1  0.82899296  0.42341941  0.50365398  1
  Ca2+  Ca32  1  0.82285318  0.42231564  0.83669904  1
  Ca2+  Ca33  1  0.83218341  0.91874348  0.16941302  1
  Ca2+  Ca34  1  0.83028142  0.92069622  0.50540125  1
  Ca2+  Ca35  1  0.82558084  0.90852182  0.83442553  1
  Ca2+  Ca36  1  0.42259299  0.17195417  0.17020190  1
  Ca2+  Ca37  1  0.42534311  0.17944250  0.49176566  1
  Ca2+  Ca38  1  0.41992247  0.17515655  0.82300309  1
  Ca2+  Ca39  1  0.42665424  0.65633869  0.16566140  1
  Ca2+  Ca40  1  0.42237337  0.67020100  0.49195250  1
  Ca2+  Ca41  1  0.42294442  0.66804462  0.83145443  1
  Ca2+  Ca42  1  0.91118695  0.16922707  0.17397892  1
  Ca2+  Ca43  1  0.92229165  0.16715333  0.48973926  1
  Ca2+  Ca44  1  0.92348332  0.16692302  0.82688273  1
  Ca2+  Ca45  1  0.91878031  0.66786861  0.16473946  1
  Ca2+  Ca46  1  0.91453540  0.66864170  0.49359676  1
  Ca2+  Ca47  1  0.91009791  0.67645728  0.82780966  1
  Al0+  Al48  1  0.00023365  0.00031622  -0.00424816  1
  Al0+  Al49  1  -0.00194569  -0.00075839  0.33659098  1
  Al0+  Al50  1  0.00014867  -0.00199907  0.66457242  1
  Al0+  Al51  1  0.00099279  0.49830550  -0.00347485  1
  Al0+  Al52  1  0.00240788  0.50128311  0.32773968  1
  Al0+  Al53  1  0.00221778  0.50093582  0.67356908  1
  Al0+  Al54  1  0.49906199  -0.00014198  0.00534056  1
  Al0+  Al55  1  0.49643583  0.00142750  0.33028655  1
  Al0+  Al56  1  0.49863449  0.00061321  0.66594324  1
  Al0+  Al57  1  0.49983729  0.50027283  0.00189522  1
  Al0+  Al58  1  0.49909144  0.50246939  0.33477612  1
  Al0+  Al59  1  0.50095434  0.50115090  0.66703321  1
  Al0+  Al60  1  0.24979019  0.24952439  0.00002578  1
  Al0+  Al61  1  0.25073892  0.24953515  0.32397925  1
  Al0+  Al62  1  0.25148046  0.24986414  0.65825619  1
  Al0+  Al63  1  0.25037092  0.75039109  0.00413209  1
  Al0+  Al64  1  0.24797663  0.75076790  0.33847679  1
  Al0+  Al65  1  0.25004080  0.75103459  0.66993335  1
  Al0+  Al66  1  0.74995468  0.24893180  0.00007060  1
  Al0+  Al67  1  0.74933755  0.24754241  0.33442626  1
  Al0+  Al68  1  0.75105003  0.25067531  0.67322474  1
  Al0+  Al69  1  0.74997323  0.74890054  -0.00477445  1
  Al0+  Al70  1  0.74854849  0.75003534  0.33236582  1
  Al0+  Al71  1  0.75117358  0.75047692  0.66728421  1
  Al0+  Al72  1  0.67927465  0.42904707  0.34850275  1
  Al0+  Al73  1  0.42817754  0.82143980  0.65367780  1
  Al0+  Al74  1  0.32009771  0.56980957  0.34943460  1
  Al0+  Al75  1  0.17858391  0.92902928  0.68260635  1
  Al0+  Al76  1  0.82392827  0.57200723  0.68323366  1
  Al0+  Al77  1  0.82442577  0.57288595  0.34625421  1
  Al0+  Al78  1  0.31880053  0.57012659  0.01379652  1
  Al0+  Al79  1  0.67831814  0.42918584  0.68287829  1
  Al0+  Al80  1  0.07000363  0.17592996  0.31655688  1
  Al0+  Al81  1  0.17950991  0.93090690  0.34767265  1
  Al0+  Al82  1  0.92818623  0.81858520  0.65075942  1
  Al0+  Al83  1  0.43039673  0.32335481  0.31563397  1
  Al0+  Al84  1  0.43141163  0.32258957  0.65373736  1
  Al0+  Al85  1  0.57266594  0.17747616  0.31790406  1
  Al0+  Al86  1  0.68035719  0.42902766  0.01559259  1
  Al0+  Al87  1  0.67747402  0.93084187  0.67825648  1
  Al0+  Al88  1  0.06957629  0.17960200  0.65250511  1
  Al0+  Al89  1  0.92823398  0.32213179  0.31986428  1
  Al0+  Al90  1  0.93115317  0.82009792  0.98586993  1
  Al0+  Al91  1  0.81855501  0.06894167  0.34684410  1
  Al0+  Al92  1  0.56932986  0.67829002  0.98479244  1
  Al0+  Al93  1  0.57037594  0.68193418  0.32083616  1
  Al0+  Al94  1  0.07158399  0.67970643  0.32085820  1
  Al0+  Al95  1  0.67871420  0.92700686  0.01432234  1
  Si0+  Si96  1  0.07485675  0.67734909  0.98260018  1
  Si0+  Si97  1  0.07164173  0.18012891  0.98334866  1
  Si0+  Si98  1  0.32111033  0.07383439  0.01551301  1
  Si0+  Si99  1  0.57361478  0.17735568  0.65286951  1
  Si0+  Si100  1  0.32261102  0.07437693  0.35094285  1
  Si0+  Si101  1  0.92743422  0.32134583  0.98305899  1
  Si0+  Si102  1  0.42576561  0.82190065  0.31711737  1
  Si0+  Si103  1  0.92692022  0.82149916  0.31718679  1
  Si0+  Si104  1  0.17862162  0.93175511  0.01446842  1
  Si0+  Si105  1  0.57149834  0.17652343  0.98408045  1
  Si0+  Si106  1  0.32055954  0.07310894  0.68236229  1
  Si0+  Si107  1  0.82367845  0.57168235  0.01641322  1
  Si0+  Si108  1  0.82310433  0.07159037  0.68437390  1
  Si0+  Si109  1  0.42643728  0.82457546  0.98447427  1
  Si0+  Si110  1  0.67477556  0.92686449  0.34900558  1
  Si0+  Si111  1  0.18074839  0.42651163  0.67995827  1
  Si0+  Si112  1  0.43012600  0.31902687  0.98482412  1
  Si0+  Si113  1  0.92776777  0.32390335  0.65242291  1
  Si0+  Si114  1  0.17825535  0.42599044  0.34916914  1
  Si0+  Si115  1  0.57181921  0.67896448  0.64913106  1
  Si0+  Si116  1  0.07362975  0.67689901  0.65168975  1
  Si0+  Si117  1  0.82312346  0.07087070  0.01565667  1
  Si0+  Si118  1  0.32083029  0.57130385  0.68195117  1
  Si0+  Si119  1  0.17685384  0.42536460  0.01664486  1
  O2-  O120  1  0.25220016  -0.00000358  0.05638936  1
  O2-  O121  1  0.25216277  0.00766582  0.39470043  1
  O2-  O122  1  0.25377185  0.00376682  0.72976853  1
  O2-  O123  1  0.24066127  0.49848198  0.05995416  1
  O2-  O124  1  0.24801494  0.49225876  0.39589002  1
  O2-  O125  1  0.25109063  0.49807387  0.72320730  1
  O2-  O126  1  0.75347364  0.00266798  0.05885478  1
  O2-  O127  1  0.74092556  -0.00256693  0.39336249  1
  O2-  O128  1  0.75135367  0.00567486  0.72784396  1
  O2-  O129  1  0.75709341  0.50184871  0.06090900  1
  O2-  O130  1  0.75517515  0.49834496  0.39620530  1
  O2-  O131  1  0.75137495  0.50010766  0.73304273  1
  O2-  O132  1  -0.00018040  0.24991268  0.26707592  1
  O2-  O133  1  -0.00608954  0.25348576  0.60784716  1
  O2-  O134  1  0.00110802  0.25189374  0.94149247  1
  O2-  O135  1  -0.00719059  0.74967429  0.27353664  1
  O2-  O136  1  0.00148391  0.74130737  0.60737893  1
  O2-  O137  1  0.00404454  0.74310130  0.93816322  1
  O2-  O138  1  0.50396175  0.25225197  0.26611631  1
  O2-  O139  1  0.51032327  0.25131895  0.60999485  1
  O2-  O140  1  0.50111203  0.24840337  0.94140325  1
  O2-  O141  1  0.49759917  0.75797572  0.27171672  1
  O2-  O142  1  0.50395876  0.74928308  0.60618695  1
  O2-  O143  1  0.49682525  0.75741325  0.94063408  1
  O2-  O144  1  0.07306972  0.17850314  0.08757348  1
  O2-  O145  1  0.06765412  0.17603934  0.43006149  1
  O2-  O146  1  0.06978358  0.18208563  0.76682029  1
  O2-  O147  1  0.07658438  0.67969427  0.08792826  1
  O2-  O148  1  0.07408577  0.68330421  0.43379649  1
  O2-  O149  1  0.07643551  0.67917393  0.75770866  1
  O2-  O150  1  0.57028367  0.17538877  0.08848986  1
  O2-  O151  1  0.56917205  0.17428795  0.43152963  1
  O2-  O152  1  0.56897176  0.17456308  0.75908686  1
  O2-  O153  1  0.56777710  0.67756746  0.09768055  1
  O2-  O154  1  0.56929008  0.68413864  0.43389862  1
  O2-  O155  1  0.56873608  0.67792771  0.75527289  1
  O2-  O156  1  0.17922329  0.42819941  0.24322423  1
  O2-  O157  1  0.17919581  0.42634315  0.57559484  1
  O2-  O158  1  0.17988597  0.42208488  0.91047846  1
  O2-  O159  1  0.18089387  0.93127409  0.23345481  1
  O2-  O160  1  0.17939268  0.92875740  0.57019282  1
  O2-  O161  1  0.17849733  0.93322063  0.90941811  1
  O2-  O162  1  0.67967169  0.43232551  0.23452200  1
  O2-  O163  1  0.67729290  0.42994322  0.57016351  1
  O2-  O164  1  0.68042611  0.42929361  0.90244164  1
  O2-  O165  1  0.67778093  0.92602798  0.24308863  1
  O2-  O166  1  0.67778025  0.93323724  0.56547108  1
  O2-  O167  1  0.67745067  0.92907136  0.90100194  1
  O2-  O168  1  0.42850799  0.31713740  0.08907557  1
  O2-  O169  1  0.43166547  0.32156309  0.42940390  1
  O2-  O170  1  0.42894358  0.32078364  0.76786160  1
  O2-  O171  1  0.42349108  0.82592150  0.08969341  1
  O2-  O172  1  0.42608437  0.82020402  0.42291523  1
  O2-  O173  1  0.42763586  0.81743235  0.76722536  1
  O2-  O174  1  0.92746838  0.32168382  0.08751582  1
  O2-  O175  1  0.93118788  0.32107194  0.43359839  1
  O2-  O176  1  0.93111721  0.32146005  0.75887287  1
  O2-  O177  1  0.93513867  0.82268254  0.09884440  1
  O2-  O178  1  0.92754538  0.82242758  0.42259917  1
  O2-  O179  1  0.93020126  0.81961753  0.76438041  1
  O2-  O180  1  0.32314095  0.07060371  0.24457858  1
  O2-  O181  1  0.31954109  0.07309894  0.57756656  1
  O2-  O182  1  0.31996268  0.07792492  0.91047272  1
  O2-  O183  1  0.31865749  0.57034480  0.23618309  1
  O2-  O184  1  0.32004452  0.57221026  0.57732620  1
  O2-  O185  1  0.31828156  0.56776723  0.89987983  1
  O2-  O186  1  0.81980020  0.06429931  0.23323579  1
  O2-  O187  1  0.82307720  0.07169502  0.57908028  1
  O2-  O188  1  0.82414887  0.07160867  0.90993767  1
  O2-  O189  1  0.82202060  0.57384152  0.23227135  1
  O2-  O190  1  0.82532977  0.56998851  0.57008288  1
  O2-  O191  1  0.82348119  0.56953404  0.91077700  1
  O2-  O192  1  0.03723140  0.07836479  0.26382573  1
  O2-  O193  1  0.03958862  0.08286731  0.60060520  1
  O2-  O194  1  0.04236181  0.08929357  0.93415643  1
  O2-  O195  1  0.05022967  0.58296142  0.26309326  1
  O2-  O196  1  0.05416803  0.58047598  0.60907804  1
  O2-  O197  1  0.05502285  0.58115343  0.93801062  1
  O2-  O198  1  0.53927726  0.08035305  0.26191101  1
  O2-  O199  1  0.54379693  0.08671845  0.60437623  1
  O2-  O200  1  0.54017779  0.08498603  0.93695694  1
  O2-  O201  1  0.53612469  0.58700283  0.26672944  1
  O2-  O202  1  0.54274803  0.58675716  0.60346727  1
  O2-  O203  1  0.53308306  0.58327112  0.92987038  1
  O2-  O204  1  0.16890231  0.20036149  0.26280765  1
  O2-  O205  1  0.16528386  0.20943174  0.59781393  1
  O2-  O206  1  0.16363017  0.20804893  0.93496789  1
  O2-  O207  1  0.16600683  0.71765106  0.26555013  1
  O2-  O208  1  0.16589828  0.70639067  0.60575235  1
  O2-  O209  1  0.16807538  0.70597029  0.93643115  1
  O2-  O210  1  0.67184925  0.19939053  0.26475290  1
  O2-  O211  1  0.67042624  0.19719733  0.61176847  1
  O2-  O212  1  0.66425628  0.20150843  0.93706896  1
  O2-  O213  1  0.66645317  0.71109152  0.26393997  1
  O2-  O214  1  0.66553047  0.70400862  0.60520164  1
  O2-  O215  1  0.66609423  0.70641773  0.93020099  1
  O2-  O216  1  0.08075319  0.44574397  0.05931832  1
  O2-  O217  1  0.08549614  0.45341718  0.39481994  1
  O2-  O218  1  0.09045538  0.45232442  0.73250437  1
  O2-  O219  1  0.08819837  0.96394692  0.06165872  1
  O2-  O220  1  0.08275811  0.95939382  0.40131290  1
  O2-  O221  1  0.08275797  0.96286580  0.73705756  1
  O2-  O222  1  0.58330344  0.45983292  0.06707969  1
  O2-  O223  1  0.58244235  0.46238594  0.40067530  1
  O2-  O224  1  0.58009283  0.46073131  0.73697766  1
  O2-  O225  1  0.58188609  0.95657405  0.06867837  1
  O2-  O226  1  0.57880906  0.94965878  0.39116189  1
  O2-  O227  1  0.58077026  0.96089872  0.73464427  1
  O2-  O228  1  0.20559816  0.33309123  0.06358559  1
  O2-  O229  1  0.20158628  0.33006320  0.39137413  1
  O2-  O230  1  0.21083339  0.33516378  0.72823319  1
  O2-  O231  1  0.20323600  0.83902515  0.06142904  1
  O2-  O232  1  0.21227792  0.83666769  0.40403556  1
  O2-  O233  1  0.21058206  0.83335735  0.73892677  1
  O2-  O234  1  0.70871435  0.33005805  0.06621610  1
  O2-  O235  1  0.70160654  0.32857384  0.39840314  1
  O2-  O236  1  0.70339895  0.32978102  0.73795629  1
  O2-  O237  1  0.71162882  0.83031767  0.06626734  1
  O2-  O238  1  0.70248724  0.83482358  0.39598825  1
  O2-  O239  1  0.70870392  0.83454938  0.73231194  1
  O2-  O240  1  0.45740525  0.42236331  0.26431845  1
  O2-  O241  1  0.45848133  0.42020281  0.60071169  1
  O2-  O242  1  0.45783465  0.41085058  0.93778627  1
  O2-  O243  1  0.44380924  0.91754793  0.27230504  1
  O2-  O244  1  0.45453730  0.91933400  0.60033313  1
  O2-  O245  1  0.44854148  0.91982889  0.93940170  1
  O2-  O246  1  0.95823301  0.41846382  0.26278772  1
  O2-  O247  1  0.95624968  0.41756535  0.60966033  1
  O2-  O248  1  0.95423239  0.41314064  0.93388756  1
  O2-  O249  1  0.95781770  0.91276751  0.27004126  1
  O2-  O250  1  0.96119316  0.91451649  0.59799590  1
  O2-  O251  1  0.96424277  0.91591322  0.93015111  1
  O2-  O252  1  0.33275849  0.29483737  0.26029204  1
  O2-  O253  1  0.33709167  0.29075555  0.59722388  1
  O2-  O254  1  0.33743001  0.29090998  0.93732672  1
  O2-  O255  1  0.33321034  0.79269295  0.27149921  1
  O2-  O256  1  0.33165474  0.78874434  0.60086772  1
  O2-  O257  1  0.33286077  0.79611378  0.93824547  1
  O2-  O258  1  0.83122898  0.29051977  0.26619242  1
  O2-  O259  1  0.83234725  0.30124376  0.61003336  1
  O2-  O260  1  0.83701648  0.29030164  0.93428135  1
  O2-  O261  1  0.83288732  0.79943713  0.27048484  1
  O2-  O262  1  0.83090570  0.79196280  0.59672776  1
  O2-  O263  1  0.83468039  0.79065025  0.93092310  1
  O2-  O264  1  0.41261298  0.04866956  0.06431110  1
  O2-  O265  1  0.41556828  0.04792531  0.39781822  1
  O2-  O266  1  0.41411826  0.04894857  0.72986499  1
  O2-  O267  1  0.41332048  0.53490232  0.06751592  1
  O2-  O268  1  0.41605077  0.54131391  0.40475032  1
  O2-  O269  1  0.41239379  0.54388763  0.72984857  1
  O2-  O270  1  0.91687153  0.04391656  0.06106018  1
  O2-  O271  1  0.91316805  0.03602083  0.40292350  1
  O2-  O272  1  0.91522922  0.04183633  0.73122800  1
  O2-  O273  1  0.92004181  0.54845441  0.05868120  1
  O2-  O274  1  0.92537134  0.54931041  0.39599535  1
  O2-  O275  1  0.92276728  0.54628874  0.73942669  1
  O2-  O276  1  0.28998856  0.16385604  0.06458734  1
  O2-  O277  1  0.29967449  0.17005124  0.39270312  1
  O2-  O278  1  0.29241905  0.16659639  0.72919882  1
  O2-  O279  1  0.29185967  0.66766652  0.06848800  1
  O2-  O280  1  0.28618033  0.66506441  0.40373280  1
  O2-  O281  1  0.29044158  0.66094178  0.73235692  1
  O2-  O282  1  0.79814122  0.16462370  0.06108593  1
  O2-  O283  1  0.79221198  0.16538817  0.40273081  1
  O2-  O284  1  0.80312498  0.16618670  0.73175918  1
  O2-  O285  1  0.79863409  0.66596996  0.05958258  1
  O2-  O286  1  0.79305721  0.67084147  0.39896151  1
  O2-  O287  1  0.79337187  0.67007104  0.73544608  1
