# generated using pymatgen
data_Ca2Al2SiO7
_symmetry_space_group_name_H-M   'P 1'
_cell_length_a   15.45566075
_cell_length_b   15.45665099
_cell_length_c   15.28266807
_cell_angle_alpha   89.99636578
_cell_angle_beta   89.99098624
_cell_angle_gamma   89.99174083
_symmetry_Int_Tables_number   1
_chemical_formula_structural   Ca2Al2SiO7
_chemical_formula_sum   'Ca48 Al48 Si24 O168'
_cell_volume   3650.91857376
_cell_formula_units_Z   24
loop_
 _symmetry_equiv_pos_site_id
 _symmetry_equiv_pos_as_xyz
  1  'x, y, z'
loop_
 _atom_type_symbol
 _atom_type_oxidation_number
  Ca2+  2.0
  Al0+  0.0
  Si0+  0.0
  O2-  -2.0
loop_
 _atom_site_type_symbol
 _atom_site_label
 _atom_site_symmetry_multiplicity
 _atom_site_fract_x
 _atom_site_fract_y
 _atom_site_fract_z
 _atom_site_occupancy
  Ca2+  Ca0  1  0.17205207  0.08508573  0.16833003  1
  Ca2+  Ca1  1  0.16192124  0.07801132  0.50384878  1
  Ca2+  Ca2  1  0.17285095  0.07398881  0.83926074  1
  Ca2+  Ca3  1  0.16740328  0.58367051  0.17082881  1
  Ca2+  Ca4  1  0.17828619  0.59229187  0.50224029  1
  Ca2+  Ca5  1  0.17295446  0.58002102  0.84046652  1
  Ca2+  Ca6  1  0.67039070  0.07260991  0.17058048  1
  Ca2+  Ca7  1  0.67221207  0.07900646  0.49780235  1
  Ca2+  Ca8  1  0.67071050  0.07652773  0.84878339  1
  Ca2+  Ca9  1  0.66982548  0.58996067  0.17496946  1
  Ca2+  Ca10  1  0.67844369  0.59217608  0.50039978  1
  Ca2+  Ca11  1  0.67121097  0.59103148  0.83569923  1
  Ca2+  Ca12  1  0.07875739  0.33297239  0.16548300  1
  Ca2+  Ca13  1  0.07704768  0.32599577  0.48896774  1
  Ca2+  Ca14  1  0.08881400  0.33278169  0.83472304  1
  Ca2+  Ca15  1  0.07696184  0.81992888  0.15945023  1
  Ca2+  Ca16  1  0.07802707  0.83140839  0.49665099  1
  Ca2+  Ca17  1  0.07356083  0.83665935  0.82931592  1
  Ca2+  Ca18  1  0.57626907  0.32633499  0.15546053  1
  Ca2+  Ca19  1  0.57802180  0.33729812  0.49948476  1
  Ca2+  Ca20  1  0.57324411  0.32649050  0.83252898  1
  Ca2+  Ca21  1  0.58782939  0.82720286  0.15937844  1
  Ca2+  Ca22  1  0.57746450  0.82996039  0.49482204  1
  Ca2+  Ca23  1  0.57399247  0.83643394  0.83598645  1
  Ca2+  Ca24  1  0.32904262  0.42002166  0.16914500  1
  Ca2+  Ca25  1  0.33740951  0.43049977  0.50580789  1
  Ca2+  Ca26  1  0.33357794  0.41727453  0.83928253  1
  Ca2+  Ca27  1  0.34285141  0.92142164  0.16539563  1
  Ca2+  Ca28  1  0.32281389  0.91255853  0.50982150  1
  Ca2+  Ca29  1  0.33244054  0.91357753  0.83958081  1
  Ca2+  Ca30  1  0.83113714  0.42161812  0.17532173  1
  Ca2+  Ca31  1  0.84035304  0.42864430  0.50092439  1
  Ca2+  Ca32  1  0.83369438  0.42581162  0.83661405  1
  Ca2+  Ca33  1  0.82529590  0.91888075  0.16868729  1
  Ca2+  Ca34  1  0.82881169  0.91372590  0.50235047  1
  Ca2+  Ca35  1  0.83070480  0.91737927  0.84482395  1
  Ca2+  Ca36  1  0.42276828  0.16918995  0.15205391  1
  Ca2+  Ca37  1  0.41393399  0.17611941  0.49780782  1
  Ca2+  Ca38  1  0.41337885  0.17257487  0.83506410  1
  Ca2+  Ca39  1  0.42879082  0.66932837  0.15977671  1
  Ca2+  Ca40  1  0.41629992  0.66853771  0.49301405  1
  Ca2+  Ca41  1  0.41982298  0.67342915  0.82967255  1
  Ca2+  Ca42  1  0.91355749  0.16462969  0.16688900  1
  Ca2+  Ca43  1  0.92100673  0.17219315  0.48638204  1
  Ca2+  Ca44  1  0.91484813  0.16495054  0.83095220  1
  Ca2+  Ca45  1  0.92432947  0.66657370  0.15923746  1
  Ca2+  Ca46  1  0.91910961  0.66718566  0.49337260  1
  Ca2+  Ca47  1  0.91903117  0.67811543  0.83089471  1
  Al0+  Al48  1  0.00130058  0.00095684  0.00200281  1
  Al0+  Al49  1  0.00105100  0.00097739  0.33114810  1
  Al0+  Al50  1  -0.00041334  -0.00118523  0.66622635  1
  Al0+  Al51  1  0.00180790  0.49824040  -0.00059671  1
  Al0+  Al52  1  0.00012743  0.49815459  0.33058168  1
  Al0+  Al53  1  0.00034717  0.49972813  0.67177294  1
  Al0+  Al54  1  0.50125228  -0.00100108  0.00089962  1
  Al0+  Al55  1  0.49856452  0.00240577  0.34134035  1
  Al0+  Al56  1  0.50078598  0.00019849  0.66018709  1
  Al0+  Al57  1  0.50071905  0.49995698  -0.00809561  1
  Al0+  Al58  1  0.49898821  0.50196252  0.33326372  1
  Al0+  Al59  1  0.50182909  0.49822353  0.66702613  1
  Al0+  Al60  1  0.24745938  0.25041949  0.00546404  1
  Al0+  Al61  1  0.24822268  0.25055840  0.33126853  1
  Al0+  Al62  1  0.25124252  0.24972100  0.65983194  1
  Al0+  Al63  1  0.25036945  0.74723696  -0.00435849  1
  Al0+  Al64  1  0.24903180  0.75192953  0.33201899  1
  Al0+  Al65  1  0.24954237  0.74973178  0.67418832  1
  Al0+  Al66  1  0.75074622  0.25209761  -0.00138951  1
  Al0+  Al67  1  0.74735008  0.24940862  0.33463233  1
  Al0+  Al68  1  0.75045683  0.25054602  0.66521197  1
  Al0+  Al69  1  0.75223535  0.75026564  -0.00319661  1
  Al0+  Al70  1  0.74745752  0.75033522  0.33946900  1
  Al0+  Al71  1  0.75090503  0.75162612  0.66806413  1
  Al0+  Al72  1  0.82143706  0.57189816  0.68246086  1
  Al0+  Al73  1  0.42752402  0.82014607  0.65184644  1
  Al0+  Al74  1  0.67954559  0.92753084  0.01438440  1
  Al0+  Al75  1  0.17939477  0.42967373  0.01558908  1
  Al0+  Al76  1  0.31965029  0.06850438  0.01214858  1
  Al0+  Al77  1  0.07152587  0.17698015  0.31551483  1
  Al0+  Al78  1  0.93149279  0.82185387  0.98658713  1
  Al0+  Al79  1  0.92905717  0.82112598  0.65092537  1
  Al0+  Al80  1  0.42937283  0.82163245  0.98659189  1
  Al0+  Al81  1  0.42575368  0.32001294  0.98601762  1
  Al0+  Al82  1  0.32277908  0.57065711  0.68190440  1
  Al0+  Al83  1  0.07168561  0.67524090  0.98285759  1
  Al0+  Al84  1  0.67747249  0.92797046  0.35207626  1
  Al0+  Al85  1  0.92671743  0.32063461  0.31769410  1
  Al0+  Al86  1  0.57370198  0.67776780  0.98378621  1
  Al0+  Al87  1  0.82349534  0.07420736  0.01529792  1
  Al0+  Al88  1  0.57263755  0.17855028  0.98658993  1
  Al0+  Al89  1  0.42940993  0.32050351  0.65079143  1
  Al0+  Al90  1  0.17832125  0.92989611  0.68090384  1
  Al0+  Al91  1  0.07182797  0.67971082  0.32134419  1
  Al0+  Al92  1  0.82170950  0.07086878  0.34980705  1
  Al0+  Al93  1  0.56988423  0.68096072  0.32194004  1
  Al0+  Al94  1  0.32004278  0.57097038  0.34493373  1
  Al0+  Al95  1  0.82204645  0.56953688  0.34488802  1
  Si0+  Si96  1  0.67790132  0.42954990  0.01336601  1
  Si0+  Si97  1  0.32243520  0.07306912  0.68125673  1
  Si0+  Si98  1  0.81997153  0.56945360  0.01424571  1
  Si0+  Si99  1  0.82019422  0.07142155  0.68061372  1
  Si0+  Si100  1  0.17751138  0.92509201  0.01797751  1
  Si0+  Si101  1  0.57191459  0.67827207  0.64900726  1
  Si0+  Si102  1  0.42674513  0.82422330  0.31864246  1
  Si0+  Si103  1  0.32420946  0.57239253  0.01694615  1
  Si0+  Si104  1  0.57454230  0.17794190  0.64706338  1
  Si0+  Si105  1  0.67940531  0.42586654  0.68517524  1
  Si0+  Si106  1  0.17938891  0.42592039  0.68141475  1
  Si0+  Si107  1  0.07098171  0.17948041  0.98436763  1
  Si0+  Si108  1  0.07064700  0.67656371  0.65073974  1
  Si0+  Si109  1  0.42925179  0.32239743  0.31823471  1
  Si0+  Si110  1  0.92870979  0.32126357  0.98341481  1
  Si0+  Si111  1  0.92841361  0.32196535  0.65261347  1
  Si0+  Si112  1  0.67584879  0.42744025  0.34929645  1
  Si0+  Si113  1  0.56839800  0.17834232  0.31887290  1
  Si0+  Si114  1  0.67786450  0.93038886  0.68273122  1
  Si0+  Si115  1  0.92649485  0.82143575  0.31790066  1
  Si0+  Si116  1  0.18029759  0.92952717  0.34687290  1
  Si0+  Si117  1  0.32058611  0.07385672  0.35003892  1
  Si0+  Si118  1  0.06963735  0.17918001  0.65325881  1
  Si0+  Si119  1  0.17832454  0.42751058  0.35129740  1
  O2-  O120  1  0.24977194  -0.00956820  0.06194933  1
  O2-  O121  1  0.24992150  0.00200272  0.39062901  1
  O2-  O122  1  0.25755234  0.00120906  0.72546489  1
  O2-  O123  1  0.25426647  0.50468078  0.06112109  1
  O2-  O124  1  0.24487713  0.49801648  0.39533272  1
  O2-  O125  1  0.24796090  0.49424236  0.72567451  1
  O2-  O126  1  0.75101312  0.00151022  0.06274426  1
  O2-  O127  1  0.75311112  -0.00297404  0.40221331  1
  O2-  O128  1  0.74795347  0.00302444  0.72362943  1
  O2-  O129  1  0.74513762  0.50301633  0.05701933  1
  O2-  O130  1  0.74762222  0.49388927  0.39246248  1
  O2-  O131  1  0.74576046  0.49728691  0.72871943  1
  O2-  O132  1  -0.00308424  0.24713528  0.26681876  1
  O2-  O133  1  -0.00020264  0.25131464  0.61145698  1
  O2-  O134  1  -0.00398323  0.24623790  0.94128104  1
  O2-  O135  1  -0.00780145  0.74928339  0.27489996  1
  O2-  O136  1  0.00176317  0.74418922  0.60479982  1
  O2-  O137  1  0.00474740  0.75227691  0.93401514  1
  O2-  O138  1  0.49819312  0.24980843  0.27635851  1
  O2-  O139  1  0.50443568  0.24604574  0.60323813  1
  O2-  O140  1  0.49741808  0.24719731  0.93628696  1
  O2-  O141  1  0.49761775  0.75781074  0.27572503  1
  O2-  O142  1  0.49978045  0.74337488  0.60439607  1
  O2-  O143  1  0.49976083  0.74854922  0.93552481  1
  O2-  O144  1  0.07277914  0.18160134  0.08883781  1
  O2-  O145  1  0.07299915  0.17965841  0.43014275  1
  O2-  O146  1  0.06976574  0.17976418  0.75849288  1
  O2-  O147  1  0.06792460  0.67471266  0.09698550  1
  O2-  O148  1  0.07449393  0.68415275  0.43468270  1
  O2-  O149  1  0.06764240  0.67591380  0.75587460  1
  O2-  O150  1  0.57153017  0.18201493  0.10066626  1
  O2-  O151  1  0.56601834  0.17929969  0.42439434  1
  O2-  O152  1  0.57720158  0.17860324  0.75206667  1
  O2-  O153  1  0.57344858  0.67639363  0.09767202  1
  O2-  O154  1  0.56785832  0.67993320  0.43515588  1
  O2-  O155  1  0.57223855  0.68078846  0.75435337  1
  O2-  O156  1  0.18070603  0.42580149  0.24593843  1
  O2-  O157  1  0.17827389  0.42468168  0.57605798  1
  O2-  O158  1  0.18005560  0.42879175  0.90191499  1
  O2-  O159  1  0.18323959  0.92830824  0.24225520  1
  O2-  O160  1  0.17706679  0.93320119  0.56713695  1
  O2-  O161  1  0.17538468  0.93045936  0.91221397  1
  O2-  O162  1  0.67393241  0.42812470  0.24363177  1
  O2-  O163  1  0.68161498  0.42284331  0.57953762  1
  O2-  O164  1  0.68199707  0.42743472  0.90829234  1
  O2-  O165  1  0.67544369  0.92918664  0.23915254  1
  O2-  O166  1  0.67867955  0.93111686  0.57762956  1
  O2-  O167  1  0.68090516  0.92953035  0.90006762  1
  O2-  O168  1  0.42853918  0.31951046  0.10018305  1
  O2-  O169  1  0.43069632  0.32165789  0.42370268  1
  O2-  O170  1  0.42737087  0.31663809  0.76318811  1
  O2-  O171  1  0.43032932  0.81987933  0.10055569  1
  O2-  O172  1  0.42449594  0.82191326  0.42458851  1
  O2-  O173  1  0.43024125  0.82235378  0.76416074  1
  O2-  O174  1  0.92891918  0.32444644  0.08786168  1
  O2-  O175  1  0.93105768  0.32106885  0.43221237  1
  O2-  O176  1  0.92705123  0.32041409  0.75787439  1
  O2-  O177  1  0.93086148  0.81814307  0.10040226  1
  O2-  O178  1  0.92977182  0.82111744  0.42404979  1
  O2-  O179  1  0.93017512  0.82413799  0.76344151  1
  O2-  O180  1  0.32327811  0.07427943  0.24520240  1
  O2-  O181  1  0.31808391  0.07521329  0.57526783  1
  O2-  O182  1  0.31495445  0.07086663  0.89891556  1
  O2-  O183  1  0.32146224  0.56790224  0.23242951  1
  O2-  O184  1  0.32108627  0.57079215  0.56813486  1
  O2-  O185  1  0.32382929  0.57002587  0.91121178  1
  O2-  O186  1  0.81789382  0.07074387  0.23698338  1
  O2-  O187  1  0.82022038  0.07249688  0.57580904  1
  O2-  O188  1  0.82240397  0.07444516  0.90061247  1
  O2-  O189  1  0.82015873  0.56881981  0.23170533  1
  O2-  O190  1  0.82264311  0.56956840  0.56917960  1
  O2-  O191  1  0.82004681  0.56648111  0.90887142  1
  O2-  O192  1  0.04823601  0.07773705  0.26255558  1
  O2-  O193  1  0.03965819  0.08889843  0.60465774  1
  O2-  O194  1  0.04784328  0.08660097  0.93691026  1
  O2-  O195  1  0.04670925  0.58133940  0.26932365  1
  O2-  O196  1  0.04618856  0.58181885  0.60549161  1
  O2-  O197  1  0.03929408  0.57833229  0.92946689  1
  O2-  O198  1  0.53806308  0.08668403  0.27327779  1
  O2-  O199  1  0.54980964  0.08505224  0.59917634  1
  O2-  O200  1  0.54661645  0.08019004  0.93448566  1
  O2-  O201  1  0.53906668  0.58454201  0.26713424  1
  O2-  O202  1  0.55301487  0.58194760  0.60622409  1
  O2-  O203  1  0.54849869  0.57971762  0.92813930  1
  O2-  O204  1  0.16980769  0.20818107  0.26301840  1
  O2-  O205  1  0.16108042  0.20453287  0.60353820  1
  O2-  O206  1  0.16014309  0.21277687  0.93541312  1
  O2-  O207  1  0.16581259  0.71483650  0.26457093  1
  O2-  O208  1  0.16493016  0.70436422  0.60800872  1
  O2-  O209  1  0.17217508  0.69624283  0.93277995  1
  O2-  O210  1  0.66052313  0.20399484  0.27281545  1
  O2-  O211  1  0.66726770  0.20701505  0.59943677  1
  O2-  O212  1  0.66912109  0.21142522  0.93146972  1
  O2-  O213  1  0.66772464  0.70915135  0.26924041  1
  O2-  O214  1  0.66465602  0.70897903  0.60386067  1
  O2-  O215  1  0.67131702  0.70661832  0.93035124  1
  O2-  O216  1  0.08230875  0.45975526  0.06976419  1
  O2-  O217  1  0.08348933  0.44951071  0.39551919  1
  O2-  O218  1  0.08577376  0.44911423  0.72931436  1
  O2-  O219  1  0.08641023  0.95546598  0.06580274  1
  O2-  O220  1  0.08817412  0.95631512  0.39456651  1
  O2-  O221  1  0.08372533  0.96670415  0.73578799  1
  O2-  O222  1  0.58398625  0.45252035  0.05872591  1
  O2-  O223  1  0.58391279  0.45655639  0.39738090  1
  O2-  O224  1  0.58479746  0.44792529  0.72982542  1
  O2-  O225  1  0.58130012  0.95346977  0.06805807  1
  O2-  O226  1  0.58036176  0.96160193  0.40722518  1
  O2-  O227  1  0.58485718  0.95847265  0.72756032  1
  O2-  O228  1  0.20855469  0.33422414  0.07230040  1
  O2-  O229  1  0.20567493  0.33400542  0.39792761  1
  O2-  O230  1  0.20612597  0.33167021  0.72663949  1
  O2-  O231  1  0.19875232  0.82895523  0.06015036  1
  O2-  O232  1  0.20939958  0.83963726  0.39787217  1
  O2-  O233  1  0.20432309  0.83370413  0.73639614  1
  O2-  O234  1  0.70884260  0.33971219  0.06282315  1
  O2-  O235  1  0.69672717  0.33331681  0.39650241  1
  O2-  O236  1  0.70872913  0.33327814  0.73227840  1
  O2-  O237  1  0.71141530  0.82954041  0.06708364  1
  O2-  O238  1  0.70324702  0.83004236  0.40772224  1
  O2-  O239  1  0.70635015  0.83908979  0.72919524  1
  O2-  O240  1  0.45812920  0.41310974  0.27066424  1
  O2-  O241  1  0.46268725  0.41668243  0.59630975  1
  O2-  O242  1  0.45534956  0.41645019  0.93087195  1
  O2-  O243  1  0.45038830  0.92052250  0.27762777  1
  O2-  O244  1  0.45691001  0.91731542  0.59635428  1
  O2-  O245  1  0.45693275  0.91948217  0.93210789  1
  O2-  O246  1  0.95697096  0.41750241  0.26299409  1
  O2-  O247  1  0.95720062  0.41401298  0.60624122  1
  O2-  O248  1  0.96215885  0.41007695  0.93348699  1
  O2-  O249  1  0.95512723  0.91375951  0.27234054  1
  O2-  O250  1  0.96235875  0.91717626  0.59631647  1
  O2-  O251  1  0.95853112  0.92153473  0.93393217  1
  O2-  O252  1  0.33627352  0.29628225  0.27361096  1
  O2-  O253  1  0.33406524  0.28929824  0.59287157  1
  O2-  O254  1  0.32725359  0.28978887  0.93448912  1
  O2-  O255  1  0.33437179  0.79906621  0.27129365  1
  O2-  O256  1  0.32844105  0.79089562  0.60122675  1
  O2-  O257  1  0.33022797  0.79637774  0.93363693  1
  O2-  O258  1  0.82589183  0.29626736  0.26781870  1
  O2-  O259  1  0.83717637  0.29476806  0.60402551  1
  O2-  O260  1  0.83677131  0.29805316  0.93397189  1
  O2-  O261  1  0.83104900  0.79884836  0.27642176  1
  O2-  O262  1  0.83164958  0.79122167  0.59816708  1
  O2-  O263  1  0.83524299  0.79129460  0.93131103  1
  O2-  O264  1  0.41688171  0.04194671  0.06722666  1
  O2-  O265  1  0.41126707  0.04945312  0.40126906  1
  O2-  O266  1  0.41895023  0.05229951  0.72225059  1
  O2-  O267  1  0.41871601  0.54481334  0.06045199  1
  O2-  O268  1  0.41530841  0.53822323  0.40138852  1
  O2-  O269  1  0.42005048  0.53945667  0.73366228  1
  O2-  O270  1  0.92271234  0.04804125  0.06740363  1
  O2-  O271  1  0.92328439  0.04749883  0.39960503  1
  O2-  O272  1  0.91189216  0.04318483  0.72749358  1
  O2-  O273  1  0.91045098  0.53609803  0.06023807  1
  O2-  O274  1  0.91843310  0.53826616  0.40033157  1
  O2-  O275  1  0.91664418  0.53813159  0.73787960  1
  O2-  O276  1  0.28508138  0.16286368  0.06865825  1
  O2-  O277  1  0.29079388  0.16558442  0.39767656  1
  O2-  O278  1  0.29221539  0.16563791  0.72690267  1
  O2-  O279  1  0.29981474  0.66641225  0.06256476  1
  O2-  O280  1  0.28909976  0.66847511  0.39861758  1
  O2-  O281  1  0.29155389  0.66537703  0.73803073  1
  O2-  O282  1  0.79665854  0.17424439  0.06563951  1
  O2-  O283  1  0.78965754  0.16917193  0.40335346  1
  O2-  O284  1  0.79577209  0.16509181  0.72687302  1
  O2-  O285  1  0.79701383  0.66243544  0.06008351  1
  O2-  O286  1  0.79074154  0.66461712  0.40166926  1
  O2-  O287  1  0.78988566  0.66855547  0.73588550  1
