# generated using pymatgen
data_Ca2Al2SiO7
_symmetry_space_group_name_H-M   'P 1'
_cell_length_a   15.45518157
_cell_length_b   15.45569588
_cell_length_c   15.28238969
_cell_angle_alpha   90.00148623
_cell_angle_beta   89.99522312
_cell_angle_gamma   89.99958263
_symmetry_Int_Tables_number   1
_chemical_formula_structural   Ca2Al2SiO7
_chemical_formula_sum   'Ca48 Al48 Si24 O168'
_cell_volume   3650.51337016
_cell_formula_units_Z   24
loop_
 _symmetry_equiv_pos_site_id
 _symmetry_equiv_pos_as_xyz
  1  'x, y, z'
loop_
 _atom_type_symbol
 _atom_type_oxidation_number
  Ca2+  2.0
  Al0+  0.0
  Si0+  0.0
  O2-  -2.0
loop_
 _atom_site_type_symbol
 _atom_site_label
 _atom_site_symmetry_multiplicity
 _atom_site_fract_x
 _atom_site_fract_y
 _atom_site_fract_z
 _atom_site_occupancy
  Ca2+  Ca0  1  0.16252784  0.07941303  0.17097343  1
  Ca2+  Ca1  1  0.17361307  0.07906115  0.50865068  1
  Ca2+  Ca2  1  0.16981595  0.07207992  0.83325457  1
  Ca2+  Ca3  1  0.17894851  0.56834185  0.17108902  1
  Ca2+  Ca4  1  0.17022299  0.57352292  0.50495597  1
  Ca2+  Ca5  1  0.17138503  0.57786252  0.83754600  1
  Ca2+  Ca6  1  0.67351688  0.09030681  0.17500644  1
  Ca2+  Ca7  1  0.66483011  0.08499267  0.50779987  1
  Ca2+  Ca8  1  0.65875704  0.07887552  0.83011169  1
  Ca2+  Ca9  1  0.66869261  0.58595267  0.16489501  1
  Ca2+  Ca10  1  0.67258898  0.58483449  0.50804603  1
  Ca2+  Ca11  1  0.67596352  0.59457985  0.83732558  1
  Ca2+  Ca12  1  0.08737671  0.33145650  0.16284732  1
  Ca2+  Ca13  1  0.08310518  0.33322614  0.49718729  1
  Ca2+  Ca14  1  0.07479635  0.34947061  0.82917813  1
  Ca2+  Ca15  1  0.08207470  0.83309416  0.16021757  1
  Ca2+  Ca16  1  0.09488981  0.82411546  0.50081953  1
  Ca2+  Ca17  1  0.08855838  0.82784175  0.82567264  1
  Ca2+  Ca18  1  0.57228528  0.33442304  0.16496791  1
  Ca2+  Ca19  1  0.57790985  0.32146655  0.49330326  1
  Ca2+  Ca20  1  0.57410749  0.32875977  0.82839601  1
  Ca2+  Ca21  1  0.57296230  0.82800705  0.16256171  1
  Ca2+  Ca22  1  0.57444124  0.83384766  0.50166414  1
  Ca2+  Ca23  1  0.58003674  0.82411503  0.82227470  1
  Ca2+  Ca24  1  0.33637529  0.42229604  0.17369449  1
  Ca2+  Ca25  1  0.32388444  0.41135289  0.50210449  1
  Ca2+  Ca26  1  0.32281946  0.41886620  0.84387258  1
  Ca2+  Ca27  1  0.32822642  0.91340298  0.16978241  1
  Ca2+  Ca28  1  0.33753429  0.92121070  0.51122045  1
  Ca2+  Ca29  1  0.33003236  0.91673901  0.83072405  1
  Ca2+  Ca30  1  0.83621547  0.41826628  0.16496212  1
  Ca2+  Ca31  1  0.83348400  0.41953428  0.50952839  1
  Ca2+  Ca32  1  0.83745655  0.42476904  0.83660573  1
  Ca2+  Ca33  1  0.82831748  0.92523654  0.17541754  1
  Ca2+  Ca34  1  0.82552047  0.92593237  0.50604359  1
  Ca2+  Ca35  1  0.82306736  0.91307671  0.83468925  1
  Ca2+  Ca36  1  0.41474018  0.18212624  0.16581964  1
  Ca2+  Ca37  1  0.42436959  0.16498873  0.49435717  1
  Ca2+  Ca38  1  0.41448240  0.17008307  0.82742693  1
  Ca2+  Ca39  1  0.41544004  0.66399639  0.16117423  1
  Ca2+  Ca40  1  0.41012688  0.67865413  0.49600699  1
  Ca2+  Ca41  1  0.42559816  0.66630826  0.82662400  1
  Ca2+  Ca42  1  0.92189182  0.17055966  0.16339620  1
  Ca2+  Ca43  1  0.92213029  0.17001838  0.49359822  1
  Ca2+  Ca44  1  0.91917464  0.18214331  0.82793905  1
  Ca2+  Ca45  1  0.91761762  0.66576121  0.16006041  1
  Ca2+  Ca46  1  0.92195417  0.66400130  0.50417670  1
  Ca2+  Ca47  1  0.92250161  0.65971970  0.82370648  1
  Al0+  Al48  1  -0.00160369  0.00032757  0.00184505  1
  Al0+  Al49  1  -0.00259708  0.00044005  0.33537122  1
  Al0+  Al50  1  -0.00093844  0.00166867  0.67162373  1
  Al0+  Al51  1  0.00038435  0.50089537  0.00660204  1
  Al0+  Al52  1  0.00069880  0.50077083  0.33549820  1
  Al0+  Al53  1  -0.00077889  0.50160431  0.66337549  1
  Al0+  Al54  1  0.49883438  -0.00092413  0.00252675  1
  Al0+  Al55  1  0.50024465  -0.00356402  0.32183298  1
  Al0+  Al56  1  0.50113599  0.00084998  0.66975508  1
  Al0+  Al57  1  0.50247317  0.49921008  -0.00715652  1
  Al0+  Al58  1  0.50226519  0.50252226  0.33672666  1
  Al0+  Al59  1  0.50111058  0.49848543  0.66095922  1
  Al0+  Al60  1  0.24927802  0.24564693  -0.00259602  1
  Al0+  Al61  1  0.24854251  0.24774664  0.32918543  1
  Al0+  Al62  1  0.24656383  0.24989199  0.67706325  1
  Al0+  Al63  1  0.24917451  0.75088024  0.00746261  1
  Al0+  Al64  1  0.24930125  0.74764024  0.32946738  1
  Al0+  Al65  1  0.24980103  0.74824689  0.66200179  1
  Al0+  Al66  1  0.75167407  0.25024752  -0.00492302  1
  Al0+  Al67  1  0.75246131  0.25154488  0.33449507  1
  Al0+  Al68  1  0.74948881  0.25264052  0.66034368  1
  Al0+  Al69  1  0.74919669  0.75140551  0.00396784  1
  Al0+  Al70  1  0.74986659  0.75138325  0.33411155  1
  Al0+  Al71  1  0.75157247  0.75152662  0.66896522  1
  Al0+  Al72  1  0.32249450  0.07126694  0.68108068  1
  Al0+  Al73  1  0.68045564  0.93151899  0.68004992  1
  Al0+  Al74  1  0.81816156  0.56914706  0.67923682  1
  Al0+  Al75  1  0.42800572  0.32061465  0.98498444  1
  Al0+  Al76  1  0.42903620  0.32152765  0.32054980  1
  Al0+  Al77  1  0.17857318  0.93013214  0.01509951  1
  Al0+  Al78  1  0.56822045  0.18049431  0.65434026  1
  Al0+  Al79  1  0.17808970  0.92591659  0.67958261  1
  Al0+  Al80  1  0.17845323  0.42719053  0.01582385  1
  Al0+  Al81  1  0.57346075  0.17806069  0.31751836  1
  Al0+  Al82  1  0.42996224  0.81888255  0.65335263  1
  Al0+  Al83  1  0.82004104  0.07239361  0.34780503  1
  Al0+  Al84  1  0.82033348  0.57137924  0.01449976  1
  Al0+  Al85  1  0.57108059  0.68039111  0.98613464  1
  Al0+  Al86  1  0.17946698  0.43059976  0.68102528  1
  Al0+  Al87  1  0.32345314  0.57182841  0.35092060  1
  Al0+  Al88  1  0.06984709  0.17769790  0.32068165  1
  Al0+  Al89  1  0.93197939  0.32141355  0.98630384  1
  Al0+  Al90  1  0.18000710  0.42630043  0.34984292  1
  Al0+  Al91  1  0.42755299  0.81926705  0.31693666  1
  Al0+  Al92  1  0.93113820  0.32170168  0.65199505  1
  Al0+  Al93  1  0.07054543  0.68009765  0.65357927  1
  Al0+  Al94  1  0.32455986  0.56937804  0.01299924  1
  Al0+  Al95  1  0.57490940  0.67728406  0.65005238  1
  Si0+  Si96  1  0.67702024  0.92837585  0.34955480  1
  Si0+  Si97  1  0.32412606  0.57192371  0.68164040  1
  Si0+  Si98  1  0.67635987  0.42579875  0.68307707  1
  Si0+  Si99  1  0.57288179  0.17719671  0.98326828  1
  Si0+  Si100  1  0.57530569  0.67867636  0.31597439  1
  Si0+  Si101  1  0.81882596  0.07169313  0.01414911  1
  Si0+  Si102  1  0.32354111  0.07106280  0.02046777  1
  Si0+  Si103  1  0.06964187  0.67805091  0.31554487  1
  Si0+  Si104  1  0.67804540  0.92884324  0.01707183  1
  Si0+  Si105  1  0.82237877  0.07623643  0.68508883  1
  Si0+  Si106  1  0.92907576  0.32434238  0.31602687  1
  Si0+  Si107  1  0.92808214  0.82289990  0.98597732  1
  Si0+  Si108  1  0.82130342  0.57302995  0.34907704  1
  Si0+  Si109  1  0.92746331  0.82529147  0.65072351  1
  Si0+  Si110  1  0.42300733  0.32173470  0.65112900  1
  Si0+  Si111  1  0.42568675  0.82235628  0.98233487  1
  Si0+  Si112  1  0.17732122  0.92863035  0.34750475  1
  Si0+  Si113  1  0.92837077  0.82006478  0.31903016  1
  Si0+  Si114  1  0.07170211  0.17621994  0.65151064  1
  Si0+  Si115  1  0.67982215  0.42975444  0.34850289  1
  Si0+  Si116  1  0.07152121  0.17434062  0.98085143  1
  Si0+  Si117  1  0.32125222  0.06820688  0.34471721  1
  Si0+  Si118  1  0.06925637  0.68157519  0.98764661  1
  Si0+  Si119  1  0.67942616  0.42554954  0.01535537  1
  O2-  O120  1  0.25303630  0.00349354  0.06408337  1
  O2-  O121  1  0.25114594  -0.00326621  0.38849287  1
  O2-  O122  1  0.25019983  -0.00233997  0.72921070  1
  O2-  O123  1  0.25736219  0.49279453  0.06392301  1
  O2-  O124  1  0.25402285  0.49655731  0.39967419  1
  O2-  O125  1  0.25925106  0.50019436  0.72664815  1
  O2-  O126  1  0.74565525  0.00359616  0.05823010  1
  O2-  O127  1  0.74037960  0.00238238  0.39309844  1
  O2-  O128  1  0.75527397  0.00581401  0.72940039  1
  O2-  O129  1  0.74620979  0.49608860  0.06111727  1
  O2-  O130  1  0.75121001  0.50126397  0.38994803  1
  O2-  O131  1  0.73984731  0.49934017  0.72756305  1
  O2-  O132  1  -0.00157472  0.25564131  0.27323497  1
  O2-  O133  1  0.00320208  0.24434777  0.60631100  1
  O2-  O134  1  0.01024499  0.25071489  0.93834999  1
  O2-  O135  1  -0.00158857  0.74975551  0.27404342  1
  O2-  O136  1  0.00063074  0.76092197  0.60686187  1
  O2-  O137  1  -0.00146726  0.75222959  0.94354317  1
  O2-  O138  1  0.50161270  0.25029383  0.26843391  1
  O2-  O139  1  0.49241280  0.25352081  0.60721501  1
  O2-  O140  1  0.50162333  0.24333953  0.94005388  1
  O2-  O141  1  0.50162166  0.74246010  0.27255618  1
  O2-  O142  1  0.49911246  0.74522597  0.60051924  1
  O2-  O143  1  0.49353011  0.75229806  0.93982880  1
  O2-  O144  1  0.06609428  0.16977801  0.08666537  1
  O2-  O145  1  0.06772725  0.17439706  0.43345956  1
  O2-  O146  1  0.06890728  0.17379067  0.75695803  1
  O2-  O147  1  0.06540774  0.68468772  0.09303564  1
  O2-  O148  1  0.06848561  0.67853623  0.42059779  1
  O2-  O149  1  0.06851486  0.67929307  0.76713701  1
  O2-  O150  1  0.57539789  0.17885069  0.08871702  1
  O2-  O151  1  0.57136694  0.17818132  0.43103403  1
  O2-  O152  1  0.56824100  0.18250808  0.76773452  1
  O2-  O153  1  0.57362612  0.68452521  0.09952967  1
  O2-  O154  1  0.58229111  0.68265995  0.42071739  1
  O2-  O155  1  0.57567366  0.68150842  0.76381152  1
  O2-  O156  1  0.17816230  0.42876204  0.23653561  1
  O2-  O157  1  0.17958422  0.42934492  0.56806764  1
  O2-  O158  1  0.17579926  0.43561280  0.90243807  1
  O2-  O159  1  0.17554971  0.93066447  0.24209038  1
  O2-  O160  1  0.17880592  0.92854787  0.56547946  1
  O2-  O161  1  0.17781338  0.92952978  0.90268358  1
  O2-  O162  1  0.68041461  0.43009310  0.24313325  1
  O2-  O163  1  0.68051160  0.42378362  0.57721228  1
  O2-  O164  1  0.68201584  0.42272991  0.91021913  1
  O2-  O165  1  0.68255805  0.92505880  0.24362050  1
  O2-  O166  1  0.68170683  0.93351581  0.56688057  1
  O2-  O167  1  0.67994036  0.92755591  0.91217923  1
  O2-  O168  1  0.43088290  0.32112174  0.09811963  1
  O2-  O169  1  0.42961457  0.31704281  0.43400548  1
  O2-  O170  1  0.42524985  0.32135184  0.75684812  1
  O2-  O171  1  0.42809280  0.82324527  0.08823831  1
  O2-  O172  1  0.42852288  0.82339024  0.42945358  1
  O2-  O173  1  0.43054356  0.81742572  0.76714458  1
  O2-  O174  1  0.92878563  0.31687546  0.09941624  1
  O2-  O175  1  0.92845562  0.32474551  0.42147546  1
  O2-  O176  1  0.93221051  0.32278754  0.76536110  1
  O2-  O177  1  0.92859412  0.82341190  0.09168761  1
  O2-  O178  1  0.92698229  0.81890799  0.42363903  1
  O2-  O179  1  0.92543808  0.82288495  0.75665741  1
  O2-  O180  1  0.31819914  0.06679853  0.23956490  1
  O2-  O181  1  0.32227531  0.07138272  0.56666756  1
  O2-  O182  1  0.32614408  0.06925454  0.91521565  1
  O2-  O183  1  0.32151521  0.57150225  0.23714869  1
  O2-  O184  1  0.32042189  0.57265329  0.57622880  1
  O2-  O185  1  0.32145466  0.57175867  0.89934700  1
  O2-  O186  1  0.82114253  0.06870496  0.23391284  1
  O2-  O187  1  0.82258072  0.07457674  0.57938587  1
  O2-  O188  1  0.81914100  0.06991421  0.90938845  1
  O2-  O189  1  0.82088747  0.57451873  0.24385058  1
  O2-  O190  1  0.81925846  0.56700556  0.56560834  1
  O2-  O191  1  0.82150803  0.57265165  0.90194041  1
  O2-  O192  1  0.03394229  0.08226860  0.26514186  1
  O2-  O193  1  0.04679194  0.08230290  0.60484621  1
  O2-  O194  1  0.03606139  0.08414997  0.93325142  1
  O2-  O195  1  0.03876395  0.58720031  0.26827780  1
  O2-  O196  1  0.03198032  0.58847271  0.59557055  1
  O2-  O197  1  0.04048578  0.58973064  0.94219461  1
  O2-  O198  1  0.54975005  0.07937309  0.26336358  1
  O2-  O199  1  0.54072240  0.08344626  0.60051463  1
  O2-  O200  1  0.54835582  0.08139253  0.94056769  1
  O2-  O201  1  0.55568040  0.58304725  0.27224846  1
  O2-  O202  1  0.55497211  0.57594252  0.59949438  1
  O2-  O203  1  0.54981824  0.58254117  0.93105228  1
  O2-  O204  1  0.16597427  0.20307533  0.26330496  1
  O2-  O205  1  0.16594846  0.20293685  0.60800677  1
  O2-  O206  1  0.16831262  0.18791254  0.93869922  1
  O2-  O207  1  0.16023373  0.70631037  0.26685626  1
  O2-  O208  1  0.16599093  0.70702506  0.59531597  1
  O2-  O209  1  0.16154188  0.71024203  0.94226134  1
  O2-  O210  1  0.67262630  0.20899794  0.26663602  1
  O2-  O211  1  0.66425010  0.21099091  0.59851414  1
  O2-  O212  1  0.66550384  0.20298653  0.93540008  1
  O2-  O213  1  0.66725567  0.70947733  0.26699389  1
  O2-  O214  1  0.67257491  0.71078603  0.59826491  1
  O2-  O215  1  0.66742003  0.71712628  0.93410856  1
  O2-  O216  1  0.08347355  0.46126297  0.07227679  1
  O2-  O217  1  0.08120032  0.45890101  0.40135928  1
  O2-  O218  1  0.08452529  0.46939517  0.73234224  1
  O2-  O219  1  0.08065928  0.96077098  0.06915651  1
  O2-  O220  1  0.08620185  0.95659869  0.39517806  1
  O2-  O221  1  0.07907859  0.95278353  0.73382133  1
  O2-  O222  1  0.58588607  0.45197038  0.06040424  1
  O2-  O223  1  0.58944232  0.45622252  0.39863886  1
  O2-  O224  1  0.57978831  0.44442754  0.72575132  1
  O2-  O225  1  0.58470266  0.95223255  0.06369468  1
  O2-  O226  1  0.58049190  0.94845656  0.39039253  1
  O2-  O227  1  0.58621388  0.96249510  0.73774801  1
  O2-  O228  1  0.19683034  0.32311057  0.06016063  1
  O2-  O229  1  0.20488449  0.32550884  0.40030706  1
  O2-  O230  1  0.20093217  0.33358360  0.73812901  1
  O2-  O231  1  0.20679638  0.83445103  0.07287277  1
  O2-  O232  1  0.20247550  0.83452066  0.39021155  1
  O2-  O233  1  0.20575555  0.82688192  0.73166009  1
  O2-  O234  1  0.70801990  0.33296825  0.06289174  1
  O2-  O235  1  0.70909752  0.33884032  0.39685033  1
  O2-  O236  1  0.70704461  0.33432927  0.73051743  1
  O2-  O237  1  0.71098642  0.84061958  0.06810161  1
  O2-  O238  1  0.70938044  0.83739411  0.39717627  1
  O2-  O239  1  0.71409696  0.83654576  0.73617052  1
  O2-  O240  1  0.46037880  0.42083974  0.27002663  1
  O2-  O241  1  0.44646001  0.41515730  0.60414455  1
  O2-  O242  1  0.46044667  0.41483483  0.92802971  1
  O2-  O243  1  0.45939217  0.91261753  0.25645802  1
  O2-  O244  1  0.46199353  0.91726581  0.60246495  1
  O2-  O245  1  0.45312803  0.91641817  0.93826686  1
  O2-  O246  1  0.95297053  0.41892054  0.27047571  1
  O2-  O247  1  0.96356592  0.41609828  0.59584281  1
  O2-  O248  1  0.96017504  0.42065693  0.93562628  1
  O2-  O249  1  0.95654551  0.91164633  0.27096248  1
  O2-  O250  1  0.94666196  0.92156708  0.60741811  1
  O2-  O251  1  0.95388358  0.91478431  0.93831653  1
  O2-  O252  1  0.33218467  0.29118082  0.26553972  1
  O2-  O253  1  0.32835790  0.29484292  0.60869229  1
  O2-  O254  1  0.33103888  0.28920446  0.93148773  1
  O2-  O255  1  0.33036541  0.78996539  0.26216249  1
  O2-  O256  1  0.33154789  0.79419943  0.59821933  1
  O2-  O257  1  0.33003243  0.79931134  0.94042270  1
  O2-  O258  1  0.83590646  0.29831561  0.26971381  1
  O2-  O259  1  0.83441639  0.29340938  0.59711236  1
  O2-  O260  1  0.83651552  0.28828294  0.93053128  1
  O2-  O261  1  0.83671159  0.79269619  0.26975724  1
  O2-  O262  1  0.83685726  0.79470410  0.60200121  1
  O2-  O263  1  0.83563108  0.79552716  0.94057638  1
  O2-  O264  1  0.41679116  0.04491349  0.06786663  1
  O2-  O265  1  0.41477326  0.03955798  0.38818201  1
  O2-  O266  1  0.41922066  0.04327455  0.73699688  1
  O2-  O267  1  0.42546368  0.54482003  0.06324125  1
  O2-  O268  1  0.42505813  0.55359879  0.40128213  1
  O2-  O269  1  0.42051435  0.55071669  0.72397996  1
  O2-  O270  1  0.90915811  0.04112366  0.06321866  1
  O2-  O271  1  0.91348755  0.03477699  0.40390563  1
  O2-  O272  1  0.91593390  0.05346850  0.73217478  1
  O2-  O273  1  0.91509508  0.54087746  0.07205288  1
  O2-  O274  1  0.91338995  0.54640514  0.39602325  1
  O2-  O275  1  0.91362533  0.53466302  0.73266579  1
  O2-  O276  1  0.29732546  0.16483982  0.06540862  1
  O2-  O277  1  0.29403151  0.15964241  0.39188172  1
  O2-  O278  1  0.29149697  0.16665227  0.73878240  1
  O2-  O279  1  0.29304492  0.66651457  0.06750568  1
  O2-  O280  1  0.28736224  0.66965294  0.40133606  1
  O2-  O281  1  0.29505004  0.66423309  0.72756723  1
  O2-  O282  1  0.79259181  0.16400800  0.06161175  1
  O2-  O283  1  0.79674090  0.17092926  0.40107307  1
  O2-  O284  1  0.79312940  0.16957020  0.72925035  1
  O2-  O285  1  0.78922203  0.66797539  0.07036116  1
  O2-  O286  1  0.79351169  0.66508702  0.39621530  1
  O2-  O287  1  0.79467815  0.66763246  0.73308472  1
