# generated using pymatgen
data_Ca2Al2SiO7
_symmetry_space_group_name_H-M   'P 1'
_cell_length_a   15.45441095
_cell_length_b   15.45384755
_cell_length_c   15.28076397
_cell_angle_alpha   90.00676277
_cell_angle_beta   89.98916622
_cell_angle_gamma   90.01610017
_symmetry_Int_Tables_number   1
_chemical_formula_structural   Ca2Al2SiO7
_chemical_formula_sum   'Ca48 Al48 Si24 O168'
_cell_volume   3649.50631942
_cell_formula_units_Z   24
loop_
 _symmetry_equiv_pos_site_id
 _symmetry_equiv_pos_as_xyz
  1  'x, y, z'
loop_
 _atom_type_symbol
 _atom_type_oxidation_number
  Ca2+  2.0
  Al0+  0.0
  Si0+  0.0
  O2-  -2.0
loop_
 _atom_site_type_symbol
 _atom_site_label
 _atom_site_symmetry_multiplicity
 _atom_site_fract_x
 _atom_site_fract_y
 _atom_site_fract_z
 _atom_site_occupancy
  Ca2+  Ca0  1  0.17204605  0.07695501  0.16968708  1
  Ca2+  Ca1  1  0.18198141  0.08869906  0.50308699  1
  Ca2+  Ca2  1  0.17441589  0.07533144  0.83698906  1
  Ca2+  Ca3  1  0.17728246  0.57959225  0.16946019  1
  Ca2+  Ca4  1  0.16279345  0.57010587  0.50256159  1
  Ca2+  Ca5  1  0.17289908  0.57975053  0.83696859  1
  Ca2+  Ca6  1  0.67234815  0.07844624  0.16722073  1
  Ca2+  Ca7  1  0.67085647  0.08190248  0.50656988  1
  Ca2+  Ca8  1  0.66432756  0.07313774  0.83568728  1
  Ca2+  Ca9  1  0.67257768  0.58378276  0.17128694  1
  Ca2+  Ca10  1  0.67358026  0.57071075  0.50320616  1
  Ca2+  Ca11  1  0.67441432  0.58857168  0.83697916  1
  Ca2+  Ca12  1  0.07896222  0.33649770  0.16854306  1
  Ca2+  Ca13  1  0.08023613  0.33746284  0.49168944  1
  Ca2+  Ca14  1  0.08288566  0.33376303  0.82837303  1
  Ca2+  Ca15  1  0.07826453  0.83696178  0.16294792  1
  Ca2+  Ca16  1  0.06876857  0.83035167  0.49421314  1
  Ca2+  Ca17  1  0.07751662  0.83369742  0.82745097  1
  Ca2+  Ca18  1  0.57395803  0.33919210  0.16259266  1
  Ca2+  Ca19  1  0.58600703  0.33093205  0.49417779  1
  Ca2+  Ca20  1  0.58045788  0.32849145  0.82722142  1
  Ca2+  Ca21  1  0.57899844  0.82734225  0.15569166  1
  Ca2+  Ca22  1  0.58217775  0.83698918  0.50207659  1
  Ca2+  Ca23  1  0.58113762  0.83450167  0.82932028  1
  Ca2+  Ca24  1  0.33623528  0.41769058  0.17283714  1
  Ca2+  Ca25  1  0.32214460  0.40603534  0.50131635  1
  Ca2+  Ca26  1  0.33043130  0.41827419  0.83922105  1
  Ca2+  Ca27  1  0.32890671  0.91506154  0.16928803  1
  Ca2+  Ca28  1  0.34033691  0.92870798  0.50709104  1
  Ca2+  Ca29  1  0.33675022  0.91695181  0.83900986  1
  Ca2+  Ca30  1  0.82704953  0.42702825  0.17857761  1
  Ca2+  Ca31  1  0.82907192  0.42295324  0.50544463  1
  Ca2+  Ca32  1  0.82599031  0.42703043  0.83596446  1
  Ca2+  Ca33  1  0.82969882  0.92439215  0.17122558  1
  Ca2+  Ca34  1  0.83158768  0.91678984  0.50472745  1
  Ca2+  Ca35  1  0.82084686  0.91579049  0.83970923  1
  Ca2+  Ca36  1  0.41145195  0.17728072  0.16598030  1
  Ca2+  Ca37  1  0.42240557  0.16591525  0.49552069  1
  Ca2+  Ca38  1  0.42216006  0.16783690  0.82589471  1
  Ca2+  Ca39  1  0.42555231  0.66717650  0.15104647  1
  Ca2+  Ca40  1  0.41689897  0.67347144  0.49784735  1
  Ca2+  Ca41  1  0.41902188  0.67571702  0.83363176  1
  Ca2+  Ca42  1  0.90654857  0.17063480  0.16470856  1
  Ca2+  Ca43  1  0.91756448  0.17343539  0.48827840  1
  Ca2+  Ca44  1  0.91650209  0.16313972  0.83079958  1
  Ca2+  Ca45  1  0.91086272  0.66825401  0.16489535  1
  Ca2+  Ca46  1  0.90301741  0.67387806  0.49728140  1
  Ca2+  Ca47  1  0.91130940  0.66922806  0.82657440  1
  Al0+  Al48  1  0.00218152  0.00154336  0.00603402  1
  Al0+  Al49  1  0.00004650  -0.00125833  0.33262939  1
  Al0+  Al50  1  0.00305798  0.00049425  0.65901567  1
  Al0+  Al51  1  -0.00075981  0.49977377  0.00238416  1
  Al0+  Al52  1  0.00182001  0.50179115  0.33473487  1
  Al0+  Al53  1  0.00126622  0.49952356  0.67540774  1
  Al0+  Al54  1  0.49966866  0.00243867  0.00347368  1
  Al0+  Al55  1  0.49959255  0.00000793  0.33355637  1
  Al0+  Al56  1  0.50175645  0.00263134  0.66624274  1
  Al0+  Al57  1  0.49941820  0.50048142  -0.00862562  1
  Al0+  Al58  1  0.50066285  0.50109006  0.33474784  1
  Al0+  Al59  1  0.49780455  0.49996943  0.66750119  1
  Al0+  Al60  1  0.24683851  0.24885687  -0.00535764  1
  Al0+  Al61  1  0.25139983  0.24871543  0.33542161  1
  Al0+  Al62  1  0.25009114  0.24903584  0.67686910  1
  Al0+  Al63  1  0.24863991  0.74829142  0.00478356  1
  Al0+  Al64  1  0.24793644  0.75027365  0.33431555  1
  Al0+  Al65  1  0.24864719  0.74949818  0.65776710  1
  Al0+  Al66  1  0.74938955  0.25148261  0.00025095  1
  Al0+  Al67  1  0.75009417  0.24741456  0.33355966  1
  Al0+  Al68  1  0.75066541  0.25101432  0.66636660  1
  Al0+  Al69  1  0.74989127  0.75043730  0.00457199  1
  Al0+  Al70  1  0.74863480  0.75103795  0.33120992  1
  Al0+  Al71  1  0.74874003  0.75075405  0.66809209  1
  Al0+  Al72  1  0.31992157  0.06878714  0.34641328  1
  Al0+  Al73  1  0.32175865  0.06873124  0.68216883  1
  Al0+  Al74  1  0.82178030  0.07166423  0.01386105  1
  Al0+  Al75  1  0.67627842  0.42577200  0.68293756  1
  Al0+  Al76  1  0.18040616  0.92794638  0.01273106  1
  Al0+  Al77  1  0.92823906  0.82033966  0.31655956  1
  Al0+  Al78  1  0.42706383  0.82216547  0.98689544  1
  Al0+  Al79  1  0.82119064  0.57239872  0.34859412  1
  Al0+  Al80  1  0.68080468  0.93131574  0.67895950  1
  Al0+  Al81  1  0.57385973  0.67987420  0.98314556  1
  Al0+  Al82  1  0.43001686  0.31970074  0.32183296  1
  Al0+  Al83  1  0.82162556  0.07006551  0.34830428  1
  Al0+  Al84  1  0.18048430  0.42941652  0.68236384  1
  Al0+  Al85  1  0.67690809  0.42797846  0.34663894  1
  Al0+  Al86  1  0.92804349  0.82023439  0.65449442  1
  Al0+  Al87  1  0.57144879  0.18113920  0.65265383  1
  Al0+  Al88  1  0.81871595  0.57050148  0.68260314  1
  Al0+  Al89  1  0.82134731  0.57059925  0.01559212  1
  Al0+  Al90  1  0.18177587  0.43030464  0.34470823  1
  Al0+  Al91  1  0.92855758  0.32159241  0.32032580  1
  Al0+  Al92  1  0.32099384  0.56828193  0.01151788  1
  Al0+  Al93  1  0.67648866  0.92863495  0.01644422  1
  Al0+  Al94  1  0.42929363  0.82138399  0.65224317  1
  Al0+  Al95  1  0.42725580  0.32069288  0.98484242  1
  Si0+  Si96  1  0.57323965  0.17931101  0.98335760  1
  Si0+  Si97  1  0.07370301  0.67778662  0.31380531  1
  Si0+  Si98  1  0.17720955  0.92583042  0.35290824  1
  Si0+  Si99  1  0.32186484  0.57606616  0.68247756  1
  Si0+  Si100  1  0.17759476  0.92718684  0.67991248  1
  Si0+  Si101  1  0.92888232  0.32210385  0.98450464  1
  Si0+  Si102  1  0.07305043  0.17941159  0.65128257  1
  Si0+  Si103  1  0.67800086  0.92860503  0.35089456  1
  Si0+  Si104  1  0.06970424  0.17788321  0.98343824  1
  Si0+  Si105  1  0.42785282  0.82247781  0.31858640  1
  Si0+  Si106  1  0.42599802  0.32205494  0.65044329  1
  Si0+  Si107  1  0.17785144  0.42581959  0.01771289  1
  Si0+  Si108  1  0.07156320  0.67566738  0.64941718  1
  Si0+  Si109  1  0.57215375  0.67685479  0.64784494  1
  Si0+  Si110  1  0.07300335  0.17873744  0.31620216  1
  Si0+  Si111  1  0.93143113  0.82200025  0.98660179  1
  Si0+  Si112  1  0.67738848  0.42804229  0.01562788  1
  Si0+  Si113  1  0.57278721  0.17557144  0.31477128  1
  Si0+  Si114  1  0.93145493  0.32100364  0.65342518  1
  Si0+  Si115  1  0.56844243  0.68002653  0.31916882  1
  Si0+  Si116  1  0.32185669  0.07389900  0.01653763  1
  Si0+  Si117  1  0.82622636  0.07268919  0.68030796  1
  Si0+  Si118  1  0.07045804  0.67729064  0.98543131  1
  Si0+  Si119  1  0.32398603  0.57413106  0.35044270  1
  O2-  O120  1  0.25888301  -0.00085991  0.05936973  1
  O2-  O121  1  0.24780392  -0.00719017  0.39604272  1
  O2-  O122  1  0.24986837  -0.00987398  0.72660675  1
  O2-  O123  1  0.25071156  0.49032248  0.06066886  1
  O2-  O124  1  0.25617044  0.50425399  0.39384011  1
  O2-  O125  1  0.25614890  0.50401538  0.72624118  1
  O2-  O126  1  0.75009484  0.00011820  0.06459130  1
  O2-  O127  1  0.74709130  -0.00360924  0.39569971  1
  O2-  O128  1  0.75915428  0.00312027  0.72469237  1
  O2-  O129  1  0.74502182  0.49725081  0.06043418  1
  O2-  O130  1  0.75396789  0.49497543  0.39642848  1
  O2-  O131  1  0.74450109  0.50113384  0.73335668  1
  O2-  O132  1  0.00113023  0.24435164  0.27175670  1
  O2-  O133  1  0.00037935  0.24852388  0.60970974  1
  O2-  O134  1  -0.00184758  0.24904723  0.94174006  1
  O2-  O135  1  0.00378629  0.74574462  0.27005603  1
  O2-  O136  1  0.00102326  0.74345304  0.60688281  1
  O2-  O137  1  -0.00125508  0.74778134  0.94305209  1
  O2-  O138  1  0.50713760  0.24857717  0.27259503  1
  O2-  O139  1  0.49973262  0.25932528  0.60592310  1
  O2-  O140  1  0.50179329  0.24546335  0.93946183  1
  O2-  O141  1  0.49459150  0.74830693  0.27666811  1
  O2-  O142  1  0.50163415  0.74467217  0.60393192  1
  O2-  O143  1  0.50261379  0.75466049  0.93557527  1
  O2-  O144  1  0.07330973  0.17862571  0.08820811  1
  O2-  O145  1  0.07401064  0.18161492  0.42221099  1
  O2-  O146  1  0.07139595  0.17756982  0.75659459  1
  O2-  O147  1  0.07035897  0.67633302  0.09036411  1
  O2-  O148  1  0.07785814  0.67952761  0.41928525  1
  O2-  O149  1  0.07435373  0.67749584  0.75527666  1
  O2-  O150  1  0.57490664  0.18122278  0.08898264  1
  O2-  O151  1  0.57051518  0.17216045  0.42033676  1
  O2-  O152  1  0.56858226  0.17967837  0.76586828  1
  O2-  O153  1  0.57127623  0.67876164  0.09752403  1
  O2-  O154  1  0.56726137  0.68119555  0.42429737  1
  O2-  O155  1  0.57287338  0.67856368  0.75302686  1
  O2-  O156  1  0.18387032  0.43099237  0.23166928  1
  O2-  O157  1  0.17936362  0.42815650  0.56912428  1
  O2-  O158  1  0.17642064  0.42801149  0.91201678  1
  O2-  O159  1  0.17902045  0.92560758  0.24694391  1
  O2-  O160  1  0.17625263  0.93193085  0.57453314  1
  O2-  O161  1  0.17651854  0.93090498  0.89958955  1
  O2-  O162  1  0.67394127  0.43340920  0.23285528  1
  O2-  O163  1  0.68080938  0.42501928  0.56948937  1
  O2-  O164  1  0.68172597  0.42523280  0.91027188  1
  O2-  O165  1  0.67721808  0.92934696  0.24548373  1
  O2-  O166  1  0.68180896  0.93273716  0.56567286  1
  O2-  O167  1  0.67779184  0.92969895  0.90267351  1
  O2-  O168  1  0.42658341  0.31941249  0.09844970  1
  O2-  O169  1  0.42735056  0.31586467  0.43461728  1
  O2-  O170  1  0.42438982  0.31826668  0.75608610  1
  O2-  O171  1  0.42622608  0.81769999  0.10110008  1
  O2-  O172  1  0.43002173  0.82351008  0.42378485  1
  O2-  O173  1  0.42816089  0.82013488  0.76488263  1
  O2-  O174  1  0.93067986  0.32282652  0.08944112  1
  O2-  O175  1  0.93220762  0.32078833  0.43385191  1
  O2-  O176  1  0.93348934  0.31940103  0.75895168  1
  O2-  O177  1  0.93456267  0.82180806  0.09168309  1
  O2-  O178  1  0.92886356  0.81924381  0.42991828  1
  O2-  O179  1  0.93108999  0.82165402  0.76801023  1
  O2-  O180  1  0.31724620  0.06810954  0.23327396  1
  O2-  O181  1  0.31973263  0.07093445  0.56886231  1
  O2-  O182  1  0.31875480  0.07527434  0.91101802  1
  O2-  O183  1  0.32364964  0.57487588  0.24475283  1
  O2-  O184  1  0.31967888  0.57762993  0.57660045  1
  O2-  O185  1  0.31586158  0.56944023  0.89854658  1
  O2-  O186  1  0.81952862  0.06913022  0.23544603  1
  O2-  O187  1  0.82608930  0.07236730  0.57468482  1
  O2-  O188  1  0.82388430  0.06907879  0.89993306  1
  O2-  O189  1  0.81757745  0.57238066  0.23487932  1
  O2-  O190  1  0.81940889  0.56859105  0.56925907  1
  O2-  O191  1  0.82435896  0.56883978  0.90274693  1
  O2-  O192  1  0.05173474  0.08314291  0.27263292  1
  O2-  O193  1  0.05046480  0.08815906  0.60013740  1
  O2-  O194  1  0.04124120  0.08634408  0.93506562  1
  O2-  O195  1  0.05105683  0.58378150  0.26786222  1
  O2-  O196  1  0.04595575  0.58064154  0.60621472  1
  O2-  O197  1  0.04365577  0.58493105  0.93752410  1
  O2-  O198  1  0.54128649  0.08389300  0.26696604  1
  O2-  O199  1  0.53773015  0.08667927  0.59644812  1
  O2-  O200  1  0.54852620  0.08474814  0.93889598  1
  O2-  O201  1  0.54296537  0.58816960  0.27083655  1
  O2-  O202  1  0.54648705  0.58254935  0.60207172  1
  O2-  O203  1  0.54475706  0.58296847  0.92808591  1
  O2-  O204  1  0.16466044  0.20839583  0.26855038  1
  O2-  O205  1  0.16486880  0.21136334  0.60638055  1
  O2-  O206  1  0.15968276  0.20574359  0.93170816  1
  O2-  O207  1  0.16720158  0.70579391  0.26630770  1
  O2-  O208  1  0.16310075  0.70014324  0.59835744  1
  O2-  O209  1  0.16137756  0.70655920  0.93759784  1
  O2-  O210  1  0.66753000  0.19605480  0.26981293  1
  O2-  O211  1  0.66993974  0.20786146  0.59871538  1
  O2-  O212  1  0.66579147  0.20654849  0.93519020  1
  O2-  O213  1  0.65864417  0.71056685  0.27049182  1
  O2-  O214  1  0.66442781  0.70576063  0.60116854  1
  O2-  O215  1  0.67330405  0.70849927  0.93177948  1
  O2-  O216  1  0.08578869  0.45571525  0.06392840  1
  O2-  O217  1  0.08631259  0.46152877  0.40076691  1
  O2-  O218  1  0.08593075  0.46011712  0.74043685  1
  O2-  O219  1  0.08788953  0.96477447  0.07116512  1
  O2-  O220  1  0.08389226  0.95268540  0.39754576  1
  O2-  O221  1  0.08576526  0.95835069  0.72733265  1
  O2-  O222  1  0.58205490  0.45253979  0.05716638  1
  O2-  O223  1  0.58085794  0.46046799  0.40292581  1
  O2-  O224  1  0.57441764  0.44776971  0.73115282  1
  O2-  O225  1  0.57866538  0.95772894  0.07127131  1
  O2-  O226  1  0.58423526  0.95487814  0.39632078  1
  O2-  O227  1  0.58643936  0.96585480  0.73365071  1
  O2-  O228  1  0.19810501  0.32981375  0.06025352  1
  O2-  O229  1  0.21156223  0.33400581  0.40000116  1
  O2-  O230  1  0.20940450  0.33413069  0.73993577  1
  O2-  O231  1  0.20531028  0.83167303  0.07015913  1
  O2-  O232  1  0.19978934  0.83143121  0.39851379  1
  O2-  O233  1  0.19640088  0.83038877  0.72117445  1
  O2-  O234  1  0.70304029  0.33522434  0.06303045  1
  O2-  O235  1  0.69926237  0.32696658  0.39524565  1
  O2-  O236  1  0.70952891  0.32906561  0.73722635  1
  O2-  O237  1  0.70536706  0.83137120  0.07026349  1
  O2-  O238  1  0.70327559  0.83502560  0.39623371  1
  O2-  O239  1  0.70815958  0.83459546  0.73340169  1
  O2-  O240  1  0.45668277  0.41884172  0.26931770  1
  O2-  O241  1  0.44094314  0.41903133  0.60722833  1
  O2-  O242  1  0.45593130  0.41593731  0.92796679  1
  O2-  O243  1  0.45719840  0.91312998  0.26998777  1
  O2-  O244  1  0.46435385  0.91681324  0.59837903  1
  O2-  O245  1  0.44946415  0.92436882  0.93894959  1
  O2-  O246  1  0.96236019  0.41788209  0.26666275  1
  O2-  O247  1  0.96294579  0.41265688  0.60830508  1
  O2-  O248  1  0.96071722  0.41248455  0.93591458  1
  O2-  O249  1  0.96129051  0.91707953  0.26316205  1
  O2-  O250  1  0.96101089  0.91557398  0.59745066  1
  O2-  O251  1  0.96354060  0.91308495  0.94056804  1
  O2-  O252  1  0.33466185  0.28540450  0.26621967  1
  O2-  O253  1  0.33295649  0.28882421  0.60690156  1
  O2-  O254  1  0.32968993  0.29084740  0.93098504  1
  O2-  O255  1  0.33300164  0.79917463  0.27503670  1
  O2-  O256  1  0.33230574  0.79394567  0.59509510  1
  O2-  O257  1  0.32851241  0.79021267  0.93526980  1
  O2-  O258  1  0.83174115  0.29145084  0.26571117  1
  O2-  O259  1  0.83930756  0.29621314  0.60603197  1
  O2-  O260  1  0.83660090  0.29612257  0.93700628  1
  O2-  O261  1  0.83098704  0.79093005  0.26289927  1
  O2-  O262  1  0.83141872  0.79075533  0.59954300  1
  O2-  O263  1  0.83791745  0.79680747  0.94228276  1
  O2-  O264  1  0.41700679  0.05817064  0.06204251  1
  O2-  O265  1  0.41684942  0.03856394  0.40043785  1
  O2-  O266  1  0.41807843  0.03992904  0.73563271  1
  O2-  O267  1  0.41929460  0.54052545  0.06346440  1
  O2-  O268  1  0.41712153  0.55118930  0.39712402  1
  O2-  O269  1  0.41652548  0.55512332  0.72718997  1
  O2-  O270  1  0.91984673  0.04597664  0.06842091  1
  O2-  O271  1  0.91994083  0.04176245  0.40041897  1
  O2-  O272  1  0.92173702  0.04917574  0.72371499  1
  O2-  O273  1  0.91775446  0.53843395  0.06969360  1
  O2-  O274  1  0.92227829  0.55147174  0.39820121  1
  O2-  O275  1  0.91675160  0.54171772  0.73653360  1
  O2-  O276  1  0.28617471  0.16475361  0.06264676  1
  O2-  O277  1  0.28707183  0.16347649  0.40245431  1
  O2-  O278  1  0.28656388  0.16189659  0.73941303  1
  O2-  O279  1  0.28670584  0.66182115  0.06939171  1
  O2-  O280  1  0.29630021  0.66762823  0.39647383  1
  O2-  O281  1  0.29114007  0.66859615  0.72803894  1
  O2-  O282  1  0.79330855  0.17116490  0.06542641  1
  O2-  O283  1  0.79332107  0.16698694  0.40238024  1
  O2-  O284  1  0.80152456  0.16620570  0.72606685  1
  O2-  O285  1  0.79377910  0.66768757  0.06905829  1
  O2-  O286  1  0.78631347  0.66955767  0.40004122  1
  O2-  O287  1  0.79156297  0.66947285  0.73479100  1
