# generated using pymatgen
data_Ca2Al2SiO7
_symmetry_space_group_name_H-M   'P 1'
_cell_length_a   15.46082631
_cell_length_b   15.46142517
_cell_length_c   15.28471309
_cell_angle_alpha   90.02368891
_cell_angle_beta   90.01754938
_cell_angle_gamma   89.98153181
_symmetry_Int_Tables_number   1
_chemical_formula_structural   Ca2Al2SiO7
_chemical_formula_sum   'Ca48 Al48 Si24 O168'
_cell_volume   3653.75510423
_cell_formula_units_Z   24
loop_
 _symmetry_equiv_pos_site_id
 _symmetry_equiv_pos_as_xyz
  1  'x, y, z'
loop_
 _atom_type_symbol
 _atom_type_oxidation_number
  Ca2+  2.0
  Al0+  0.0
  Si0+  0.0
  O2-  -2.0
loop_
 _atom_site_type_symbol
 _atom_site_label
 _atom_site_symmetry_multiplicity
 _atom_site_fract_x
 _atom_site_fract_y
 _atom_site_fract_z
 _atom_site_occupancy
  Ca2+  Ca0  1  0.15987011  0.07494674  0.17182703  1
  Ca2+  Ca1  1  0.15693744  0.07662257  0.50287818  1
  Ca2+  Ca2  1  0.15916522  0.07453519  0.83243712  1
  Ca2+  Ca3  1  0.16697623  0.57224112  0.17343567  1
  Ca2+  Ca4  1  0.15956602  0.57272113  0.50350606  1
  Ca2+  Ca5  1  0.17274551  0.57373236  0.84246761  1
  Ca2+  Ca6  1  0.66704681  0.07921745  0.17128270  1
  Ca2+  Ca7  1  0.66909351  0.08596230  0.50466937  1
  Ca2+  Ca8  1  0.67075139  0.07294647  0.84246442  1
  Ca2+  Ca9  1  0.66631604  0.58859655  0.17044049  1
  Ca2+  Ca10  1  0.66412049  0.58246550  0.50584586  1
  Ca2+  Ca11  1  0.66353313  0.58479021  0.83475624  1
  Ca2+  Ca12  1  0.08878408  0.33047555  0.16059546  1
  Ca2+  Ca13  1  0.09158542  0.32562507  0.49519887  1
  Ca2+  Ca14  1  0.07779548  0.33535601  0.82493863  1
  Ca2+  Ca15  1  0.07773585  0.83859015  0.16280248  1
  Ca2+  Ca16  1  0.07719426  0.83534949  0.49182408  1
  Ca2+  Ca17  1  0.07739057  0.84084770  0.82672974  1
  Ca2+  Ca18  1  0.56971452  0.33056931  0.16435708  1
  Ca2+  Ca19  1  0.57835494  0.33124283  0.49144549  1
  Ca2+  Ca20  1  0.57593201  0.33922831  0.82927990  1
  Ca2+  Ca21  1  0.58445658  0.82316024  0.15835902  1
  Ca2+  Ca22  1  0.57688023  0.82300043  0.49657119  1
  Ca2+  Ca23  1  0.57931323  0.82348841  0.82656316  1
  Ca2+  Ca24  1  0.33108621  0.41684937  0.16770129  1
  Ca2+  Ca25  1  0.32509821  0.41365478  0.50148418  1
  Ca2+  Ca26  1  0.32391108  0.41970871  0.84219024  1
  Ca2+  Ca27  1  0.31982264  0.91593142  0.17263870  1
  Ca2+  Ca28  1  0.32255409  0.91435361  0.50736478  1
  Ca2+  Ca29  1  0.32379925  0.91269534  0.83740845  1
  Ca2+  Ca30  1  0.83457365  0.41687462  0.16992260  1
  Ca2+  Ca31  1  0.82585371  0.41674400  0.51097742  1
  Ca2+  Ca32  1  0.82959999  0.41107374  0.83667654  1
  Ca2+  Ca33  1  0.83048335  0.90581499  0.16812188  1
  Ca2+  Ca34  1  0.83893037  0.91467455  0.50317543  1
  Ca2+  Ca35  1  0.83223007  0.91295886  0.84092766  1
  Ca2+  Ca36  1  0.41231323  0.17827288  0.16619204  1
  Ca2+  Ca37  1  0.42228719  0.17359635  0.49023319  1
  Ca2+  Ca38  1  0.41421459  0.17162590  0.83354436  1
  Ca2+  Ca39  1  0.42685297  0.65791780  0.16095536  1
  Ca2+  Ca40  1  0.42444198  0.66609313  0.49991115  1
  Ca2+  Ca41  1  0.42363547  0.66472168  0.82999687  1
  Ca2+  Ca42  1  0.92354349  0.17370285  0.16393331  1
  Ca2+  Ca43  1  0.92832692  0.17310543  0.50063444  1
  Ca2+  Ca44  1  0.92336717  0.17766941  0.82787587  1
  Ca2+  Ca45  1  0.92718074  0.67418443  0.16661760  1
  Ca2+  Ca46  1  0.92329100  0.67729041  0.49494501  1
  Ca2+  Ca47  1  0.91846806  0.67868377  0.83058676  1
  Al0+  Al48  1  -0.00157446  0.00242740  0.00021644  1
  Al0+  Al49  1  -0.00369231  0.00363966  0.32967772  1
  Al0+  Al50  1  -0.00089430  0.00330782  0.66450011  1
  Al0+  Al51  1  -0.00163229  0.50054181  -0.00047990  1
  Al0+  Al52  1  -0.00182145  0.50284015  0.33695121  1
  Al0+  Al53  1  -0.00426465  0.50248875  0.66932956  1
  Al0+  Al54  1  0.50057135  -0.00119045  0.00586882  1
  Al0+  Al55  1  0.50090918  -0.00124362  0.33195635  1
  Al0+  Al56  1  0.49915694  -0.00007193  0.66420257  1
  Al0+  Al57  1  0.50076096  0.49787858  -0.00537243  1
  Al0+  Al58  1  0.49973346  0.49976610  0.32725633  1
  Al0+  Al59  1  0.50095581  0.49910826  0.66644894  1
  Al0+  Al60  1  0.25119148  0.24792909  -0.00334430  1
  Al0+  Al61  1  0.25007125  0.24944005  0.32862324  1
  Al0+  Al62  1  0.25070021  0.24839257  0.66774275  1
  Al0+  Al63  1  0.25193731  0.74868134  0.00990202  1
  Al0+  Al64  1  0.25032670  0.74747465  0.33664234  1
  Al0+  Al65  1  0.25011833  0.74947605  0.66856190  1
  Al0+  Al66  1  0.75124967  0.24837118  -0.00138207  1
  Al0+  Al67  1  0.74967895  0.24846088  0.33113265  1
  Al0+  Al68  1  0.75044419  0.25038686  0.67010878  1
  Al0+  Al69  1  0.75089535  0.74866014  -0.00384034  1
  Al0+  Al70  1  0.74964884  0.75016637  0.32953251  1
  Al0+  Al71  1  0.75040729  0.74950820  0.65918317  1
  Al0+  Al72  1  0.42611926  0.82285308  0.65231917  1
  Al0+  Al73  1  0.07007859  0.18120276  0.31846415  1
  Al0+  Al74  1  0.17737274  0.42848091  0.01457044  1
  Al0+  Al75  1  0.56988650  0.67829996  0.65032179  1
  Al0+  Al76  1  0.68053475  0.92705114  0.01318347  1
  Al0+  Al77  1  0.17783868  0.93028127  0.01386462  1
  Al0+  Al78  1  0.32378502  0.56962900  0.01564894  1
  Al0+  Al79  1  0.07360599  0.67662986  0.31919478  1
  Al0+  Al80  1  0.92906730  0.32268320  0.98661813  1
  Al0+  Al81  1  0.67941840  0.42896034  0.68055054  1
  Al0+  Al82  1  0.57061981  0.67971210  0.98461553  1
  Al0+  Al83  1  0.42981502  0.31886791  0.98292558  1
  Al0+  Al84  1  0.93251580  0.82047674  0.98571189  1
  Al0+  Al85  1  0.92722117  0.32393283  0.65174284  1
  Al0+  Al86  1  0.17792267  0.42831202  0.67996160  1
  Al0+  Al87  1  0.93127392  0.82196635  0.31727193  1
  Al0+  Al88  1  0.17909566  0.42893438  0.34738802  1
  Al0+  Al89  1  0.93092796  0.82212477  0.65326337  1
  Al0+  Al90  1  0.57402911  0.17645215  0.31823624  1
  Al0+  Al91  1  0.17749148  0.92981312  0.34785015  1
  Al0+  Al92  1  0.56884750  0.68092353  0.31847238  1
  Al0+  Al93  1  0.17868150  0.92981329  0.67915216  1
  Al0+  Al94  1  0.42880543  0.32014818  0.31817761  1
  Al0+  Al95  1  0.07182947  0.18223628  0.65144464  1
  Si0+  Si96  1  0.32250978  0.07111284  0.34966538  1
  Si0+  Si97  1  0.32552874  0.57038251  0.35199331  1
  Si0+  Si98  1  0.81989724  0.57135864  0.01552631  1
  Si0+  Si99  1  0.57177403  0.17832008  0.65450052  1
  Si0+  Si100  1  0.07468502  0.67803262  0.98431338  1
  Si0+  Si101  1  0.67965581  0.42926180  0.34577694  1
  Si0+  Si102  1  0.07222134  0.17854779  0.98208104  1
  Si0+  Si103  1  0.67859078  0.92863165  0.67944589  1
  Si0+  Si104  1  0.42615963  0.82280555  0.31604647  1
  Si0+  Si105  1  0.32379047  0.07170369  0.01803486  1
  Si0+  Si106  1  0.42947207  0.32010385  0.65212128  1
  Si0+  Si107  1  0.82008218  0.07080748  0.68275838  1
  Si0+  Si108  1  0.42644748  0.82368745  0.98573729  1
  Si0+  Si109  1  0.81930440  0.57277489  0.34928690  1
  Si0+  Si110  1  0.92711180  0.32377155  0.31912597  1
  Si0+  Si111  1  0.82002584  0.57520894  0.68494443  1
  Si0+  Si112  1  0.67935402  0.92726835  0.34999917  1
  Si0+  Si113  1  0.32551421  0.07198856  0.68344917  1
  Si0+  Si114  1  0.81887428  0.07299129  0.35073832  1
  Si0+  Si115  1  0.32262216  0.57082225  0.68292806  1
  Si0+  Si116  1  0.67968766  0.42711656  0.01572882  1
  Si0+  Si117  1  0.57258048  0.17597892  0.98277493  1
  Si0+  Si118  1  0.82071624  0.07265565  0.01878833  1
  Si0+  Si119  1  0.07310986  0.67749039  0.65281819  1
  O2-  O120  1  0.25447844  0.00309589  0.06083616  1
  O2-  O121  1  0.25505735  0.00204061  0.39510276  1
  O2-  O122  1  0.25692124  0.00178214  0.72550082  1
  O2-  O123  1  0.24886270  0.50046472  0.06545136  1
  O2-  O124  1  0.25231126  0.50549467  0.39509497  1
  O2-  O125  1  0.25130248  0.50440435  0.72624855  1
  O2-  O126  1  0.75367616  0.00211732  0.06267384  1
  O2-  O127  1  0.74756140  0.00114905  0.39253980  1
  O2-  O128  1  0.75002703  -0.00196804  0.72379478  1
  O2-  O129  1  0.75110011  0.49751766  0.05812241  1
  O2-  O130  1  0.75011347  0.49914155  0.39023076  1
  O2-  O131  1  0.75396922  0.50323475  0.72864202  1
  O2-  O132  1  0.00048104  0.26158285  0.27360599  1
  O2-  O133  1  0.00574656  0.26015602  0.60115639  1
  O2-  O134  1  0.00849862  0.25302572  0.94039081  1
  O2-  O135  1  0.00862840  0.75498519  0.26856276  1
  O2-  O136  1  0.00900589  0.75062304  0.60845770  1
  O2-  O137  1  0.01205753  0.75162347  0.93823691  1
  O2-  O138  1  0.50004849  0.24601691  0.26926982  1
  O2-  O139  1  0.50142898  0.24915431  0.61134089  1
  O2-  O140  1  0.50518493  0.24411575  0.93612271  1
  O2-  O141  1  0.49391859  0.75412428  0.27065344  1
  O2-  O142  1  0.49762813  0.75062623  0.60181224  1
  O2-  O143  1  0.49447634  0.75452625  0.94097770  1
  O2-  O144  1  0.06965888  0.17695274  0.08788206  1
  O2-  O145  1  0.06791100  0.18005523  0.43125783  1
  O2-  O146  1  0.06792569  0.17947357  0.76495775  1
  O2-  O147  1  0.06992070  0.67617062  0.08955842  1
  O2-  O148  1  0.06735038  0.67440585  0.43290587  1
  O2-  O149  1  0.07137480  0.67758171  0.75851811  1
  O2-  O150  1  0.57295416  0.17793690  0.08796452  1
  O2-  O151  1  0.57513590  0.18041605  0.43265638  1
  O2-  O152  1  0.57091894  0.17680468  0.75949421  1
  O2-  O153  1  0.57194383  0.68086636  0.09784320  1
  O2-  O154  1  0.56928668  0.68058566  0.43128216  1
  O2-  O155  1  0.56978167  0.67973499  0.76384009  1
  O2-  O156  1  0.17893149  0.42877986  0.23473593  1
  O2-  O157  1  0.18193929  0.42790053  0.56668063  1
  O2-  O158  1  0.17776847  0.43051531  0.90061884  1
  O2-  O159  1  0.17783844  0.93345126  0.23463416  1
  O2-  O160  1  0.17736007  0.93262319  0.56621499  1
  O2-  O161  1  0.17712118  0.93256685  0.90050816  1
  O2-  O162  1  0.68197769  0.42970953  0.24048316  1
  O2-  O163  1  0.67884861  0.42805112  0.56693166  1
  O2-  O164  1  0.68055410  0.42684592  0.91054724  1
  O2-  O165  1  0.68153386  0.92598140  0.24494685  1
  O2-  O166  1  0.67870928  0.93215504  0.57421439  1
  O2-  O167  1  0.68207426  0.92896415  0.89946174  1
  O2-  O168  1  0.43139213  0.31788714  0.09553777  1
  O2-  O169  1  0.43169673  0.31992997  0.43254372  1
  O2-  O170  1  0.43049645  0.31919854  0.75719191  1
  O2-  O171  1  0.42935682  0.82507674  0.09125896  1
  O2-  O172  1  0.42939721  0.82358312  0.42166944  1
  O2-  O173  1  0.42898411  0.82402517  0.76605352  1
  O2-  O174  1  0.92541820  0.31932786  0.09990807  1
  O2-  O175  1  0.92259681  0.32032750  0.42427951  1
  O2-  O176  1  0.92554812  0.31847999  0.76523562  1
  O2-  O177  1  0.93116670  0.81749551  0.09826404  1
  O2-  O178  1  0.92978077  0.82026810  0.43110309  1
  O2-  O179  1  0.92943054  0.82132670  0.76654577  1
  O2-  O180  1  0.32201389  0.06946554  0.24407730  1
  O2-  O181  1  0.32978672  0.07359542  0.57826608  1
  O2-  O182  1  0.32616493  0.07079962  0.91233958  1
  O2-  O183  1  0.32949893  0.56685917  0.24681549  1
  O2-  O184  1  0.32485757  0.56856858  0.57734128  1
  O2-  O185  1  0.32295084  0.56773009  0.90156517  1
  O2-  O186  1  0.81760645  0.07626730  0.24598241  1
  O2-  O187  1  0.81791285  0.07219588  0.57749215  1
  O2-  O188  1  0.81891399  0.07318001  0.91292446  1
  O2-  O189  1  0.81825590  0.57244974  0.24386120  1
  O2-  O190  1  0.81780008  0.57639060  0.57921309  1
  O2-  O191  1  0.81846471  0.57266745  0.91059795  1
  O2-  O192  1  0.03174698  0.08871288  0.26217054  1
  O2-  O193  1  0.03445727  0.08731081  0.59710333  1
  O2-  O194  1  0.03837143  0.08819920  0.93432223  1
  O2-  O195  1  0.03582990  0.58148547  0.26449965  1
  O2-  O196  1  0.04154101  0.58633270  0.60518974  1
  O2-  O197  1  0.04251584  0.58702995  0.93654769  1
  O2-  O198  1  0.55063710  0.07614926  0.26745523  1
  O2-  O199  1  0.54573403  0.08732181  0.60458866  1
  O2-  O200  1  0.54634753  0.08140644  0.93825546  1
  O2-  O201  1  0.54166374  0.58394685  0.26393377  1
  O2-  O202  1  0.54110025  0.57948006  0.59772736  1
  O2-  O203  1  0.54218247  0.58269249  0.93080936  1
  O2-  O204  1  0.16728478  0.20527292  0.26378803  1
  O2-  O205  1  0.17278692  0.20259302  0.59979713  1
  O2-  O206  1  0.16772686  0.19508102  0.93738727  1
  O2-  O207  1  0.17585530  0.69366421  0.27108512  1
  O2-  O208  1  0.16840609  0.69563449  0.60823871  1
  O2-  O209  1  0.17157187  0.69748795  0.94336001  1
  O2-  O210  1  0.67067522  0.20669311  0.26310136  1
  O2-  O211  1  0.66343562  0.20608913  0.60757757  1
  O2-  O212  1  0.66672564  0.20001815  0.93718753  1
  O2-  O213  1  0.66482643  0.71271868  0.26440602  1
  O2-  O214  1  0.66708927  0.70739494  0.59591203  1
  O2-  O215  1  0.66614700  0.71157320  0.92969851  1
  O2-  O216  1  0.07763141  0.45526495  0.06631032  1
  O2-  O217  1  0.08097096  0.45795946  0.40094813  1
  O2-  O218  1  0.07922557  0.45699454  0.73121270  1
  O2-  O219  1  0.08185353  0.96499073  0.06726273  1
  O2-  O220  1  0.07989677  0.96505020  0.39788414  1
  O2-  O221  1  0.08286371  0.96597848  0.73289613  1
  O2-  O222  1  0.58812957  0.45602760  0.06145993  1
  O2-  O223  1  0.58744821  0.45742611  0.39185561  1
  O2-  O224  1  0.58282251  0.45979727  0.73521024  1
  O2-  O225  1  0.58411933  0.95555620  0.06900788  1
  O2-  O226  1  0.58599980  0.95178140  0.39657828  1
  O2-  O227  1  0.58700266  0.95730030  0.72714525  1
  O2-  O228  1  0.20631239  0.32792401  0.06243353  1
  O2-  O229  1  0.21285277  0.33168101  0.39929197  1
  O2-  O230  1  0.20998247  0.33164762  0.73321505  1
  O2-  O231  1  0.20460689  0.83337456  0.06913829  1
  O2-  O232  1  0.20405862  0.83081443  0.39992564  1
  O2-  O233  1  0.20464255  0.83173557  0.73345459  1
  O2-  O234  1  0.70709216  0.33465772  0.06230830  1
  O2-  O235  1  0.70632762  0.33653593  0.39280403  1
  O2-  O236  1  0.70855734  0.33246375  0.73682232  1
  O2-  O237  1  0.71438091  0.83113886  0.06686181  1
  O2-  O238  1  0.71068572  0.83663942  0.39778314  1
  O2-  O239  1  0.70645176  0.83587605  0.72405410  1
  O2-  O240  1  0.46133273  0.41563126  0.26293500  1
  O2-  O241  1  0.45776520  0.41106966  0.60465544  1
  O2-  O242  1  0.46334892  0.41328933  0.92724540  1
  O2-  O243  1  0.45132665  0.91636832  0.27014257  1
  O2-  O244  1  0.45531534  0.92071582  0.59774770  1
  O2-  O245  1  0.45204210  0.91779936  0.94034758  1
  O2-  O246  1  0.94487940  0.42002838  0.27682710  1
  O2-  O247  1  0.94246462  0.42686221  0.60439178  1
  O2-  O248  1  0.95205831  0.42115448  0.93275113  1
  O2-  O249  1  0.95100825  0.92208485  0.26531838  1
  O2-  O250  1  0.95758498  0.91948587  0.59984372  1
  O2-  O251  1  0.95605688  0.92026827  0.93427272  1
  O2-  O252  1  0.33253253  0.29090042  0.26267780  1
  O2-  O253  1  0.33874478  0.29095647  0.60452965  1
  O2-  O254  1  0.33389501  0.28661069  0.92780676  1
  O2-  O255  1  0.33161898  0.79883728  0.27252199  1
  O2-  O256  1  0.32767553  0.79461314  0.59933553  1
  O2-  O257  1  0.33164352  0.79886698  0.94177531  1
  O2-  O258  1  0.83621314  0.29225490  0.27031226  1
  O2-  O259  1  0.83040038  0.28768154  0.59922755  1
  O2-  O260  1  0.83355254  0.28705243  0.93187481  1
  O2-  O261  1  0.83440294  0.78711105  0.26519507  1
  O2-  O262  1  0.83581015  0.79041583  0.59722323  1
  O2-  O263  1  0.83764326  0.78480732  0.93131553  1
  O2-  O264  1  0.41703204  0.04875090  0.06644515  1
  O2-  O265  1  0.41799238  0.04813731  0.39504206  1
  O2-  O266  1  0.41917015  0.04792163  0.73190811  1
  O2-  O267  1  0.42194910  0.53565870  0.06685813  1
  O2-  O268  1  0.41770554  0.53877220  0.39928835  1
  O2-  O269  1  0.41505323  0.54169805  0.72956128  1
  O2-  O270  1  0.91468637  0.04950687  0.06408581  1
  O2-  O271  1  0.90990164  0.04429873  0.39859194  1
  O2-  O272  1  0.91122540  0.04344735  0.73072353  1
  O2-  O273  1  0.91175292  0.54551661  0.06378721  1
  O2-  O274  1  0.91045109  0.54839112  0.39915702  1
  O2-  O275  1  0.91411165  0.55527822  0.73227005  1
  O2-  O276  1  0.29702446  0.16527074  0.06297461  1
  O2-  O277  1  0.29745577  0.16532050  0.39424159  1
  O2-  O278  1  0.29836580  0.16446009  0.73142676  1
  O2-  O279  1  0.30444328  0.66913954  0.07008455  1
  O2-  O280  1  0.30655673  0.66580360  0.39710681  1
  O2-  O281  1  0.30121087  0.66535840  0.72905786  1
  O2-  O282  1  0.79252909  0.16512930  0.06664396  1
  O2-  O283  1  0.78936401  0.16392482  0.40046582  1
  O2-  O284  1  0.79002492  0.16074091  0.73267213  1
  O2-  O285  1  0.78793102  0.66097227  0.06421085  1
  O2-  O286  1  0.78720585  0.66324641  0.39691911  1
  O2-  O287  1  0.78967007  0.66786844  0.73152259  1
