# generated using pymatgen
data_Ca2Al2SiO7
_symmetry_space_group_name_H-M   'P 1'
_cell_length_a   15.45548634
_cell_length_b   15.45598851
_cell_length_c   15.28269089
_cell_angle_alpha   90.01111393
_cell_angle_beta   90.00308779
_cell_angle_gamma   89.99485783
_symmetry_Int_Tables_number   1
_chemical_formula_structural   Ca2Al2SiO7
_chemical_formula_sum   'Ca48 Al48 Si24 O168'
_cell_volume   3650.72635030
_cell_formula_units_Z   24
loop_
 _symmetry_equiv_pos_site_id
 _symmetry_equiv_pos_as_xyz
  1  'x, y, z'
loop_
 _atom_type_symbol
 _atom_type_oxidation_number
  Ca2+  2.0
  Al0+  0.0
  Si0+  0.0
  O2-  -2.0
loop_
 _atom_site_type_symbol
 _atom_site_label
 _atom_site_symmetry_multiplicity
 _atom_site_fract_x
 _atom_site_fract_y
 _atom_site_fract_z
 _atom_site_occupancy
  Ca2+  Ca0  1  0.17175657  0.07915342  0.16483105  1
  Ca2+  Ca1  1  0.17318898  0.07683936  0.51216392  1
  Ca2+  Ca2  1  0.17364283  0.07627711  0.83615569  1
  Ca2+  Ca3  1  0.17329028  0.58841915  0.17065614  1
  Ca2+  Ca4  1  0.16290477  0.58654810  0.50412811  1
  Ca2+  Ca5  1  0.17476226  0.58850938  0.83804998  1
  Ca2+  Ca6  1  0.66867385  0.07340157  0.17742511  1
  Ca2+  Ca7  1  0.66765158  0.07594148  0.49907135  1
  Ca2+  Ca8  1  0.66446160  0.06588298  0.83678156  1
  Ca2+  Ca9  1  0.66330069  0.57917011  0.17122023  1
  Ca2+  Ca10  1  0.65978012  0.57149379  0.50569841  1
  Ca2+  Ca11  1  0.65526141  0.58177523  0.83584819  1
  Ca2+  Ca12  1  0.07567218  0.33320717  0.16590902  1
  Ca2+  Ca13  1  0.07699773  0.32402195  0.49431110  1
  Ca2+  Ca14  1  0.08373854  0.32514358  0.82584137  1
  Ca2+  Ca15  1  0.07153193  0.83873264  0.16392920  1
  Ca2+  Ca16  1  0.08517803  0.82508647  0.49303631  1
  Ca2+  Ca17  1  0.08219877  0.83918449  0.82774948  1
  Ca2+  Ca18  1  0.58000868  0.32791999  0.16669608  1
  Ca2+  Ca19  1  0.58378597  0.32803036  0.48946510  1
  Ca2+  Ca20  1  0.57611294  0.33317205  0.82974167  1
  Ca2+  Ca21  1  0.58310694  0.83459456  0.16074862  1
  Ca2+  Ca22  1  0.57546972  0.84291737  0.49734590  1
  Ca2+  Ca23  1  0.58368841  0.82527885  0.82488952  1
  Ca2+  Ca24  1  0.34387379  0.42132033  0.16820876  1
  Ca2+  Ca25  1  0.33645822  0.41812257  0.50199797  1
  Ca2+  Ca26  1  0.33434772  0.42355976  0.84299850  1
  Ca2+  Ca27  1  0.33164361  0.91676487  0.17007346  1
  Ca2+  Ca28  1  0.33379190  0.91932492  0.51051308  1
  Ca2+  Ca29  1  0.32618357  0.92168640  0.83679931  1
  Ca2+  Ca30  1  0.82806456  0.41822367  0.17964244  1
  Ca2+  Ca31  1  0.82241570  0.41054113  0.50200420  1
  Ca2+  Ca32  1  0.82602624  0.42015716  0.83346047  1
  Ca2+  Ca33  1  0.82522074  0.91427052  0.17439005  1
  Ca2+  Ca34  1  0.82539413  0.91375816  0.49876221  1
  Ca2+  Ca35  1  0.82471797  0.90824854  0.83814360  1
  Ca2+  Ca36  1  0.41901093  0.17418600  0.16384501  1
  Ca2+  Ca37  1  0.42312102  0.16907515  0.49096802  1
  Ca2+  Ca38  1  0.40550735  0.16858350  0.83182875  1
  Ca2+  Ca39  1  0.42256199  0.67239174  0.16218156  1
  Ca2+  Ca40  1  0.42027451  0.68255512  0.49979582  1
  Ca2+  Ca41  1  0.42320589  0.67212745  0.82863026  1
  Ca2+  Ca42  1  0.90725258  0.16954375  0.16829171  1
  Ca2+  Ca43  1  0.91917726  0.16440082  0.49313194  1
  Ca2+  Ca44  1  0.92531416  0.16514094  0.82753423  1
  Ca2+  Ca45  1  0.91742605  0.67887832  0.16423685  1
  Ca2+  Ca46  1  0.92827193  0.67206735  0.49329125  1
  Ca2+  Ca47  1  0.92448447  0.67449835  0.82890348  1
  Al0+  Al48  1  -0.00106365  0.00165101  -0.00132500  1
  Al0+  Al49  1  0.00169601  -0.00176318  0.33398123  1
  Al0+  Al50  1  -0.00017684  0.00135472  0.66391010  1
  Al0+  Al51  1  -0.00152884  0.50083315  -0.00175556  1
  Al0+  Al52  1  0.00311637  0.49806596  0.32635932  1
  Al0+  Al53  1  -0.00232051  0.50034902  0.66423231  1
  Al0+  Al54  1  0.49977809  0.00100949  0.00738112  1
  Al0+  Al55  1  0.49922770  0.00099578  0.32777861  1
  Al0+  Al56  1  0.50132303  0.00306486  0.67304136  1
  Al0+  Al57  1  0.49888031  0.49843923  -0.00258467  1
  Al0+  Al58  1  0.49862803  0.50159221  0.33717397  1
  Al0+  Al59  1  0.49925747  0.49994991  0.66773411  1
  Al0+  Al60  1  0.24814855  0.25074770  0.00076409  1
  Al0+  Al61  1  0.24973085  0.25186262  0.32974498  1
  Al0+  Al62  1  0.24812031  0.25116004  0.66421626  1
  Al0+  Al63  1  0.25013067  0.74916178  0.01006819  1
  Al0+  Al64  1  0.25353870  0.74899482  0.32670961  1
  Al0+  Al65  1  0.25032999  0.75016546  0.66397228  1
  Al0+  Al66  1  0.74811847  0.24991079  -0.00438284  1
  Al0+  Al67  1  0.75109540  0.24866427  0.33311276  1
  Al0+  Al68  1  0.74784235  0.25206122  0.67525278  1
  Al0+  Al69  1  0.75141928  0.74778829  -0.00461859  1
  Al0+  Al70  1  0.75129293  0.74784777  0.33708468  1
  Al0+  Al71  1  0.75183299  0.74585486  0.66509033  1
  Al0+  Al72  1  0.07064297  0.17893246  0.65260874  1
  Al0+  Al73  1  0.32071554  0.07326899  0.01829623  1
  Al0+  Al74  1  0.43160910  0.82347378  0.65517938  1
  Al0+  Al75  1  0.57242941  0.67691116  0.64999735  1
  Al0+  Al76  1  0.67937233  0.43081006  0.34563977  1
  Al0+  Al77  1  0.57212874  0.17887146  0.31858160  1
  Al0+  Al78  1  0.07154773  0.67988051  0.65475783  1
  Al0+  Al79  1  0.42820275  0.32311959  0.31884941  1
  Al0+  Al80  1  0.68052842  0.92769174  0.68038151  1
  Al0+  Al81  1  0.07299570  0.67802163  0.31554109  1
  Al0+  Al82  1  0.42975707  0.31852473  0.98510790  1
  Al0+  Al83  1  0.92947536  0.31798227  0.32091956  1
  Al0+  Al84  1  0.67761308  0.42988994  0.68337018  1
  Al0+  Al85  1  0.82267484  0.07015588  0.34816588  1
  Al0+  Al86  1  0.43146689  0.82222101  0.31845067  1
  Al0+  Al87  1  0.92847464  0.82108567  0.31881117  1
  Al0+  Al88  1  0.17712533  0.92883779  0.01704974  1
  Al0+  Al89  1  0.93052999  0.82169573  0.98492904  1
  Al0+  Al90  1  0.56980526  0.68020985  0.98735922  1
  Al0+  Al91  1  0.32171089  0.56949644  0.01442941  1
  Al0+  Al92  1  0.32212123  0.07362928  0.68023110  1
  Al0+  Al93  1  0.68108312  0.92643133  0.01304195  1
  Al0+  Al94  1  0.67679872  0.92652359  0.34873847  1
  Al0+  Al95  1  0.17863979  0.92698450  0.67927099  1
  Si0+  Si96  1  0.42824714  0.32123418  0.65229629  1
  Si0+  Si97  1  0.32034766  0.57130703  0.35133714  1
  Si0+  Si98  1  0.82223580  0.56915013  0.01526980  1
  Si0+  Si99  1  0.92711027  0.82321750  0.64892437  1
  Si0+  Si100  1  0.82414696  0.57038550  0.68468847  1
  Si0+  Si101  1  0.92624461  0.32359630  0.98299275  1
  Si0+  Si102  1  0.07356752  0.17642276  0.31518366  1
  Si0+  Si103  1  0.82595036  0.57101250  0.35015251  1
  Si0+  Si104  1  0.92651983  0.32111764  0.65113876  1
  Si0+  Si105  1  0.07304785  0.67791355  0.98367619  1
  Si0+  Si106  1  0.18148329  0.92819144  0.34818521  1
  Si0+  Si107  1  0.82206982  0.07305836  0.68425110  1
  Si0+  Si108  1  0.17801680  0.42839277  0.34924922  1
  Si0+  Si109  1  0.17673570  0.42931241  0.67961397  1
  Si0+  Si110  1  0.57208201  0.67728017  0.31945187  1
  Si0+  Si111  1  0.31941848  0.07294595  0.34751577  1
  Si0+  Si112  1  0.17552537  0.42836056  0.01667298  1
  Si0+  Si113  1  0.57197150  0.18048589  0.65393908  1
  Si0+  Si114  1  0.67940812  0.42875643  0.01516713  1
  Si0+  Si115  1  0.31936192  0.57010959  0.68053072  1
  Si0+  Si116  1  0.06931854  0.18121189  0.98459925  1
  Si0+  Si117  1  0.42631388  0.82397582  0.98443402  1
  Si0+  Si118  1  0.57263364  0.17645860  0.98064160  1
  Si0+  Si119  1  0.82135417  0.07362103  0.01477741  1
  O2-  O120  1  0.25320978  -0.00341771  0.06800135  1
  O2-  O121  1  0.25035437  0.00097394  0.39073752  1
  O2-  O122  1  0.25100404  -0.00061002  0.72822179  1
  O2-  O123  1  0.24392115  0.49700591  0.06104735  1
  O2-  O124  1  0.24822084  0.50003389  0.39233929  1
  O2-  O125  1  0.24616837  0.50081298  0.72279424  1
  O2-  O126  1  0.75346897  0.00433784  0.05797206  1
  O2-  O127  1  0.75092114  -0.00230686  0.39765012  1
  O2-  O128  1  0.75785871  0.00012176  0.72819369  1
  O2-  O129  1  0.75224670  0.49724000  0.05760035  1
  O2-  O130  1  0.75507697  0.50407079  0.39405423  1
  O2-  O131  1  0.74996616  0.50726173  0.72971316  1
  O2-  O132  1  0.00115064  0.24167457  0.27116268  1
  O2-  O133  1  -0.00717830  0.25068942  0.60672772  1
  O2-  O134  1  -0.00251391  0.25252766  0.94230973  1
  O2-  O135  1  -0.00008205  0.74912361  0.26704597  1
  O2-  O136  1  0.00060011  0.75765006  0.60772924  1
  O2-  O137  1  0.00986023  0.75098654  0.93871954  1
  O2-  O138  1  0.50000440  0.25149028  0.26922422  1
  O2-  O139  1  0.49858081  0.24948895  0.61171836  1
  O2-  O140  1  0.50027844  0.24140496  0.93573634  1
  O2-  O141  1  0.51166247  0.75226092  0.27393420  1
  O2-  O142  1  0.50696693  0.75575092  0.60223236  1
  O2-  O143  1  0.49744829  0.75749658  0.94069585  1
  O2-  O144  1  0.06830737  0.18315509  0.08966785  1
  O2-  O145  1  0.07606713  0.18015007  0.42073139  1
  O2-  O146  1  0.07013355  0.18312729  0.76612830  1
  O2-  O147  1  0.06771347  0.67320723  0.08854661  1
  O2-  O148  1  0.07273982  0.67896079  0.42962925  1
  O2-  O149  1  0.06990798  0.67634744  0.76775175  1
  O2-  O150  1  0.57785094  0.18158247  0.08553020  1
  O2-  O151  1  0.56961616  0.17967267  0.43307035  1
  O2-  O152  1  0.57309013  0.18280476  0.75901498  1
  O2-  O153  1  0.56953924  0.67816815  0.10056558  1
  O2-  O154  1  0.56603843  0.67314853  0.42452987  1
  O2-  O155  1  0.56632727  0.67553083  0.76379357  1
  O2-  O156  1  0.17677996  0.42751681  0.24431405  1
  O2-  O157  1  0.17783560  0.42855038  0.57453518  1
  O2-  O158  1  0.17479372  0.42885043  0.91048204  1
  O2-  O159  1  0.18154685  0.93039332  0.24325536  1
  O2-  O160  1  0.18060818  0.92754576  0.56518316  1
  O2-  O161  1  0.17615977  0.93123685  0.90344176  1
  O2-  O162  1  0.68007952  0.43340505  0.23198658  1
  O2-  O163  1  0.67885547  0.42668984  0.57048376  1
  O2-  O164  1  0.68051017  0.42941067  0.90991892  1
  O2-  O165  1  0.67854776  0.92673788  0.23502989  1
  O2-  O166  1  0.67930164  0.93207989  0.56787692  1
  O2-  O167  1  0.68315797  0.92599054  0.89954395  1
  O2-  O168  1  0.43444401  0.32074404  0.09754198  1
  O2-  O169  1  0.42741746  0.32116777  0.43303772  1
  O2-  O170  1  0.42769429  0.32277298  0.75747277  1
  O2-  O171  1  0.42808801  0.82076320  0.09019857  1
  O2-  O172  1  0.42693615  0.82183149  0.43146607  1
  O2-  O173  1  0.42911330  0.81986394  0.76873251  1
  O2-  O174  1  0.92514729  0.32468664  0.08780975  1
  O2-  O175  1  0.93228743  0.31852957  0.43395201  1
  O2-  O176  1  0.92927389  0.32158423  0.75740354  1
  O2-  O177  1  0.92847812  0.81933331  0.09748597  1
  O2-  O178  1  0.93169687  0.81988331  0.43246778  1
  O2-  O179  1  0.92671581  0.82104752  0.75492642  1
  O2-  O180  1  0.31623973  0.07392072  0.24270398  1
  O2-  O181  1  0.32090611  0.07613112  0.56616716  1
  O2-  O182  1  0.31523100  0.07551644  0.90489121  1
  O2-  O183  1  0.32161367  0.56944008  0.24629717  1
  O2-  O184  1  0.31933987  0.56798696  0.57537299  1
  O2-  O185  1  0.31998572  0.56774742  0.90071846  1
  O2-  O186  1  0.82037466  0.07047986  0.23426400  1
  O2-  O187  1  0.82006017  0.07708093  0.57920331  1
  O2-  O188  1  0.82114965  0.07550130  0.90891736  1
  O2-  O189  1  0.82475196  0.56922277  0.24397313  1
  O2-  O190  1  0.82930718  0.56512648  0.57966866  1
  O2-  O191  1  0.82566375  0.56602282  0.91031291  1
  O2-  O192  1  0.05250020  0.08159573  0.27119096  1
  O2-  O193  1  0.04311062  0.08262014  0.59677931  1
  O2-  O194  1  0.04071258  0.09067945  0.93560802  1
  O2-  O195  1  0.04915482  0.57865094  0.26279108  1
  O2-  O196  1  0.03867159  0.58338622  0.59972623  1
  O2-  O197  1  0.04327997  0.58537146  0.93553541  1
  O2-  O198  1  0.54223160  0.08302135  0.26279139  1
  O2-  O199  1  0.54694762  0.08838767  0.60700643  1
  O2-  O200  1  0.54956096  0.08060698  0.93847368  1
  O2-  O201  1  0.53820161  0.58714641  0.27086447  1
  O2-  O202  1  0.53631756  0.58015602  0.59781860  1
  O2-  O203  1  0.53596738  0.58440204  0.93299311  1
  O2-  O204  1  0.16397079  0.20854858  0.26662435  1
  O2-  O205  1  0.16466483  0.21466490  0.59620340  1
  O2-  O206  1  0.15957519  0.21144866  0.93607031  1
  O2-  O207  1  0.17109583  0.70619622  0.26329865  1
  O2-  O208  1  0.16830041  0.70502919  0.59862304  1
  O2-  O209  1  0.17007031  0.69791578  0.94314956  1
  O2-  O210  1  0.66964956  0.20738148  0.26509568  1
  O2-  O211  1  0.66319902  0.21236335  0.60794649  1
  O2-  O212  1  0.66436300  0.20607722  0.93131870  1
  O2-  O213  1  0.66946761  0.69155640  0.27795480  1
  O2-  O214  1  0.67526624  0.69176311  0.60229017  1
  O2-  O215  1  0.66704547  0.70527994  0.93165825  1
  O2-  O216  1  0.08088641  0.45352689  0.06176105  1
  O2-  O217  1  0.08612733  0.45518266  0.39735138  1
  O2-  O218  1  0.08389579  0.45377713  0.72680879  1
  O2-  O219  1  0.07977363  0.96458544  0.06910510  1
  O2-  O220  1  0.08918628  0.95265468  0.39557724  1
  O2-  O221  1  0.07927936  0.95648457  0.73036618  1
  O2-  O222  1  0.58839649  0.45874687  0.06127274  1
  O2-  O223  1  0.58331333  0.46173276  0.40169132  1
  O2-  O224  1  0.58024112  0.45998109  0.73735090  1
  O2-  O225  1  0.58385638  0.95394045  0.06650669  1
  O2-  O226  1  0.57805483  0.96001298  0.39915284  1
  O2-  O227  1  0.58633045  0.96146176  0.73736137  1
  O2-  O228  1  0.19923325  0.33517972  0.06299754  1
  O2-  O229  1  0.20658464  0.33648580  0.39717241  1
  O2-  O230  1  0.20626029  0.33883698  0.72872754  1
  O2-  O231  1  0.19889288  0.82935948  0.07050792  1
  O2-  O232  1  0.21239026  0.83566639  0.39217729  1
  O2-  O233  1  0.20536813  0.82829795  0.73293599  1
  O2-  O234  1  0.70664627  0.33565705  0.05999840  1
  O2-  O235  1  0.71081022  0.33426743  0.39894912  1
  O2-  O236  1  0.71059470  0.33594304  0.74246901  1
  O2-  O237  1  0.71410319  0.82974371  0.06521058  1
  O2-  O238  1  0.70266988  0.82708625  0.40183807  1
  O2-  O239  1  0.70939195  0.82848868  0.73101823  1
  O2-  O240  1  0.45730674  0.42225623  0.26839473  1
  O2-  O241  1  0.45712820  0.41239605  0.60487545  1
  O2-  O242  1  0.46378649  0.41336224  0.92906066  1
  O2-  O243  1  0.45510119  0.91892533  0.26259588  1
  O2-  O244  1  0.45692889  0.92403386  0.60419075  1
  O2-  O245  1  0.44755807  0.92017619  0.94285014  1
  O2-  O246  1  0.96279774  0.41228626  0.26320612  1
  O2-  O247  1  0.95336470  0.41323960  0.60411149  1
  O2-  O248  1  0.95479117  0.41476837  0.93423118  1
  O2-  O249  1  0.95835140  0.91919846  0.26556999  1
  O2-  O250  1  0.94627961  0.91862438  0.60515121  1
  O2-  O251  1  0.95587606  0.92020807  0.93134248  1
  O2-  O252  1  0.32959468  0.29688339  0.26495474  1
  O2-  O253  1  0.33580306  0.29714524  0.60447143  1
  O2-  O254  1  0.32970924  0.29397044  0.93351502  1
  O2-  O255  1  0.33883749  0.78483621  0.26157687  1
  O2-  O256  1  0.33519070  0.79024712  0.60025496  1
  O2-  O257  1  0.33215060  0.79453121  0.94184898  1
  O2-  O258  1  0.83369699  0.29063012  0.26404811  1
  O2-  O259  1  0.83098064  0.29671979  0.60935262  1
  O2-  O260  1  0.83486646  0.29590175  0.93400510  1
  O2-  O261  1  0.82936045  0.79128448  0.26698905  1
  O2-  O262  1  0.83615739  0.79201652  0.60144202  1
  O2-  O263  1  0.83764685  0.78313322  0.92858253  1
  O2-  O264  1  0.42109635  0.05245582  0.06987888  1
  O2-  O265  1  0.41249010  0.04655675  0.39217965  1
  O2-  O266  1  0.42028773  0.05142250  0.73590492  1
  O2-  O267  1  0.41647462  0.53287635  0.06868621  1
  O2-  O268  1  0.41019327  0.54205809  0.40150974  1
  O2-  O269  1  0.40915164  0.53873326  0.72937843  1
  O2-  O270  1  0.91550356  0.05217759  0.06006286  1
  O2-  O271  1  0.92266243  0.04406327  0.40088765  1
  O2-  O272  1  0.91761034  0.05135425  0.72819576  1
  O2-  O273  1  0.91365494  0.54165092  0.06395969  1
  O2-  O274  1  0.91989965  0.54186117  0.39350237  1
  O2-  O275  1  0.91468215  0.53781427  0.73507021  1
  O2-  O276  1  0.28574368  0.17053599  0.07099208  1
  O2-  O277  1  0.29127703  0.16539747  0.39416981  1
  O2-  O278  1  0.28852907  0.17175823  0.73277706  1
  O2-  O279  1  0.29497134  0.66489975  0.07228861  1
  O2-  O280  1  0.29145607  0.66341675  0.39756623  1
  O2-  O281  1  0.29229046  0.66146441  0.72843255  1
  O2-  O282  1  0.79500661  0.16841368  0.05961129  1
  O2-  O283  1  0.79564091  0.16884668  0.40156166  1
  O2-  O284  1  0.79469875  0.16506063  0.73368342  1
  O2-  O285  1  0.79233269  0.66011926  0.06184999  1
  O2-  O286  1  0.80473222  0.66453247  0.39732222  1
  O2-  O287  1  0.80522950  0.66563365  0.72956427  1
