# generated using pymatgen
data_Ca2Al2SiO7
_symmetry_space_group_name_H-M   'P 1'
_cell_length_a   15.46157470
_cell_length_b   15.46301515
_cell_length_c   15.28713153
_cell_angle_alpha   89.99021036
_cell_angle_beta   90.01306513
_cell_angle_gamma   89.98904789
_symmetry_Int_Tables_number   1
_chemical_formula_structural   Ca2Al2SiO7
_chemical_formula_sum   'Ca48 Al48 Si24 O168'
_cell_volume   3654.88638452
_cell_formula_units_Z   24
loop_
 _symmetry_equiv_pos_site_id
 _symmetry_equiv_pos_as_xyz
  1  'x, y, z'
loop_
 _atom_type_symbol
 _atom_type_oxidation_number
  Ca2+  2.0
  Al0+  0.0
  Si0+  0.0
  O2-  -2.0
loop_
 _atom_site_type_symbol
 _atom_site_label
 _atom_site_symmetry_multiplicity
 _atom_site_fract_x
 _atom_site_fract_y
 _atom_site_fract_z
 _atom_site_occupancy
  Ca2+  Ca0  1  0.17439621  0.08454728  0.17621542  1
  Ca2+  Ca1  1  0.15865407  0.07349726  0.50076815  1
  Ca2+  Ca2  1  0.16235936  0.07845525  0.83951844  1
  Ca2+  Ca3  1  0.16850289  0.58979887  0.17717583  1
  Ca2+  Ca4  1  0.17042143  0.59728733  0.50083597  1
  Ca2+  Ca5  1  0.16101238  0.58608522  0.83735632  1
  Ca2+  Ca6  1  0.67327879  0.08027230  0.17751601  1
  Ca2+  Ca7  1  0.66450300  0.07178029  0.49994386  1
  Ca2+  Ca8  1  0.67545571  0.07451491  0.83887223  1
  Ca2+  Ca9  1  0.66006389  0.57971630  0.17671940  1
  Ca2+  Ca10  1  0.67129224  0.57543531  0.50582031  1
  Ca2+  Ca11  1  0.67488349  0.58483611  0.83397094  1
  Ca2+  Ca12  1  0.08047292  0.32401485  0.16741983  1
  Ca2+  Ca13  1  0.07738415  0.32259062  0.49215139  1
  Ca2+  Ca14  1  0.08470423  0.31798951  0.82746422  1
  Ca2+  Ca15  1  0.08661956  0.82877996  0.16997931  1
  Ca2+  Ca16  1  0.07425480  0.83316023  0.49338131  1
  Ca2+  Ca17  1  0.07868008  0.82647663  0.82186034  1
  Ca2+  Ca18  1  0.58605627  0.32812775  0.17086195  1
  Ca2+  Ca19  1  0.58982999  0.32991354  0.49126934  1
  Ca2+  Ca20  1  0.58316527  0.33300695  0.82847888  1
  Ca2+  Ca21  1  0.58197429  0.82836371  0.16905234  1
  Ca2+  Ca22  1  0.58002906  0.83315276  0.48625648  1
  Ca2+  Ca23  1  0.58510874  0.83155317  0.82924035  1
  Ca2+  Ca24  1  0.33030999  0.42666259  0.17539971  1
  Ca2+  Ca25  1  0.33364294  0.42537783  0.49836155  1
  Ca2+  Ca26  1  0.32948645  0.41882243  0.83696159  1
  Ca2+  Ca27  1  0.32814994  0.92308394  0.17894918  1
  Ca2+  Ca28  1  0.32092602  0.91467532  0.49707453  1
  Ca2+  Ca29  1  0.32309789  0.92247156  0.83692603  1
  Ca2+  Ca30  1  0.82970304  0.41817076  0.17767047  1
  Ca2+  Ca31  1  0.82842588  0.41975066  0.50358711  1
  Ca2+  Ca32  1  0.83309580  0.42153391  0.83166933  1
  Ca2+  Ca33  1  0.83187752  0.91940140  0.17250986  1
  Ca2+  Ca34  1  0.82494875  0.90367143  0.50270820  1
  Ca2+  Ca35  1  0.83312584  0.91604302  0.83250809  1
  Ca2+  Ca36  1  0.42109817  0.15475517  0.16728599  1
  Ca2+  Ca37  1  0.42293507  0.16542369  0.49007289  1
  Ca2+  Ca38  1  0.41371874  0.16553051  0.83165827  1
  Ca2+  Ca39  1  0.42298741  0.67039085  0.17032791  1
  Ca2+  Ca40  1  0.42248113  0.67389735  0.48696780  1
  Ca2+  Ca41  1  0.42501059  0.66681571  0.83176717  1
  Ca2+  Ca42  1  0.92520117  0.16575694  0.16501527  1
  Ca2+  Ca43  1  0.92601051  0.16974781  0.49143684  1
  Ca2+  Ca44  1  0.92544427  0.15837601  0.83087986  1
  Ca2+  Ca45  1  0.92456300  0.67431130  0.16588937  1
  Ca2+  Ca46  1  0.92067350  0.67419569  0.49501995  1
  Ca2+  Ca47  1  0.92491618  0.67056318  0.82283318  1
  Al0+  Al48  1  -0.00208610  -0.00071771  0.00152269  1
  Al0+  Al49  1  0.00068513  0.00110298  0.32801117  1
  Al0+  Al50  1  -0.00016845  -0.00267850  0.66300413  1
  Al0+  Al51  1  -0.00215104  0.49919003  -0.00202615  1
  Al0+  Al52  1  -0.00014793  0.49894863  0.32750053  1
  Al0+  Al53  1  0.00277384  0.49807936  0.66790396  1
  Al0+  Al54  1  0.49871902  -0.00104857  0.00007217  1
  Al0+  Al55  1  0.50099774  0.00106498  0.33208626  1
  Al0+  Al56  1  0.50033060  0.00102690  0.67258131  1
  Al0+  Al57  1  0.49883358  0.49997696  -0.00490342  1
  Al0+  Al58  1  0.49924715  0.49883516  0.33928601  1
  Al0+  Al59  1  0.49862528  0.49905244  0.67126588  1
  Al0+  Al60  1  0.24945324  0.25085385  0.00015569  1
  Al0+  Al61  1  0.25193498  0.25323945  0.33470129  1
  Al0+  Al62  1  0.25228251  0.25206022  0.66106144  1
  Al0+  Al63  1  0.25152658  0.74994778  -0.00437223  1
  Al0+  Al64  1  0.25185503  0.75258020  0.33461924  1
  Al0+  Al65  1  0.25335169  0.75237954  0.67175642  1
  Al0+  Al66  1  0.74887302  0.25018034  0.00247940  1
  Al0+  Al67  1  0.74927511  0.25055537  0.33033460  1
  Al0+  Al68  1  0.74929636  0.24948133  0.67218689  1
  Al0+  Al69  1  0.74942932  0.74787940  -0.00357014  1
  Al0+  Al70  1  0.75164424  0.74886360  0.32823920  1
  Al0+  Al71  1  0.74980820  0.74749377  0.67336863  1
  Al0+  Al72  1  0.82049765  0.07089221  0.01486760  1
  Al0+  Al73  1  0.82316410  0.56973403  0.68195951  1
  Al0+  Al74  1  0.17849884  0.93011102  0.68128067  1
  Al0+  Al75  1  0.31930210  0.07179520  0.01351027  1
  Al0+  Al76  1  0.32243771  0.07365963  0.34945909  1
  Al0+  Al77  1  0.92682719  0.82260490  0.31643342  1
  Al0+  Al78  1  0.07198111  0.68045324  0.31988980  1
  Al0+  Al79  1  0.07436806  0.67730621  0.65170403  1
  Al0+  Al80  1  0.92711416  0.81917078  0.65143780  1
  Al0+  Al81  1  0.67999266  0.42901684  0.34607804  1
  Al0+  Al82  1  0.92752464  0.32094423  0.31891889  1
  Al0+  Al83  1  0.42947567  0.82302001  0.31927220  1
  Al0+  Al84  1  0.67728268  0.92842210  0.68042648  1
  Al0+  Al85  1  0.07158399  0.17783182  0.65250145  1
  Al0+  Al86  1  0.68184256  0.92820280  0.34411785  1
  Al0+  Al87  1  0.31937106  0.57173132  0.34658117  1
  Al0+  Al88  1  0.17752140  0.93031594  0.34837363  1
  Al0+  Al89  1  0.07017203  0.18029821  0.98599768  1
  Al0+  Al90  1  0.07338546  0.17896138  0.31765118  1
  Al0+  Al91  1  0.57164571  0.67673316  0.32214460  1
  Al0+  Al92  1  0.07136665  0.67926932  0.98557390  1
  Al0+  Al93  1  0.56967125  0.17917640  0.32067621  1
  Al0+  Al94  1  0.67788262  0.42748245  0.68407978  1
  Al0+  Al95  1  0.56983780  0.67817896  0.98419612  1
  Si0+  Si96  1  0.42972589  0.32069199  0.98478793  1
  Si0+  Si97  1  0.18115344  0.42694435  0.68194242  1
  Si0+  Si98  1  0.17783722  0.92661462  0.01635199  1
  Si0+  Si99  1  0.92501984  0.32172633  0.98113531  1
  Si0+  Si100  1  0.82086283  0.57043819  0.01662570  1
  Si0+  Si101  1  0.67695629  0.43047759  0.01622554  1
  Si0+  Si102  1  0.32078180  0.57175498  0.68430600  1
  Si0+  Si103  1  0.56962395  0.67797737  0.65268238  1
  Si0+  Si104  1  0.32137846  0.07407148  0.68307989  1
  Si0+  Si105  1  0.92722992  0.32121505  0.65179158  1
  Si0+  Si106  1  0.82439871  0.57195229  0.34810239  1
  Si0+  Si107  1  0.92731406  0.82143104  0.98171723  1
  Si0+  Si108  1  0.82205605  0.07262789  0.34951615  1
  Si0+  Si109  1  0.32100803  0.57050378  0.01399430  1
  Si0+  Si110  1  0.42870452  0.82351251  0.98017383  1
  Si0+  Si111  1  0.82200046  0.07194085  0.68150340  1
  Si0+  Si112  1  0.57078933  0.17930014  0.65418694  1
  Si0+  Si113  1  0.43176552  0.82276722  0.65284110  1
  Si0+  Si114  1  0.17597801  0.42901765  0.35067423  1
  Si0+  Si115  1  0.42964460  0.32255517  0.65044805  1
  Si0+  Si116  1  0.67791097  0.92628315  0.01739096  1
  Si0+  Si117  1  0.57153199  0.17796903  0.98414197  1
  Si0+  Si118  1  0.42841321  0.32381701  0.31666393  1
  Si0+  Si119  1  0.17823163  0.42960722  0.01407112  1
  O2-  O120  1  0.24452880  -0.00228900  0.05925150  1
  O2-  O121  1  0.24702665  0.00551641  0.39886345  1
  O2-  O122  1  0.24917501  0.00959428  0.72763509  1
  O2-  O123  1  0.24382688  0.50614750  0.05568860  1
  O2-  O124  1  0.24086677  0.50149913  0.39501976  1
  O2-  O125  1  0.24643316  0.50333488  0.72562416  1
  O2-  O126  1  0.74505424  -0.00353318  0.06051728  1
  O2-  O127  1  0.75847088  -0.00056783  0.39404190  1
  O2-  O128  1  0.75403613  0.00181253  0.72561760  1
  O2-  O129  1  0.74849515  0.50040641  0.05854072  1
  O2-  O130  1  0.75421119  0.50406345  0.39156813  1
  O2-  O131  1  0.75040501  0.49839914  0.73425990  1
  O2-  O132  1  -0.00049753  0.24951668  0.26824646  1
  O2-  O133  1  -0.00591964  0.25082700  0.60834599  1
  O2-  O134  1  -0.00689085  0.25216843  0.93710175  1
  O2-  O135  1  0.00112755  0.75199331  0.26777078  1
  O2-  O136  1  0.00052076  0.74752475  0.60327428  1
  O2-  O137  1  -0.00162919  0.75466418  0.93843177  1
  O2-  O138  1  0.49243918  0.25106601  0.27230555  1
  O2-  O139  1  0.50256802  0.25268848  0.61123997  1
  O2-  O140  1  0.49892962  0.24782147  0.94177682  1
  O2-  O141  1  0.50242945  0.75074251  0.27082408  1
  O2-  O142  1  0.50371599  0.75292564  0.61044032  1
  O2-  O143  1  0.49869189  0.75571428  0.93589777  1
  O2-  O144  1  0.07266485  0.18485746  0.09792109  1
  O2-  O145  1  0.07094883  0.18117987  0.43148321  1
  O2-  O146  1  0.07219181  0.17980672  0.76633807  1
  O2-  O147  1  0.07162144  0.67867379  0.09798149  1
  O2-  O148  1  0.07012878  0.68062218  0.43303185  1
  O2-  O149  1  0.07260916  0.67988724  0.76599640  1
  O2-  O150  1  0.57187343  0.17940868  0.08875397  1
  O2-  O151  1  0.57052668  0.18078160  0.43424632  1
  O2-  O152  1  0.56760147  0.17941225  0.75979557  1
  O2-  O153  1  0.56617789  0.67453275  0.09643333  1
  O2-  O154  1  0.56997675  0.67648474  0.43608607  1
  O2-  O155  1  0.56562207  0.67785904  0.75830970  1
  O2-  O156  1  0.17951788  0.42818292  0.24456554  1
  O2-  O157  1  0.18565739  0.42252527  0.57772240  1
  O2-  O158  1  0.18252668  0.42772176  0.90857376  1
  O2-  O159  1  0.18073976  0.92914484  0.23443320  1
  O2-  O160  1  0.18031221  0.92811501  0.56924237  1
  O2-  O161  1  0.17961927  0.92724995  0.91024678  1
  O2-  O162  1  0.67893746  0.43049147  0.23227919  1
  O2-  O163  1  0.67663965  0.42790331  0.57108903  1
  O2-  O164  1  0.67664443  0.43036010  0.91122585  1
  O2-  O165  1  0.68167985  0.93129870  0.23088422  1
  O2-  O166  1  0.67259148  0.93031126  0.56786579  1
  O2-  O167  1  0.67831049  0.92808759  0.91123896  1
  O2-  O168  1  0.43152298  0.32559839  0.08899878  1
  O2-  O169  1  0.43106114  0.32593508  0.42246182  1
  O2-  O170  1  0.42700479  0.32225072  0.75612822  1
  O2-  O171  1  0.42762658  0.82341017  0.08500217  1
  O2-  O172  1  0.43068884  0.82088053  0.43352561  1
  O2-  O173  1  0.43234485  0.82080667  0.75839196  1
  O2-  O174  1  0.92544948  0.32320190  0.08613239  1
  O2-  O175  1  0.92788998  0.31954426  0.43298476  1
  O2-  O176  1  0.92924285  0.32061655  0.75778880  1
  O2-  O177  1  0.92501095  0.81954549  0.08681117  1
  O2-  O178  1  0.92356719  0.81863418  0.42962812  1
  O2-  O179  1  0.92918803  0.81993329  0.76561761  1
  O2-  O180  1  0.32136291  0.07100612  0.23544925  1
  O2-  O181  1  0.32595174  0.07323340  0.57853340  1
  O2-  O182  1  0.31868595  0.07155731  0.89985079  1
  O2-  O183  1  0.32048536  0.56814926  0.23282190  1
  O2-  O184  1  0.32472804  0.57030438  0.57977304  1
  O2-  O185  1  0.32292119  0.56636335  0.90850190  1
  O2-  O186  1  0.81782092  0.07364987  0.24363934  1
  O2-  O187  1  0.81821210  0.07745826  0.57665847  1
  O2-  O188  1  0.81863382  0.06989720  0.90121720  1
  O2-  O189  1  0.82421103  0.56986489  0.24202992  1
  O2-  O190  1  0.82030448  0.56854964  0.56865260  1
  O2-  O191  1  0.82111954  0.56851065  0.91166247  1
  O2-  O192  1  0.04769776  0.08159897  0.26299791  1
  O2-  O193  1  0.04167536  0.08184044  0.59938431  1
  O2-  O194  1  0.03999641  0.08183449  0.93438645  1
  O2-  O195  1  0.04709419  0.58119028  0.26649868  1
  O2-  O196  1  0.05413767  0.57508258  0.60376045  1
  O2-  O197  1  0.04054745  0.58117212  0.93309546  1
  O2-  O198  1  0.54131055  0.08428565  0.26313769  1
  O2-  O199  1  0.54042450  0.08794730  0.60768278  1
  O2-  O200  1  0.54483344  0.08553957  0.93677546  1
  O2-  O201  1  0.53735067  0.57968871  0.26931349  1
  O2-  O202  1  0.53700436  0.58655728  0.60791860  1
  O2-  O203  1  0.53425668  0.58357613  0.92758686  1
  O2-  O204  1  0.17170272  0.21189564  0.26678466  1
  O2-  O205  1  0.16736715  0.21213578  0.59980173  1
  O2-  O206  1  0.16602412  0.21505317  0.93106850  1
  O2-  O207  1  0.17067861  0.70860957  0.26755674  1
  O2-  O208  1  0.17533756  0.70644678  0.60535509  1
  O2-  O209  1  0.17003406  0.70489020  0.93186178  1
  O2-  O210  1  0.66351417  0.21352683  0.26379421  1
  O2-  O211  1  0.66376136  0.20449831  0.60882860  1
  O2-  O212  1  0.66221567  0.20881032  0.93591306  1
  O2-  O213  1  0.66929230  0.70057382  0.26678608  1
  O2-  O214  1  0.66421099  0.69896052  0.61080434  1
  O2-  O215  1  0.66737614  0.70612152  0.92996956  1
  O2-  O216  1  0.08392532  0.45100572  0.05852812  1
  O2-  O217  1  0.08050439  0.44897936  0.39423793  1
  O2-  O218  1  0.08822590  0.44708105  0.73046636  1
  O2-  O219  1  0.08266069  0.94762731  0.05935406  1
  O2-  O220  1  0.07760345  0.95732820  0.39962816  1
  O2-  O221  1  0.08061528  0.95772725  0.73487909  1
  O2-  O222  1  0.58430986  0.45952758  0.06107096  1
  O2-  O223  1  0.58390275  0.45663552  0.40208487  1
  O2-  O224  1  0.57880790  0.45608453  0.73750236  1
  O2-  O225  1  0.58285656  0.95020040  0.05995185  1
  O2-  O226  1  0.58655268  0.96231778  0.39825476  1
  O2-  O227  1  0.58353647  0.96314883  0.73978262  1
  O2-  O228  1  0.21263640  0.34124223  0.06320513  1
  O2-  O229  1  0.20696260  0.33826892  0.39931380  1
  O2-  O230  1  0.21705312  0.33804169  0.73213493  1
  O2-  O231  1  0.20774625  0.83324171  0.06054771  1
  O2-  O232  1  0.21028137  0.83400036  0.40268339  1
  O2-  O233  1  0.21580326  0.83645660  0.73897618  1
  O2-  O234  1  0.70228411  0.33746827  0.06218557  1
  O2-  O235  1  0.71098358  0.33245488  0.40012733  1
  O2-  O236  1  0.70437501  0.32880291  0.73930413  1
  O2-  O237  1  0.70396478  0.83170439  0.06051285  1
  O2-  O238  1  0.70850851  0.82973478  0.39701636  1
  O2-  O239  1  0.70498842  0.83202971  0.73632778  1
  O2-  O240  1  0.45927303  0.41489686  0.26867866  1
  O2-  O241  1  0.45582891  0.41544832  0.60455173  1
  O2-  O242  1  0.45923722  0.41026339  0.93265848  1
  O2-  O243  1  0.45868916  0.91962616  0.26456510  1
  O2-  O244  1  0.45816021  0.91581243  0.60834319  1
  O2-  O245  1  0.45392863  0.91702763  0.93224085  1
  O2-  O246  1  0.95515718  0.41793924  0.26239133  1
  O2-  O247  1  0.95515922  0.41346956  0.60565186  1
  O2-  O248  1  0.95199071  0.41486700  0.93452252  1
  O2-  O249  1  0.95226233  0.92134046  0.26364056  1
  O2-  O250  1  0.95157189  0.91790670  0.59868999  1
  O2-  O251  1  0.95002217  0.91623668  0.93703833  1
  O2-  O252  1  0.33328970  0.30585882  0.27132253  1
  O2-  O253  1  0.33985142  0.29540685  0.59976624  1
  O2-  O254  1  0.33796749  0.29384910  0.93592338  1
  O2-  O255  1  0.33325627  0.79223554  0.26468659  1
  O2-  O256  1  0.34052191  0.79258268  0.60729279  1
  O2-  O257  1  0.33640501  0.79516990  0.93204928  1
  O2-  O258  1  0.83029073  0.29313276  0.26367731  1
  O2-  O259  1  0.83162093  0.29788611  0.60896600  1
  O2-  O260  1  0.83030316  0.29732949  0.93608283  1
  O2-  O261  1  0.83114952  0.79162455  0.25920550  1
  O2-  O262  1  0.82727878  0.78887859  0.60214328  1
  O2-  O263  1  0.83441059  0.79368966  0.93484148  1
  O2-  O264  1  0.41778315  0.04231569  0.06466214  1
  O2-  O265  1  0.42069336  0.04360616  0.40131335  1
  O2-  O266  1  0.41294408  0.04512149  0.73311773  1
  O2-  O267  1  0.41035661  0.53476480  0.06086593  1
  O2-  O268  1  0.41246233  0.53525492  0.40439407  1
  O2-  O269  1  0.40973342  0.53775462  0.73492351  1
  O2-  O270  1  0.91694854  0.04118659  0.06943292  1
  O2-  O271  1  0.91822921  0.05381250  0.39108483  1
  O2-  O272  1  0.91517541  0.04488990  0.72758177  1
  O2-  O273  1  0.91236882  0.54121785  0.06383560  1
  O2-  O274  1  0.91718634  0.54409675  0.39425207  1
  O2-  O275  1  0.92173430  0.53968440  0.73612359  1
  O2-  O276  1  0.29249191  0.16997882  0.06604319  1
  O2-  O277  1  0.30271128  0.17578906  0.39895105  1
  O2-  O278  1  0.30004720  0.17031869  0.72669647  1
  O2-  O279  1  0.30040375  0.66524533  0.05761671  1
  O2-  O280  1  0.29378877  0.66839529  0.40185281  1
  O2-  O281  1  0.29856287  0.66371559  0.73408306  1
  O2-  O282  1  0.78917622  0.16791476  0.06789215  1
  O2-  O283  1  0.79056304  0.16408461  0.39585858  1
  O2-  O284  1  0.79582299  0.16366010  0.73236592  1
  O2-  O285  1  0.79399305  0.66337957  0.06144708  1
  O2-  O286  1  0.79926255  0.66540457  0.39299391  1
  O2-  O287  1  0.79244699  0.66550517  0.73989391  1
