# generated using pymatgen
data_Ca2Al2SiO7
_symmetry_space_group_name_H-M   'P 1'
_cell_length_a   15.45990114
_cell_length_b   15.46022362
_cell_length_c   15.28488943
_cell_angle_alpha   90.01707881
_cell_angle_beta   89.99732515
_cell_angle_gamma   89.99454429
_symmetry_Int_Tables_number   1
_chemical_formula_structural   Ca2Al2SiO7
_chemical_formula_sum   'Ca48 Al48 Si24 O168'
_cell_volume   3653.29517782
_cell_formula_units_Z   24
loop_
 _symmetry_equiv_pos_site_id
 _symmetry_equiv_pos_as_xyz
  1  'x, y, z'
loop_
 _atom_type_symbol
 _atom_type_oxidation_number
  Ca2+  2.0
  Al0+  0.0
  Si0+  0.0
  O2-  -2.0
loop_
 _atom_site_type_symbol
 _atom_site_label
 _atom_site_symmetry_multiplicity
 _atom_site_fract_x
 _atom_site_fract_y
 _atom_site_fract_z
 _atom_site_occupancy
  Ca2+  Ca0  1  0.16641698  0.07590317  0.17473180  1
  Ca2+  Ca1  1  0.15972140  0.08245257  0.50147747  1
  Ca2+  Ca2  1  0.16764610  0.08599909  0.83552704  1
  Ca2+  Ca3  1  0.17129353  0.58152378  0.16770098  1
  Ca2+  Ca4  1  0.17063148  0.57817755  0.50990336  1
  Ca2+  Ca5  1  0.17715012  0.57268353  0.83723021  1
  Ca2+  Ca6  1  0.65998071  0.07802525  0.16358891  1
  Ca2+  Ca7  1  0.66790097  0.07637777  0.50825408  1
  Ca2+  Ca8  1  0.65822466  0.07315896  0.83925252  1
  Ca2+  Ca9  1  0.66624946  0.58156183  0.16571631  1
  Ca2+  Ca10  1  0.67972280  0.58015139  0.50806666  1
  Ca2+  Ca11  1  0.66666493  0.57571229  0.83461430  1
  Ca2+  Ca12  1  0.08584840  0.32969419  0.16280262  1
  Ca2+  Ca13  1  0.08578538  0.32750151  0.49993435  1
  Ca2+  Ca14  1  0.08397489  0.33380603  0.82296710  1
  Ca2+  Ca15  1  0.08127676  0.82711311  0.16291706  1
  Ca2+  Ca16  1  0.07836673  0.82541856  0.49328986  1
  Ca2+  Ca17  1  0.06845680  0.83251238  0.82700638  1
  Ca2+  Ca18  1  0.57423032  0.33234111  0.15460569  1
  Ca2+  Ca19  1  0.57110341  0.35009826  0.50108945  1
  Ca2+  Ca20  1  0.57783671  0.34216088  0.82953275  1
  Ca2+  Ca21  1  0.57948792  0.82619134  0.15127221  1
  Ca2+  Ca22  1  0.57912729  0.83574454  0.50336219  1
  Ca2+  Ca23  1  0.57867469  0.82999431  0.82973214  1
  Ca2+  Ca24  1  0.33701347  0.41722332  0.16417431  1
  Ca2+  Ca25  1  0.33054293  0.41976730  0.51204392  1
  Ca2+  Ca26  1  0.32925620  0.41840317  0.84012941  1
  Ca2+  Ca27  1  0.33040685  0.91630260  0.17160086  1
  Ca2+  Ca28  1  0.32504243  0.91530326  0.50716242  1
  Ca2+  Ca29  1  0.33864882  0.91528970  0.83804845  1
  Ca2+  Ca30  1  0.82399236  0.42189456  0.17184136  1
  Ca2+  Ca31  1  0.83331988  0.42652131  0.51220097  1
  Ca2+  Ca32  1  0.82649808  0.41569957  0.83659101  1
  Ca2+  Ca33  1  0.82909880  0.91031978  0.16361302  1
  Ca2+  Ca34  1  0.82869415  0.91608103  0.51011678  1
  Ca2+  Ca35  1  0.82393172  0.91029377  0.83743558  1
  Ca2+  Ca36  1  0.42085542  0.17812634  0.15967532  1
  Ca2+  Ca37  1  0.41693091  0.18188269  0.49775288  1
  Ca2+  Ca38  1  0.42220284  0.17975269  0.83265643  1
  Ca2+  Ca39  1  0.42147850  0.67192291  0.15352620  1
  Ca2+  Ca40  1  0.41243709  0.66856094  0.50192155  1
  Ca2+  Ca41  1  0.41537156  0.66858741  0.83167941  1
  Ca2+  Ca42  1  0.92476076  0.16271970  0.16467668  1
  Ca2+  Ca43  1  0.92558934  0.17340899  0.50182069  1
  Ca2+  Ca44  1  0.92502495  0.17471508  0.82336362  1
  Ca2+  Ca45  1  0.92094285  0.66591177  0.16426093  1
  Ca2+  Ca46  1  0.91688293  0.66427804  0.49668616  1
  Ca2+  Ca47  1  0.90925962  0.67478186  0.82772988  1
  Al0+  Al48  1  -0.00019015  -0.00059083  -0.00345874  1
  Al0+  Al49  1  -0.00216506  -0.00014551  0.33391366  1
  Al0+  Al50  1  -0.00094677  -0.00130892  0.65912099  1
  Al0+  Al51  1  0.00179778  0.49841622  0.00492039  1
  Al0+  Al52  1  0.00035159  0.50062678  0.33171512  1
  Al0+  Al53  1  0.00134179  0.50146469  0.67210180  1
  Al0+  Al54  1  0.49965389  0.00113534  0.00078374  1
  Al0+  Al55  1  0.49812566  0.00266533  0.33574459  1
  Al0+  Al56  1  0.49825312  -0.00062881  0.66446423  1
  Al0+  Al57  1  0.50014086  0.50158881  0.00103508  1
  Al0+  Al58  1  0.49883292  0.50269156  0.32869445  1
  Al0+  Al59  1  0.50245685  0.50376593  0.66740703  1
  Al0+  Al60  1  0.25100834  0.24794250  0.00195637  1
  Al0+  Al61  1  0.25033077  0.24968982  0.32446239  1
  Al0+  Al62  1  0.25278261  0.24727797  0.66194898  1
  Al0+  Al63  1  0.24826198  0.74880017  -0.00021956  1
  Al0+  Al64  1  0.24778210  0.75025463  0.33375603  1
  Al0+  Al65  1  0.24921810  0.75178089  0.66769734  1
  Al0+  Al66  1  0.75286836  0.24781249  0.00355101  1
  Al0+  Al67  1  0.74738439  0.24822272  0.33555579  1
  Al0+  Al68  1  0.75203140  0.24840752  0.66482943  1
  Al0+  Al69  1  0.74986617  0.75063859  -0.00186655  1
  Al0+  Al70  1  0.74886582  0.74935799  0.33746498  1
  Al0+  Al71  1  0.74829088  0.75094690  0.66837278  1
  Al0+  Al72  1  0.68025848  0.42723355  0.68049781  1
  Al0+  Al73  1  0.93128840  0.81955294  0.98683032  1
  Al0+  Al74  1  0.67801174  0.93149422  0.68097924  1
  Al0+  Al75  1  0.17883025  0.92875669  0.34739998  1
  Al0+  Al76  1  0.57415915  0.17922101  0.98560116  1
  Al0+  Al77  1  0.43076528  0.32249526  0.31800936  1
  Al0+  Al78  1  0.32091843  0.57187127  0.01699101  1
  Al0+  Al79  1  0.07138873  0.67799962  0.31929793  1
  Al0+  Al80  1  0.42992267  0.32108227  0.98347366  1
  Al0+  Al81  1  0.67907221  0.92972963  0.01387438  1
  Al0+  Al82  1  0.67989964  0.42757395  0.01431796  1
  Al0+  Al83  1  0.42670857  0.82147054  0.98656733  1
  Al0+  Al84  1  0.17914024  0.42632712  0.01810297  1
  Al0+  Al85  1  0.07329371  0.17903492  0.65146317  1
  Al0+  Al86  1  0.43248729  0.32300926  0.65394800  1
  Al0+  Al87  1  0.92650009  0.81879319  0.65114033  1
  Al0+  Al88  1  0.18146565  0.42583999  0.67954974  1
  Al0+  Al89  1  0.82116804  0.56938851  0.34657082  1
  Al0+  Al90  1  0.32181722  0.57382729  0.68123486  1
  Al0+  Al91  1  0.57216765  0.67813987  0.98350974  1
  Al0+  Al92  1  0.92838073  0.32430012  0.65286139  1
  Al0+  Al93  1  0.82331297  0.57199102  0.68308208  1
  Al0+  Al94  1  0.06841781  0.17908420  0.31745309  1
  Al0+  Al95  1  0.42803262  0.82173644  0.65139363  1
  Si0+  Si96  1  0.17709532  0.92974804  0.68203670  1
  Si0+  Si97  1  0.07080076  0.17847074  0.98618641  1
  Si0+  Si98  1  0.07196066  0.67971888  0.65152201  1
  Si0+  Si99  1  0.92613613  0.32249713  0.31636546  1
  Si0+  Si100  1  0.57167095  0.67935996  0.64717895  1
  Si0+  Si101  1  0.82120195  0.07193929  0.35013052  1
  Si0+  Si102  1  0.17641517  0.93007070  0.01323139  1
  Si0+  Si103  1  0.32056591  0.06976754  0.68154794  1
  Si0+  Si104  1  0.93004550  0.32155648  0.98811655  1
  Si0+  Si105  1  0.32081299  0.06983617  0.01601905  1
  Si0+  Si106  1  0.57115688  0.68256724  0.31892730  1
  Si0+  Si107  1  0.92595375  0.82104395  0.31661336  1
  Si0+  Si108  1  0.67625550  0.42806161  0.34875431  1
  Si0+  Si109  1  0.18028467  0.42769546  0.34740324  1
  Si0+  Si110  1  0.82236294  0.57273408  0.01751823  1
  Si0+  Si111  1  0.82510066  0.07068459  0.01767572  1
  Si0+  Si112  1  0.57279628  0.17526832  0.31633889  1
  Si0+  Si113  1  0.32114420  0.57145160  0.34827317  1
  Si0+  Si114  1  0.67792124  0.92946148  0.34819757  1
  Si0+  Si115  1  0.07201021  0.67491334  0.98198573  1
  Si0+  Si116  1  0.82398017  0.07080462  0.68318696  1
  Si0+  Si117  1  0.42822372  0.82219861  0.32027039  1
  Si0+  Si118  1  0.57195571  0.17654135  0.64990887  1
  Si0+  Si119  1  0.32065462  0.07305190  0.35122753  1
  O2-  O120  1  0.25180421  -0.00435603  0.05672432  1
  O2-  O121  1  0.25273538  0.00373430  0.39593059  1
  O2-  O122  1  0.24741496  0.00095366  0.72444764  1
  O2-  O123  1  0.25064926  0.49856364  0.06883791  1
  O2-  O124  1  0.25131539  0.49883075  0.38960520  1
  O2-  O125  1  0.25514076  0.49605031  0.72935473  1
  O2-  O126  1  0.75362794  0.00441791  0.06214361  1
  O2-  O127  1  0.74818578  0.00141058  0.39003121  1
  O2-  O128  1  0.75249543  0.00606358  0.72815402  1
  O2-  O129  1  0.75357226  0.50372966  0.06154944  1
  O2-  O130  1  0.75002275  0.49098774  0.39244372  1
  O2-  O131  1  0.75579544  0.49502889  0.73120007  1
  O2-  O132  1  -0.00644394  0.25325580  0.26998219  1
  O2-  O133  1  0.00351048  0.25456117  0.60316694  1
  O2-  O134  1  0.00412464  0.25350760  0.94598001  1
  O2-  O135  1  -0.00450109  0.75278875  0.27344606  1
  O2-  O136  1  -0.00060143  0.74301626  0.60454404  1
  O2-  O137  1  0.00185519  0.74224684  0.93838196  1
  O2-  O138  1  0.50853337  0.24880895  0.27473932  1
  O2-  O139  1  0.51142500  0.25249707  0.60536868  1
  O2-  O140  1  0.50827989  0.25545466  0.93409433  1
  O2-  O141  1  0.50136426  0.75495635  0.27713457  1
  O2-  O142  1  0.50006118  0.74583039  0.60265098  1
  O2-  O143  1  0.49773494  0.74937999  0.93602101  1
  O2-  O144  1  0.06813966  0.17465913  0.09146436  1
  O2-  O145  1  0.06756043  0.18027212  0.42978297  1
  O2-  O146  1  0.07149908  0.17638391  0.76547736  1
  O2-  O147  1  0.07125754  0.67748789  0.08819038  1
  O2-  O148  1  0.07238657  0.67938945  0.43216731  1
  O2-  O149  1  0.07363311  0.68561417  0.75670738  1
  O2-  O150  1  0.56916465  0.17891727  0.09978806  1
  O2-  O151  1  0.57182328  0.16859109  0.42150724  1
  O2-  O152  1  0.56649225  0.17144145  0.75475234  1
  O2-  O153  1  0.57297986  0.68236270  0.09857172  1
  O2-  O154  1  0.57129550  0.68272149  0.42376409  1
  O2-  O155  1  0.57334885  0.68072077  0.75207952  1
  O2-  O156  1  0.18098332  0.42827829  0.24257410  1
  O2-  O157  1  0.18304087  0.42681521  0.56494772  1
  O2-  O158  1  0.17819885  0.42475113  0.90501067  1
  O2-  O159  1  0.18171334  0.92937287  0.23372926  1
  O2-  O160  1  0.17848242  0.92938842  0.57665403  1
  O2-  O161  1  0.17289870  0.93500553  0.90834152  1
  O2-  O162  1  0.67619606  0.42991230  0.24313291  1
  O2-  O163  1  0.67882643  0.43276512  0.56620807  1
  O2-  O164  1  0.68411063  0.42585835  0.90199757  1
  O2-  O165  1  0.67766916  0.92884250  0.24326876  1
  O2-  O166  1  0.67860072  0.93380499  0.56668490  1
  O2-  O167  1  0.67948266  0.93098017  0.90144207  1
  O2-  O168  1  0.42930300  0.31654223  0.09743304  1
  O2-  O169  1  0.43093976  0.32310657  0.43136285  1
  O2-  O170  1  0.43019080  0.31997947  0.76608309  1
  O2-  O171  1  0.42847347  0.82226516  0.10137457  1
  O2-  O172  1  0.42872964  0.82122356  0.42532479  1
  O2-  O173  1  0.42958250  0.82396483  0.76352646  1
  O2-  O174  1  0.93018243  0.31912208  0.09358910  1
  O2-  O175  1  0.92773693  0.32176043  0.42149641  1
  O2-  O176  1  0.92846772  0.31959636  0.76685872  1
  O2-  O177  1  0.93437794  0.82081098  0.10043793  1
  O2-  O178  1  0.92495979  0.82061724  0.42204052  1
  O2-  O179  1  0.92884762  0.82096110  0.76417609  1
  O2-  O180  1  0.32172779  0.06958049  0.24553026  1
  O2-  O181  1  0.32115178  0.06821230  0.57619787  1
  O2-  O182  1  0.31815417  0.07200670  0.91090351  1
  O2-  O183  1  0.32184077  0.57297791  0.24371912  1
  O2-  O184  1  0.31786843  0.57373116  0.56630556  1
  O2-  O185  1  0.31698709  0.57338803  0.90409433  1
  O2-  O186  1  0.82298303  0.07239490  0.24515327  1
  O2-  O187  1  0.82302705  0.06786869  0.57691001  1
  O2-  O188  1  0.83093580  0.06898991  0.91287047  1
  O2-  O189  1  0.81788573  0.57044671  0.23346998  1
  O2-  O190  1  0.82043838  0.57263944  0.56880286  1
  O2-  O191  1  0.82399825  0.57154047  0.91251510  1
  O2-  O192  1  0.03585098  0.08191085  0.26394191  1
  O2-  O193  1  0.04026052  0.08269947  0.59597702  1
  O2-  O194  1  0.03972457  0.08908237  0.93632480  1
  O2-  O195  1  0.04152646  0.58204473  0.26331895  1
  O2-  O196  1  0.05214724  0.58409479  0.60783492  1
  O2-  O197  1  0.04846455  0.57986997  0.93904477  1
  O2-  O198  1  0.54189724  0.08338432  0.26792232  1
  O2-  O199  1  0.53756107  0.08715454  0.59950829  1
  O2-  O200  1  0.53871875  0.08320358  0.93325257  1
  O2-  O201  1  0.54258657  0.59170790  0.27035603  1
  O2-  O202  1  0.54887469  0.58626821  0.59867952  1
  O2-  O203  1  0.54674648  0.57947447  0.93223478  1
  O2-  O204  1  0.16502411  0.20698825  0.26214143  1
  O2-  O205  1  0.17196531  0.20154055  0.59622235  1
  O2-  O206  1  0.16420562  0.20108419  0.94085767  1
  O2-  O207  1  0.16664919  0.71234121  0.26379244  1
  O2-  O208  1  0.16293135  0.71104158  0.60281882  1
  O2-  O209  1  0.16422067  0.70281679  0.93624912  1
  O2-  O210  1  0.66863133  0.19456572  0.27196963  1
  O2-  O211  1  0.66904968  0.19135298  0.60724637  1
  O2-  O212  1  0.67699750  0.19587288  0.93813487  1
  O2-  O213  1  0.66287866  0.71042339  0.27131377  1
  O2-  O214  1  0.66297841  0.71107643  0.59946655  1
  O2-  O215  1  0.66956033  0.70814473  0.93128914  1
  O2-  O216  1  0.08035294  0.45392214  0.07283894  1
  O2-  O217  1  0.08762373  0.45451317  0.39297931  1
  O2-  O218  1  0.08391059  0.45401061  0.73335679  1
  O2-  O219  1  0.08761219  0.96382883  0.06360956  1
  O2-  O220  1  0.08088342  0.95826688  0.39937041  1
  O2-  O221  1  0.08463169  0.95828292  0.72753065  1
  O2-  O222  1  0.58347097  0.45790294  0.06855390  1
  O2-  O223  1  0.58452036  0.46227674  0.39395291  1
  O2-  O224  1  0.58377875  0.46086394  0.73340120  1
  O2-  O225  1  0.58291341  0.96151429  0.07000146  1
  O2-  O226  1  0.58550704  0.95729303  0.39552164  1
  O2-  O227  1  0.58087344  0.96283021  0.73277691  1
  O2-  O228  1  0.20707615  0.32667581  0.07042451  1
  O2-  O229  1  0.20864079  0.33473172  0.39178604  1
  O2-  O230  1  0.20762810  0.32564755  0.72979761  1
  O2-  O231  1  0.19816829  0.83629240  0.05904799  1
  O2-  O232  1  0.21074251  0.83308862  0.40279786  1
  O2-  O233  1  0.20496239  0.83927094  0.73050528  1
  O2-  O234  1  0.71245865  0.33136880  0.07038667  1
  O2-  O235  1  0.69234509  0.33117862  0.39202025  1
  O2-  O236  1  0.70169811  0.32560903  0.72980435  1
  O2-  O237  1  0.71227564  0.83380252  0.06918589  1
  O2-  O238  1  0.70582924  0.83865002  0.39707370  1
  O2-  O239  1  0.70811638  0.83525549  0.73345170  1
  O2-  O240  1  0.45983885  0.41947538  0.26355747  1
  O2-  O241  1  0.46020294  0.42089026  0.59934269  1
  O2-  O242  1  0.45138218  0.42187941  0.93582510  1
  O2-  O243  1  0.45202384  0.91656669  0.27573242  1
  O2-  O244  1  0.46085863  0.91696513  0.59432669  1
  O2-  O245  1  0.45405312  0.92053291  0.93613068  1
  O2-  O246  1  0.95242756  0.41522009  0.26941240  1
  O2-  O247  1  0.95430639  0.42435411  0.60220170  1
  O2-  O248  1  0.95438105  0.41448222  0.94217641  1
  O2-  O249  1  0.95005542  0.91510383  0.27144282  1
  O2-  O250  1  0.95890544  0.91391949  0.59528087  1
  O2-  O251  1  0.96513051  0.91459668  0.93132962  1
  O2-  O252  1  0.33632863  0.28865669  0.26222921  1
  O2-  O253  1  0.33893220  0.28618407  0.59740173  1
  O2-  O254  1  0.33293525  0.28357544  0.93301225  1
  O2-  O255  1  0.33707129  0.79318262  0.27326815  1
  O2-  O256  1  0.33008961  0.79288767  0.59772811  1
  O2-  O257  1  0.32659257  0.79737766  0.93499375  1
  O2-  O258  1  0.83061961  0.29687251  0.27318768  1
  O2-  O259  1  0.83158976  0.29266335  0.59641615  1
  O2-  O260  1  0.84004525  0.29070227  0.94034569  1
  O2-  O261  1  0.83215790  0.79350543  0.27120580  1
  O2-  O262  1  0.82901464  0.79139387  0.59743256  1
  O2-  O263  1  0.83401750  0.79264373  0.93408709  1
  O2-  O264  1  0.41186001  0.04408363  0.06574851  1
  O2-  O265  1  0.41465338  0.04969415  0.39830084  1
  O2-  O266  1  0.41047458  0.03841770  0.72941278  1
  O2-  O267  1  0.42029914  0.54710260  0.06991398  1
  O2-  O268  1  0.41411854  0.54542923  0.39481965  1
  O2-  O269  1  0.42291637  0.55395696  0.72921712  1
  O2-  O270  1  0.91688248  0.03889322  0.06646205  1
  O2-  O271  1  0.91143037  0.04237801  0.39891604  1
  O2-  O272  1  0.91712096  0.04177683  0.72802871  1
  O2-  O273  1  0.91580357  0.54644339  0.06454128  1
  O2-  O274  1  0.91935467  0.54234586  0.39943605  1
  O2-  O275  1  0.92318621  0.55304299  0.73591305  1
  O2-  O276  1  0.28923418  0.15878178  0.06675018  1
  O2-  O277  1  0.29253400  0.16704162  0.39460142  1
  O2-  O278  1  0.29409958  0.16105368  0.72979189  1
  O2-  O279  1  0.28976392  0.67073722  0.07100842  1
  O2-  O280  1  0.29200670  0.66290341  0.39565460  1
  O2-  O281  1  0.28926102  0.67086801  0.73432402  1
  O2-  O282  1  0.80402859  0.16402792  0.06647870  1
  O2-  O283  1  0.79426601  0.16376555  0.39902626  1
  O2-  O284  1  0.80437729  0.16609164  0.72716318  1
  O2-  O285  1  0.79657070  0.66625913  0.06365006  1
  O2-  O286  1  0.78776607  0.66526816  0.40156026  1
  O2-  O287  1  0.78867270  0.66874301  0.73478676  1
