# generated using pymatgen
data_Ca2Al2SiO7
_symmetry_space_group_name_H-M   'P 1'
_cell_length_a   15.45652208
_cell_length_b   15.45693430
_cell_length_c   15.28279107
_cell_angle_alpha   89.99700686
_cell_angle_beta   90.01326408
_cell_angle_gamma   90.02389005
_symmetry_Int_Tables_number   1
_chemical_formula_structural   Ca2Al2SiO7
_chemical_formula_sum   'Ca48 Al48 Si24 O168'
_cell_volume   3651.21801586
_cell_formula_units_Z   24
loop_
 _symmetry_equiv_pos_site_id
 _symmetry_equiv_pos_as_xyz
  1  'x, y, z'
loop_
 _atom_type_symbol
 _atom_type_oxidation_number
  Ca2+  2.0
  Al0+  0.0
  Si0+  0.0
  O2-  -2.0
loop_
 _atom_site_type_symbol
 _atom_site_label
 _atom_site_symmetry_multiplicity
 _atom_site_fract_x
 _atom_site_fract_y
 _atom_site_fract_z
 _atom_site_occupancy
  Ca2+  Ca0  1  0.16088118  0.07275985  0.17171852  1
  Ca2+  Ca1  1  0.17816222  0.08206991  0.50084633  1
  Ca2+  Ca2  1  0.17130655  0.08234050  0.84197067  1
  Ca2+  Ca3  1  0.17375917  0.59095238  0.17511049  1
  Ca2+  Ca4  1  0.16043758  0.57390328  0.49744629  1
  Ca2+  Ca5  1  0.17084765  0.58181260  0.84058950  1
  Ca2+  Ca6  1  0.67281739  0.07457887  0.17169283  1
  Ca2+  Ca7  1  0.67090106  0.08159588  0.50586985  1
  Ca2+  Ca8  1  0.66066156  0.07172721  0.83558484  1
  Ca2+  Ca9  1  0.67507229  0.58215209  0.17179965  1
  Ca2+  Ca10  1  0.66626421  0.57497200  0.49867826  1
  Ca2+  Ca11  1  0.66830106  0.57399587  0.84686355  1
  Ca2+  Ca12  1  0.07770753  0.33322704  0.16431622  1
  Ca2+  Ca13  1  0.07912366  0.33898638  0.48965824  1
  Ca2+  Ca14  1  0.08549719  0.33055201  0.82959181  1
  Ca2+  Ca15  1  0.08246776  0.82765080  0.15761786  1
  Ca2+  Ca16  1  0.08398726  0.82731476  0.49008109  1
  Ca2+  Ca17  1  0.08160077  0.83094050  0.83803562  1
  Ca2+  Ca18  1  0.58579883  0.33834342  0.16294467  1
  Ca2+  Ca19  1  0.59051393  0.33077019  0.49491819  1
  Ca2+  Ca20  1  0.58603813  0.33063691  0.82622524  1
  Ca2+  Ca21  1  0.58550742  0.82011484  0.15998482  1
  Ca2+  Ca22  1  0.58235637  0.82889293  0.49348557  1
  Ca2+  Ca23  1  0.59285941  0.82744597  0.83138881  1
  Ca2+  Ca24  1  0.32584271  0.42829138  0.17149520  1
  Ca2+  Ca25  1  0.32223745  0.42048741  0.49871138  1
  Ca2+  Ca26  1  0.32807367  0.42102347  0.83743803  1
  Ca2+  Ca27  1  0.31906329  0.91933128  0.17342330  1
  Ca2+  Ca28  1  0.33054516  0.92351390  0.49858903  1
  Ca2+  Ca29  1  0.32939376  0.92298516  0.83867230  1
  Ca2+  Ca30  1  0.82781599  0.42552535  0.17397969  1
  Ca2+  Ca31  1  0.82840829  0.42006102  0.49796003  1
  Ca2+  Ca32  1  0.82161463  0.42203681  0.83967392  1
  Ca2+  Ca33  1  0.83494385  0.91704662  0.16689891  1
  Ca2+  Ca34  1  0.82948465  0.92326222  0.50154137  1
  Ca2+  Ca35  1  0.82519061  0.91256906  0.84108783  1
  Ca2+  Ca36  1  0.41277220  0.16905072  0.16531062  1
  Ca2+  Ca37  1  0.41911421  0.16123101  0.49790509  1
  Ca2+  Ca38  1  0.42191086  0.16701592  0.82358085  1
  Ca2+  Ca39  1  0.42524946  0.65454592  0.16240370  1
  Ca2+  Ca40  1  0.42279801  0.66399935  0.48942833  1
  Ca2+  Ca41  1  0.42002125  0.66458831  0.83657151  1
  Ca2+  Ca42  1  0.91714249  0.17164886  0.16433542  1
  Ca2+  Ca43  1  0.91390724  0.17551719  0.48865658  1
  Ca2+  Ca44  1  0.92506476  0.16478203  0.83310314  1
  Ca2+  Ca45  1  0.92563231  0.66381730  0.15933990  1
  Ca2+  Ca46  1  0.92051521  0.66615565  0.48885631  1
  Ca2+  Ca47  1  0.91404641  0.66856134  0.83889929  1
  Al0+  Al48  1  0.00048014  0.00092128  -0.00651217  1
  Al0+  Al49  1  -0.00153248  0.00029975  0.34312625  1
  Al0+  Al50  1  0.00112399  -0.00075656  0.66359791  1
  Al0+  Al51  1  -0.00113366  0.49824643  -0.00464457  1
  Al0+  Al52  1  -0.00198431  0.50101321  0.32958670  1
  Al0+  Al53  1  0.00084887  0.49981590  0.67201333  1
  Al0+  Al54  1  0.50040314  0.00033134  0.00560596  1
  Al0+  Al55  1  0.49925711  -0.00067865  0.33296928  1
  Al0+  Al56  1  0.50052821  -0.00015072  0.66924166  1
  Al0+  Al57  1  0.49693055  0.49829993  -0.00002183  1
  Al0+  Al58  1  0.49929281  0.49754598  0.33637215  1
  Al0+  Al59  1  0.49883790  0.49954235  0.66837127  1
  Al0+  Al60  1  0.25106874  0.25171916  -0.00492786  1
  Al0+  Al61  1  0.25125988  0.24888997  0.33829512  1
  Al0+  Al62  1  0.25135768  0.25033071  0.67298476  1
  Al0+  Al63  1  0.25144799  0.75176613  0.00187910  1
  Al0+  Al64  1  0.25132749  0.75193045  0.33858554  1
  Al0+  Al65  1  0.25028389  0.75047714  0.66461738  1
  Al0+  Al66  1  0.74907295  0.24862883  -0.00000955  1
  Al0+  Al67  1  0.75054008  0.24849076  0.33299413  1
  Al0+  Al68  1  0.75219432  0.25057826  0.66723674  1
  Al0+  Al69  1  0.74993962  0.74872943  -0.00052811  1
  Al0+  Al70  1  0.74942716  0.74956299  0.33283931  1
  Al0+  Al71  1  0.75191333  0.75100840  0.66582994  1
  Al0+  Al72  1  0.17719818  0.42961914  0.34435976  1
  Al0+  Al73  1  0.67763257  0.42685652  0.01493023  1
  Al0+  Al74  1  0.56986358  0.67763405  0.31974943  1
  Al0+  Al75  1  0.81998720  0.07074862  0.34605648  1
  Al0+  Al76  1  0.07056552  0.18074927  0.98708245  1
  Al0+  Al77  1  0.07452673  0.67739405  0.98412917  1
  Al0+  Al78  1  0.68118019  0.92987064  0.67948142  1
  Al0+  Al79  1  0.07064143  0.68084680  0.32072825  1
  Al0+  Al80  1  0.32217915  0.57195166  0.34849928  1
  Al0+  Al81  1  0.56935555  0.67883818  0.98600190  1
  Al0+  Al82  1  0.82183857  0.57071301  0.01534887  1
  Al0+  Al83  1  0.57088219  0.17960112  0.65272865  1
  Al0+  Al84  1  0.31800907  0.57101450  0.01266389  1
  Al0+  Al85  1  0.92915142  0.82101692  0.98478389  1
  Al0+  Al86  1  0.32231066  0.07172123  0.34774056  1
  Al0+  Al87  1  0.82138899  0.57301827  0.34810132  1
  Al0+  Al88  1  0.67874330  0.42830276  0.34827395  1
  Al0+  Al89  1  0.32014760  0.06883140  0.68213403  1
  Al0+  Al90  1  0.17891663  0.93172375  0.01189836  1
  Al0+  Al91  1  0.17861676  0.43042437  0.68192575  1
  Al0+  Al92  1  0.92818344  0.32104484  0.31896320  1
  Al0+  Al93  1  0.67910715  0.42934751  0.68074445  1
  Al0+  Al94  1  0.17696022  0.92821295  0.34946798  1
  Al0+  Al95  1  0.67835146  0.92796478  0.01488972  1
  Si0+  Si96  1  0.07088917  0.67918632  0.65150833  1
  Si0+  Si97  1  0.57135421  0.17753556  0.31721791  1
  Si0+  Si98  1  0.67776440  0.92766345  0.34920520  1
  Si0+  Si99  1  0.32228162  0.07463800  0.01643281  1
  Si0+  Si100  1  0.92818363  0.82135238  0.64911281  1
  Si0+  Si101  1  0.92733273  0.82458233  0.31817179  1
  Si0+  Si102  1  0.82269771  0.07121103  0.01479719  1
  Si0+  Si103  1  0.07285355  0.17771196  0.31984953  1
  Si0+  Si104  1  0.17688069  0.92642326  0.68504377  1
  Si0+  Si105  1  0.93161530  0.32081817  0.65148965  1
  Si0+  Si106  1  0.42964721  0.32013121  0.98334635  1
  Si0+  Si107  1  0.17751548  0.42640143  0.01527755  1
  Si0+  Si108  1  0.57156654  0.67802771  0.65212066  1
  Si0+  Si109  1  0.92545626  0.32158531  0.98057425  1
  Si0+  Si110  1  0.82219282  0.57266418  0.68404072  1
  Si0+  Si111  1  0.57140068  0.17718165  0.98562524  1
  Si0+  Si112  1  0.42783971  0.31934171  0.31841875  1
  Si0+  Si113  1  0.32211675  0.57409341  0.68392808  1
  Si0+  Si114  1  0.42866334  0.82364056  0.31549064  1
  Si0+  Si115  1  0.07352084  0.17875287  0.65024054  1
  Si0+  Si116  1  0.82419539  0.07301595  0.68415077  1
  Si0+  Si117  1  0.42900077  0.82083620  0.65182919  1
  Si0+  Si118  1  0.42897461  0.82465267  0.98343537  1
  Si0+  Si119  1  0.42720138  0.32265745  0.64816600  1
  O2-  O120  1  0.25253150  0.00739855  0.05912432  1
  O2-  O121  1  0.24947664  0.00089044  0.39775296  1
  O2-  O122  1  0.24307442  -0.00276778  0.72931331  1
  O2-  O123  1  0.23689716  0.50284459  0.05855371  1
  O2-  O124  1  0.24628552  0.50329895  0.39716871  1
  O2-  O125  1  0.25360566  0.50512193  0.72747446  1
  O2-  O126  1  0.75453324  0.00215864  0.05916935  1
  O2-  O127  1  0.74577524  -0.00359273  0.39378729  1
  O2-  O128  1  0.75578579  0.00420835  0.72791647  1
  O2-  O129  1  0.74974683  0.49825300  0.06412128  1
  O2-  O130  1  0.74898214  0.50175870  0.39870417  1
  O2-  O131  1  0.74934615  0.50785535  0.72712523  1
  O2-  O132  1  0.00593602  0.24744996  0.27475289  1
  O2-  O133  1  0.00218326  0.24923428  0.60813399  1
  O2-  O134  1  -0.00252188  0.25555621  0.93675867  1
  O2-  O135  1  -0.00323379  0.75690801  0.27499740  1
  O2-  O136  1  0.00047390  0.75083707  0.60893703  1
  O2-  O137  1  0.00035546  0.74776593  0.93369226  1
  O2-  O138  1  0.49988110  0.24857855  0.27581456  1
  O2-  O139  1  0.49871724  0.25638737  0.60411983  1
  O2-  O140  1  0.50149062  0.24885323  0.94261656  1
  O2-  O141  1  0.49404556  0.75156332  0.27238739  1
  O2-  O142  1  0.49913500  0.74814227  0.61026382  1
  O2-  O143  1  0.49830930  0.75706425  0.93756220  1
  O2-  O144  1  0.06959861  0.18141587  0.10006736  1
  O2-  O145  1  0.07148760  0.17926564  0.42583156  1
  O2-  O146  1  0.07158675  0.17865383  0.75553337  1
  O2-  O147  1  0.07620814  0.68065951  0.09728729  1
  O2-  O148  1  0.06749894  0.68096071  0.43492167  1
  O2-  O149  1  0.07205260  0.68048668  0.75624793  1
  O2-  O150  1  0.57032522  0.17620583  0.09068173  1
  O2-  O151  1  0.57142487  0.17651246  0.42245553  1
  O2-  O152  1  0.56793670  0.17944028  0.76619793  1
  O2-  O153  1  0.56747547  0.67781930  0.09868035  1
  O2-  O154  1  0.56901700  0.68095194  0.43394492  1
  O2-  O155  1  0.57135829  0.67842867  0.75717236  1
  O2-  O156  1  0.18035914  0.42621715  0.23110676  1
  O2-  O157  1  0.17609130  0.43189575  0.56918541  1
  O2-  O158  1  0.18364446  0.42334142  0.90938792  1
  O2-  O159  1  0.17549558  0.93015250  0.23581253  1
  O2-  O160  1  0.17772295  0.92564426  0.57981483  1
  O2-  O161  1  0.18188450  0.93403398  0.89836782  1
  O2-  O162  1  0.67938850  0.42812754  0.23528072  1
  O2-  O163  1  0.68131831  0.42931697  0.56820565  1
  O2-  O164  1  0.67858170  0.42629345  0.90065821  1
  O2-  O165  1  0.67759200  0.92926676  0.24372786  1
  O2-  O166  1  0.68298743  0.92966617  0.56636928  1
  O2-  O167  1  0.67752171  0.93119098  0.90138274  1
  O2-  O168  1  0.42638452  0.31850039  0.08836980  1
  O2-  O169  1  0.42717903  0.31854829  0.42345078  1
  O2-  O170  1  0.42734668  0.32146230  0.75414110  1
  O2-  O171  1  0.43020820  0.82625612  0.08854264  1
  O2-  O172  1  0.43306767  0.82680924  0.42171830  1
  O2-  O173  1  0.42690968  0.81983281  0.75681878  1
  O2-  O174  1  0.92426340  0.31948205  0.08587378  1
  O2-  O175  1  0.92828218  0.31896058  0.43285613  1
  O2-  O176  1  0.93286114  0.31916281  0.75659259  1
  O2-  O177  1  0.93217597  0.82462982  0.09798305  1
  O2-  O178  1  0.92743644  0.82379899  0.42449969  1
  O2-  O179  1  0.92602751  0.82240006  0.75367633  1
  O2-  O180  1  0.32205055  0.07115258  0.23417916  1
  O2-  O181  1  0.31978077  0.06677118  0.56949933  1
  O2-  O182  1  0.32345180  0.07375191  0.91060082  1
  O2-  O183  1  0.32264146  0.56834441  0.23503201  1
  O2-  O184  1  0.32270324  0.57503753  0.57882029  1
  O2-  O185  1  0.31981472  0.56684215  0.89892830  1
  O2-  O186  1  0.81879991  0.07014449  0.23294661  1
  O2-  O187  1  0.82345631  0.07258788  0.57854483  1
  O2-  O188  1  0.82092804  0.07246140  0.90894201  1
  O2-  O189  1  0.82173706  0.57295651  0.23524335  1
  O2-  O190  1  0.82443184  0.57218230  0.57866600  1
  O2-  O191  1  0.81828478  0.56853677  0.90086223  1
  O2-  O192  1  0.04287089  0.08400569  0.27636629  1
  O2-  O193  1  0.04806021  0.08559240  0.60368667  1
  O2-  O194  1  0.03937226  0.08682737  0.92758011  1
  O2-  O195  1  0.04159576  0.58500269  0.26553977  1
  O2-  O196  1  0.04126376  0.58656421  0.60655436  1
  O2-  O197  1  0.04887069  0.57744684  0.93109145  1
  O2-  O198  1  0.54326630  0.08562275  0.26917698  1
  O2-  O199  1  0.53842859  0.08276193  0.59944653  1
  O2-  O200  1  0.54149320  0.08552040  0.93807902  1
  O2-  O201  1  0.53928412  0.57990825  0.26817731  1
  O2-  O202  1  0.54367951  0.58578464  0.60532043  1
  O2-  O203  1  0.53352419  0.58317437  0.93144210  1
  O2-  O204  1  0.16787937  0.19914083  0.27506286  1
  O2-  O205  1  0.16635443  0.20694009  0.60598655  1
  O2-  O206  1  0.16739871  0.21083091  0.93070283  1
  O2-  O207  1  0.16965087  0.71056576  0.27114519  1
  O2-  O208  1  0.16319381  0.70589795  0.60381911  1
  O2-  O209  1  0.17230260  0.70982845  0.93027412  1
  O2-  O210  1  0.66237487  0.20489678  0.26884037  1
  O2-  O211  1  0.66988584  0.20755936  0.60093327  1
  O2-  O212  1  0.66365206  0.20166667  0.93713235  1
  O2-  O213  1  0.66621554  0.71035840  0.26621533  1
  O2-  O214  1  0.66352317  0.70696288  0.60544255  1
  O2-  O215  1  0.66587369  0.70776460  0.93108655  1
  O2-  O216  1  0.07930692  0.43969118  0.05348441  1
  O2-  O217  1  0.07918510  0.45753665  0.39784706  1
  O2-  O218  1  0.08315776  0.46036853  0.73875783  1
  O2-  O219  1  0.08222921  0.96386918  0.06374539  1
  O2-  O220  1  0.08024128  0.95519639  0.40636866  1
  O2-  O221  1  0.08153720  0.95018825  0.72822616  1
  O2-  O222  1  0.57778130  0.45257475  0.06411142  1
  O2-  O223  1  0.58043265  0.45352789  0.40244525  1
  O2-  O224  1  0.57994802  0.45493104  0.73271166  1
  O2-  O225  1  0.58347600  0.96091707  0.07100932  1
  O2-  O226  1  0.58441237  0.95397321  0.39500307  1
  O2-  O227  1  0.58514655  0.95966834  0.73438532  1
  O2-  O228  1  0.21217177  0.33597136  0.06211987  1
  O2-  O229  1  0.20725603  0.33261248  0.39991732  1
  O2-  O230  1  0.20972089  0.33441128  0.73674208  1
  O2-  O231  1  0.21070480  0.83645479  0.06621061  1
  O2-  O232  1  0.20862629  0.83278884  0.40633227  1
  O2-  O233  1  0.20566312  0.83320909  0.73017829  1
  O2-  O234  1  0.70340157  0.32679355  0.06568642  1
  O2-  O235  1  0.70901484  0.32991011  0.39994230  1
  O2-  O236  1  0.71293305  0.33323743  0.73448819  1
  O2-  O237  1  0.70747284  0.83138474  0.06724477  1
  O2-  O238  1  0.70298219  0.83486715  0.39623190  1
  O2-  O239  1  0.71275916  0.83298585  0.73308119  1
  O2-  O240  1  0.45570299  0.41054507  0.27037707  1
  O2-  O241  1  0.44865123  0.41820388  0.60413376  1
  O2-  O242  1  0.45647669  0.41061019  0.93317848  1
  O2-  O243  1  0.45606895  0.91607777  0.26713553  1
  O2-  O244  1  0.45984668  0.91131183  0.60416966  1
  O2-  O245  1  0.45372481  0.91959578  0.93797971  1
  O2-  O246  1  0.95739087  0.41639709  0.26305560  1
  O2-  O247  1  0.96016972  0.41362614  0.60613904  1
  O2-  O248  1  0.94787415  0.41482729  0.93247024  1
  O2-  O249  1  0.95138430  0.91995405  0.27496622  1
  O2-  O250  1  0.95495003  0.91400611  0.60131186  1
  O2-  O251  1  0.95742079  0.91838689  0.92789789  1
  O2-  O252  1  0.33708279  0.28904315  0.26926320  1
  O2-  O253  1  0.33381935  0.29318389  0.60371274  1
  O2-  O254  1  0.33929095  0.29184293  0.93206502  1
  O2-  O255  1  0.33285281  0.80264722  0.27343688  1
  O2-  O256  1  0.33675899  0.79512440  0.60281897  1
  O2-  O257  1  0.33642936  0.79799238  0.93565722  1
  O2-  O258  1  0.83378423  0.28474990  0.26384015  1
  O2-  O259  1  0.83995027  0.29300223  0.60391631  1
  O2-  O260  1  0.83318652  0.29091881  0.93302439  1
  O2-  O261  1  0.83303255  0.80130838  0.27302117  1
  O2-  O262  1  0.83720432  0.79340259  0.59942146  1
  O2-  O263  1  0.83088616  0.79189777  0.93040163  1
  O2-  O264  1  0.41529455  0.05020751  0.06355662  1
  O2-  O265  1  0.42051268  0.04150225  0.40132451  1
  O2-  O266  1  0.41563361  0.03622053  0.73682738  1
  O2-  O267  1  0.41120732  0.53190779  0.06678984  1
  O2-  O268  1  0.41715523  0.53752409  0.40429609  1
  O2-  O269  1  0.41550749  0.54839007  0.73064073  1
  O2-  O270  1  0.91645132  0.04659401  0.05952823  1
  O2-  O271  1  0.91432603  0.04350642  0.40615168  1
  O2-  O272  1  0.91892261  0.04621228  0.72790968  1
  O2-  O273  1  0.92209828  0.54274654  0.06452802  1
  O2-  O274  1  0.91851902  0.54211778  0.40155509  1
  O2-  O275  1  0.91369506  0.54327572  0.73194936  1
  O2-  O276  1  0.29742509  0.16940535  0.05986987  1
  O2-  O277  1  0.29639784  0.16878327  0.40432896  1
  O2-  O278  1  0.29278673  0.16599969  0.73667250  1
  O2-  O279  1  0.29729523  0.66964661  0.06569711  1
  O2-  O280  1  0.30214083  0.67198552  0.40063678  1
  O2-  O281  1  0.29558330  0.66786884  0.72962205  1
  O2-  O282  1  0.79567184  0.16395475  0.06135179  1
  O2-  O283  1  0.78703102  0.16517678  0.40233009  1
  O2-  O284  1  0.80089769  0.16660382  0.73029586  1
  O2-  O285  1  0.79516313  0.66921778  0.06641453  1
  O2-  O286  1  0.79377394  0.67167902  0.40209179  1
  O2-  O287  1  0.79997625  0.66791881  0.72756774  1
