# generated using pymatgen
data_Ca2Al2SiO7
_symmetry_space_group_name_H-M   'P 1'
_cell_length_a   15.46217100
_cell_length_b   15.46268079
_cell_length_c   15.28615970
_cell_angle_alpha   89.99432079
_cell_angle_beta   89.98431623
_cell_angle_gamma   90.00895958
_symmetry_Int_Tables_number   1
_chemical_formula_structural   Ca2Al2SiO7
_chemical_formula_sum   'Ca48 Al48 Si24 O168'
_cell_volume   3654.71597150
_cell_formula_units_Z   24
loop_
 _symmetry_equiv_pos_site_id
 _symmetry_equiv_pos_as_xyz
  1  'x, y, z'
loop_
 _atom_type_symbol
 _atom_type_oxidation_number
  Ca2+  2.0
  Al0+  0.0
  Si0+  0.0
  O2-  -2.0
loop_
 _atom_site_type_symbol
 _atom_site_label
 _atom_site_symmetry_multiplicity
 _atom_site_fract_x
 _atom_site_fract_y
 _atom_site_fract_z
 _atom_site_occupancy
  Ca2+  Ca0  1  0.17207483  0.07725678  0.18075664  1
  Ca2+  Ca1  1  0.16489102  0.08915722  0.50217087  1
  Ca2+  Ca2  1  0.16251683  0.08464523  0.83342877  1
  Ca2+  Ca3  1  0.17601064  0.58343248  0.17292281  1
  Ca2+  Ca4  1  0.16834388  0.58011787  0.50156339  1
  Ca2+  Ca5  1  0.16899058  0.57172748  0.83600101  1
  Ca2+  Ca6  1  0.67635112  0.09241445  0.16731896  1
  Ca2+  Ca7  1  0.67904947  0.08734569  0.50620859  1
  Ca2+  Ca8  1  0.67510662  0.09759869  0.83329018  1
  Ca2+  Ca9  1  0.67735344  0.57529628  0.17516909  1
  Ca2+  Ca10  1  0.67498982  0.57166436  0.50450886  1
  Ca2+  Ca11  1  0.67785602  0.57634162  0.83404393  1
  Ca2+  Ca12  1  0.07667213  0.32678289  0.16353306  1
  Ca2+  Ca13  1  0.08085336  0.32750818  0.50063354  1
  Ca2+  Ca14  1  0.07292767  0.33137901  0.82368551  1
  Ca2+  Ca15  1  0.08875342  0.82813963  0.17006429  1
  Ca2+  Ca16  1  0.07917022  0.82799445  0.49363586  1
  Ca2+  Ca17  1  0.07474242  0.82687679  0.82597366  1
  Ca2+  Ca18  1  0.58023909  0.33092345  0.15977608  1
  Ca2+  Ca19  1  0.58645249  0.33780329  0.50188689  1
  Ca2+  Ca20  1  0.57742694  0.32944763  0.82666901  1
  Ca2+  Ca21  1  0.57518574  0.83053047  0.15914307  1
  Ca2+  Ca22  1  0.58281359  0.83085167  0.49659362  1
  Ca2+  Ca23  1  0.57890667  0.83223512  0.83072681  1
  Ca2+  Ca24  1  0.33999271  0.42553159  0.17042469  1
  Ca2+  Ca25  1  0.32786076  0.41750014  0.50770783  1
  Ca2+  Ca26  1  0.32961838  0.40940944  0.83558771  1
  Ca2+  Ca27  1  0.33008327  0.92187724  0.17580580  1
  Ca2+  Ca28  1  0.32501020  0.92394052  0.49782037  1
  Ca2+  Ca29  1  0.33194565  0.91680953  0.83969145  1
  Ca2+  Ca30  1  0.82992712  0.41985519  0.17146414  1
  Ca2+  Ca31  1  0.82752991  0.42177728  0.50961161  1
  Ca2+  Ca32  1  0.83353599  0.41479761  0.83758607  1
  Ca2+  Ca33  1  0.83258501  0.92976265  0.17031733  1
  Ca2+  Ca34  1  0.84334454  0.92745619  0.50464352  1
  Ca2+  Ca35  1  0.83758063  0.92966854  0.83452854  1
  Ca2+  Ca36  1  0.42285950  0.17129736  0.15687189  1
  Ca2+  Ca37  1  0.42010264  0.17280255  0.49769764  1
  Ca2+  Ca38  1  0.42894199  0.17615307  0.82593719  1
  Ca2+  Ca39  1  0.41218133  0.66876282  0.15913677  1
  Ca2+  Ca40  1  0.41593626  0.66426745  0.49306620  1
  Ca2+  Ca41  1  0.41197930  0.66934896  0.83442543  1
  Ca2+  Ca42  1  0.91670726  0.16787537  0.16228707  1
  Ca2+  Ca43  1  0.92146738  0.16706155  0.49694683  1
  Ca2+  Ca44  1  0.91512016  0.17604121  0.82449653  1
  Ca2+  Ca45  1  0.92119177  0.65765245  0.16430566  1
  Ca2+  Ca46  1  0.91353658  0.66891645  0.49368229  1
  Ca2+  Ca47  1  0.90630740  0.67126987  0.82514111  1
  Al0+  Al48  1  -0.00034326  -0.00363031  0.00562441  1
  Al0+  Al49  1  0.00022039  -0.00147232  0.33469202  1
  Al0+  Al50  1  0.00053916  -0.00309129  0.66519659  1
  Al0+  Al51  1  0.00236225  0.49824021  0.00063353  1
  Al0+  Al52  1  0.00091250  0.50123816  0.33015354  1
  Al0+  Al53  1  0.00408933  0.50154095  0.67061558  1
  Al0+  Al54  1  0.50017170  -0.00214376  -0.00860718  1
  Al0+  Al55  1  0.49921893  0.00119102  0.33573174  1
  Al0+  Al56  1  0.49913529  0.00023366  0.66209539  1
  Al0+  Al57  1  0.49975950  0.50101228  -0.00111885  1
  Al0+  Al58  1  0.50071513  0.50098512  0.33940523  1
  Al0+  Al59  1  0.50145634  0.50301187  0.66813218  1
  Al0+  Al60  1  0.24900016  0.24733387  -0.00089264  1
  Al0+  Al61  1  0.25081413  0.25096452  0.33000643  1
  Al0+  Al62  1  0.25167866  0.25061326  0.66570815  1
  Al0+  Al63  1  0.24918119  0.74808227  -0.00224864  1
  Al0+  Al64  1  0.24832002  0.75107089  0.33781529  1
  Al0+  Al65  1  0.24925383  0.75239351  0.66679517  1
  Al0+  Al66  1  0.75178699  0.25053592  -0.00100013  1
  Al0+  Al67  1  0.74836803  0.24961362  0.33978353  1
  Al0+  Al68  1  0.74926517  0.25101850  0.66699271  1
  Al0+  Al69  1  0.75047432  0.75042509  0.00509443  1
  Al0+  Al70  1  0.74830397  0.75108503  0.33168328  1
  Al0+  Al71  1  0.74744086  0.75229897  0.66386616  1
  Al0+  Al72  1  0.42805955  0.81898507  0.98687506  1
  Al0+  Al73  1  0.17921785  0.92969912  0.34985179  1
  Al0+  Al74  1  0.07043933  0.67871474  0.31892294  1
  Al0+  Al75  1  0.18100449  0.42777914  0.68029513  1
  Al0+  Al76  1  0.32248826  0.07422930  0.34823058  1
  Al0+  Al77  1  0.82165965  0.06925343  0.68036283  1
  Al0+  Al78  1  0.92783269  0.81859962  0.65346230  1
  Al0+  Al79  1  0.93192409  0.32039390  0.98797764  1
  Al0+  Al80  1  0.82354270  0.57205866  0.34753982  1
  Al0+  Al81  1  0.82031481  0.06961279  0.34727514  1
  Al0+  Al82  1  0.67921310  0.42879153  0.68534403  1
  Al0+  Al83  1  0.07099327  0.17854781  0.31858979  1
  Al0+  Al84  1  0.92850260  0.32416139  0.65141458  1
  Al0+  Al85  1  0.82256415  0.57225835  0.01490635  1
  Al0+  Al86  1  0.81995747  0.07149096  0.01339043  1
  Al0+  Al87  1  0.57200615  0.17896252  0.98525510  1
  Al0+  Al88  1  0.31991952  0.57089512  0.34665715  1
  Al0+  Al89  1  0.07044306  0.17809734  0.65283115  1
  Al0+  Al90  1  0.42992217  0.32341754  0.64984313  1
  Al0+  Al91  1  0.42721182  0.32340654  0.98574121  1
  Al0+  Al92  1  0.57160573  0.17890475  0.64787036  1
  Al0+  Al93  1  0.31969061  0.56931417  0.01255268  1
  Al0+  Al94  1  0.82236645  0.57262597  0.68040271  1
  Al0+  Al95  1  0.67923379  0.42872837  0.34840840  1
  Si0+  Si96  1  0.17839371  0.42487072  0.01863045  1
  Si0+  Si97  1  0.32190496  0.06921798  0.01239816  1
  Si0+  Si98  1  0.42973816  0.32297299  0.31839080  1
  Si0+  Si99  1  0.67601068  0.92764777  0.34868085  1
  Si0+  Si100  1  0.32171716  0.07036884  0.68305219  1
  Si0+  Si101  1  0.57094549  0.17857776  0.31821129  1
  Si0+  Si102  1  0.57017856  0.67823656  0.31751503  1
  Si0+  Si103  1  0.18010751  0.92856911  0.68427426  1
  Si0+  Si104  1  0.92845341  0.82051084  0.98639076  1
  Si0+  Si105  1  0.17960727  0.92759568  0.01502393  1
  Si0+  Si106  1  0.17767972  0.42713938  0.34838746  1
  Si0+  Si107  1  0.67882507  0.42877651  0.01613533  1
  Si0+  Si108  1  0.92606214  0.82197189  0.31359490  1
  Si0+  Si109  1  0.32193293  0.57483963  0.68375441  1
  Si0+  Si110  1  0.07418889  0.67888840  0.65061762  1
  Si0+  Si111  1  0.67625995  0.92709485  0.01612905  1
  Si0+  Si112  1  0.56984260  0.68154691  0.65028558  1
  Si0+  Si113  1  0.42614861  0.82163011  0.64866545  1
  Si0+  Si114  1  0.67470690  0.92854648  0.68327730  1
  Si0+  Si115  1  0.57423506  0.67837902  0.98333540  1
  Si0+  Si116  1  0.92615925  0.32068779  0.31733350  1
  Si0+  Si117  1  0.07115714  0.17322515  0.98558248  1
  Si0+  Si118  1  0.42946416  0.82041126  0.31949721  1
  Si0+  Si119  1  0.07086212  0.67918293  0.98467150  1
  O2-  O120  1  0.24946331  0.00025725  0.05598438  1
  O2-  O121  1  0.24570918  0.00735346  0.39915794  1
  O2-  O122  1  0.24942304  0.00077254  0.72685878  1
  O2-  O123  1  0.25131002  0.49009429  0.06159366  1
  O2-  O124  1  0.24594360  0.49638682  0.39265731  1
  O2-  O125  1  0.25713802  0.50234648  0.72668925  1
  O2-  O126  1  0.74187112  -0.00095859  0.05938347  1
  O2-  O127  1  0.74699028  -0.00704971  0.39289018  1
  O2-  O128  1  0.74254093  -0.00211393  0.72700007  1
  O2-  O129  1  0.74710120  0.49800517  0.06039121  1
  O2-  O130  1  0.75493180  0.49765227  0.39686015  1
  O2-  O131  1  0.75769502  0.49556352  0.73355328  1
  O2-  O132  1  -0.00543721  0.25151041  0.27206782  1
  O2-  O133  1  -0.00218719  0.24888507  0.60212149  1
  O2-  O134  1  0.00460307  0.24328451  0.94209198  1
  O2-  O135  1  -0.00767887  0.74994263  0.27010468  1
  O2-  O136  1  -0.00159686  0.73991195  0.60755257  1
  O2-  O137  1  -0.00568123  0.74483480  0.94365817  1
  O2-  O138  1  0.49940594  0.24987219  0.27688308  1
  O2-  O139  1  0.50260087  0.25364379  0.59740214  1
  O2-  O140  1  0.49961523  0.25151812  0.93698684  1
  O2-  O141  1  0.49946107  0.74972964  0.27511335  1
  O2-  O142  1  0.49622482  0.75020505  0.60710104  1
  O2-  O143  1  0.50362520  0.74576412  0.93884417  1
  O2-  O144  1  0.07106311  0.17239143  0.09124222  1
  O2-  O145  1  0.07055564  0.18134269  0.43105628  1
  O2-  O146  1  0.06920461  0.17756056  0.76709185  1
  O2-  O147  1  0.07374730  0.68215332  0.08976043  1
  O2-  O148  1  0.07262534  0.68171545  0.43168231  1
  O2-  O149  1  0.08054315  0.68471876  0.75631555  1
  O2-  O150  1  0.56972741  0.17924999  0.09983329  1
  O2-  O151  1  0.57012019  0.17639906  0.42259885  1
  O2-  O152  1  0.56720055  0.17630460  0.76131791  1
  O2-  O153  1  0.57363005  0.68080681  0.08912884  1
  O2-  O154  1  0.56881167  0.68050851  0.42258837  1
  O2-  O155  1  0.56968721  0.68487323  0.75556532  1
  O2-  O156  1  0.17962971  0.42740496  0.24252386  1
  O2-  O157  1  0.18222672  0.42985938  0.56702884  1
  O2-  O158  1  0.17695280  0.42704117  0.91318675  1
  O2-  O159  1  0.18449504  0.92806566  0.23545095  1
  O2-  O160  1  0.18299725  0.92447912  0.57984561  1
  O2-  O161  1  0.17877472  0.92727390  0.90970042  1
  O2-  O162  1  0.67691552  0.42984842  0.23415899  1
  O2-  O163  1  0.67691639  0.43462880  0.57209560  1
  O2-  O164  1  0.67935644  0.42979672  0.91102278  1
  O2-  O165  1  0.67320407  0.92813679  0.24294242  1
  O2-  O166  1  0.67325723  0.92723395  0.57767445  1
  O2-  O167  1  0.67832443  0.92119435  0.91106483  1
  O2-  O168  1  0.42897261  0.32227917  0.10011970  1
  O2-  O169  1  0.42913654  0.32389842  0.42295030  1
  O2-  O170  1  0.42894111  0.31956745  0.76336431  1
  O2-  O171  1  0.42792385  0.81878195  0.10019456  1
  O2-  O172  1  0.43201639  0.81940030  0.42470583  1
  O2-  O173  1  0.42469073  0.82093337  0.75401531  1
  O2-  O174  1  0.93267224  0.31963317  0.10148502  1
  O2-  O175  1  0.92696842  0.32066762  0.42244135  1
  O2-  O176  1  0.93133723  0.32225205  0.76543726  1
  O2-  O177  1  0.93134431  0.82385380  0.09115816  1
  O2-  O178  1  0.92646344  0.82153117  0.41913989  1
  O2-  O179  1  0.93099635  0.81956879  0.76744911  1
  O2-  O180  1  0.32553603  0.06954331  0.23386983  1
  O2-  O181  1  0.32170095  0.06748950  0.57815969  1
  O2-  O182  1  0.31977600  0.06699946  0.90727763  1
  O2-  O183  1  0.32070152  0.57067357  0.23335630  1
  O2-  O184  1  0.31890455  0.57867170  0.57813553  1
  O2-  O185  1  0.31374819  0.57465663  0.90000742  1
  O2-  O186  1  0.81763541  0.07014173  0.23362254  1
  O2-  O187  1  0.82307649  0.06483817  0.56738018  1
  O2-  O188  1  0.82347307  0.06832329  0.90078457  1
  O2-  O189  1  0.82064785  0.56954748  0.23347299  1
  O2-  O190  1  0.81767512  0.57499467  0.56723289  1
  O2-  O191  1  0.81982352  0.57529988  0.90242451  1
  O2-  O192  1  0.04314692  0.07978843  0.26651377  1
  O2-  O193  1  0.04570763  0.07831885  0.60142774  1
  O2-  O194  1  0.04566528  0.07879396  0.94073945  1
  O2-  O195  1  0.04604759  0.58144073  0.26151620  1
  O2-  O196  1  0.05904413  0.58276671  0.60816946  1
  O2-  O197  1  0.04972532  0.58521441  0.93962507  1
  O2-  O198  1  0.54324703  0.08639362  0.27053346  1
  O2-  O199  1  0.54051294  0.08029623  0.59531997  1
  O2-  O200  1  0.54617191  0.08054799  0.93150255  1
  O2-  O201  1  0.54080112  0.58689692  0.27052831  1
  O2-  O202  1  0.54326016  0.59019140  0.60258859  1
  O2-  O203  1  0.54938389  0.58538439  0.93702228  1
  O2-  O204  1  0.16816653  0.20893200  0.26315881  1
  O2-  O205  1  0.16943080  0.20616404  0.60165203  1
  O2-  O206  1  0.16589422  0.19517144  0.94036340  1
  O2-  O207  1  0.16662455  0.71553981  0.26509182  1
  O2-  O208  1  0.16438312  0.71366522  0.60198456  1
  O2-  O209  1  0.15865372  0.71373171  0.93421618  1
  O2-  O210  1  0.66286073  0.20761510  0.27118574  1
  O2-  O211  1  0.67136508  0.20375647  0.59785517  1
  O2-  O212  1  0.67012250  0.20783925  0.93379044  1
  O2-  O213  1  0.66136220  0.70624090  0.26836191  1
  O2-  O214  1  0.65850608  0.71339026  0.59964528  1
  O2-  O215  1  0.66691579  0.70802070  0.93756036  1
  O2-  O216  1  0.08760709  0.45605247  0.06677863  1
  O2-  O217  1  0.08421958  0.45298634  0.39320740  1
  O2-  O218  1  0.08710630  0.46057301  0.73879621  1
  O2-  O219  1  0.08830574  0.95211158  0.06483792  1
  O2-  O220  1  0.07885417  0.94987858  0.40000676  1
  O2-  O221  1  0.08830257  0.95435026  0.73230845  1
  O2-  O222  1  0.58477377  0.45434771  0.06164103  1
  O2-  O223  1  0.58376915  0.46237238  0.40374737  1
  O2-  O224  1  0.58221270  0.46502886  0.73807688  1
  O2-  O225  1  0.58038790  0.94945629  0.05970724  1
  O2-  O226  1  0.58369642  0.95380919  0.39676493  1
  O2-  O227  1  0.57954809  0.95135515  0.72849645  1
  O2-  O228  1  0.19843611  0.32891247  0.06285955  1
  O2-  O229  1  0.20485946  0.33454600  0.39418512  1
  O2-  O230  1  0.21180676  0.33175458  0.73612905  1
  O2-  O231  1  0.21034508  0.83662765  0.06180199  1
  O2-  O232  1  0.21408303  0.83516255  0.40578785  1
  O2-  O233  1  0.21125098  0.83822948  0.73420079  1
  O2-  O234  1  0.70569238  0.33591947  0.06286722  1
  O2-  O235  1  0.70195586  0.33026074  0.40201553  1
  O2-  O236  1  0.70040411  0.32825693  0.73586322  1
  O2-  O237  1  0.70421176  0.83602462  0.06693249  1
  O2-  O238  1  0.69756112  0.83278688  0.39382094  1
  O2-  O239  1  0.70056091  0.83540201  0.72970082  1
  O2-  O240  1  0.46087878  0.41478979  0.27187966  1
  O2-  O241  1  0.45379214  0.42507897  0.60110795  1
  O2-  O242  1  0.45166311  0.42289330  0.93333357  1
  O2-  O243  1  0.45774883  0.91255996  0.27214830  1
  O2-  O244  1  0.45416189  0.91240987  0.60041453  1
  O2-  O245  1  0.45662000  0.91366981  0.92816509  1
  O2-  O246  1  0.95262497  0.41419991  0.27090425  1
  O2-  O247  1  0.96080686  0.42276063  0.60092480  1
  O2-  O248  1  0.96427697  0.41616391  0.93302641  1
  O2-  O249  1  0.95593530  0.91406651  0.26675579  1
  O2-  O250  1  0.96556697  0.91151315  0.59800946  1
  O2-  O251  1  0.96238157  0.91011766  0.93763257  1
  O2-  O252  1  0.33799525  0.29877821  0.26909990  1
  O2-  O253  1  0.33257166  0.29189595  0.59701647  1
  O2-  O254  1  0.32807706  0.29348561  0.93464461  1
  O2-  O255  1  0.33738901  0.79289349  0.27356376  1
  O2-  O256  1  0.33443844  0.79367278  0.60136410  1
  O2-  O257  1  0.33257442  0.78658831  0.93038843  1
  O2-  O258  1  0.83202504  0.29363816  0.27235975  1
  O2-  O259  1  0.82864476  0.29999363  0.60171182  1
  O2-  O260  1  0.83528886  0.29192422  0.93461867  1
  O2-  O261  1  0.83042738  0.80174079  0.26831797  1
  O2-  O262  1  0.82973345  0.79579244  0.59874734  1
  O2-  O263  1  0.83469780  0.79757744  0.94097890  1
  O2-  O264  1  0.41390049  0.03924743  0.05804844  1
  O2-  O265  1  0.41794113  0.03965890  0.40331711  1
  O2-  O266  1  0.41244133  0.03776812  0.72982371  1
  O2-  O267  1  0.41934319  0.54704939  0.06562687  1
  O2-  O268  1  0.41577614  0.54241159  0.40194554  1
  O2-  O269  1  0.41724190  0.55615290  0.72776728  1
  O2-  O270  1  0.91477158  0.03540249  0.06923525  1
  O2-  O271  1  0.91649855  0.03856887  0.40017351  1
  O2-  O272  1  0.91672138  0.03235197  0.73448927  1
  O2-  O273  1  0.92044915  0.54113408  0.06619960  1
  O2-  O274  1  0.92475025  0.55107056  0.39654297  1
  O2-  O275  1  0.92494174  0.55768933  0.72944810  1
  O2-  O276  1  0.29718574  0.16156222  0.06045973  1
  O2-  O277  1  0.29833423  0.17425746  0.39834978  1
  O2-  O278  1  0.29558649  0.16211920  0.73006970  1
  O2-  O279  1  0.28395497  0.66510357  0.06695104  1
  O2-  O280  1  0.29022771  0.66668813  0.40156956  1
  O2-  O281  1  0.29188712  0.66772859  0.73034405  1
  O2-  O282  1  0.79084390  0.16797078  0.06886230  1
  O2-  O283  1  0.78868989  0.16437480  0.40215735  1
  O2-  O284  1  0.79318826  0.16681654  0.73266583  1
  O2-  O285  1  0.79392303  0.66927744  0.07030516  1
  O2-  O286  1  0.79245411  0.67142650  0.39649052  1
  O2-  O287  1  0.78463299  0.67003924  0.73226696  1
