# generated using pymatgen
data_Ca2Al2SiO7
_symmetry_space_group_name_H-M   'P 1'
_cell_length_a   15.45707279
_cell_length_b   15.45819444
_cell_length_c   15.28345753
_cell_angle_alpha   90.00526447
_cell_angle_beta   89.99082245
_cell_angle_gamma   90.00181346
_symmetry_Int_Tables_number   1
_chemical_formula_structural   Ca2Al2SiO7
_chemical_formula_sum   'Ca48 Al48 Si24 O168'
_cell_volume   3651.80538336
_cell_formula_units_Z   24
loop_
 _symmetry_equiv_pos_site_id
 _symmetry_equiv_pos_as_xyz
  1  'x, y, z'
loop_
 _atom_type_symbol
 _atom_type_oxidation_number
  Ca2+  2.0
  Al0+  0.0
  Si0+  0.0
  O2-  -2.0
loop_
 _atom_site_type_symbol
 _atom_site_label
 _atom_site_symmetry_multiplicity
 _atom_site_fract_x
 _atom_site_fract_y
 _atom_site_fract_z
 _atom_site_occupancy
  Ca2+  Ca0  1  0.16731528  0.08482791  0.17226015  1
  Ca2+  Ca1  1  0.16078529  0.08322787  0.49926949  1
  Ca2+  Ca2  1  0.16683054  0.08067487  0.83729280  1
  Ca2+  Ca3  1  0.17171249  0.57279763  0.16894190  1
  Ca2+  Ca4  1  0.16937075  0.57531282  0.51014514  1
  Ca2+  Ca5  1  0.17348897  0.57610337  0.83801403  1
  Ca2+  Ca6  1  0.67843134  0.07666989  0.17583850  1
  Ca2+  Ca7  1  0.67777403  0.07701185  0.50305011  1
  Ca2+  Ca8  1  0.67897793  0.08338046  0.83753488  1
  Ca2+  Ca9  1  0.66745393  0.58333614  0.16612151  1
  Ca2+  Ca10  1  0.66702222  0.57519688  0.50474157  1
  Ca2+  Ca11  1  0.66490637  0.58384395  0.83580466  1
  Ca2+  Ca12  1  0.08510696  0.33321833  0.16806768  1
  Ca2+  Ca13  1  0.07320884  0.33506066  0.49257191  1
  Ca2+  Ca14  1  0.07788170  0.34148337  0.82629911  1
  Ca2+  Ca15  1  0.07001027  0.83279162  0.16299153  1
  Ca2+  Ca16  1  0.08078736  0.82362214  0.49576051  1
  Ca2+  Ca17  1  0.07820260  0.82441574  0.82980274  1
  Ca2+  Ca18  1  0.58088809  0.33601665  0.16241154  1
  Ca2+  Ca19  1  0.57939464  0.34343656  0.49853396  1
  Ca2+  Ca20  1  0.57060076  0.34580686  0.82751118  1
  Ca2+  Ca21  1  0.57723924  0.83295084  0.15921144  1
  Ca2+  Ca22  1  0.58230478  0.82793629  0.49266928  1
  Ca2+  Ca23  1  0.58031737  0.81875176  0.83174203  1
  Ca2+  Ca24  1  0.32698742  0.41750895  0.16754464  1
  Ca2+  Ca25  1  0.32052056  0.41858096  0.51076092  1
  Ca2+  Ca26  1  0.32920458  0.42347944  0.83925012  1
  Ca2+  Ca27  1  0.33720374  0.91221501  0.17263837  1
  Ca2+  Ca28  1  0.33682758  0.91691378  0.50132130  1
  Ca2+  Ca29  1  0.33338866  0.91456720  0.83853923  1
  Ca2+  Ca30  1  0.82979694  0.42369682  0.17435122  1
  Ca2+  Ca31  1  0.82397549  0.40386413  0.50459180  1
  Ca2+  Ca32  1  0.82916417  0.42191812  0.83621257  1
  Ca2+  Ca33  1  0.83398425  0.92201721  0.17573059  1
  Ca2+  Ca34  1  0.84259019  0.92727355  0.49930447  1
  Ca2+  Ca35  1  0.83924330  0.92709814  0.84127177  1
  Ca2+  Ca36  1  0.42202104  0.17380367  0.15879941  1
  Ca2+  Ca37  1  0.41762200  0.17467526  0.49802110  1
  Ca2+  Ca38  1  0.41738999  0.18178978  0.82911231  1
  Ca2+  Ca39  1  0.42272891  0.67365472  0.15668524  1
  Ca2+  Ca40  1  0.42146759  0.66387464  0.49894074  1
  Ca2+  Ca41  1  0.42334857  0.65633082  0.82995490  1
  Ca2+  Ca42  1  0.91556550  0.16762038  0.16775126  1
  Ca2+  Ca43  1  0.91570190  0.17379102  0.49362151  1
  Ca2+  Ca44  1  0.91349532  0.17098422  0.82693328  1
  Ca2+  Ca45  1  0.90789200  0.67745214  0.15960042  1
  Ca2+  Ca46  1  0.92484171  0.66700595  0.49542684  1
  Ca2+  Ca47  1  0.91886287  0.66696780  0.83003097  1
  Al0+  Al48  1  0.00131919  0.00124861  0.00007705  1
  Al0+  Al49  1  0.00309021  -0.00071090  0.33092163  1
  Al0+  Al50  1  0.00055786  0.00088702  0.67198064  1
  Al0+  Al51  1  -0.00154088  0.49932350  0.00955331  1
  Al0+  Al52  1  0.00160433  0.49890172  0.33175507  1
  Al0+  Al53  1  -0.00201917  0.50036462  0.66012676  1
  Al0+  Al54  1  0.50113895  0.00073538  -0.00617912  1
  Al0+  Al55  1  0.50075621  0.00075735  0.33430243  1
  Al0+  Al56  1  0.50090709  0.00030647  0.66917513  1
  Al0+  Al57  1  0.49834380  0.49996144  -0.00192638  1
  Al0+  Al58  1  0.50032176  0.50190223  0.33461169  1
  Al0+  Al59  1  0.49935807  0.50088064  0.66207714  1
  Al0+  Al60  1  0.24977669  0.24739980  -0.00074826  1
  Al0+  Al61  1  0.24963728  0.25077959  0.33448277  1
  Al0+  Al62  1  0.24939184  0.24817976  0.66601096  1
  Al0+  Al63  1  0.24811767  0.74981376  0.00223880  1
  Al0+  Al64  1  0.25209113  0.75040580  0.32968215  1
  Al0+  Al65  1  0.24915890  0.75055592  0.66623942  1
  Al0+  Al66  1  0.75233447  0.24875130  0.00463037  1
  Al0+  Al67  1  0.74964157  0.25052286  0.33591295  1
  Al0+  Al68  1  0.74863900  0.24815199  0.67325665  1
  Al0+  Al69  1  0.74838290  0.75182514  -0.00666601  1
  Al0+  Al70  1  0.74984625  0.74836194  0.33425389  1
  Al0+  Al71  1  0.74764170  0.75199219  0.66038182  1
  Al0+  Al72  1  0.82344159  0.06933053  0.34969856  1
  Al0+  Al73  1  0.42922701  0.31924724  0.98722227  1
  Al0+  Al74  1  0.43102711  0.82169834  0.32039539  1
  Al0+  Al75  1  0.67960523  0.43010443  0.68061751  1
  Al0+  Al76  1  0.42892970  0.32079306  0.65129902  1
  Al0+  Al77  1  0.67918785  0.43024416  0.34637268  1
  Al0+  Al78  1  0.67746613  0.92699124  0.34828348  1
  Al0+  Al79  1  0.17555465  0.42750154  0.68095926  1
  Al0+  Al80  1  0.07156307  0.17984169  0.31791983  1
  Al0+  Al81  1  0.82044459  0.06860545  0.68219341  1
  Al0+  Al82  1  0.07054282  0.67922294  0.65413682  1
  Al0+  Al83  1  0.92615321  0.32143713  0.31591820  1
  Al0+  Al84  1  0.31987407  0.57144788  0.68109872  1
  Al0+  Al85  1  0.42581563  0.82259042  0.98365701  1
  Al0+  Al86  1  0.93007315  0.81831866  0.32101390  1
  Al0+  Al87  1  0.92756497  0.32003695  0.65547937  1
  Al0+  Al88  1  0.56997519  0.67887807  0.98403536  1
  Al0+  Al89  1  0.32258022  0.57186096  0.01697242  1
  Al0+  Al90  1  0.82294034  0.07099829  0.01686499  1
  Al0+  Al91  1  0.81989742  0.57287779  0.01171429  1
  Al0+  Al92  1  0.18011763  0.42842532  0.34976505  1
  Al0+  Al93  1  0.57080846  0.67894065  0.64918614  1
  Al0+  Al94  1  0.17834169  0.42623763  0.01666120  1
  Al0+  Al95  1  0.92926773  0.82221601  0.98574839  1
  Si0+  Si96  1  0.67581335  0.92641235  0.68597090  1
  Si0+  Si97  1  0.32204633  0.07183182  0.34792841  1
  Si0+  Si98  1  0.42788359  0.82404311  0.64965223  1
  Si0+  Si99  1  0.57502028  0.17876306  0.98315582  1
  Si0+  Si100  1  0.32095269  0.57320327  0.35060124  1
  Si0+  Si101  1  0.92856701  0.32199364  0.98589373  1
  Si0+  Si102  1  0.82330907  0.57265899  0.35007223  1
  Si0+  Si103  1  0.32183838  0.06955249  0.01392146  1
  Si0+  Si104  1  0.32293004  0.07098489  0.68232885  1
  Si0+  Si105  1  0.57054965  0.17920547  0.31964060  1
  Si0+  Si106  1  0.07404119  0.67688558  0.31457482  1
  Si0+  Si107  1  0.92898446  0.82460273  0.65064123  1
  Si0+  Si108  1  0.06994855  0.67598479  0.98540540  1
  Si0+  Si109  1  0.57136964  0.17656841  0.64963683  1
  Si0+  Si110  1  0.07186432  0.17597042  0.65137342  1
  Si0+  Si111  1  0.82164226  0.57516429  0.68041799  1
  Si0+  Si112  1  0.18080321  0.92811224  0.34775415  1
  Si0+  Si113  1  0.67803986  0.92970495  0.01487235  1
  Si0+  Si114  1  0.42936722  0.32161305  0.31909535  1
  Si0+  Si115  1  0.67781113  0.42827726  0.01526299  1
  Si0+  Si116  1  0.17963233  0.92953025  0.68183511  1
  Si0+  Si117  1  0.57182594  0.67674108  0.31546483  1
  Si0+  Si118  1  0.17932873  0.92920581  0.01565660  1
  Si0+  Si119  1  0.07066695  0.17953112  0.98387641  1
  O2-  O120  1  0.25677667  -0.00609268  0.05740934  1
  O2-  O121  1  0.25180306  -0.00043467  0.39002774  1
  O2-  O122  1  0.25185998  -0.00038568  0.72382573  1
  O2-  O123  1  0.25120423  0.49834537  0.06583382  1
  O2-  O124  1  0.25224304  0.50548864  0.39551718  1
  O2-  O125  1  0.24863166  0.49822543  0.73072045  1
  O2-  O126  1  0.74770163  -0.00381469  0.06096588  1
  O2-  O127  1  0.75287061  -0.00481887  0.39917118  1
  O2-  O128  1  0.74797775  -0.00814673  0.72967296  1
  O2-  O129  1  0.74518885  0.49819082  0.05888440  1
  O2-  O130  1  0.75788589  0.50057115  0.39358024  1
  O2-  O131  1  0.75357515  0.50631667  0.72568201  1
  O2-  O132  1  -0.00081727  0.24989647  0.26575971  1
  O2-  O133  1  0.00573250  0.24766319  0.60985068  1
  O2-  O134  1  0.00113274  0.25226908  0.94311998  1
  O2-  O135  1  0.00078769  0.74122101  0.27130198  1
  O2-  O136  1  -0.00636067  0.75213960  0.60694917  1
  O2-  O137  1  0.00059552  0.74389556  0.93993380  1
  O2-  O138  1  0.50204878  0.25252493  0.27648253  1
  O2-  O139  1  0.50441541  0.24645667  0.60407621  1
  O2-  O140  1  0.50806398  0.24907553  0.93922797  1
  O2-  O141  1  0.50691442  0.74969756  0.27290992  1
  O2-  O142  1  0.49592124  0.75552545  0.60517428  1
  O2-  O143  1  0.49325350  0.74686471  0.93383918  1
  O2-  O144  1  0.07229296  0.17700895  0.08850725  1
  O2-  O145  1  0.07277480  0.17997172  0.43153338  1
  O2-  O146  1  0.07101690  0.17135504  0.75718928  1
  O2-  O147  1  0.06944818  0.67951552  0.09101350  1
  O2-  O148  1  0.07584735  0.68044643  0.42049164  1
  O2-  O149  1  0.06991961  0.68233965  0.76729917  1
  O2-  O150  1  0.57244606  0.17769367  0.08915669  1
  O2-  O151  1  0.56683869  0.17741851  0.42457659  1
  O2-  O152  1  0.56755191  0.17434662  0.75521907  1
  O2-  O153  1  0.57141892  0.68166865  0.09781148  1
  O2-  O154  1  0.56881522  0.67446881  0.42095293  1
  O2-  O155  1  0.57164515  0.67961744  0.76182963  1
  O2-  O156  1  0.18513624  0.42691850  0.23682954  1
  O2-  O157  1  0.17711075  0.42844253  0.56727368  1
  O2-  O158  1  0.17682275  0.42679816  0.90329233  1
  O2-  O159  1  0.18202865  0.92833096  0.24264184  1
  O2-  O160  1  0.17845149  0.93084253  0.57657322  1
  O2-  O161  1  0.17702721  0.93315892  0.91028825  1
  O2-  O162  1  0.67568159  0.43314168  0.23305972  1
  O2-  O163  1  0.68111175  0.43030975  0.56744974  1
  O2-  O164  1  0.67950659  0.42675619  0.90972929  1
  O2-  O165  1  0.67548908  0.93147749  0.23452649  1
  O2-  O166  1  0.67230005  0.92917632  0.58066119  1
  O2-  O167  1  0.67850738  0.93285939  0.90924632  1
  O2-  O168  1  0.43042047  0.31539569  0.10102845  1
  O2-  O169  1  0.42909411  0.31931462  0.42411852  1
  O2-  O170  1  0.42872421  0.31851015  0.76443079  1
  O2-  O171  1  0.43067806  0.82556614  0.09721774  1
  O2-  O172  1  0.42941964  0.82084328  0.43346661  1
  O2-  O173  1  0.42864607  0.82690839  0.75477047  1
  O2-  O174  1  0.92653726  0.32025162  0.09049835  1
  O2-  O175  1  0.92570846  0.31838776  0.42967396  1
  O2-  O176  1  0.92775085  0.31916515  0.76927457  1
  O2-  O177  1  0.93122499  0.82298061  0.09894562  1
  O2-  O178  1  0.93591981  0.81818382  0.43431982  1
  O2-  O179  1  0.93250021  0.82641773  0.75633032  1
  O2-  O180  1  0.32259732  0.07214309  0.24267776  1
  O2-  O181  1  0.32415582  0.07020058  0.57701621  1
  O2-  O182  1  0.31746348  0.07115789  0.90874240  1
  O2-  O183  1  0.32102499  0.57234623  0.24515695  1
  O2-  O184  1  0.31753452  0.57175707  0.56708085  1
  O2-  O185  1  0.32121193  0.56998082  0.90360726  1
  O2-  O186  1  0.82144261  0.06778380  0.23606785  1
  O2-  O187  1  0.82235139  0.06698527  0.56951343  1
  O2-  O188  1  0.82267343  0.07115318  0.90353241  1
  O2-  O189  1  0.81958800  0.57492245  0.24427174  1
  O2-  O190  1  0.82096835  0.57633112  0.57488931  1
  O2-  O191  1  0.82266246  0.56918796  0.89855198  1
  O2-  O192  1  0.04868975  0.07984046  0.26515152  1
  O2-  O193  1  0.04359985  0.08296135  0.60453459  1
  O2-  O194  1  0.04167696  0.08866394  0.93477513  1
  O2-  O195  1  0.05388125  0.58179866  0.27068981  1
  O2-  O196  1  0.04041548  0.58493157  0.59565107  1
  O2-  O197  1  0.04365364  0.58175284  0.94164397  1
  O2-  O198  1  0.53895755  0.08970829  0.26977745  1
  O2-  O199  1  0.54292267  0.08365637  0.60272088  1
  O2-  O200  1  0.54826829  0.08686014  0.93457027  1
  O2-  O201  1  0.54125299  0.58528584  0.26714182  1
  O2-  O202  1  0.53830764  0.58425726  0.59303443  1
  O2-  O203  1  0.54557370  0.57903365  0.93206359  1
  O2-  O204  1  0.17111130  0.20819227  0.26479098  1
  O2-  O205  1  0.16709911  0.19447573  0.60602367  1
  O2-  O206  1  0.16338457  0.20280775  0.93564853  1
  O2-  O207  1  0.16536806  0.70839579  0.26764181  1
  O2-  O208  1  0.16505514  0.71500439  0.59788011  1
  O2-  O209  1  0.16280581  0.70384814  0.93949421  1
  O2-  O210  1  0.66224551  0.20519748  0.27200496  1
  O2-  O211  1  0.66595888  0.20042901  0.60654634  1
  O2-  O212  1  0.66989008  0.20268324  0.93904538  1
  O2-  O213  1  0.66739386  0.69688706  0.27208855  1
  O2-  O214  1  0.66706448  0.70915278  0.59301329  1
  O2-  O215  1  0.66578748  0.71064273  0.92711494  1
  O2-  O216  1  0.08102878  0.45427092  0.07207385  1
  O2-  O217  1  0.08108951  0.45593678  0.40009572  1
  O2-  O218  1  0.07638499  0.45815058  0.73109737  1
  O2-  O219  1  0.09109938  0.96514665  0.06476213  1
  O2-  O220  1  0.09065868  0.95644797  0.39740121  1
  O2-  O221  1  0.08999178  0.95927639  0.73274997  1
  O2-  O222  1  0.58369383  0.45165800  0.06066123  1
  O2-  O223  1  0.58306886  0.46351047  0.40126885  1
  O2-  O224  1  0.58252897  0.46233260  0.73170778  1
  O2-  O225  1  0.58409483  0.95758839  0.06009157  1
  O2-  O226  1  0.58066218  0.96025426  0.40292487  1
  O2-  O227  1  0.58364594  0.95532839  0.73383720  1
  O2-  O228  1  0.20872285  0.32683137  0.06772084  1
  O2-  O229  1  0.21319217  0.33239436  0.40367299  1
  O2-  O230  1  0.20039940  0.32635030  0.73052004  1
  O2-  O231  1  0.19813626  0.83601115  0.06359559  1
  O2-  O232  1  0.20987583  0.83668707  0.39581418  1
  O2-  O233  1  0.20653823  0.83863712  0.73075177  1
  O2-  O234  1  0.70431129  0.33518552  0.06232163  1
  O2-  O235  1  0.70379915  0.33239013  0.40081263  1
  O2-  O236  1  0.70674153  0.33357489  0.73629109  1
  O2-  O237  1  0.70090559  0.83517110  0.05855406  1
  O2-  O238  1  0.70038836  0.82648035  0.39885405  1
  O2-  O239  1  0.69931144  0.83118056  0.72897174  1
  O2-  O240  1  0.45633775  0.41417438  0.27300650  1
  O2-  O241  1  0.45933851  0.41572351  0.59535582  1
  O2-  O242  1  0.45642919  0.41592837  0.93309952  1
  O2-  O243  1  0.45714192  0.92044022  0.26727162  1
  O2-  O244  1  0.45356547  0.91862150  0.60421281  1
  O2-  O245  1  0.45509839  0.92095594  0.92929218  1
  O2-  O246  1  0.95406117  0.42112766  0.26471710  1
  O2-  O247  1  0.95172137  0.41653793  0.59866688  1
  O2-  O248  1  0.95535690  0.41494528  0.94053145  1
  O2-  O249  1  0.96528069  0.91312815  0.26644987  1
  O2-  O250  1  0.96270216  0.91601565  0.60468356  1
  O2-  O251  1  0.96722330  0.91697318  0.93171207  1
  O2-  O252  1  0.33935913  0.28977810  0.27154168  1
  O2-  O253  1  0.33291898  0.28518695  0.59770577  1
  O2-  O254  1  0.33505461  0.28156818  0.93276973  1
  O2-  O255  1  0.33423871  0.79262087  0.26516275  1
  O2-  O256  1  0.33299003  0.80155473  0.60479039  1
  O2-  O257  1  0.32329743  0.80216755  0.93579352  1
  O2-  O258  1  0.82673694  0.29384687  0.26394478  1
  O2-  O259  1  0.83147152  0.28393761  0.60341830  1
  O2-  O260  1  0.83688356  0.29226249  0.93870185  1
  O2-  O261  1  0.83179995  0.79141501  0.26788130  1
  O2-  O262  1  0.83343695  0.80684499  0.60665318  1
  O2-  O263  1  0.83258470  0.79730454  0.93044400  1
  O2-  O264  1  0.41678470  0.04857601  0.05853943  1
  O2-  O265  1  0.41259097  0.04439035  0.39766903  1
  O2-  O266  1  0.41402719  0.04415662  0.73163628  1
  O2-  O267  1  0.42128541  0.54330850  0.06965850  1
  O2-  O268  1  0.41483994  0.54721873  0.39547789  1
  O2-  O269  1  0.41864373  0.54166864  0.73079111  1
  O2-  O270  1  0.92025774  0.04013057  0.06851137  1
  O2-  O271  1  0.92306306  0.04022867  0.40069878  1
  O2-  O272  1  0.91754626  0.03944717  0.73780274  1
  O2-  O273  1  0.91391783  0.54368014  0.07094026  1
  O2-  O274  1  0.91945019  0.55211479  0.39239225  1
  O2-  O275  1  0.91517093  0.54923463  0.72567123  1
  O2-  O276  1  0.28942291  0.15837908  0.06426439  1
  O2-  O277  1  0.29289195  0.16219719  0.39721076  1
  O2-  O278  1  0.29340817  0.16144310  0.73114664  1
  O2-  O279  1  0.29366233  0.67100958  0.06938355  1
  O2-  O280  1  0.29621182  0.66774555  0.39546414  1
  O2-  O281  1  0.29295415  0.67108056  0.73275548  1
  O2-  O282  1  0.79237837  0.16728455  0.07162850  1
  O2-  O283  1  0.79153397  0.16713105  0.40083719  1
  O2-  O284  1  0.78695470  0.16285949  0.73915808  1
  O2-  O285  1  0.78821716  0.67052049  0.06366605  1
  O2-  O286  1  0.79631822  0.66447211  0.39885814  1
  O2-  O287  1  0.79694253  0.67014460  0.72480042  1
