# generated using pymatgen
data_Ca2Al2SiO7
_symmetry_space_group_name_H-M   'P 1'
_cell_length_a   15.46240675
_cell_length_b   15.46351832
_cell_length_c   15.28651769
_cell_angle_alpha   90.00732880
_cell_angle_beta   90.00009872
_cell_angle_gamma   90.02433955
_symmetry_Int_Tables_number   1
_chemical_formula_structural   Ca2Al2SiO7
_chemical_formula_sum   'Ca48 Al48 Si24 O168'
_cell_volume   3655.05509066
_cell_formula_units_Z   24
loop_
 _symmetry_equiv_pos_site_id
 _symmetry_equiv_pos_as_xyz
  1  'x, y, z'
loop_
 _atom_type_symbol
 _atom_type_oxidation_number
  Ca2+  2.0
  Al0+  0.0
  Si0+  0.0
  O2-  -2.0
loop_
 _atom_site_type_symbol
 _atom_site_label
 _atom_site_symmetry_multiplicity
 _atom_site_fract_x
 _atom_site_fract_y
 _atom_site_fract_z
 _atom_site_occupancy
  Ca2+  Ca0  1  0.16754424  0.08116158  0.16862526  1
  Ca2+  Ca1  1  0.17805312  0.09306046  0.50283921  1
  Ca2+  Ca2  1  0.16657807  0.08533038  0.83895280  1
  Ca2+  Ca3  1  0.17872821  0.57512866  0.17060376  1
  Ca2+  Ca4  1  0.16802299  0.57173694  0.49914212  1
  Ca2+  Ca5  1  0.16624192  0.56824463  0.84181323  1
  Ca2+  Ca6  1  0.66317520  0.07338728  0.17184251  1
  Ca2+  Ca7  1  0.66163720  0.07947128  0.49696891  1
  Ca2+  Ca8  1  0.67695186  0.07959649  0.84440164  1
  Ca2+  Ca9  1  0.66507497  0.57420085  0.17012507  1
  Ca2+  Ca10  1  0.66870221  0.57759753  0.49825980  1
  Ca2+  Ca11  1  0.67973103  0.57687279  0.84046565  1
  Ca2+  Ca12  1  0.08351852  0.33340474  0.16291861  1
  Ca2+  Ca13  1  0.07664817  0.34048124  0.49711270  1
  Ca2+  Ca14  1  0.08472765  0.32677255  0.82600011  1
  Ca2+  Ca15  1  0.07941845  0.83681533  0.15996199  1
  Ca2+  Ca16  1  0.07431882  0.82891784  0.49157602  1
  Ca2+  Ca17  1  0.08501998  0.83225616  0.83325180  1
  Ca2+  Ca18  1  0.57956458  0.33873179  0.16494062  1
  Ca2+  Ca19  1  0.57643535  0.32699070  0.48223726  1
  Ca2+  Ca20  1  0.58367354  0.33734099  0.83345561  1
  Ca2+  Ca21  1  0.58204377  0.83074095  0.16261913  1
  Ca2+  Ca22  1  0.58513478  0.82503992  0.48819726  1
  Ca2+  Ca23  1  0.57845713  0.83778185  0.83556641  1
  Ca2+  Ca24  1  0.32496342  0.41844032  0.17609896  1
  Ca2+  Ca25  1  0.32575012  0.41288883  0.49800348  1
  Ca2+  Ca26  1  0.32016176  0.41888542  0.84081184  1
  Ca2+  Ca27  1  0.33107466  0.91821051  0.16929101  1
  Ca2+  Ca28  1  0.33730262  0.93106660  0.50190377  1
  Ca2+  Ca29  1  0.32810126  0.92199599  0.84137420  1
  Ca2+  Ca30  1  0.82508190  0.41658965  0.17149316  1
  Ca2+  Ca31  1  0.83186793  0.41260406  0.50345058  1
  Ca2+  Ca32  1  0.83592064  0.42384186  0.83905978  1
  Ca2+  Ca33  1  0.82758453  0.92260438  0.17148235  1
  Ca2+  Ca34  1  0.82844032  0.91181216  0.49752712  1
  Ca2+  Ca35  1  0.82771961  0.92556035  0.84547206  1
  Ca2+  Ca36  1  0.41831424  0.16770696  0.17092027  1
  Ca2+  Ca37  1  0.41695486  0.16881887  0.48924326  1
  Ca2+  Ca38  1  0.41794215  0.16537747  0.82915012  1
  Ca2+  Ca39  1  0.41813040  0.66360092  0.15941968  1
  Ca2+  Ca40  1  0.42339939  0.66492263  0.48794041  1
  Ca2+  Ca41  1  0.40954389  0.67139142  0.83692006  1
  Ca2+  Ca42  1  0.91984451  0.17186779  0.15943740  1
  Ca2+  Ca43  1  0.92492527  0.17853956  0.49446056  1
  Ca2+  Ca44  1  0.92755456  0.17016715  0.82911745  1
  Ca2+  Ca45  1  0.91264452  0.67167468  0.16462460  1
  Ca2+  Ca46  1  0.91366653  0.66889606  0.49349396  1
  Ca2+  Ca47  1  0.91193842  0.66283383  0.83002284  1
  Al0+  Al48  1  0.00102947  0.00142595  0.00179054  1
  Al0+  Al49  1  -0.00161307  -0.00010804  0.33121589  1
  Al0+  Al50  1  -0.00012059  -0.00082984  0.65999020  1
  Al0+  Al51  1  0.00015022  0.50152137  0.00803306  1
  Al0+  Al52  1  0.00070732  0.50169562  0.33034013  1
  Al0+  Al53  1  0.00002237  0.50098242  0.67034433  1
  Al0+  Al54  1  0.50000885  0.00007216  -0.00310974  1
  Al0+  Al55  1  0.50033042  -0.00161415  0.33806514  1
  Al0+  Al56  1  0.49800231  -0.00050561  0.67076184  1
  Al0+  Al57  1  0.50151701  0.50171579  -0.00139457  1
  Al0+  Al58  1  0.50113970  0.49950133  0.33273886  1
  Al0+  Al59  1  0.50025435  0.50207347  0.66699177  1
  Al0+  Al60  1  0.25078462  0.24935020  -0.00133376  1
  Al0+  Al61  1  0.24965751  0.24911518  0.33658865  1
  Al0+  Al62  1  0.25304925  0.24946170  0.67276509  1
  Al0+  Al63  1  0.24911417  0.75169830  0.00092222  1
  Al0+  Al64  1  0.24927859  0.74971564  0.33883837  1
  Al0+  Al65  1  0.24966660  0.75243264  0.66239337  1
  Al0+  Al66  1  0.75099397  0.25113888  0.00346964  1
  Al0+  Al67  1  0.75185916  0.24749555  0.33008810  1
  Al0+  Al68  1  0.74927569  0.24727905  0.66398363  1
  Al0+  Al69  1  0.74864589  0.75053207  0.00290604  1
  Al0+  Al70  1  0.74880292  0.75108783  0.32774241  1
  Al0+  Al71  1  0.74746502  0.74836185  0.67096531  1
  Al0+  Al72  1  0.17973531  0.93025383  0.01219055  1
  Al0+  Al73  1  0.07132929  0.17976988  0.98646379  1
  Al0+  Al74  1  0.56968081  0.67835736  0.31864617  1
  Al0+  Al75  1  0.42851578  0.82090284  0.98606133  1
  Al0+  Al76  1  0.82310974  0.07154040  0.01491041  1
  Al0+  Al77  1  0.57127925  0.17575590  0.31794457  1
  Al0+  Al78  1  0.92945273  0.32239551  0.65284200  1
  Al0+  Al79  1  0.31992202  0.06991820  0.68264681  1
  Al0+  Al80  1  0.81928083  0.56988461  0.67811833  1
  Al0+  Al81  1  0.92944502  0.32280121  0.31789260  1
  Al0+  Al82  1  0.68069584  0.42641621  0.34706093  1
  Al0+  Al83  1  0.32339808  0.57182217  0.34912320  1
  Al0+  Al84  1  0.07391837  0.17815677  0.65039257  1
  Al0+  Al85  1  0.67916787  0.42868426  0.01457649  1
  Al0+  Al86  1  0.68086399  0.92922732  0.34787555  1
  Al0+  Al87  1  0.17778336  0.42859721  0.34969632  1
  Al0+  Al88  1  0.67688439  0.93067356  0.01522003  1
  Al0+  Al89  1  0.31899404  0.06783097  0.34539000  1
  Al0+  Al90  1  0.17957674  0.42541227  0.01607084  1
  Al0+  Al91  1  0.42826113  0.31992961  0.31805624  1
  Al0+  Al92  1  0.31959809  0.57186199  0.01215370  1
  Al0+  Al93  1  0.92944737  0.82065417  0.31820544  1
  Al0+  Al94  1  0.82293824  0.57241721  0.01731726  1
  Al0+  Al95  1  0.18079999  0.43104870  0.68111237  1
  Si0+  Si96  1  0.32347597  0.07255957  0.01676833  1
  Si0+  Si97  1  0.57150828  0.17918610  0.98416581  1
  Si0+  Si98  1  0.92803762  0.32400741  0.98393095  1
  Si0+  Si99  1  0.67645636  0.42542315  0.68071031  1
  Si0+  Si100  1  0.07365704  0.67892914  0.31486706  1
  Si0+  Si101  1  0.17594488  0.92672564  0.68197404  1
  Si0+  Si102  1  0.92815547  0.82103131  0.98413084  1
  Si0+  Si103  1  0.32408285  0.57544359  0.68310029  1
  Si0+  Si104  1  0.82445558  0.07209650  0.35297478  1
  Si0+  Si105  1  0.42874822  0.82211926  0.65022738  1
  Si0+  Si106  1  0.57068025  0.17684642  0.65282558  1
  Si0+  Si107  1  0.82030929  0.57200645  0.34876115  1
  Si0+  Si108  1  0.17413489  0.92712369  0.35143016  1
  Si0+  Si109  1  0.67982980  0.92876548  0.68215517  1
  Si0+  Si110  1  0.07016861  0.68004398  0.98511708  1
  Si0+  Si111  1  0.92603011  0.81983043  0.65327111  1
  Si0+  Si112  1  0.43150517  0.32192717  0.65382974  1
  Si0+  Si113  1  0.42978455  0.32230944  0.98352831  1
  Si0+  Si114  1  0.57081911  0.68105726  0.65171669  1
  Si0+  Si115  1  0.07231725  0.17848980  0.31643819  1
  Si0+  Si116  1  0.82226768  0.07075231  0.67979140  1
  Si0+  Si117  1  0.57303433  0.67734280  0.97929251  1
  Si0+  Si118  1  0.07119688  0.67924546  0.65241569  1
  Si0+  Si119  1  0.42706351  0.82169616  0.31894297  1
  O2-  O120  1  0.25397892  0.00438354  0.05930919  1
  O2-  O121  1  0.24368599  -0.00531131  0.39522580  1
  O2-  O122  1  0.24151635  -0.00212698  0.72654249  1
  O2-  O123  1  0.25432904  0.49549640  0.06350736  1
  O2-  O124  1  0.25182743  0.49950182  0.39916171  1
  O2-  O125  1  0.25523299  0.50722648  0.72653297  1
  O2-  O126  1  0.74908357  0.00186582  0.06491451  1
  O2-  O127  1  0.75428035  0.00406895  0.39725028  1
  O2-  O128  1  0.75117238  -0.00023416  0.72291900  1
  O2-  O129  1  0.75141229  0.49965871  0.06507924  1
  O2-  O130  1  0.75713333  0.49927355  0.39492355  1
  O2-  O131  1  0.74940030  0.49007385  0.72363798  1
  O2-  O132  1  0.00460290  0.24784007  0.27271356  1
  O2-  O133  1  0.00314677  0.25217614  0.60182144  1
  O2-  O134  1  -0.00173481  0.25661230  0.93978383  1
  O2-  O135  1  0.00728144  0.75003464  0.27085775  1
  O2-  O136  1  -0.00130928  0.75012109  0.61149395  1
  O2-  O137  1  -0.00413360  0.74745104  0.94038136  1
  O2-  O138  1  0.50335178  0.25108545  0.26716546  1
  O2-  O139  1  0.50554809  0.25357560  0.61227432  1
  O2-  O140  1  0.50192513  0.25158475  0.94090980  1
  O2-  O141  1  0.48915091  0.74801254  0.27434264  1
  O2-  O142  1  0.49631348  0.74807338  0.60874724  1
  O2-  O143  1  0.50326646  0.74666382  0.93642820  1
  O2-  O144  1  0.07050039  0.17853578  0.09928404  1
  O2-  O145  1  0.07109950  0.17720537  0.42215584  1
  O2-  O146  1  0.07021605  0.17634976  0.76406465  1
  O2-  O147  1  0.07118868  0.68431813  0.08967460  1
  O2-  O148  1  0.07117225  0.67969748  0.42133401  1
  O2-  O149  1  0.07272416  0.68109881  0.75754156  1
  O2-  O150  1  0.56883073  0.17604176  0.08846443  1
  O2-  O151  1  0.56710126  0.17620202  0.43265345  1
  O2-  O152  1  0.57060379  0.17504410  0.75817585  1
  O2-  O153  1  0.57291176  0.67641894  0.08438400  1
  O2-  O154  1  0.57193549  0.68183123  0.43301083  1
  O2-  O155  1  0.57279398  0.68325204  0.75633497  1
  O2-  O156  1  0.17897432  0.42937444  0.23664329  1
  O2-  O157  1  0.18081529  0.43294789  0.56854227  1
  O2-  O158  1  0.17972355  0.42650476  0.90179720  1
  O2-  O159  1  0.17375244  0.92762576  0.24593015  1
  O2-  O160  1  0.17792451  0.92228874  0.57676388  1
  O2-  O161  1  0.18001350  0.92994209  0.89864779  1
  O2-  O162  1  0.68050541  0.42911522  0.23471548  1
  O2-  O163  1  0.67333068  0.42726346  0.57557918  1
  O2-  O164  1  0.67963370  0.42948684  0.89984938  1
  O2-  O165  1  0.68085018  0.92977476  0.23568400  1
  O2-  O166  1  0.68010444  0.92672035  0.57723030  1
  O2-  O167  1  0.67870025  0.93341255  0.90027215  1
  O2-  O168  1  0.42890075  0.32166569  0.08800385  1
  O2-  O169  1  0.42816950  0.31687563  0.43264663  1
  O2-  O170  1  0.43345453  0.32201140  0.75930549  1
  O2-  O171  1  0.42894622  0.82067260  0.09871301  1
  O2-  O172  1  0.43131860  0.82250699  0.42529749  1
  O2-  O173  1  0.42906207  0.82304298  0.75520439  1
  O2-  O174  1  0.92801502  0.32195046  0.08927574  1
  O2-  O175  1  0.93016915  0.32196586  0.43141865  1
  O2-  O176  1  0.92865214  0.32084835  0.76641437  1
  O2-  O177  1  0.93040588  0.82141651  0.08881468  1
  O2-  O178  1  0.92939259  0.81700605  0.43256789  1
  O2-  O179  1  0.92524096  0.82067024  0.75830079  1
  O2-  O180  1  0.31835869  0.06519618  0.23245341  1
  O2-  O181  1  0.32436030  0.06719250  0.56989212  1
  O2-  O182  1  0.32377333  0.07115045  0.91075065  1
  O2-  O183  1  0.32045967  0.57367587  0.23600091  1
  O2-  O184  1  0.32615922  0.57543433  0.57803562  1
  O2-  O185  1  0.31475674  0.57079541  0.89774064  1
  O2-  O186  1  0.82737871  0.06906266  0.24788475  1
  O2-  O187  1  0.82072997  0.06980708  0.57510887  1
  O2-  O188  1  0.82178745  0.06884518  0.89988726  1
  O2-  O189  1  0.81749543  0.57273911  0.24368735  1
  O2-  O190  1  0.81491411  0.57665423  0.56567960  1
  O2-  O191  1  0.82190023  0.57130741  0.90283854  1
  O2-  O192  1  0.04621166  0.08449202  0.27129139  1
  O2-  O193  1  0.04594444  0.07957145  0.59625901  1
  O2-  O194  1  0.03892867  0.08314411  0.93138449  1
  O2-  O195  1  0.04657839  0.58720550  0.26750616  1
  O2-  O196  1  0.04250566  0.58859833  0.60456673  1
  O2-  O197  1  0.04383501  0.58661746  0.93920706  1
  O2-  O198  1  0.53690868  0.07842706  0.26632362  1
  O2-  O199  1  0.53754151  0.08604457  0.60609802  1
  O2-  O200  1  0.54219494  0.08895238  0.93318251  1
  O2-  O201  1  0.54385106  0.58135414  0.26485474  1
  O2-  O202  1  0.54683275  0.58746871  0.60517469  1
  O2-  O203  1  0.54804491  0.58451477  0.93010953  1
  O2-  O204  1  0.16616102  0.20205196  0.27136118  1
  O2-  O205  1  0.17517735  0.20502919  0.60323826  1
  O2-  O206  1  0.16945304  0.20674118  0.93168231  1
  O2-  O207  1  0.16847829  0.70368781  0.27142116  1
  O2-  O208  1  0.16191665  0.70817032  0.60238694  1
  O2-  O209  1  0.15940735  0.71198920  0.93493142  1
  O2-  O210  1  0.67232862  0.19482849  0.26894203  1
  O2-  O211  1  0.66408638  0.19629555  0.60512695  1
  O2-  O212  1  0.66427870  0.20609096  0.93684293  1
  O2-  O213  1  0.66288869  0.71460949  0.26321412  1
  O2-  O214  1  0.66075391  0.71366087  0.60312878  1
  O2-  O215  1  0.66659792  0.70591173  0.93314891  1
  O2-  O216  1  0.08257424  0.45519015  0.06814412  1
  O2-  O217  1  0.08028382  0.46350359  0.40209780  1
  O2-  O218  1  0.08491236  0.46244205  0.73586113  1
  O2-  O219  1  0.08440719  0.96017153  0.06741498  1
  O2-  O220  1  0.08046423  0.95301108  0.39750390  1
  O2-  O221  1  0.07989865  0.94774040  0.72533834  1
  O2-  O222  1  0.58055061  0.45784705  0.06526768  1
  O2-  O223  1  0.58475480  0.45855107  0.40141428  1
  O2-  O224  1  0.58498983  0.45658255  0.72925163  1
  O2-  O225  1  0.57869527  0.95995235  0.06655330  1
  O2-  O226  1  0.58511336  0.95866457  0.40496527  1
  O2-  O227  1  0.58817441  0.95765035  0.72892761  1
  O2-  O228  1  0.20803492  0.32704175  0.06760882  1
  O2-  O229  1  0.20467052  0.33004644  0.40267746  1
  O2-  O230  1  0.21394406  0.33574175  0.73579316  1
  O2-  O231  1  0.20966582  0.83512793  0.06781257  1
  O2-  O232  1  0.19670733  0.83320191  0.39827742  1
  O2-  O233  1  0.20493480  0.83398758  0.72936573  1
  O2-  O234  1  0.70239075  0.32984513  0.06697288  1
  O2-  O235  1  0.70878518  0.32817866  0.39986782  1
  O2-  O236  1  0.69586295  0.32935317  0.72477525  1
  O2-  O237  1  0.70175847  0.83141114  0.06474099  1
  O2-  O238  1  0.71513233  0.83307104  0.40221911  1
  O2-  O239  1  0.70723725  0.83800015  0.73134391  1
  O2-  O240  1  0.45462047  0.41879305  0.26684764  1
  O2-  O241  1  0.45467742  0.41551089  0.60717938  1
  O2-  O242  1  0.45748837  0.41363755  0.93410043  1
  O2-  O243  1  0.45826754  0.91266260  0.27259105  1
  O2-  O244  1  0.46152183  0.91287944  0.60338923  1
  O2-  O245  1  0.46008309  0.91713636  0.92886224  1
  O2-  O246  1  0.95786883  0.42007204  0.26464480  1
  O2-  O247  1  0.95559072  0.42247782  0.60134780  1
  O2-  O248  1  0.95240596  0.41974506  0.94111518  1
  O2-  O249  1  0.95728165  0.91818559  0.26483157  1
  O2-  O250  1  0.95113711  0.91072775  0.60277197  1
  O2-  O251  1  0.95983916  0.91155999  0.93603125  1
  O2-  O252  1  0.33063256  0.28724811  0.26604962  1
  O2-  O253  1  0.34073905  0.29078736  0.60791047  1
  O2-  O254  1  0.33917982  0.29194069  0.93455276  1
  O2-  O255  1  0.32964509  0.80432808  0.27786456  1
  O2-  O256  1  0.33559848  0.80024795  0.60233955  1
  O2-  O257  1  0.33200842  0.78968269  0.92978785  1
  O2-  O258  1  0.83397644  0.29035917  0.26385303  1
  O2-  O259  1  0.83010855  0.29245165  0.60056659  1
  O2-  O260  1  0.83418250  0.29841106  0.93730359  1
  O2-  O261  1  0.83495579  0.78829182  0.26295250  1
  O2-  O262  1  0.83441251  0.78920662  0.60639148  1
  O2-  O263  1  0.83483555  0.79647262  0.93697318  1
  O2-  O264  1  0.41645331  0.04550201  0.06113724  1
  O2-  O265  1  0.41387586  0.03563817  0.40288660  1
  O2-  O266  1  0.41508906  0.03485076  0.73879352  1
  O2-  O267  1  0.42151245  0.55192099  0.05832161  1
  O2-  O268  1  0.42185059  0.54453805  0.40199652  1
  O2-  O269  1  0.41818222  0.55130418  0.72972107  1
  O2-  O270  1  0.91887237  0.03994254  0.06892996  1
  O2-  O271  1  0.91695728  0.04321488  0.40040406  1
  O2-  O272  1  0.91437880  0.04150647  0.72579813  1
  O2-  O273  1  0.92110558  0.54981308  0.07170564  1
  O2-  O274  1  0.91657473  0.55296770  0.39168620  1
  O2-  O275  1  0.91673670  0.54629975  0.73355369  1
  O2-  O276  1  0.29894845  0.16596110  0.06153775  1
  O2-  O277  1  0.28932070  0.16354217  0.40177021  1
  O2-  O278  1  0.29593771  0.16663244  0.73893454  1
  O2-  O279  1  0.28804767  0.66807843  0.06559986  1
  O2-  O280  1  0.29523084  0.67059187  0.40438584  1
  O2-  O281  1  0.29804696  0.67074939  0.72582795  1
  O2-  O282  1  0.79918481  0.17074774  0.06509360  1
  O2-  O283  1  0.79945546  0.16539561  0.39887181  1
  O2-  O284  1  0.79364898  0.16177631  0.72851134  1
  O2-  O285  1  0.79542475  0.67161479  0.06726955  1
  O2-  O286  1  0.78955323  0.66439202  0.39461141  1
  O2-  O287  1  0.78404294  0.66414954  0.73621046  1
