# generated using pymatgen
data_Ca2Al2SiO7
_symmetry_space_group_name_H-M   'P 1'
_cell_length_a   15.45567569
_cell_length_b   15.45474520
_cell_length_c   15.28174262
_cell_angle_alpha   89.99329542
_cell_angle_beta   90.01078664
_cell_angle_gamma   89.98623555
_symmetry_Int_Tables_number   1
_chemical_formula_structural   Ca2Al2SiO7
_chemical_formula_sum   'Ca48 Al48 Si24 O168'
_cell_volume   3650.25078750
_cell_formula_units_Z   24
loop_
 _symmetry_equiv_pos_site_id
 _symmetry_equiv_pos_as_xyz
  1  'x, y, z'
loop_
 _atom_type_symbol
 _atom_type_oxidation_number
  Ca2+  2.0
  Al0+  0.0
  Si0+  0.0
  O2-  -2.0
loop_
 _atom_site_type_symbol
 _atom_site_label
 _atom_site_symmetry_multiplicity
 _atom_site_fract_x
 _atom_site_fract_y
 _atom_site_fract_z
 _atom_site_occupancy
  Ca2+  Ca0  1  0.17149920  0.08594632  0.17515590  1
  Ca2+  Ca1  1  0.16733143  0.07993826  0.50436417  1
  Ca2+  Ca2  1  0.16117554  0.07953951  0.83557563  1
  Ca2+  Ca3  1  0.16996340  0.57945470  0.16937152  1
  Ca2+  Ca4  1  0.17155521  0.58959779  0.50883056  1
  Ca2+  Ca5  1  0.17804808  0.58067944  0.84034997  1
  Ca2+  Ca6  1  0.65679351  0.07595454  0.16754938  1
  Ca2+  Ca7  1  0.67357994  0.08402809  0.50984703  1
  Ca2+  Ca8  1  0.66757206  0.08601425  0.83908049  1
  Ca2+  Ca9  1  0.66673661  0.58514959  0.17793919  1
  Ca2+  Ca10  1  0.66318039  0.57568833  0.49953781  1
  Ca2+  Ca11  1  0.66157263  0.57710721  0.83759310  1
  Ca2+  Ca12  1  0.08965784  0.32398650  0.16095901  1
  Ca2+  Ca13  1  0.08755563  0.31972845  0.49454593  1
  Ca2+  Ca14  1  0.08941191  0.32428698  0.83025060  1
  Ca2+  Ca15  1  0.07798088  0.82771824  0.16989651  1
  Ca2+  Ca16  1  0.08224362  0.82585949  0.49562504  1
  Ca2+  Ca17  1  0.08630716  0.82902410  0.82359835  1
  Ca2+  Ca18  1  0.57887551  0.33285426  0.16482960  1
  Ca2+  Ca19  1  0.57639869  0.33795211  0.49877258  1
  Ca2+  Ca20  1  0.58197496  0.32641966  0.82245034  1
  Ca2+  Ca21  1  0.57713454  0.82633149  0.15878856  1
  Ca2+  Ca22  1  0.57655859  0.82596764  0.48899686  1
  Ca2+  Ca23  1  0.57969146  0.83146177  0.83750395  1
  Ca2+  Ca24  1  0.33262581  0.41852542  0.16857787  1
  Ca2+  Ca25  1  0.33913080  0.42150890  0.50590885  1
  Ca2+  Ca26  1  0.33484144  0.42615606  0.83676387  1
  Ca2+  Ca27  1  0.34211406  0.92273642  0.17309363  1
  Ca2+  Ca28  1  0.33066368  0.92135905  0.50266659  1
  Ca2+  Ca29  1  0.32809390  0.91437315  0.83767744  1
  Ca2+  Ca30  1  0.82326742  0.42426873  0.17858403  1
  Ca2+  Ca31  1  0.82107617  0.41809852  0.50165748  1
  Ca2+  Ca32  1  0.82754654  0.41463000  0.83348682  1
  Ca2+  Ca33  1  0.82794446  0.91281482  0.17061655  1
  Ca2+  Ca34  1  0.83708533  0.91941612  0.50376670  1
  Ca2+  Ca35  1  0.82675124  0.92480109  0.83707895  1
  Ca2+  Ca36  1  0.41675289  0.17225827  0.16424143  1
  Ca2+  Ca37  1  0.41494999  0.17913580  0.49474647  1
  Ca2+  Ca38  1  0.42891882  0.17376004  0.82619376  1
  Ca2+  Ca39  1  0.42502636  0.67408283  0.16094946  1
  Ca2+  Ca40  1  0.41840943  0.67117800  0.49206867  1
  Ca2+  Ca41  1  0.41314470  0.66508162  0.83357923  1
  Ca2+  Ca42  1  0.92976411  0.16600189  0.16316599  1
  Ca2+  Ca43  1  0.92518946  0.16097173  0.49946626  1
  Ca2+  Ca44  1  0.92465317  0.16362571  0.82703052  1
  Ca2+  Ca45  1  0.91516186  0.66605201  0.16947486  1
  Ca2+  Ca46  1  0.92720267  0.66804579  0.48950370  1
  Ca2+  Ca47  1  0.92582843  0.66860815  0.82677696  1
  Al0+  Al48  1  -0.00051060  0.00031840  -0.00231203  1
  Al0+  Al49  1  0.00071099  -0.00182441  0.32501484  1
  Al0+  Al50  1  -0.00108309  -0.00044987  0.67220361  1
  Al0+  Al51  1  -0.00086404  0.49899233  0.00344126  1
  Al0+  Al52  1  -0.00045230  0.49761135  0.33458554  1
  Al0+  Al53  1  -0.00016261  0.49913440  0.66292744  1
  Al0+  Al54  1  0.49985500  -0.00044061  -0.00472028  1
  Al0+  Al55  1  0.49956988  0.00237128  0.33948002  1
  Al0+  Al56  1  0.50014645  -0.00064561  0.66340798  1
  Al0+  Al57  1  0.49971320  0.50155089  0.00223207  1
  Al0+  Al58  1  0.49760491  0.49877416  0.32893563  1
  Al0+  Al59  1  0.50028512  0.50052265  0.67292639  1
  Al0+  Al60  1  0.24966915  0.24887941  -0.00362513  1
  Al0+  Al61  1  0.25253798  0.24969430  0.32999703  1
  Al0+  Al62  1  0.25119803  0.24989138  0.65961858  1
  Al0+  Al63  1  0.24933971  0.75057154  0.00333506  1
  Al0+  Al64  1  0.24815528  0.75120447  0.32501958  1
  Al0+  Al65  1  0.25006642  0.75074724  0.67102344  1
  Al0+  Al66  1  0.75339004  0.25053396  0.00004084  1
  Al0+  Al67  1  0.75000452  0.24875375  0.33769805  1
  Al0+  Al68  1  0.75176617  0.24908878  0.67236714  1
  Al0+  Al69  1  0.74886445  0.75152029  -0.00199416  1
  Al0+  Al70  1  0.75172033  0.74980116  0.33388816  1
  Al0+  Al71  1  0.74964130  0.75045268  0.66733687  1
  Al0+  Al72  1  0.17928165  0.42773928  0.01480265  1
  Al0+  Al73  1  0.56961940  0.67908810  0.32052583  1
  Al0+  Al74  1  0.32209462  0.57230365  0.01971233  1
  Al0+  Al75  1  0.07212344  0.67468927  0.31673834  1
  Al0+  Al76  1  0.57197484  0.67827233  0.98299548  1
  Al0+  Al77  1  0.07137044  0.17938650  0.98421229  1
  Al0+  Al78  1  0.67927186  0.93143950  0.01399709  1
  Al0+  Al79  1  0.43000799  0.32071936  0.31779183  1
  Al0+  Al80  1  0.68057948  0.43167631  0.68204829  1
  Al0+  Al81  1  0.43107538  0.32240556  0.65194106  1
  Al0+  Al82  1  0.07186974  0.67910305  0.65584076  1
  Al0+  Al83  1  0.57159428  0.18032991  0.98808712  1
  Al0+  Al84  1  0.42725702  0.82121286  0.98300048  1
  Al0+  Al85  1  0.32151989  0.07224234  0.34778432  1
  Al0+  Al86  1  0.07037995  0.17997000  0.31952594  1
  Al0+  Al87  1  0.81978620  0.06921458  0.68113717  1
  Al0+  Al88  1  0.42850783  0.82452283  0.31965859  1
  Al0+  Al89  1  0.18137045  0.93151749  0.67922393  1
  Al0+  Al90  1  0.67579024  0.42837794  0.34879518  1
  Al0+  Al91  1  0.57376270  0.17745654  0.65072341  1
  Al0+  Al92  1  0.82227670  0.57274429  0.35033793  1
  Al0+  Al93  1  0.31966704  0.57085680  0.67910267  1
  Al0+  Al94  1  0.07000231  0.17806024  0.65244850  1
  Al0+  Al95  1  0.92895740  0.82070795  0.31832889  1
  Si0+  Si96  1  0.57492551  0.17819188  0.31835836  1
  Si0+  Si97  1  0.82338855  0.07247356  0.01956056  1
  Si0+  Si98  1  0.17575587  0.92863776  0.01700816  1
  Si0+  Si99  1  0.42772292  0.82051726  0.65169222  1
  Si0+  Si100  1  0.17612011  0.42540074  0.68028786  1
  Si0+  Si101  1  0.31750699  0.57172375  0.34690565  1
  Si0+  Si102  1  0.42823148  0.32236313  0.98278687  1
  Si0+  Si103  1  0.67986521  0.42765221  0.01494526  1
  Si0+  Si104  1  0.31992066  0.06891373  0.01247590  1
  Si0+  Si105  1  0.92572233  0.32040494  0.31757926  1
  Si0+  Si106  1  0.92719464  0.32251584  0.64885866  1
  Si0+  Si107  1  0.82337001  0.06943942  0.34681090  1
  Si0+  Si108  1  0.82409946  0.57360200  0.68392471  1
  Si0+  Si109  1  0.82055300  0.57189360  0.01389564  1
  Si0+  Si110  1  0.92763126  0.82097946  0.65252559  1
  Si0+  Si111  1  0.06941917  0.67826456  0.98527897  1
  Si0+  Si112  1  0.32321788  0.07422180  0.68366530  1
  Si0+  Si113  1  0.67898841  0.92942277  0.34889134  1
  Si0+  Si114  1  0.92861535  0.32373789  0.98303945  1
  Si0+  Si115  1  0.17929365  0.42700733  0.34877173  1
  Si0+  Si116  1  0.67481100  0.92539457  0.68369691  1
  Si0+  Si117  1  0.57145937  0.67938557  0.65247317  1
  Si0+  Si118  1  0.92850354  0.82103549  0.98276572  1
  Si0+  Si119  1  0.17716403  0.92852578  0.34821020  1
  O2-  O120  1  0.24822315  -0.00092814  0.05690421  1
  O2-  O121  1  0.24768563  -0.00468222  0.39236427  1
  O2-  O122  1  0.25382326  0.00698047  0.72924121  1
  O2-  O123  1  0.25051725  0.49850617  0.06798878  1
  O2-  O124  1  0.24385089  0.50401669  0.39081190  1
  O2-  O125  1  0.24372006  0.49550491  0.72348226  1
  O2-  O126  1  0.75179079  0.00723618  0.06393970  1
  O2-  O127  1  0.75117479  0.00001313  0.38989791  1
  O2-  O128  1  0.74045743  -0.00182204  0.72618398  1
  O2-  O129  1  0.74740939  0.50266347  0.05562887  1
  O2-  O130  1  0.74798719  0.50151449  0.39794302  1
  O2-  O131  1  0.75526018  0.50651206  0.73013660  1
  O2-  O132  1  -0.00359006  0.25485142  0.27186292  1
  O2-  O133  1  -0.00125069  0.25606468  0.60535558  1
  O2-  O134  1  -0.00220380  0.25565516  0.93869294  1
  O2-  O135  1  -0.00331317  0.74443496  0.26806043  1
  O2-  O136  1  -0.00703259  0.74916687  0.60925768  1
  O2-  O137  1  0.00093498  0.75117825  0.94126071  1
  O2-  O138  1  0.50746901  0.24749845  0.27372824  1
  O2-  O139  1  0.50107231  0.24850286  0.60087294  1
  O2-  O140  1  0.50175786  0.25837618  0.93969888  1
  O2-  O141  1  0.50077761  0.75337151  0.26983979  1
  O2-  O142  1  0.50273765  0.75290785  0.61096867  1
  O2-  O143  1  0.49623256  0.74630278  0.93232896  1
  O2-  O144  1  0.07059591  0.17841545  0.09737163  1
  O2-  O145  1  0.06816389  0.17815136  0.43263541  1
  O2-  O146  1  0.06814822  0.17843329  0.76561068  1
  O2-  O147  1  0.06603124  0.67821776  0.09002087  1
  O2-  O148  1  0.07498576  0.67892075  0.43062039  1
  O2-  O149  1  0.07089181  0.68166436  0.76951732  1
  O2-  O150  1  0.56824036  0.18065358  0.10137228  1
  O2-  O151  1  0.57617860  0.17762042  0.42357051  1
  O2-  O152  1  0.57219551  0.17969367  0.76482608  1
  O2-  O153  1  0.57552792  0.68091832  0.09608805  1
  O2-  O154  1  0.56597741  0.67985076  0.43497525  1
  O2-  O155  1  0.57264256  0.68027726  0.75734486  1
  O2-  O156  1  0.18209482  0.42488277  0.24377671  1
  O2-  O157  1  0.17606079  0.42556369  0.57451561  1
  O2-  O158  1  0.17906636  0.42949477  0.90091691  1
  O2-  O159  1  0.17518565  0.93121398  0.24245774  1
  O2-  O160  1  0.18246274  0.93039962  0.56624126  1
  O2-  O161  1  0.17407034  0.92906430  0.91159748  1
  O2-  O162  1  0.67881461  0.42678040  0.23460725  1
  O2-  O163  1  0.67951247  0.43406318  0.56945347  1
  O2-  O164  1  0.68296104  0.42646357  0.90972073  1
  O2-  O165  1  0.67771660  0.93134341  0.24375414  1
  O2-  O166  1  0.67679049  0.92177083  0.57807111  1
  O2-  O167  1  0.68281205  0.93234363  0.90087628  1
  O2-  O168  1  0.42740884  0.31933862  0.08853919  1
  O2-  O169  1  0.42856883  0.32193817  0.43050038  1
  O2-  O170  1  0.43284959  0.32246204  0.76583076  1
  O2-  O171  1  0.43121168  0.82412279  0.09612738  1
  O2-  O172  1  0.42908245  0.82217569  0.43405365  1
  O2-  O173  1  0.42652674  0.82036633  0.75651173  1
  O2-  O174  1  0.92686250  0.32260891  0.08849227  1
  O2-  O175  1  0.92562851  0.31724828  0.42313126  1
  O2-  O176  1  0.92796341  0.32299436  0.75474910  1
  O2-  O177  1  0.92844129  0.82085386  0.08755462  1
  O2-  O178  1  0.93314073  0.82479358  0.43202659  1
  O2-  O179  1  0.92795398  0.81985893  0.75856719  1
  O2-  O180  1  0.32037205  0.07263949  0.23394272  1
  O2-  O181  1  0.32173214  0.07196157  0.57811183  1
  O2-  O182  1  0.31806791  0.06794611  0.90734916  1
  O2-  O183  1  0.31697725  0.56941128  0.24227897  1
  O2-  O184  1  0.31952357  0.57315840  0.56553094  1
  O2-  O185  1  0.31903893  0.57150915  0.90565101  1
  O2-  O186  1  0.82325451  0.06948944  0.24180855  1
  O2-  O187  1  0.82249385  0.06463525  0.56752577  1
  O2-  O188  1  0.82496396  0.07021967  0.91400585  1
  O2-  O189  1  0.82063904  0.57019607  0.23588143  1
  O2-  O190  1  0.82353527  0.57422329  0.57902209  1
  O2-  O191  1  0.82322026  0.57006924  0.90857451  1
  O2-  O192  1  0.03978602  0.08492931  0.26316308  1
  O2-  O193  1  0.03449200  0.08172406  0.60090156  1
  O2-  O194  1  0.03776397  0.08288331  0.93086058  1
  O2-  O195  1  0.04643617  0.57458757  0.26581970  1
  O2-  O196  1  0.04671076  0.58134832  0.60151558  1
  O2-  O197  1  0.03937182  0.58673750  0.93846560  1
  O2-  O198  1  0.54591738  0.08498351  0.27374759  1
  O2-  O199  1  0.54990791  0.07698968  0.59939123  1
  O2-  O200  1  0.53905671  0.08592087  0.93197065  1
  O2-  O201  1  0.54049889  0.58237935  0.26618049  1
  O2-  O202  1  0.54082357  0.58836310  0.60704216  1
  O2-  O203  1  0.54605124  0.57781707  0.93242935  1
  O2-  O204  1  0.16598990  0.21250172  0.26558598  1
  O2-  O205  1  0.16721988  0.20449741  0.59776508  1
  O2-  O206  1  0.16785609  0.20776279  0.92866008  1
  O2-  O207  1  0.16685058  0.70745398  0.25954215  1
  O2-  O208  1  0.16661990  0.71509492  0.60183251  1
  O2-  O209  1  0.16207686  0.70554156  0.94039691  1
  O2-  O210  1  0.66922027  0.20002494  0.27155372  1
  O2-  O211  1  0.67420141  0.20457299  0.60236015  1
  O2-  O212  1  0.67115513  0.20648129  0.93707335  1
  O2-  O213  1  0.66967210  0.70444054  0.27109182  1
  O2-  O214  1  0.66437602  0.70474598  0.60527138  1
  O2-  O215  1  0.66954662  0.70978457  0.92850455  1
  O2-  O216  1  0.08000216  0.45484384  0.06816749  1
  O2-  O217  1  0.08460839  0.44537709  0.39422612  1
  O2-  O218  1  0.08129735  0.44788495  0.72582866  1
  O2-  O219  1  0.08414356  0.95849513  0.06372326  1
  O2-  O220  1  0.08413896  0.95719297  0.39405312  1
  O2-  O221  1  0.08487357  0.95938324  0.73572553  1
  O2-  O222  1  0.58620342  0.45015762  0.06001473  1
  O2-  O223  1  0.57689707  0.45817595  0.40031535  1
  O2-  O224  1  0.58595619  0.46334720  0.73911662  1
  O2-  O225  1  0.58205791  0.96251466  0.06686343  1
  O2-  O226  1  0.58882211  0.95775196  0.39932205  1
  O2-  O227  1  0.57970194  0.94728254  0.72834586  1
  O2-  O228  1  0.20802268  0.32794280  0.06598177  1
  O2-  O229  1  0.21347980  0.33758361  0.39668937  1
  O2-  O230  1  0.20311990  0.33163018  0.72573862  1
  O2-  O231  1  0.19975687  0.83628846  0.06407805  1
  O2-  O232  1  0.20085972  0.83337903  0.39225231  1
  O2-  O233  1  0.21382570  0.83689615  0.73682835  1
  O2-  O234  1  0.71149163  0.33749932  0.06381295  1
  O2-  O235  1  0.70632032  0.33014136  0.40238209  1
  O2-  O236  1  0.71306166  0.33567125  0.73672889  1
  O2-  O237  1  0.71296326  0.83495623  0.06690396  1
  O2-  O238  1  0.70647763  0.83799081  0.39684106  1
  O2-  O239  1  0.70435599  0.83343644  0.73211944  1
  O2-  O240  1  0.45843279  0.41588359  0.26083213  1
  O2-  O241  1  0.46232774  0.42124057  0.60072294  1
  O2-  O242  1  0.44979349  0.41802206  0.94060808  1
  O2-  O243  1  0.45810991  0.92403090  0.26983200  1
  O2-  O244  1  0.45142711  0.91330447  0.60408433  1
  O2-  O245  1  0.45865796  0.91771029  0.92758481  1
  O2-  O246  1  0.94792317  0.41488259  0.27273873  1
  O2-  O247  1  0.94781776  0.41693602  0.60226119  1
  O2-  O248  1  0.95204475  0.41785991  0.93634976  1
  O2-  O249  1  0.96011149  0.91562243  0.25915353  1
  O2-  O250  1  0.95708216  0.91321119  0.60729130  1
  O2-  O251  1  0.95605416  0.91312762  0.93577375  1
  O2-  O252  1  0.33615582  0.28574079  0.26131713  1
  O2-  O253  1  0.33241812  0.29724226  0.59748037  1
  O2-  O254  1  0.33690803  0.29241793  0.93525192  1
  O2-  O255  1  0.33029997  0.80022624  0.26608215  1
  O2-  O256  1  0.33771444  0.78881812  0.60408207  1
  O2-  O257  1  0.32600086  0.79579270  0.93302278  1
  O2-  O258  1  0.83306031  0.29219303  0.27038182  1
  O2-  O259  1  0.83512668  0.29229275  0.60364623  1
  O2-  O260  1  0.83606273  0.29668428  0.93497398  1
  O2-  O261  1  0.82981672  0.79610296  0.26525938  1
  O2-  O262  1  0.83260191  0.80038651  0.60661891  1
  O2-  O263  1  0.83790621  0.79256725  0.93404295  1
  O2-  O264  1  0.41131795  0.04066211  0.06001145  1
  O2-  O265  1  0.41740369  0.04456370  0.40543641  1
  O2-  O266  1  0.41739597  0.04696133  0.72810033  1
  O2-  O267  1  0.42159687  0.54519794  0.07132599  1
  O2-  O268  1  0.40880655  0.54109174  0.39337119  1
  O2-  O269  1  0.41454077  0.54035507  0.73641506  1
  O2-  O270  1  0.91583803  0.04125567  0.06543468  1
  O2-  O271  1  0.91488602  0.03833703  0.39334492  1
  O2-  O272  1  0.91305766  0.03392096  0.73953718  1
  O2-  O273  1  0.91094956  0.54305300  0.06353627  1
  O2-  O274  1  0.92090554  0.54225131  0.40283186  1
  O2-  O275  1  0.91788536  0.54634862  0.73033151  1
  O2-  O276  1  0.29285069  0.16130511  0.05912032  1
  O2-  O277  1  0.28745151  0.16787171  0.40161484  1
  O2-  O278  1  0.29915347  0.16897151  0.72766581  1
  O2-  O279  1  0.29171390  0.67088345  0.07099967  1
  O2-  O280  1  0.29220240  0.66578868  0.39193827  1
  O2-  O281  1  0.28749206  0.66541702  0.73614254  1
  O2-  O282  1  0.80364412  0.16825372  0.06338151  1
  O2-  O283  1  0.79837687  0.16105067  0.39597377  1
  O2-  O284  1  0.79560577  0.16611078  0.73780089  1
  O2-  O285  1  0.79481375  0.66472096  0.05964312  1
  O2-  O286  1  0.79833555  0.67246572  0.40302999  1
  O2-  O287  1  0.80007761  0.66825434  0.72979167  1
