# generated using pymatgen
data_Ca2Al2SiO7
_symmetry_space_group_name_H-M   'P 1'
_cell_length_a   15.45132698
_cell_length_b   15.45211370
_cell_length_c   15.27936911
_cell_angle_alpha   89.99896033
_cell_angle_beta   90.00619648
_cell_angle_gamma   90.00267749
_symmetry_Int_Tables_number   1
_chemical_formula_structural   Ca2Al2SiO7
_chemical_formula_sum   'Ca48 Al48 Si24 O168'
_cell_volume   3648.03585108
_cell_formula_units_Z   24
loop_
 _symmetry_equiv_pos_site_id
 _symmetry_equiv_pos_as_xyz
  1  'x, y, z'
loop_
 _atom_type_symbol
 _atom_type_oxidation_number
  Ca2+  2.0
  Al0+  0.0
  Si0+  0.0
  O2-  -2.0
loop_
 _atom_site_type_symbol
 _atom_site_label
 _atom_site_symmetry_multiplicity
 _atom_site_fract_x
 _atom_site_fract_y
 _atom_site_fract_z
 _atom_site_occupancy
  Ca2+  Ca0  1  0.15973854  0.07048651  0.16891639  1
  Ca2+  Ca1  1  0.17576325  0.07008133  0.50996461  1
  Ca2+  Ca2  1  0.16354353  0.07467808  0.83750940  1
  Ca2+  Ca3  1  0.17245769  0.58959770  0.17097655  1
  Ca2+  Ca4  1  0.16264842  0.58246608  0.50856913  1
  Ca2+  Ca5  1  0.16766151  0.58215670  0.83270328  1
  Ca2+  Ca6  1  0.66998006  0.08152781  0.16755926  1
  Ca2+  Ca7  1  0.65906451  0.07924241  0.50825112  1
  Ca2+  Ca8  1  0.66998674  0.07062615  0.83804378  1
  Ca2+  Ca9  1  0.66880017  0.58223551  0.16746007  1
  Ca2+  Ca10  1  0.67945244  0.58937597  0.50749705  1
  Ca2+  Ca11  1  0.66985601  0.58495349  0.83972146  1
  Ca2+  Ca12  1  0.08028477  0.32288597  0.15924049  1
  Ca2+  Ca13  1  0.07949843  0.33939359  0.50223034  1
  Ca2+  Ca14  1  0.08012525  0.32897721  0.82507069  1
  Ca2+  Ca15  1  0.08107528  0.83362776  0.16023494  1
  Ca2+  Ca16  1  0.08763148  0.82598962  0.49717868  1
  Ca2+  Ca17  1  0.07363799  0.83583306  0.82708457  1
  Ca2+  Ca18  1  0.58257420  0.33351491  0.16423439  1
  Ca2+  Ca19  1  0.57692474  0.31923383  0.49341959  1
  Ca2+  Ca20  1  0.58646022  0.32800775  0.82724156  1
  Ca2+  Ca21  1  0.57826959  0.82942564  0.15952201  1
  Ca2+  Ca22  1  0.58001899  0.83212808  0.49968450  1
  Ca2+  Ca23  1  0.59228592  0.82521389  0.82719634  1
  Ca2+  Ca24  1  0.33707542  0.42274622  0.16847946  1
  Ca2+  Ca25  1  0.32768130  0.41386630  0.50524413  1
  Ca2+  Ca26  1  0.32795921  0.42204499  0.83706612  1
  Ca2+  Ca27  1  0.32166264  0.90983110  0.17303975  1
  Ca2+  Ca28  1  0.32665931  0.91445229  0.50613985  1
  Ca2+  Ca29  1  0.32161191  0.91903914  0.83341633  1
  Ca2+  Ca30  1  0.82533797  0.42189226  0.17169281  1
  Ca2+  Ca31  1  0.83958783  0.42915361  0.50760788  1
  Ca2+  Ca32  1  0.83114878  0.42199352  0.83393795  1
  Ca2+  Ca33  1  0.83235344  0.91650416  0.16124054  1
  Ca2+  Ca34  1  0.82679914  0.91612441  0.50918712  1
  Ca2+  Ca35  1  0.82771629  0.91200471  0.83936806  1
  Ca2+  Ca36  1  0.42055254  0.17191753  0.16711746  1
  Ca2+  Ca37  1  0.42397367  0.16276443  0.49589747  1
  Ca2+  Ca38  1  0.42218152  0.16269191  0.82422942  1
  Ca2+  Ca39  1  0.41765411  0.67175112  0.15911675  1
  Ca2+  Ca40  1  0.42260968  0.67264973  0.49610161  1
  Ca2+  Ca41  1  0.42723600  0.66248835  0.83215931  1
  Ca2+  Ca42  1  0.92131444  0.16110511  0.15610690  1
  Ca2+  Ca43  1  0.91456599  0.17556860  0.50002554  1
  Ca2+  Ca44  1  0.91688291  0.16864242  0.83197810  1
  Ca2+  Ca45  1  0.92062056  0.66999337  0.16399518  1
  Ca2+  Ca46  1  0.92374399  0.66717213  0.50054278  1
  Ca2+  Ca47  1  0.91741242  0.67825208  0.82206938  1
  Al0+  Al48  1  0.00036206  -0.00004005  -0.00152751  1
  Al0+  Al49  1  -0.00185998  -0.00111141  0.34092400  1
  Al0+  Al50  1  -0.00110752  0.00205002  0.66382363  1
  Al0+  Al51  1  0.00048687  0.49880434  0.00097792  1
  Al0+  Al52  1  0.00022085  0.50112567  0.32988289  1
  Al0+  Al53  1  -0.00000451  0.50041166  0.67074131  1
  Al0+  Al54  1  0.49802900  0.00046562  0.00313621  1
  Al0+  Al55  1  0.49963560  -0.00020744  0.32263971  1
  Al0+  Al56  1  0.50029965  -0.00116336  0.67176331  1
  Al0+  Al57  1  0.49937525  0.50070144  0.00429032  1
  Al0+  Al58  1  0.50076093  0.49852801  0.33364117  1
  Al0+  Al59  1  0.50131430  0.49920578  0.65936766  1
  Al0+  Al60  1  0.24996124  0.24997103  -0.00425423  1
  Al0+  Al61  1  0.25020163  0.24961758  0.32920296  1
  Al0+  Al62  1  0.25018607  0.25103299  0.67423516  1
  Al0+  Al63  1  0.25084331  0.74978089  0.00552801  1
  Al0+  Al64  1  0.24973547  0.74804934  0.33126519  1
  Al0+  Al65  1  0.25073410  0.74957299  0.66967398  1
  Al0+  Al66  1  0.74959813  0.25126236  0.00767337  1
  Al0+  Al67  1  0.74989159  0.25009605  0.33039380  1
  Al0+  Al68  1  0.74979189  0.25094007  0.65623545  1
  Al0+  Al69  1  0.75005377  0.74993072  -0.00073468  1
  Al0+  Al70  1  0.75151359  0.75124123  0.33726467  1
  Al0+  Al71  1  0.75154859  0.75021479  0.66521980  1
  Al0+  Al72  1  0.57239505  0.67743069  0.65241883  1
  Al0+  Al73  1  0.92857643  0.82409437  0.64977778  1
  Al0+  Al74  1  0.17888678  0.92735384  0.34849473  1
  Al0+  Al75  1  0.68070755  0.92956847  0.67891308  1
  Al0+  Al76  1  0.18013075  0.93121110  0.01423098  1
  Al0+  Al77  1  0.32189109  0.07066104  0.68104625  1
  Al0+  Al78  1  0.81986518  0.06995726  0.01334953  1
  Al0+  Al79  1  0.67710432  0.92598633  0.01658260  1
  Al0+  Al80  1  0.82032162  0.57058544  0.68163139  1
  Al0+  Al81  1  0.17670318  0.92716568  0.68261384  1
  Al0+  Al82  1  0.42900805  0.81871909  0.31982564  1
  Al0+  Al83  1  0.57230051  0.17815041  0.31432039  1
  Al0+  Al84  1  0.93001035  0.32065294  0.65372580  1
  Al0+  Al85  1  0.07038262  0.17936133  0.98577656  1
  Al0+  Al86  1  0.56888753  0.68012253  0.98780364  1
  Al0+  Al87  1  0.06951797  0.67925568  0.31830360  1
  Al0+  Al88  1  0.82084693  0.57021914  0.34774862  1
  Al0+  Al89  1  0.31917710  0.56894578  0.01373976  1
  Al0+  Al90  1  0.93106613  0.81874805  0.98730942  1
  Al0+  Al91  1  0.56929022  0.17793765  0.65567580  1
  Al0+  Al92  1  0.17892507  0.43034792  0.68031959  1
  Al0+  Al93  1  0.42723217  0.32194365  0.31708401  1
  Al0+  Al94  1  0.07181695  0.68026797  0.65378742  1
  Al0+  Al95  1  0.67921441  0.42987455  0.01293795  1
  Si0+  Si96  1  0.32574412  0.57208983  0.68173259  1
  Si0+  Si97  1  0.17954130  0.42778041  0.34630018  1
  Si0+  Si98  1  0.32165589  0.07207590  0.34740844  1
  Si0+  Si99  1  0.42571059  0.82338453  0.98200861  1
  Si0+  Si100  1  0.32279385  0.07524365  0.01920244  1
  Si0+  Si101  1  0.32175467  0.57048768  0.34920766  1
  Si0+  Si102  1  0.57179796  0.17940842  0.98460397  1
  Si0+  Si103  1  0.82143972  0.07635714  0.68062588  1
  Si0+  Si104  1  0.67788187  0.42731669  0.67951599  1
  Si0+  Si105  1  0.42891948  0.82085999  0.65266515  1
  Si0+  Si106  1  0.06876571  0.17775325  0.32088604  1
  Si0+  Si107  1  0.82346224  0.57288311  0.01654566  1
  Si0+  Si108  1  0.42610496  0.32253619  0.65143248  1
  Si0+  Si109  1  0.17700282  0.42618560  0.01804833  1
  Si0+  Si110  1  0.67756583  0.93117134  0.34771443  1
  Si0+  Si111  1  0.43025602  0.32163272  0.98343137  1
  Si0+  Si112  1  0.07455346  0.17869849  0.64853538  1
  Si0+  Si113  1  0.57480917  0.67895612  0.31752031  1
  Si0+  Si114  1  0.67748358  0.42663307  0.35335599  1
  Si0+  Si115  1  0.93023832  0.32217235  0.31718505  1
  Si0+  Si116  1  0.92698142  0.82408014  0.31602889  1
  Si0+  Si117  1  0.07451263  0.67608008  0.98345109  1
  Si0+  Si118  1  0.92606041  0.32316191  0.98429694  1
  Si0+  Si119  1  0.82106399  0.07275292  0.35041127  1
  O2-  O120  1  0.25580537  0.00476173  0.06300363  1
  O2-  O121  1  0.25504767  0.00212790  0.39244131  1
  O2-  O122  1  0.24581478  0.00312694  0.73113623  1
  O2-  O123  1  0.24165339  0.49777524  0.06321158  1
  O2-  O124  1  0.25217001  0.49698734  0.38926623  1
  O2-  O125  1  0.25562827  0.50409408  0.72498734  1
  O2-  O126  1  0.74728166  0.00011263  0.06643847  1
  O2-  O127  1  0.74701009  0.00396979  0.39048297  1
  O2-  O128  1  0.75730219  0.00349901  0.72398013  1
  O2-  O129  1  0.75552541  0.50300178  0.06015410  1
  O2-  O130  1  0.74472881  0.49703610  0.39626676  1
  O2-  O131  1  0.74203494  0.49829816  0.72641703  1
  O2-  O132  1  -0.00278970  0.24716299  0.27586109  1
  O2-  O133  1  0.00493520  0.24675994  0.60422677  1
  O2-  O134  1  -0.00314834  0.25642261  0.94099840  1
  O2-  O135  1  -0.00346377  0.75592615  0.27250439  1
  O2-  O136  1  0.00452482  0.75523063  0.60102173  1
  O2-  O137  1  0.00359292  0.74192288  0.94031614  1
  O2-  O138  1  0.50201326  0.25327791  0.26609870  1
  O2-  O139  1  0.49279230  0.25122592  0.60894076  1
  O2-  O140  1  0.49867562  0.24807731  0.94144555  1
  O2-  O141  1  0.50387918  0.74424043  0.27253862  1
  O2-  O142  1  0.49612105  0.75112706  0.60715803  1
  O2-  O143  1  0.49905496  0.75894826  0.93912856  1
  O2-  O144  1  0.06864473  0.18043385  0.10000398  1
  O2-  O145  1  0.06809004  0.18040884  0.42568185  1
  O2-  O146  1  0.07346912  0.17988003  0.75409710  1
  O2-  O147  1  0.07349521  0.67650544  0.08950696  1
  O2-  O148  1  0.06983656  0.67654346  0.43087553  1
  O2-  O149  1  0.06999187  0.67917717  0.76735636  1
  O2-  O150  1  0.57080022  0.18173167  0.08956758  1
  O2-  O151  1  0.57015593  0.17658491  0.42820450  1
  O2-  O152  1  0.57072595  0.18058603  0.76901291  1
  O2-  O153  1  0.56593918  0.67958065  0.10134321  1
  O2-  O154  1  0.57464071  0.68164984  0.42318000  1
  O2-  O155  1  0.57054593  0.67577962  0.76554543  1
  O2-  O156  1  0.17910030  0.42763437  0.24122347  1
  O2-  O157  1  0.18068688  0.43042031  0.56637489  1
  O2-  O158  1  0.17810186  0.42567855  0.91272720  1
  O2-  O159  1  0.17697755  0.93017139  0.23520037  1
  O2-  O160  1  0.18169571  0.92640508  0.56866191  1
  O2-  O161  1  0.18028941  0.93223122  0.90172411  1
  O2-  O162  1  0.67885044  0.42708661  0.24737378  1
  O2-  O163  1  0.67993813  0.42725834  0.57406028  1
  O2-  O164  1  0.67978965  0.42835936  0.89976665  1
  O2-  O165  1  0.67972308  0.93002589  0.24290614  1
  O2-  O166  1  0.67787463  0.93232849  0.56501840  1
  O2-  O167  1  0.67866361  0.92676731  0.90314506  1
  O2-  O168  1  0.43051390  0.32108596  0.08852547  1
  O2-  O169  1  0.42511045  0.31916565  0.43065675  1
  O2-  O170  1  0.42869877  0.32590911  0.75712878  1
  O2-  O171  1  0.42428414  0.81970125  0.08798491  1
  O2-  O172  1  0.43067666  0.81772632  0.43320713  1
  O2-  O173  1  0.42897620  0.81994841  0.75808442  1
  O2-  O174  1  0.92807893  0.32388172  0.09045624  1
  O2-  O175  1  0.93232247  0.32338801  0.42223176  1
  O2-  O176  1  0.92919869  0.31852881  0.76674856  1
  O2-  O177  1  0.93268210  0.81739903  0.10109310  1
  O2-  O178  1  0.92551966  0.82481009  0.42110119  1
  O2-  O179  1  0.92721757  0.82145589  0.76345179  1
  O2-  O180  1  0.31789931  0.07368868  0.24187786  1
  O2-  O181  1  0.32231582  0.06890687  0.56681227  1
  O2-  O182  1  0.32321721  0.07603545  0.91385813  1
  O2-  O183  1  0.32080480  0.57055003  0.24403357  1
  O2-  O184  1  0.32698001  0.57112183  0.57583322  1
  O2-  O185  1  0.32080165  0.56537080  0.90072818  1
  O2-  O186  1  0.82495772  0.07220683  0.24562583  1
  O2-  O187  1  0.81790508  0.07804698  0.57447297  1
  O2-  O188  1  0.81730313  0.07288292  0.90005222  1
  O2-  O189  1  0.81990422  0.56761643  0.23430456  1
  O2-  O190  1  0.82124536  0.56850699  0.56821563  1
  O2-  O191  1  0.82319319  0.57190683  0.91121903  1
  O2-  O192  1  0.03915656  0.08546350  0.27501204  1
  O2-  O193  1  0.05018031  0.08560614  0.60129215  1
  O2-  O194  1  0.03727202  0.08503757  0.93049531  1
  O2-  O195  1  0.03836173  0.58344431  0.26161550  1
  O2-  O196  1  0.04016847  0.58213706  0.60175655  1
  O2-  O197  1  0.05313573  0.57967952  0.94065540  1
  O2-  O198  1  0.54301795  0.08199941  0.25797313  1
  O2-  O199  1  0.53747229  0.08150133  0.60142090  1
  O2-  O200  1  0.54555645  0.08583384  0.93967332  1
  O2-  O201  1  0.55276619  0.58276686  0.27574550  1
  O2-  O202  1  0.54408879  0.58152193  0.59465661  1
  O2-  O203  1  0.53417727  0.58409924  0.93456390  1
  O2-  O204  1  0.15975692  0.20545174  0.27198428  1
  O2-  O205  1  0.16826417  0.20721634  0.60423858  1
  O2-  O206  1  0.16703451  0.20911943  0.93107205  1
  O2-  O207  1  0.16653078  0.70811371  0.26456005  1
  O2-  O208  1  0.17309067  0.70238656  0.60203226  1
  O2-  O209  1  0.16865670  0.70230796  0.93992772  1
  O2-  O210  1  0.67191629  0.20614075  0.26252341  1
  O2-  O211  1  0.66297371  0.20917961  0.59623209  1
  O2-  O212  1  0.66361871  0.21054564  0.93997084  1
  O2-  O213  1  0.66763187  0.70730366  0.27129034  1
  O2-  O214  1  0.66678908  0.71169608  0.59755215  1
  O2-  O215  1  0.66702603  0.70575889  0.93498563  1
  O2-  O216  1  0.08140674  0.44620800  0.06340088  1
  O2-  O217  1  0.08795429  0.45750279  0.39274997  1
  O2-  O218  1  0.08462234  0.46103780  0.73776585  1
  O2-  O219  1  0.08471768  0.96464980  0.06886201  1
  O2-  O220  1  0.08276000  0.95827730  0.40320897  1
  O2-  O221  1  0.07678124  0.95643420  0.73192018  1
  O2-  O222  1  0.58462682  0.46232428  0.06990929  1
  O2-  O223  1  0.58214561  0.44826237  0.39764048  1
  O2-  O224  1  0.58196765  0.44789711  0.72322541  1
  O2-  O225  1  0.57714068  0.95289172  0.06773104  1
  O2-  O226  1  0.58418144  0.95850096  0.39224728  1
  O2-  O227  1  0.58580297  0.95951983  0.73556876  1
  O2-  O228  1  0.20677929  0.33334681  0.06388069  1
  O2-  O229  1  0.20567033  0.33527676  0.39397191  1
  O2-  O230  1  0.20762722  0.33491171  0.73777229  1
  O2-  O231  1  0.20952790  0.83434610  0.06908522  1
  O2-  O232  1  0.21210624  0.83050850  0.40004819  1
  O2-  O233  1  0.20777446  0.83004801  0.73669569  1
  O2-  O234  1  0.70923881  0.33561579  0.07241346  1
  O2-  O235  1  0.70490948  0.33225675  0.39692426  1
  O2-  O236  1  0.70760475  0.33430862  0.72481704  1
  O2-  O237  1  0.70798752  0.82858638  0.07067920  1
  O2-  O238  1  0.70590270  0.83986208  0.39612144  1
  O2-  O239  1  0.71148949  0.83342419  0.73249099  1
  O2-  O240  1  0.45474928  0.42176459  0.26494553  1
  O2-  O241  1  0.45210711  0.41385730  0.60055598  1
  O2-  O242  1  0.46082681  0.41243213  0.93685229  1
  O2-  O243  1  0.45612187  0.91428133  0.26258649  1
  O2-  O244  1  0.45689851  0.91338565  0.60605156  1
  O2-  O245  1  0.44472729  0.92006454  0.94003786  1
  O2-  O246  1  0.96154511  0.41100883  0.26671378  1
  O2-  O247  1  0.96466762  0.41597030  0.59962484  1
  O2-  O248  1  0.94994501  0.41758252  0.93853713  1
  O2-  O249  1  0.95280864  0.91873075  0.27171073  1
  O2-  O250  1  0.94883522  0.92526124  0.59788625  1
  O2-  O251  1  0.96218665  0.91456421  0.93344624  1
  O2-  O252  1  0.32951842  0.29282105  0.26114097  1
  O2-  O253  1  0.33108169  0.29935051  0.60734796  1
  O2-  O254  1  0.33716695  0.29744208  0.93653270  1
  O2-  O255  1  0.33421908  0.78497631  0.26427604  1
  O2-  O256  1  0.33561213  0.79535397  0.60575551  1
  O2-  O257  1  0.33380821  0.79158254  0.93630140  1
  O2-  O258  1  0.83680062  0.29810640  0.27162974  1
  O2-  O259  1  0.83599222  0.29109008  0.59311931  1
  O2-  O260  1  0.83249579  0.29579921  0.93986492  1
  O2-  O261  1  0.83337929  0.79675765  0.27027684  1
  O2-  O262  1  0.83225353  0.79090586  0.59558442  1
  O2-  O263  1  0.83375819  0.79018136  0.93408441  1
  O2-  O264  1  0.41700537  0.05292035  0.06547179  1
  O2-  O265  1  0.41740666  0.04731471  0.38903148  1
  O2-  O266  1  0.41731877  0.03893833  0.73795930  1
  O2-  O267  1  0.41298265  0.53479066  0.07109765  1
  O2-  O268  1  0.41497853  0.54565193  0.39606164  1
  O2-  O269  1  0.41892213  0.54272119  0.72739799  1
  O2-  O270  1  0.91743707  0.03931295  0.06741421  1
  O2-  O271  1  0.91083851  0.04442605  0.40158012  1
  O2-  O272  1  0.91770506  0.05812826  0.72322730  1
  O2-  O273  1  0.91771621  0.54759914  0.06299472  1
  O2-  O274  1  0.91744362  0.53521188  0.39968966  1
  O2-  O275  1  0.91402735  0.53615979  0.73763634  1
  O2-  O276  1  0.29573151  0.16942677  0.06386172  1
  O2-  O277  1  0.29461389  0.16548563  0.39386176  1
  O2-  O278  1  0.30036323  0.17049545  0.73432813  1
  O2-  O279  1  0.29163117  0.66533059  0.07034752  1
  O2-  O280  1  0.29163754  0.66071371  0.39729092  1
  O2-  O281  1  0.30238497  0.66492582  0.72945505  1
  O2-  O282  1  0.79434318  0.16813374  0.06988443  1
  O2-  O283  1  0.79619691  0.16678875  0.39562388  1
  O2-  O284  1  0.79207564  0.16913688  0.72604684  1
  O2-  O285  1  0.79593409  0.66475696  0.06409082  1
  O2-  O286  1  0.79259156  0.66779612  0.40167132  1
  O2-  O287  1  0.78980561  0.66702160  0.73430090  1
