# generated using pymatgen
data_Ca2Al2SiO7
_symmetry_space_group_name_H-M   'P 1'
_cell_length_a   15.45586722
_cell_length_b   15.45636098
_cell_length_c   15.28211763
_cell_angle_alpha   89.99037004
_cell_angle_beta   90.00372068
_cell_angle_gamma   90.00883650
_symmetry_Int_Tables_number   1
_chemical_formula_structural   Ca2Al2SiO7
_chemical_formula_sum   'Ca48 Al48 Si24 O168'
_cell_volume   3650.76733639
_cell_formula_units_Z   24
loop_
 _symmetry_equiv_pos_site_id
 _symmetry_equiv_pos_as_xyz
  1  'x, y, z'
loop_
 _atom_type_symbol
 _atom_type_oxidation_number
  Ca2+  2.0
  Al0+  0.0
  Si0+  0.0
  O2-  -2.0
loop_
 _atom_site_type_symbol
 _atom_site_label
 _atom_site_symmetry_multiplicity
 _atom_site_fract_x
 _atom_site_fract_y
 _atom_site_fract_z
 _atom_site_occupancy
  Ca2+  Ca0  1  0.17088160  0.07136863  0.17167204  1
  Ca2+  Ca1  1  0.16727418  0.08095500  0.50574135  1
  Ca2+  Ca2  1  0.17807398  0.08403535  0.83990308  1
  Ca2+  Ca3  1  0.17216381  0.58285792  0.17649550  1
  Ca2+  Ca4  1  0.17462167  0.58393056  0.50542197  1
  Ca2+  Ca5  1  0.16606907  0.58289995  0.83091265  1
  Ca2+  Ca6  1  0.67483000  0.09795233  0.17025886  1
  Ca2+  Ca7  1  0.67788821  0.09358537  0.50105764  1
  Ca2+  Ca8  1  0.67853450  0.08891252  0.84109859  1
  Ca2+  Ca9  1  0.65937744  0.57588212  0.16927167  1
  Ca2+  Ca10  1  0.66179778  0.56852271  0.50538256  1
  Ca2+  Ca11  1  0.66736632  0.57422704  0.84442809  1
  Ca2+  Ca12  1  0.08325378  0.32400112  0.16476785  1
  Ca2+  Ca13  1  0.09010796  0.32123807  0.49680398  1
  Ca2+  Ca14  1  0.08091620  0.32873540  0.82183834  1
  Ca2+  Ca15  1  0.08996907  0.83254845  0.16637385  1
  Ca2+  Ca16  1  0.09056575  0.82375474  0.49323322  1
  Ca2+  Ca17  1  0.08560214  0.83091673  0.83020323  1
  Ca2+  Ca18  1  0.58536862  0.33019235  0.16746988  1
  Ca2+  Ca19  1  0.58025858  0.33273330  0.49106123  1
  Ca2+  Ca20  1  0.58831013  0.33273782  0.83456691  1
  Ca2+  Ca21  1  0.56953906  0.83003311  0.15646183  1
  Ca2+  Ca22  1  0.57341611  0.82972342  0.49187826  1
  Ca2+  Ca23  1  0.58000105  0.82934492  0.83388910  1
  Ca2+  Ca24  1  0.34132072  0.42474958  0.17396156  1
  Ca2+  Ca25  1  0.33332798  0.42668419  0.50589363  1
  Ca2+  Ca26  1  0.32626199  0.41973351  0.83107682  1
  Ca2+  Ca27  1  0.32865757  0.91171608  0.16960667  1
  Ca2+  Ca28  1  0.33080383  0.92129378  0.50083168  1
  Ca2+  Ca29  1  0.32895977  0.92547712  0.84124223  1
  Ca2+  Ca30  1  0.82103798  0.42014673  0.16731706  1
  Ca2+  Ca31  1  0.82035676  0.41037913  0.50271807  1
  Ca2+  Ca32  1  0.82244425  0.42057371  0.84143702  1
  Ca2+  Ca33  1  0.82969221  0.92691186  0.17128172  1
  Ca2+  Ca34  1  0.83343433  0.92722403  0.50084122  1
  Ca2+  Ca35  1  0.83629302  0.92792061  0.83806222  1
  Ca2+  Ca36  1  0.42845191  0.16845309  0.15941588  1
  Ca2+  Ca37  1  0.42034898  0.17566581  0.48902220  1
  Ca2+  Ca38  1  0.42055237  0.15975707  0.82975318  1
  Ca2+  Ca39  1  0.41495123  0.67640987  0.16271572  1
  Ca2+  Ca40  1  0.40774903  0.66992741  0.49153112  1
  Ca2+  Ca41  1  0.41549688  0.67025602  0.83373649  1
  Ca2+  Ca42  1  0.91851658  0.15914320  0.16641268  1
  Ca2+  Ca43  1  0.92555654  0.15982369  0.49529868  1
  Ca2+  Ca44  1  0.92084722  0.16288250  0.82675726  1
  Ca2+  Ca45  1  0.92212064  0.66219770  0.16106651  1
  Ca2+  Ca46  1  0.93165347  0.66401068  0.49490813  1
  Ca2+  Ca47  1  0.91895257  0.66709648  0.82691779  1
  Al0+  Al48  1  0.00158126  -0.00176045  0.00613388  1
  Al0+  Al49  1  0.00072757  -0.00195518  0.33778661  1
  Al0+  Al50  1  -0.00136293  -0.00058702  0.66625142  1
  Al0+  Al51  1  -0.00117070  0.49808203  0.00212905  1
  Al0+  Al52  1  0.00010521  0.49841992  0.32847767  1
  Al0+  Al53  1  -0.00171931  0.49983180  0.66211358  1
  Al0+  Al54  1  0.50107425  0.00179946  -0.00759320  1
  Al0+  Al55  1  0.50066725  -0.00043461  0.32477485  1
  Al0+  Al56  1  0.50093389  -0.00134896  0.66726966  1
  Al0+  Al57  1  0.49782761  0.49829079  -0.00103447  1
  Al0+  Al58  1  0.49988585  0.50064216  0.33953256  1
  Al0+  Al59  1  0.49953402  0.49987763  0.67670967  1
  Al0+  Al60  1  0.25080342  0.24922510  0.00362393  1
  Al0+  Al61  1  0.24978699  0.25020825  0.32171563  1
  Al0+  Al62  1  0.25108094  0.25080928  0.66925832  1
  Al0+  Al63  1  0.24897580  0.74921350  -0.00318872  1
  Al0+  Al64  1  0.24917287  0.74976201  0.33291008  1
  Al0+  Al65  1  0.25027805  0.75091500  0.66722430  1
  Al0+  Al66  1  0.75053961  0.25296303  0.00362987  1
  Al0+  Al67  1  0.75177297  0.25159732  0.33916262  1
  Al0+  Al68  1  0.75054632  0.24974380  0.67528562  1
  Al0+  Al69  1  0.75307119  0.75093783  -0.00157308  1
  Al0+  Al70  1  0.75202149  0.75089540  0.33582405  1
  Al0+  Al71  1  0.74762663  0.75057528  0.66186723  1
  Al0+  Al72  1  0.07114389  0.17605420  0.31816203  1
  Al0+  Al73  1  0.67933936  0.42928945  0.68336370  1
  Al0+  Al74  1  0.81921812  0.06972015  0.34847412  1
  Al0+  Al75  1  0.32195754  0.07190415  0.67719187  1
  Al0+  Al76  1  0.82033130  0.06834197  0.68146289  1
  Al0+  Al77  1  0.06985754  0.67913793  0.31826087  1
  Al0+  Al78  1  0.67687187  0.43113137  0.01815436  1
  Al0+  Al79  1  0.57165619  0.67804108  0.98558315  1
  Al0+  Al80  1  0.18159381  0.93031913  0.34928232  1
  Al0+  Al81  1  0.68073101  0.43214743  0.34874627  1
  Al0+  Al82  1  0.42862841  0.32397645  0.31950993  1
  Al0+  Al83  1  0.42679986  0.82144600  0.98120698  1
  Al0+  Al84  1  0.57273807  0.18025180  0.31998176  1
  Al0+  Al85  1  0.57225191  0.18198128  0.98414151  1
  Al0+  Al86  1  0.18114391  0.92819620  0.01523872  1
  Al0+  Al87  1  0.07016665  0.67973291  0.65258026  1
  Al0+  Al88  1  0.31833687  0.56926545  0.34530031  1
  Al0+  Al89  1  0.82037719  0.07104580  0.01465912  1
  Al0+  Al90  1  0.07213324  0.17943347  0.65488303  1
  Al0+  Al91  1  0.31995633  0.57372883  0.68443310  1
  Al0+  Al92  1  0.82248109  0.57352367  0.01424188  1
  Al0+  Al93  1  0.32482562  0.07247496  0.01713949  1
  Al0+  Al94  1  0.17715765  0.42866451  0.67914918  1
  Al0+  Al95  1  0.42897851  0.82022384  0.32033180  1
  Si0+  Si96  1  0.67511395  0.92572673  0.34909516  1
  Si0+  Si97  1  0.57237630  0.17914646  0.65314504  1
  Si0+  Si98  1  0.92608437  0.32079403  0.65050027  1
  Si0+  Si99  1  0.17542884  0.42487606  0.34754389  1
  Si0+  Si100  1  0.31784875  0.56927151  0.01464037  1
  Si0+  Si101  1  0.82112919  0.57392699  0.68015411  1
  Si0+  Si102  1  0.82522549  0.57403617  0.35123709  1
  Si0+  Si103  1  0.67664598  0.92567208  0.68346836  1
  Si0+  Si104  1  0.43005129  0.32153703  0.65362503  1
  Si0+  Si105  1  0.93101116  0.32052218  0.98470068  1
  Si0+  Si106  1  0.42987826  0.82097939  0.65033590  1
  Si0+  Si107  1  0.92764719  0.82190273  0.31585902  1
  Si0+  Si108  1  0.17669037  0.42750017  0.01573522  1
  Si0+  Si109  1  0.07044749  0.17750903  0.98545119  1
  Si0+  Si110  1  0.57005409  0.67703696  0.65135361  1
  Si0+  Si111  1  0.92764590  0.32070630  0.31549707  1
  Si0+  Si112  1  0.17835540  0.92876507  0.68214485  1
  Si0+  Si113  1  0.06969669  0.67654986  0.98426874  1
  Si0+  Si114  1  0.93025798  0.82263487  0.98532606  1
  Si0+  Si115  1  0.57391590  0.67803914  0.32034622  1
  Si0+  Si116  1  0.42493720  0.32220225  0.97978411  1
  Si0+  Si117  1  0.32397712  0.07377296  0.34728214  1
  Si0+  Si118  1  0.92555333  0.82296187  0.64816912  1
  Si0+  Si119  1  0.67836060  0.92743248  0.01486128  1
  O2-  O120  1  0.25568593  -0.00284255  0.06572413  1
  O2-  O121  1  0.25400459  0.00807529  0.39478588  1
  O2-  O122  1  0.24387311  0.00076146  0.72473002  1
  O2-  O123  1  0.24826939  0.49754448  0.05764743  1
  O2-  O124  1  0.24568726  0.49196003  0.39110202  1
  O2-  O125  1  0.24500183  0.50306759  0.73229805  1
  O2-  O126  1  0.74209036  -0.00013651  0.06073019  1
  O2-  O127  1  0.74121760  -0.00296869  0.39386438  1
  O2-  O128  1  0.74635519  -0.00696991  0.72782153  1
  O2-  O129  1  0.74441865  0.50926188  0.06524761  1
  O2-  O130  1  0.75436276  0.50828174  0.39615746  1
  O2-  O131  1  0.75330561  0.50640244  0.72647156  1
  O2-  O132  1  -0.00255166  0.25247280  0.27166425  1
  O2-  O133  1  -0.00214694  0.25479450  0.60695183  1
  O2-  O134  1  0.00093490  0.24896378  0.94146945  1
  O2-  O135  1  -0.00804101  0.74977535  0.27041426  1
  O2-  O136  1  -0.00571611  0.75352627  0.60542457  1
  O2-  O137  1  -0.00194187  0.74780556  0.94342860  1
  O2-  O138  1  0.49749161  0.24885869  0.26995565  1
  O2-  O139  1  0.50053897  0.24942513  0.61138632  1
  O2-  O140  1  0.49327432  0.25243116  0.93624100  1
  O2-  O141  1  0.50887431  0.74956507  0.27609458  1
  O2-  O142  1  0.49836105  0.74696302  0.60837954  1
  O2-  O143  1  0.50107051  0.75017173  0.93246492  1
  O2-  O144  1  0.06806175  0.17876763  0.09048601  1
  O2-  O145  1  0.07080777  0.17694758  0.43168254  1
  O2-  O146  1  0.07007102  0.17988482  0.76836091  1
  O2-  O147  1  0.07034142  0.67538843  0.08920632  1
  O2-  O148  1  0.07050499  0.68056087  0.43146147  1
  O2-  O149  1  0.06766036  0.68188656  0.76627015  1
  O2-  O150  1  0.57442968  0.18636699  0.09678996  1
  O2-  O151  1  0.57254570  0.18239657  0.43454811  1
  O2-  O152  1  0.57250404  0.17991533  0.75813052  1
  O2-  O153  1  0.56761725  0.67953703  0.09946506  1
  O2-  O154  1  0.57221929  0.67868929  0.42653900  1
  O2-  O155  1  0.57270812  0.67978923  0.75594173  1
  O2-  O156  1  0.17341480  0.42846429  0.24156958  1
  O2-  O157  1  0.18203901  0.42659703  0.56587460  1
  O2-  O158  1  0.17452972  0.42834405  0.91060739  1
  O2-  O159  1  0.18255167  0.92870656  0.23666017  1
  O2-  O160  1  0.18077492  0.92742868  0.57652846  1
  O2-  O161  1  0.17806192  0.93065412  0.90115390  1
  O2-  O162  1  0.68127526  0.43303033  0.23627326  1
  O2-  O163  1  0.67892389  0.42845713  0.57009581  1
  O2-  O164  1  0.68167437  0.43012639  0.90436513  1
  O2-  O165  1  0.67821098  0.92056642  0.24408298  1
  O2-  O166  1  0.67527439  0.92522531  0.57787042  1
  O2-  O167  1  0.68379069  0.92665342  0.90891965  1
  O2-  O168  1  0.42423187  0.32423212  0.08509294  1
  O2-  O169  1  0.42999930  0.32423333  0.43396584  1
  O2-  O170  1  0.42986854  0.32113959  0.75858544  1
  O2-  O171  1  0.42498993  0.81680082  0.09482056  1
  O2-  O172  1  0.42932824  0.81892238  0.43422810  1
  O2-  O173  1  0.43145958  0.82207716  0.75490218  1
  O2-  O174  1  0.93381550  0.32170773  0.08960723  1
  O2-  O175  1  0.92713139  0.32069997  0.42129504  1
  O2-  O176  1  0.92606090  0.31935141  0.75637970  1
  O2-  O177  1  0.93118314  0.82471652  0.09001061  1
  O2-  O178  1  0.92843230  0.82110579  0.42163889  1
  O2-  O179  1  0.92490048  0.82309388  0.75403534  1
  O2-  O180  1  0.32306450  0.07084968  0.24222166  1
  O2-  O181  1  0.32408876  0.07010388  0.56401923  1
  O2-  O182  1  0.31967597  0.07360247  0.90283624  1
  O2-  O183  1  0.31736451  0.56995402  0.23182309  1
  O2-  O184  1  0.32071705  0.57347067  0.57086579  1
  O2-  O185  1  0.31514868  0.56923519  0.90959345  1
  O2-  O186  1  0.81860469  0.06828803  0.23542059  1
  O2-  O187  1  0.81957334  0.06884210  0.56845028  1
  O2-  O188  1  0.82298526  0.06893057  0.90137857  1
  O2-  O189  1  0.82537872  0.57338826  0.24599000  1
  O2-  O190  1  0.81890057  0.57342254  0.57456961  1
  O2-  O191  1  0.82687469  0.56845225  0.90035494  1
  O2-  O192  1  0.03663745  0.07983713  0.26611551  1
  O2-  O193  1  0.04050216  0.08249461  0.60146109  1
  O2-  O194  1  0.04145186  0.08548401  0.93966345  1
  O2-  O195  1  0.04295126  0.58125257  0.26381722  1
  O2-  O196  1  0.04143752  0.58288194  0.59691115  1
  O2-  O197  1  0.04139496  0.58435653  0.93726139  1
  O2-  O198  1  0.55222524  0.08071914  0.26605024  1
  O2-  O199  1  0.54825278  0.08570484  0.60712648  1
  O2-  O200  1  0.54909889  0.08396648  0.92850905  1
  O2-  O201  1  0.54481027  0.58573769  0.27542299  1
  O2-  O202  1  0.54210489  0.58373578  0.60722748  1
  O2-  O203  1  0.54120367  0.57966298  0.93297478  1
  O2-  O204  1  0.16591321  0.20476452  0.25979345  1
  O2-  O205  1  0.16898119  0.20988992  0.60046276  1
  O2-  O206  1  0.16345555  0.20556458  0.94057882  1
  O2-  O207  1  0.16439317  0.71376243  0.26366183  1
  O2-  O208  1  0.16713287  0.71233028  0.59984053  1
  O2-  O209  1  0.16032516  0.70497838  0.93537391  1
  O2-  O210  1  0.67069031  0.21412110  0.26946504  1
  O2-  O211  1  0.66457711  0.20954084  0.60793038  1
  O2-  O212  1  0.66910439  0.21712058  0.93098450  1
  O2-  O213  1  0.66989331  0.69806579  0.27673335  1
  O2-  O214  1  0.66117569  0.70410961  0.60098523  1
  O2-  O215  1  0.67206044  0.70439736  0.93366202  1
  O2-  O216  1  0.08612070  0.45608656  0.06446457  1
  O2-  O217  1  0.08162271  0.45007113  0.39326494  1
  O2-  O218  1  0.07629108  0.45344879  0.73009602  1
  O2-  O219  1  0.08446403  0.95809187  0.07063580  1
  O2-  O220  1  0.08439903  0.95712713  0.40383386  1
  O2-  O221  1  0.08270285  0.94875601  0.72586518  1
  O2-  O222  1  0.57590338  0.45403937  0.06803541  1
  O2-  O223  1  0.58521177  0.46251971  0.40562595  1
  O2-  O224  1  0.58424740  0.45903388  0.73941627  1
  O2-  O225  1  0.58204089  0.94763600  0.05537957  1
  O2-  O226  1  0.58005889  0.94873726  0.39344238  1
  O2-  O227  1  0.58415843  0.95169227  0.73073319  1
  O2-  O228  1  0.20240556  0.33547445  0.06303125  1
  O2-  O229  1  0.19909024  0.32920645  0.38969836  1
  O2-  O230  1  0.20887202  0.33295049  0.73608922  1
  O2-  O231  1  0.20602694  0.82738909  0.06578965  1
  O2-  O232  1  0.21555622  0.83465733  0.40307185  1
  O2-  O233  1  0.20726914  0.83724692  0.73001968  1
  O2-  O234  1  0.71425369  0.33635858  0.07149338  1
  O2-  O235  1  0.71423834  0.33725896  0.40485358  1
  O2-  O236  1  0.71239843  0.33475180  0.73931080  1
  O2-  O237  1  0.70755595  0.83575363  0.06238146  1
  O2-  O238  1  0.70313085  0.83359965  0.39940946  1
  O2-  O239  1  0.70105194  0.83098670  0.72849578  1
  O2-  O240  1  0.46188338  0.42170265  0.26735802  1
  O2-  O241  1  0.45935673  0.41440015  0.60869910  1
  O2-  O242  1  0.45070638  0.41544167  0.93291024  1
  O2-  O243  1  0.45495474  0.91613734  0.26332354  1
  O2-  O244  1  0.46124728  0.91145864  0.60122690  1
  O2-  O245  1  0.45374539  0.92010701  0.92820621  1
  O2-  O246  1  0.95166376  0.41400982  0.26763666  1
  O2-  O247  1  0.94463387  0.41555142  0.60395720  1
  O2-  O248  1  0.96024344  0.41161479  0.93554677  1
  O2-  O249  1  0.95748878  0.91384682  0.27003871  1
  O2-  O250  1  0.95191162  0.91597365  0.60168071  1
  O2-  O251  1  0.96356558  0.91249530  0.93585738  1
  O2-  O252  1  0.32973442  0.30433886  0.26404340  1
  O2-  O253  1  0.33847165  0.29522159  0.60560403  1
  O2-  O254  1  0.32992346  0.29734660  0.93486660  1
  O2-  O255  1  0.33542096  0.78308147  0.26575275  1
  O2-  O256  1  0.33707795  0.79543464  0.60408051  1
  O2-  O257  1  0.32943220  0.78854016  0.92731197  1
  O2-  O258  1  0.83526193  0.29240579  0.26949710  1
  O2-  O259  1  0.83329770  0.28977653  0.60518614  1
  O2-  O260  1  0.83890916  0.29376834  0.93811029  1
  O2-  O261  1  0.83192748  0.80147291  0.27105877  1
  O2-  O262  1  0.83144803  0.79957163  0.60083859  1
  O2-  O263  1  0.83860785  0.80004246  0.93477338  1
  O2-  O264  1  0.42673055  0.04937942  0.06364304  1
  O2-  O265  1  0.41824774  0.04711481  0.39195048  1
  O2-  O266  1  0.41757475  0.03807137  0.73182632  1
  O2-  O267  1  0.40982435  0.54226525  0.06106189  1
  O2-  O268  1  0.41468480  0.54293599  0.40220185  1
  O2-  O269  1  0.41620863  0.54301558  0.73948576  1
  O2-  O270  1  0.91516815  0.03645694  0.06897714  1
  O2-  O271  1  0.91409642  0.03469449  0.40324782  1
  O2-  O272  1  0.91700358  0.03713539  0.73603705  1
  O2-  O273  1  0.91805557  0.53724860  0.06961494  1
  O2-  O274  1  0.91856582  0.54423244  0.39620600  1
  O2-  O275  1  0.91552772  0.55030315  0.72473843  1
  O2-  O276  1  0.29458086  0.17037188  0.06993851  1
  O2-  O277  1  0.29977708  0.16995167  0.38895448  1
  O2-  O278  1  0.29496514  0.16784244  0.73342656  1
  O2-  O279  1  0.28835659  0.66074670  0.06080642  1
  O2-  O280  1  0.28352753  0.66372585  0.40048314  1
  O2-  O281  1  0.29141685  0.67213446  0.73720787  1
  O2-  O282  1  0.79302056  0.16848927  0.06754930  1
  O2-  O283  1  0.79163176  0.16629351  0.40418910  1
  O2-  O284  1  0.78988253  0.16365428  0.73755676  1
  O2-  O285  1  0.80621506  0.67560580  0.06378582  1
  O2-  O286  1  0.80545972  0.66938561  0.39679269  1
  O2-  O287  1  0.79678551  0.66889635  0.72458823  1
