# generated using pymatgen
data_Ca2Al2SiO7
_symmetry_space_group_name_H-M   'P 1'
_cell_length_a   15.45457814
_cell_length_b   15.45405714
_cell_length_c   15.28061293
_cell_angle_alpha   89.99546209
_cell_angle_beta   89.99204369
_cell_angle_gamma   90.00657457
_symmetry_Int_Tables_number   1
_chemical_formula_structural   Ca2Al2SiO7
_chemical_formula_sum   'Ca48 Al48 Si24 O168'
_cell_volume   3649.55938473
_cell_formula_units_Z   24
loop_
 _symmetry_equiv_pos_site_id
 _symmetry_equiv_pos_as_xyz
  1  'x, y, z'
loop_
 _atom_type_symbol
 _atom_type_oxidation_number
  Ca2+  2.0
  Al0+  0.0
  Si0+  0.0
  O2-  -2.0
loop_
 _atom_site_type_symbol
 _atom_site_label
 _atom_site_symmetry_multiplicity
 _atom_site_fract_x
 _atom_site_fract_y
 _atom_site_fract_z
 _atom_site_occupancy
  Ca2+  Ca0  1  0.16986544  0.08122970  0.17200529  1
  Ca2+  Ca1  1  0.16704233  0.08058814  0.50232367  1
  Ca2+  Ca2  1  0.18150696  0.08360360  0.83707505  1
  Ca2+  Ca3  1  0.17742906  0.58055494  0.17058117  1
  Ca2+  Ca4  1  0.17583054  0.58327744  0.50489618  1
  Ca2+  Ca5  1  0.17351165  0.57434077  0.83856181  1
  Ca2+  Ca6  1  0.65918708  0.07839285  0.16352340  1
  Ca2+  Ca7  1  0.67373368  0.08311986  0.51037922  1
  Ca2+  Ca8  1  0.66404051  0.08300342  0.83859068  1
  Ca2+  Ca9  1  0.67117895  0.58840610  0.17017820  1
  Ca2+  Ca10  1  0.66820219  0.57813395  0.50749891  1
  Ca2+  Ca11  1  0.67713186  0.57932409  0.83441419  1
  Ca2+  Ca12  1  0.08374327  0.33150345  0.15957436  1
  Ca2+  Ca13  1  0.08813273  0.32854005  0.49766573  1
  Ca2+  Ca14  1  0.08249391  0.34315342  0.83359827  1
  Ca2+  Ca15  1  0.08592755  0.82978422  0.16944737  1
  Ca2+  Ca16  1  0.07394727  0.83064470  0.48953509  1
  Ca2+  Ca17  1  0.07584758  0.82921403  0.82534996  1
  Ca2+  Ca18  1  0.56914256  0.32850352  0.15836107  1
  Ca2+  Ca19  1  0.58008328  0.33198822  0.49681255  1
  Ca2+  Ca20  1  0.58068236  0.32623005  0.82863027  1
  Ca2+  Ca21  1  0.57890462  0.82907289  0.15896403  1
  Ca2+  Ca22  1  0.57972112  0.82315477  0.49469413  1
  Ca2+  Ca23  1  0.58001067  0.83661691  0.83554452  1
  Ca2+  Ca24  1  0.33845601  0.42053614  0.16987407  1
  Ca2+  Ca25  1  0.33118191  0.42434338  0.50553610  1
  Ca2+  Ca26  1  0.32473598  0.42194552  0.84124663  1
  Ca2+  Ca27  1  0.33297828  0.92168993  0.16818401  1
  Ca2+  Ca28  1  0.32335968  0.92051597  0.50432565  1
  Ca2+  Ca29  1  0.34342503  0.92718209  0.84000024  1
  Ca2+  Ca30  1  0.83701970  0.41938880  0.16354882  1
  Ca2+  Ca31  1  0.82478847  0.42432672  0.51254956  1
  Ca2+  Ca32  1  0.83174090  0.42298032  0.83931620  1
  Ca2+  Ca33  1  0.82823203  0.91334037  0.16987102  1
  Ca2+  Ca34  1  0.83845520  0.91840095  0.50583541  1
  Ca2+  Ca35  1  0.82909590  0.92170038  0.83612707  1
  Ca2+  Ca36  1  0.41522138  0.17685063  0.15560734  1
  Ca2+  Ca37  1  0.41728086  0.17293892  0.49886422  1
  Ca2+  Ca38  1  0.42321671  0.16502576  0.83045382  1
  Ca2+  Ca39  1  0.41787524  0.66625311  0.16107453  1
  Ca2+  Ca40  1  0.42054780  0.65684565  0.49209474  1
  Ca2+  Ca41  1  0.40668638  0.67024292  0.83234525  1
  Ca2+  Ca42  1  0.92656637  0.17234680  0.16173914  1
  Ca2+  Ca43  1  0.92197343  0.16613347  0.49443692  1
  Ca2+  Ca44  1  0.91347800  0.17317157  0.82906733  1
  Ca2+  Ca45  1  0.92262022  0.66688209  0.16320616  1
  Ca2+  Ca46  1  0.91973740  0.67522654  0.49337635  1
  Ca2+  Ca47  1  0.91157742  0.66804696  0.82651306  1
  Al0+  Al48  1  -0.00046047  -0.00041251  -0.00123096  1
  Al0+  Al49  1  -0.00022689  0.00125036  0.32729264  1
  Al0+  Al50  1  -0.00147304  0.00019704  0.66818159  1
  Al0+  Al51  1  0.00070958  0.49974291  0.00422040  1
  Al0+  Al52  1  -0.00003280  0.50124354  0.33260614  1
  Al0+  Al53  1  0.00072162  0.50117033  0.66878129  1
  Al0+  Al54  1  0.50036846  -0.00237928  0.00350043  1
  Al0+  Al55  1  0.50171015  -0.00028881  0.33797719  1
  Al0+  Al56  1  0.50010892  0.00002522  0.66113060  1
  Al0+  Al57  1  0.50228297  0.49954837  -0.00334888  1
  Al0+  Al58  1  0.50145760  0.49922888  0.32823232  1
  Al0+  Al59  1  0.49926505  0.50024223  0.67555317  1
  Al0+  Al60  1  0.25002425  0.24877317  0.00269235  1
  Al0+  Al61  1  0.25025301  0.25080908  0.32613225  1
  Al0+  Al62  1  0.25004446  0.24924883  0.67291530  1
  Al0+  Al63  1  0.24943968  0.74925976  -0.00283003  1
  Al0+  Al64  1  0.24937316  0.75188748  0.33964524  1
  Al0+  Al65  1  0.24778627  0.75121368  0.66759944  1
  Al0+  Al66  1  0.75284925  0.25015248  -0.00516623  1
  Al0+  Al67  1  0.74946066  0.24924195  0.33306273  1
  Al0+  Al68  1  0.74966847  0.24846537  0.66823584  1
  Al0+  Al69  1  0.75022338  0.75084325  0.00722560  1
  Al0+  Al70  1  0.74879219  0.75073578  0.32800598  1
  Al0+  Al71  1  0.74733771  0.75107139  0.66444571  1
  Al0+  Al72  1  0.43101234  0.31952945  0.32135820  1
  Al0+  Al73  1  0.57141197  0.17894789  0.65058753  1
  Al0+  Al74  1  0.17858326  0.93100574  0.34692574  1
  Al0+  Al75  1  0.67820537  0.42674068  0.68243928  1
  Al0+  Al76  1  0.32145150  0.06854918  0.67874910  1
  Al0+  Al77  1  0.07033351  0.18057499  0.32035530  1
  Al0+  Al78  1  0.56961127  0.17816974  0.98531383  1
  Al0+  Al79  1  0.56910711  0.67900263  0.31995995  1
  Al0+  Al80  1  0.17979031  0.42919376  0.01812195  1
  Al0+  Al81  1  0.32284765  0.57214347  0.01652202  1
  Al0+  Al82  1  0.42901024  0.81774128  0.98757739  1
  Al0+  Al83  1  0.07353261  0.67798197  0.31792258  1
  Al0+  Al84  1  0.92915728  0.82146601  0.31535174  1
  Al0+  Al85  1  0.93232176  0.32112640  0.98530145  1
  Al0+  Al86  1  0.92783562  0.82081534  0.65397720  1
  Al0+  Al87  1  0.32186813  0.57353641  0.68225301  1
  Al0+  Al88  1  0.32161320  0.56952893  0.34610157  1
  Al0+  Al89  1  0.17912847  0.42763799  0.68070931  1
  Al0+  Al90  1  0.81999140  0.57058088  0.01592116  1
  Al0+  Al91  1  0.82227641  0.07008240  0.67955406  1
  Al0+  Al92  1  0.82003839  0.57305929  0.67875600  1
  Al0+  Al93  1  0.68061146  0.93114580  0.01419180  1
  Al0+  Al94  1  0.32119418  0.06870771  0.01444830  1
  Al0+  Al95  1  0.42662092  0.32304411  0.98114347  1
  Si0+  Si96  1  0.42760870  0.82416097  0.31925887  1
  Si0+  Si97  1  0.92902683  0.32219441  0.65178439  1
  Si0+  Si98  1  0.56856400  0.67860996  0.65334370  1
  Si0+  Si99  1  0.81971240  0.07064828  0.34685377  1
  Si0+  Si100  1  0.07169528  0.17950691  0.65326320  1
  Si0+  Si101  1  0.92518429  0.32288708  0.31896257  1
  Si0+  Si102  1  0.06985027  0.67981595  0.98409355  1
  Si0+  Si103  1  0.82414861  0.07379740  0.01819694  1
  Si0+  Si104  1  0.67705719  0.92831501  0.68157039  1
  Si0+  Si105  1  0.07221680  0.17511546  0.98058334  1
  Si0+  Si106  1  0.57428699  0.17598480  0.31735677  1
  Si0+  Si107  1  0.67878878  0.92743030  0.35067367  1
  Si0+  Si108  1  0.17510628  0.92718194  0.01549746  1
  Si0+  Si109  1  0.07201626  0.67774857  0.64924279  1
  Si0+  Si110  1  0.17637657  0.92890224  0.68359796  1
  Si0+  Si111  1  0.82136778  0.57222434  0.34849243  1
  Si0+  Si112  1  0.92711892  0.82082471  0.98416753  1
  Si0+  Si113  1  0.67947111  0.42558148  0.01773422  1
  Si0+  Si114  1  0.68022548  0.42895562  0.34633072  1
  Si0+  Si115  1  0.17671925  0.42660429  0.34960312  1
  Si0+  Si116  1  0.42735721  0.82201166  0.65024312  1
  Si0+  Si117  1  0.32273445  0.07437765  0.35032791  1
  Si0+  Si118  1  0.57543469  0.67816428  0.98181690  1
  Si0+  Si119  1  0.42739292  0.32212150  0.65095438  1
  O2-  O120  1  0.24312449  -0.00351660  0.05943250  1
  O2-  O121  1  0.25420666  0.00518450  0.39421383  1
  O2-  O122  1  0.24918748  -0.00738948  0.72773530  1
  O2-  O123  1  0.25640865  0.49607988  0.06833727  1
  O2-  O124  1  0.24387727  0.49732627  0.39283695  1
  O2-  O125  1  0.25067213  0.50018242  0.72981494  1
  O2-  O126  1  0.75443670  0.00634191  0.06260540  1
  O2-  O127  1  0.74920797  -0.00025248  0.39101524  1
  O2-  O128  1  0.74568998  -0.00288862  0.72509125  1
  O2-  O129  1  0.74423246  0.49733226  0.06394411  1
  O2-  O130  1  0.75296303  0.49813126  0.38946876  1
  O2-  O131  1  0.75297519  0.49741989  0.73009033  1
  O2-  O132  1  -0.00166458  0.25871784  0.27555701  1
  O2-  O133  1  0.00101135  0.25133289  0.61026753  1
  O2-  O134  1  0.00544288  0.24570479  0.93653227  1
  O2-  O135  1  0.00032288  0.74833440  0.26595283  1
  O2-  O136  1  0.00159435  0.74574285  0.60658022  1
  O2-  O137  1  -0.00121159  0.75132116  0.94151925  1
  O2-  O138  1  0.50141730  0.24029388  0.27516939  1
  O2-  O139  1  0.49818757  0.25586423  0.60488158  1
  O2-  O140  1  0.49957331  0.25055093  0.93306794  1
  O2-  O141  1  0.49374344  0.75346816  0.27488951  1
  O2-  O142  1  0.49302057  0.74505292  0.60986785  1
  O2-  O143  1  0.50060002  0.74062989  0.93819930  1
  O2-  O144  1  0.06839397  0.17229220  0.08641478  1
  O2-  O145  1  0.06838570  0.18041372  0.43422707  1
  O2-  O146  1  0.07070330  0.17785548  0.75793018  1
  O2-  O147  1  0.07022309  0.68200668  0.08901108  1
  O2-  O148  1  0.07017514  0.67845166  0.43173003  1
  O2-  O149  1  0.07273136  0.67997485  0.75506825  1
  O2-  O150  1  0.56738179  0.17945629  0.09965429  1
  O2-  O151  1  0.57814129  0.17783602  0.42291075  1
  O2-  O152  1  0.56933994  0.17544869  0.76292026  1
  O2-  O153  1  0.57743318  0.68242100  0.08766838  1
  O2-  O154  1  0.56989458  0.67880671  0.43376630  1
  O2-  O155  1  0.57278112  0.68276971  0.75788350  1
  O2-  O156  1  0.17694962  0.42575100  0.24459479  1
  O2-  O157  1  0.18079371  0.42597289  0.56651047  1
  O2-  O158  1  0.17711502  0.43458692  0.90471104  1
  O2-  O159  1  0.18046265  0.93302439  0.23386017  1
  O2-  O160  1  0.17568637  0.93119762  0.57789481  1
  O2-  O161  1  0.17215985  0.92861125  0.90974443  1
  O2-  O162  1  0.68193859  0.42810324  0.24155016  1
  O2-  O163  1  0.67853803  0.42947178  0.56751131  1
  O2-  O164  1  0.68338535  0.42573726  0.91238875  1
  O2-  O165  1  0.67687337  0.92806216  0.24579365  1
  O2-  O166  1  0.67734536  0.92776723  0.57556558  1
  O2-  O167  1  0.68343695  0.92998655  0.90094694  1
  O2-  O168  1  0.42931359  0.32130109  0.09534229  1
  O2-  O169  1  0.43301123  0.31972306  0.43494531  1
  O2-  O170  1  0.42731799  0.31915849  0.75583596  1
  O2-  O171  1  0.43095255  0.81872832  0.10081823  1
  O2-  O172  1  0.43161680  0.82614966  0.42530468  1
  O2-  O173  1  0.43040424  0.82521103  0.75519664  1
  O2-  O174  1  0.93310322  0.31845990  0.09902370  1
  O2-  O175  1  0.92105763  0.31981997  0.42468626  1
  O2-  O176  1  0.92925473  0.32193136  0.75658744  1
  O2-  O177  1  0.92772123  0.82060318  0.08894404  1
  O2-  O178  1  0.92859647  0.82085994  0.42939485  1
  O2-  O179  1  0.92942728  0.82057368  0.76746335  1
  O2-  O180  1  0.32370989  0.07250053  0.24495328  1
  O2-  O181  1  0.31807107  0.06836416  0.56531561  1
  O2-  O182  1  0.32181241  0.06557360  0.90104563  1
  O2-  O183  1  0.32340442  0.56805713  0.23371563  1
  O2-  O184  1  0.32250079  0.57186529  0.56804373  1
  O2-  O185  1  0.31539901  0.57562748  0.90342071  1
  O2-  O186  1  0.81711122  0.07240139  0.24197904  1
  O2-  O187  1  0.82339759  0.06866170  0.56570539  1
  O2-  O188  1  0.82630473  0.07099360  0.91269140  1
  O2-  O189  1  0.82080532  0.57173870  0.24344866  1
  O2-  O190  1  0.81693616  0.57236191  0.56457138  1
  O2-  O191  1  0.81877657  0.57212074  0.90287467  1
  O2-  O192  1  0.03606745  0.08765291  0.26239126  1
  O2-  O193  1  0.04179066  0.08824606  0.60526812  1
  O2-  O194  1  0.04461762  0.08206425  0.93345965  1
  O2-  O195  1  0.04594078  0.57891632  0.26538620  1
  O2-  O196  1  0.04870707  0.58361148  0.60324663  1
  O2-  O197  1  0.03925723  0.58863708  0.93831968  1
  O2-  O198  1  0.55256404  0.07981757  0.27501152  1
  O2-  O199  1  0.53989306  0.08290355  0.59394097  1
  O2-  O200  1  0.54089783  0.07897636  0.93465793  1
  O2-  O201  1  0.54220773  0.58346306  0.26320611  1
  O2-  O202  1  0.54454575  0.58478107  0.60728090  1
  O2-  O203  1  0.56004394  0.58189686  0.93875686  1
  O2-  O204  1  0.16647935  0.20665403  0.26389674  1
  O2-  O205  1  0.16356879  0.20694069  0.60498567  1
  O2-  O206  1  0.16711173  0.19821385  0.93777872  1
  O2-  O207  1  0.17173476  0.71035711  0.26704364  1
  O2-  O208  1  0.16503134  0.70590607  0.60229618  1
  O2-  O209  1  0.16018234  0.70819598  0.93423678  1
  O2-  O210  1  0.66630713  0.20404915  0.26936796  1
  O2-  O211  1  0.66951457  0.20784700  0.59691222  1
  O2-  O212  1  0.67037450  0.20225147  0.93495118  1
  O2-  O213  1  0.66396327  0.71162754  0.26429896  1
  O2-  O214  1  0.65766539  0.71057394  0.60182808  1
  O2-  O215  1  0.66664012  0.71318387  0.93605556  1
  O2-  O216  1  0.08295342  0.46120522  0.07213397  1
  O2-  O217  1  0.08120519  0.44811301  0.39493257  1
  O2-  O218  1  0.08047636  0.45551643  0.73314799  1
  O2-  O219  1  0.08142586  0.95214126  0.06261590  1
  O2-  O220  1  0.08132842  0.96449490  0.39915252  1
  O2-  O221  1  0.08496418  0.95792351  0.73139666  1
  O2-  O222  1  0.58419907  0.44810474  0.06103276  1
  O2-  O223  1  0.58994160  0.45958960  0.39443478  1
  O2-  O224  1  0.58200050  0.45567657  0.73733717  1
  O2-  O225  1  0.58550803  0.96050618  0.07178786  1
  O2-  O226  1  0.58712701  0.95324210  0.40055402  1
  O2-  O227  1  0.58366395  0.95497144  0.72645353  1
  O2-  O228  1  0.19976675  0.32734282  0.06688355  1
  O2-  O229  1  0.20487900  0.33275651  0.39462997  1
  O2-  O230  1  0.20434926  0.33001043  0.73616294  1
  O2-  O231  1  0.20230142  0.83399994  0.06024184  1
  O2-  O232  1  0.20735244  0.83607073  0.40572150  1
  O2-  O233  1  0.19692631  0.83391853  0.72803993  1
  O2-  O234  1  0.70984079  0.33314115  0.06401142  1
  O2-  O235  1  0.70597082  0.33628220  0.39464349  1
  O2-  O236  1  0.70592875  0.32871038  0.73416475  1
  O2-  O237  1  0.71272632  0.83660523  0.07160687  1
  O2-  O238  1  0.70776251  0.83550702  0.39760059  1
  O2-  O239  1  0.70207739  0.83548626  0.72843512  1
  O2-  O240  1  0.46752386  0.41208545  0.26419430  1
  O2-  O241  1  0.45214460  0.41778388  0.60791535  1
  O2-  O242  1  0.45456185  0.42220707  0.92935808  1
  O2-  O243  1  0.45672302  0.91734657  0.27328311  1
  O2-  O244  1  0.45992067  0.90999374  0.59827653  1
  O2-  O245  1  0.46612344  0.91232052  0.93336546  1
  O2-  O246  1  0.94559873  0.41812405  0.27488591  1
  O2-  O247  1  0.95538574  0.41441617  0.60354924  1
  O2-  O248  1  0.96291558  0.41851184  0.93248073  1
  O2-  O249  1  0.95642436  0.91938827  0.26183062  1
  O2-  O250  1  0.96027674  0.91760057  0.60002255  1
  O2-  O251  1  0.95314886  0.91377503  0.93740375  1
  O2-  O252  1  0.33471673  0.29362070  0.26533893  1
  O2-  O253  1  0.33436939  0.29223458  0.60493467  1
  O2-  O254  1  0.32706368  0.29347647  0.93220186  1
  O2-  O255  1  0.33244816  0.80342236  0.27675356  1
  O2-  O256  1  0.33241577  0.80054147  0.60561572  1
  O2-  O257  1  0.33157556  0.79312783  0.93076891  1
  O2-  O258  1  0.83408482  0.29243312  0.26981929  1
  O2-  O259  1  0.83784423  0.29291450  0.60384567  1
  O2-  O260  1  0.83639606  0.29142495  0.92951676  1
  O2-  O261  1  0.83043325  0.79339192  0.26347129  1
  O2-  O262  1  0.83027400  0.79330808  0.59909506  1
  O2-  O263  1  0.83529385  0.79129913  0.93830165  1
  O2-  O264  1  0.41480327  0.03408037  0.07091758  1
  O2-  O265  1  0.41713714  0.04978999  0.39667076  1
  O2-  O266  1  0.41817575  0.03586323  0.73068063  1
  O2-  O267  1  0.42609752  0.55104473  0.06283294  1
  O2-  O268  1  0.41862492  0.53495318  0.39881306  1
  O2-  O269  1  0.42001703  0.55106688  0.73658164  1
  O2-  O270  1  0.91717467  0.04505677  0.06451771  1
  O2-  O271  1  0.91193593  0.04326933  0.39301792  1
  O2-  O272  1  0.91683650  0.03869190  0.73677260  1
  O2-  O273  1  0.91514788  0.53768380  0.07075310  1
  O2-  O274  1  0.91406955  0.54783820  0.39589645  1
  O2-  O275  1  0.91966171  0.54996436  0.73001384  1
  O2-  O276  1  0.29158893  0.16498478  0.06855805  1
  O2-  O277  1  0.29477779  0.16797734  0.39489733  1
  O2-  O278  1  0.29020714  0.16309135  0.73457482  1
  O2-  O279  1  0.29010138  0.67066790  0.06798961  1
  O2-  O280  1  0.29598833  0.66739655  0.40087211  1
  O2-  O281  1  0.29241133  0.67281587  0.73328009  1
  O2-  O282  1  0.80111809  0.16842844  0.06280562  1
  O2-  O283  1  0.79248542  0.16255490  0.39597774  1
  O2-  O284  1  0.79386713  0.16640838  0.73334482  1
  O2-  O285  1  0.79006879  0.66644000  0.07183058  1
  O2-  O286  1  0.78972064  0.66394201  0.39375916  1
  O2-  O287  1  0.78699687  0.66995815  0.73232777  1
