# generated using pymatgen
data_Ca2Al2SiO7
_symmetry_space_group_name_H-M   'P 1'
_cell_length_a   15.45728555
_cell_length_b   15.45687519
_cell_length_c   15.28327204
_cell_angle_alpha   89.99815125
_cell_angle_beta   90.00720621
_cell_angle_gamma   90.00140731
_symmetry_Int_Tables_number   1
_chemical_formula_structural   Ca2Al2SiO7
_chemical_formula_sum   'Ca48 Al48 Si24 O168'
_cell_volume   3651.49970457
_cell_formula_units_Z   24
loop_
 _symmetry_equiv_pos_site_id
 _symmetry_equiv_pos_as_xyz
  1  'x, y, z'
loop_
 _atom_type_symbol
 _atom_type_oxidation_number
  Ca2+  2.0
  Al0+  0.0
  Si0+  0.0
  O2-  -2.0
loop_
 _atom_site_type_symbol
 _atom_site_label
 _atom_site_symmetry_multiplicity
 _atom_site_fract_x
 _atom_site_fract_y
 _atom_site_fract_z
 _atom_site_occupancy
  Ca2+  Ca0  1  0.16221264  0.07988032  0.17022442  1
  Ca2+  Ca1  1  0.16197293  0.07426683  0.50257000  1
  Ca2+  Ca2  1  0.16827118  0.07393003  0.84396254  1
  Ca2+  Ca3  1  0.17477636  0.57422477  0.17075555  1
  Ca2+  Ca4  1  0.16986598  0.57119727  0.51088872  1
  Ca2+  Ca5  1  0.17693901  0.58235378  0.83341020  1
  Ca2+  Ca6  1  0.67053539  0.08486357  0.17499782  1
  Ca2+  Ca7  1  0.66943659  0.08491095  0.50263843  1
  Ca2+  Ca8  1  0.66232555  0.08829429  0.83799516  1
  Ca2+  Ca9  1  0.66614335  0.58416989  0.16746195  1
  Ca2+  Ca10  1  0.67231412  0.57651327  0.51260263  1
  Ca2+  Ca11  1  0.66223780  0.57981135  0.83564491  1
  Ca2+  Ca12  1  0.07835903  0.32408160  0.16316464  1
  Ca2+  Ca13  1  0.08255195  0.33241969  0.48718459  1
  Ca2+  Ca14  1  0.08398094  0.33338663  0.83149601  1
  Ca2+  Ca15  1  0.08669878  0.83902413  0.16407281  1
  Ca2+  Ca16  1  0.09436057  0.82700681  0.49862047  1
  Ca2+  Ca17  1  0.08938615  0.83117048  0.82591560  1
  Ca2+  Ca18  1  0.57180151  0.32760200  0.15879104  1
  Ca2+  Ca19  1  0.57980372  0.33376014  0.49813977  1
  Ca2+  Ca20  1  0.57830188  0.32552208  0.82925412  1
  Ca2+  Ca21  1  0.57856842  0.83290680  0.16375843  1
  Ca2+  Ca22  1  0.57811761  0.82713818  0.49223602  1
  Ca2+  Ca23  1  0.58098998  0.81917120  0.82651224  1
  Ca2+  Ca24  1  0.33711063  0.41699941  0.17121033  1
  Ca2+  Ca25  1  0.32374787  0.41536937  0.50521198  1
  Ca2+  Ca26  1  0.33660505  0.42549321  0.83712685  1
  Ca2+  Ca27  1  0.32685059  0.92399211  0.17116470  1
  Ca2+  Ca28  1  0.32696218  0.91329225  0.50135531  1
  Ca2+  Ca29  1  0.32311475  0.92114818  0.84076420  1
  Ca2+  Ca30  1  0.83676996  0.41082742  0.16946475  1
  Ca2+  Ca31  1  0.83001853  0.41909479  0.50891759  1
  Ca2+  Ca32  1  0.82977304  0.41764644  0.83249046  1
  Ca2+  Ca33  1  0.82470221  0.92665474  0.17772897  1
  Ca2+  Ca34  1  0.82982562  0.92417216  0.49803664  1
  Ca2+  Ca35  1  0.83048468  0.91806480  0.83739564  1
  Ca2+  Ca36  1  0.41473246  0.17624858  0.15770314  1
  Ca2+  Ca37  1  0.42153953  0.17265566  0.49485640  1
  Ca2+  Ca38  1  0.42144522  0.16460744  0.83273524  1
  Ca2+  Ca39  1  0.41806099  0.67223371  0.16066093  1
  Ca2+  Ca40  1  0.41649190  0.66792624  0.49837708  1
  Ca2+  Ca41  1  0.42081369  0.65836807  0.82883916  1
  Ca2+  Ca42  1  0.92342129  0.17102668  0.16414146  1
  Ca2+  Ca43  1  0.92277305  0.17375568  0.48871900  1
  Ca2+  Ca44  1  0.92244330  0.17216053  0.83488373  1
  Ca2+  Ca45  1  0.92092894  0.67020017  0.16252816  1
  Ca2+  Ca46  1  0.92322610  0.66021056  0.50156642  1
  Ca2+  Ca47  1  0.92383367  0.66733549  0.82355252  1
  Al0+  Al48  1  -0.00407474  0.00053437  0.00026268  1
  Al0+  Al49  1  -0.00060762  -0.00193625  0.33956336  1
  Al0+  Al50  1  -0.00195028  0.00095971  0.67040868  1
  Al0+  Al51  1  -0.00111646  0.50236706  -0.00274656  1
  Al0+  Al52  1  0.00173055  0.50052903  0.33139383  1
  Al0+  Al53  1  -0.00085375  0.50118733  0.67016644  1
  Al0+  Al54  1  0.49712654  -0.00195252  0.00024543  1
  Al0+  Al55  1  0.49914681  -0.00274549  0.33375978  1
  Al0+  Al56  1  0.50103111  0.00052995  0.66127001  1
  Al0+  Al57  1  0.50140369  0.49988312  -0.00048246  1
  Al0+  Al58  1  0.50272406  0.50119533  0.33039418  1
  Al0+  Al59  1  0.50049261  0.49836917  0.66727625  1
  Al0+  Al60  1  0.24837984  0.25002890  -0.00643929  1
  Al0+  Al61  1  0.25054971  0.24981852  0.32952762  1
  Al0+  Al62  1  0.25000809  0.24784427  0.66961729  1
  Al0+  Al63  1  0.24947982  0.74822240  0.00896818  1
  Al0+  Al64  1  0.25329007  0.75043927  0.33077635  1
  Al0+  Al65  1  0.24876029  0.74988952  0.66934711  1
  Al0+  Al66  1  0.75025315  0.25141437  -0.00576724  1
  Al0+  Al67  1  0.75095701  0.25184764  0.33501447  1
  Al0+  Al68  1  0.75073710  0.24963367  0.66648938  1
  Al0+  Al69  1  0.75063831  0.74926666  -0.00266663  1
  Al0+  Al70  1  0.75182560  0.74955448  0.33736115  1
  Al0+  Al71  1  0.75017457  0.75227788  0.66424941  1
  Al0+  Al72  1  0.32148629  0.07297490  0.01532457  1
  Al0+  Al73  1  0.92833391  0.32349256  0.31947100  1
  Al0+  Al74  1  0.07104533  0.17598457  0.31984150  1
  Al0+  Al75  1  0.32311532  0.56792987  0.01653343  1
  Al0+  Al76  1  0.92917678  0.32356395  0.98181739  1
  Al0+  Al77  1  0.57109507  0.68126811  0.98646429  1
  Al0+  Al78  1  0.17999508  0.92879633  0.34884207  1
  Al0+  Al79  1  0.81996866  0.07302837  0.34912388  1
  Al0+  Al80  1  0.67648144  0.92799034  0.34924154  1
  Al0+  Al81  1  0.18082028  0.42898194  0.34397478  1
  Al0+  Al82  1  0.17678852  0.92970239  0.01685326  1
  Al0+  Al83  1  0.17715701  0.42560753  0.68221624  1
  Al0+  Al84  1  0.17943439  0.93079185  0.68011343  1
  Al0+  Al85  1  0.82038695  0.57335228  0.68256961  1
  Al0+  Al86  1  0.07056150  0.68037102  0.65324619  1
  Al0+  Al87  1  0.56972595  0.17695424  0.98712094  1
  Al0+  Al88  1  0.67915531  0.42741524  0.68296517  1
  Al0+  Al89  1  0.07000920  0.17726731  0.98328265  1
  Al0+  Al90  1  0.57177956  0.17917765  0.65035045  1
  Al0+  Al91  1  0.42667884  0.32238739  0.98328042  1
  Al0+  Al92  1  0.32073437  0.57033447  0.68002913  1
  Al0+  Al93  1  0.57129470  0.67704006  0.65160571  1
  Al0+  Al94  1  0.42851324  0.82075215  0.31811087  1
  Al0+  Al95  1  0.42969395  0.32149423  0.32104918  1
  Si0+  Si96  1  0.42836369  0.82141349  0.65045843  1
  Si0+  Si97  1  0.57203769  0.17835144  0.31889204  1
  Si0+  Si98  1  0.07231721  0.67919617  0.31769032  1
  Si0+  Si99  1  0.82145685  0.57264730  0.01621400  1
  Si0+  Si100  1  0.32255180  0.07346410  0.35055973  1
  Si0+  Si101  1  0.67930074  0.92628504  0.01240213  1
  Si0+  Si102  1  0.42550152  0.82030503  0.98300353  1
  Si0+  Si103  1  0.93130031  0.32005451  0.65181227  1
  Si0+  Si104  1  0.92844731  0.82047772  0.98636165  1
  Si0+  Si105  1  0.42690967  0.32144027  0.64929704  1
  Si0+  Si106  1  0.81754412  0.07213731  0.01439812  1
  Si0+  Si107  1  0.32414744  0.57141200  0.34930597  1
  Si0+  Si108  1  0.81983717  0.07102576  0.68426184  1
  Si0+  Si109  1  0.07166232  0.68062712  0.98635023  1
  Si0+  Si110  1  0.67881525  0.43072666  0.34653365  1
  Si0+  Si111  1  0.82299088  0.57161184  0.34744616  1
  Si0+  Si112  1  0.17532140  0.42877222  0.01649956  1
  Si0+  Si113  1  0.57449020  0.67920604  0.31643748  1
  Si0+  Si114  1  0.92861445  0.81934065  0.31940408  1
  Si0+  Si115  1  0.67766530  0.93006433  0.68217035  1
  Si0+  Si116  1  0.68113914  0.42905316  0.01613997  1
  Si0+  Si117  1  0.32455512  0.07149845  0.68223009  1
  Si0+  Si118  1  0.92725514  0.82545125  0.64792315  1
  Si0+  Si119  1  0.07138468  0.17726656  0.65207183  1
  O2-  O120  1  0.24650904  0.00406499  0.06626437  1
  O2-  O121  1  0.25297640  0.00538217  0.39532553  1
  O2-  O122  1  0.25324304  0.00562018  0.72613613  1
  O2-  O123  1  0.25009548  0.49060748  0.06190520  1
  O2-  O124  1  0.25704595  0.50131622  0.39236527  1
  O2-  O125  1  0.25076624  0.49663718  0.73087306  1
  O2-  O126  1  0.74257741  0.00409820  0.05484190  1
  O2-  O127  1  0.74468998  0.00378134  0.39933306  1
  O2-  O128  1  0.74778949  0.00080428  0.72659873  1
  O2-  O129  1  0.75287998  0.50000873  0.05908379  1
  O2-  O130  1  0.75309379  0.49904760  0.38760141  1
  O2-  O131  1  0.74624123  0.50436710  0.73372108  1
  O2-  O132  1  -0.00130573  0.24910788  0.27152806  1
  O2-  O133  1  0.00674232  0.25387169  0.60962096  1
  O2-  O134  1  0.00326511  0.25389335  0.93182517  1
  O2-  O135  1  0.00213513  0.75173125  0.27568649  1
  O2-  O136  1  -0.00444860  0.75533557  0.60511772  1
  O2-  O137  1  0.00433226  0.75544219  0.94476592  1
  O2-  O138  1  0.50219664  0.24454582  0.27412994  1
  O2-  O139  1  0.49664575  0.25341409  0.60478346  1
  O2-  O140  1  0.49545772  0.24557781  0.93564755  1
  O2-  O141  1  0.50652039  0.74829395  0.27270940  1
  O2-  O142  1  0.49575282  0.75114175  0.60582943  1
  O2-  O143  1  0.49431248  0.75241520  0.93782702  1
  O2-  O144  1  0.06454980  0.17412167  0.09656312  1
  O2-  O145  1  0.06952022  0.17756009  0.43423191  1
  O2-  O146  1  0.06687624  0.17414971  0.75667431  1
  O2-  O147  1  0.06768002  0.67859569  0.09189394  1
  O2-  O148  1  0.07071061  0.67801807  0.42270574  1
  O2-  O149  1  0.07040530  0.68396052  0.76662312  1
  O2-  O150  1  0.57402056  0.18038398  0.10083745  1
  O2-  O151  1  0.57207377  0.18163913  0.42461940  1
  O2-  O152  1  0.56981673  0.17741762  0.76307824  1
  O2-  O153  1  0.57506892  0.68550004  0.09966988  1
  O2-  O154  1  0.57471534  0.67764982  0.42178386  1
  O2-  O155  1  0.57159555  0.68059562  0.76476526  1
  O2-  O156  1  0.17940507  0.43246420  0.23110192  1
  O2-  O157  1  0.17759993  0.42557883  0.56802236  1
  O2-  O158  1  0.17223341  0.43595419  0.91132404  1
  O2-  O159  1  0.18032621  0.92814562  0.23629448  1
  O2-  O160  1  0.18070813  0.93101643  0.56697525  1
  O2-  O161  1  0.17794034  0.92790870  0.90303407  1
  O2-  O162  1  0.67704197  0.43278342  0.24133328  1
  O2-  O163  1  0.68293737  0.42704491  0.56852059  1
  O2-  O164  1  0.68184666  0.43014026  0.91147915  1
  O2-  O165  1  0.68052934  0.92660770  0.23494608  1
  O2-  O166  1  0.67907020  0.93092647  0.57744462  1
  O2-  O167  1  0.68493657  0.92295326  0.90715702  1
  O2-  O168  1  0.43249623  0.32377483  0.09734143  1
  O2-  O169  1  0.43231587  0.32221009  0.43421843  1
  O2-  O170  1  0.42712958  0.32018772  0.75445322  1
  O2-  O171  1  0.42846594  0.81929822  0.08864544  1
  O2-  O172  1  0.42702013  0.81586605  0.43139769  1
  O2-  O173  1  0.43144111  0.82389152  0.75596110  1
  O2-  O174  1  0.92862848  0.32187704  0.09528797  1
  O2-  O175  1  0.92949150  0.32556734  0.43340215  1
  O2-  O176  1  0.92949160  0.31682979  0.75667143  1
  O2-  O177  1  0.92454072  0.81737106  0.09158930  1
  O2-  O178  1  0.92580074  0.81612684  0.42406259  1
  O2-  O179  1  0.92745503  0.82711943  0.75400473  1
  O2-  O180  1  0.32365447  0.07230212  0.24539522  1
  O2-  O181  1  0.32470935  0.07160934  0.57650492  1
  O2-  O182  1  0.32340633  0.06588977  0.90144537  1
  O2-  O183  1  0.32356618  0.57090649  0.24355204  1
  O2-  O184  1  0.31831801  0.57044819  0.56601902  1
  O2-  O185  1  0.32112718  0.57050358  0.90379684  1
  O2-  O186  1  0.81834262  0.07074495  0.23496938  1
  O2-  O187  1  0.82103112  0.07043275  0.57946700  1
  O2-  O188  1  0.81890458  0.06898292  0.90892370  1
  O2-  O189  1  0.82201727  0.57548557  0.24206575  1
  O2-  O190  1  0.82138099  0.56890882  0.56823707  1
  O2-  O191  1  0.82066931  0.57649523  0.91190977  1
  O2-  O192  1  0.04043861  0.07686028  0.26940322  1
  O2-  O193  1  0.03651832  0.08745757  0.60435456  1
  O2-  O194  1  0.03306095  0.08061586  0.92957430  1
  O2-  O195  1  0.04094913  0.58991882  0.26748755  1
  O2-  O196  1  0.03779082  0.58360305  0.59918575  1
  O2-  O197  1  0.03939896  0.59178185  0.93703128  1
  O2-  O198  1  0.55142331  0.08243374  0.27627537  1
  O2-  O199  1  0.54250474  0.08244038  0.59483964  1
  O2-  O200  1  0.54654570  0.07614483  0.93481307  1
  O2-  O201  1  0.54882290  0.58648163  0.26842135  1
  O2-  O202  1  0.54418607  0.57922661  0.59811671  1
  O2-  O203  1  0.54418782  0.58342136  0.93503660  1
  O2-  O204  1  0.16904100  0.20273974  0.26653422  1
  O2-  O205  1  0.16649996  0.19612001  0.60764073  1
  O2-  O206  1  0.16934779  0.19825585  0.93003396  1
  O2-  O207  1  0.16406480  0.70583722  0.27044564  1
  O2-  O208  1  0.16656498  0.71194410  0.59811363  1
  O2-  O209  1  0.16479605  0.70578426  0.94139637  1
  O2-  O210  1  0.66536918  0.20563230  0.27347414  1
  O2-  O211  1  0.66924985  0.20992977  0.59755266  1
  O2-  O212  1  0.66682086  0.20762868  0.93232137  1
  O2-  O213  1  0.66921184  0.70410984  0.27136239  1
  O2-  O214  1  0.66792639  0.71005856  0.59809568  1
  O2-  O215  1  0.66689375  0.71399864  0.93099831  1
  O2-  O216  1  0.08390934  0.46270842  0.06356671  1
  O2-  O217  1  0.08476803  0.46295889  0.39830705  1
  O2-  O218  1  0.07996549  0.45596947  0.73481699  1
  O2-  O219  1  0.07524408  0.95491139  0.06648700  1
  O2-  O220  1  0.08226468  0.95289707  0.40380355  1
  O2-  O221  1  0.08164437  0.95950766  0.73346576  1
  O2-  O222  1  0.59074457  0.45903662  0.06469973  1
  O2-  O223  1  0.58917947  0.46225440  0.39653845  1
  O2-  O224  1  0.57940551  0.45053522  0.73375365  1
  O2-  O225  1  0.58448531  0.94487226  0.05638641  1
  O2-  O226  1  0.57665916  0.94980267  0.40168769  1
  O2-  O227  1  0.58539336  0.95718426  0.72865307  1
  O2-  O228  1  0.19200541  0.33119635  0.05586128  1
  O2-  O229  1  0.20842460  0.33147297  0.39775871  1
  O2-  O230  1  0.20172202  0.32582710  0.73411082  1
  O2-  O231  1  0.20434919  0.83139023  0.07049305  1
  O2-  O232  1  0.21472080  0.83154373  0.40066621  1
  O2-  O233  1  0.20961863  0.83486340  0.73453215  1
  O2-  O234  1  0.71025495  0.33725850  0.06310290  1
  O2-  O235  1  0.70275008  0.33867122  0.39459142  1
  O2-  O236  1  0.71330095  0.33065687  0.73600454  1
  O2-  O237  1  0.71554654  0.83819346  0.06217212  1
  O2-  O238  1  0.71078483  0.83112027  0.40290620  1
  O2-  O239  1  0.70675186  0.83871703  0.72983510  1
  O2-  O240  1  0.46352616  0.41734381  0.26641395  1
  O2-  O241  1  0.45188985  0.41468946  0.60273655  1
  O2-  O242  1  0.46253945  0.41857468  0.93100280  1
  O2-  O243  1  0.45719782  0.91796129  0.26374643  1
  O2-  O244  1  0.45565415  0.91353030  0.60182208  1
  O2-  O245  1  0.44983360  0.91369128  0.93666462  1
  O2-  O246  1  0.95640412  0.42164075  0.26491146  1
  O2-  O247  1  0.95257467  0.41441915  0.60724279  1
  O2-  O248  1  0.95336540  0.42405286  0.93072487  1
  O2-  O249  1  0.95362449  0.91200735  0.27322875  1
  O2-  O250  1  0.95388551  0.91918560  0.60247712  1
  O2-  O251  1  0.94861247  0.91363984  0.93877851  1
  O2-  O252  1  0.33377618  0.29389799  0.26535832  1
  O2-  O253  1  0.33320662  0.29321246  0.60339375  1
  O2-  O254  1  0.32659516  0.30353432  0.93113534  1
  O2-  O255  1  0.33442495  0.78746858  0.26064871  1
  O2-  O256  1  0.33442162  0.79572537  0.60562290  1
  O2-  O257  1  0.33106523  0.79311645  0.94026501  1
  O2-  O258  1  0.82872327  0.29721159  0.26704782  1
  O2-  O259  1  0.84114838  0.28731639  0.60397094  1
  O2-  O260  1  0.83236899  0.29190108  0.92789552  1
  O2-  O261  1  0.83819302  0.78834010  0.26961312  1
  O2-  O262  1  0.83336020  0.80242923  0.60166343  1
  O2-  O263  1  0.84005688  0.78733814  0.93506058  1
  O2-  O264  1  0.41949639  0.04202803  0.06985958  1
  O2-  O265  1  0.41578522  0.04604299  0.39708969  1
  O2-  O266  1  0.41763181  0.04248127  0.72773173  1
  O2-  O267  1  0.42124463  0.54108445  0.07041315  1
  O2-  O268  1  0.41964782  0.54889292  0.39319308  1
  O2-  O269  1  0.41965991  0.54379408  0.73225114  1
  O2-  O270  1  0.90650938  0.03932352  0.06348844  1
  O2-  O271  1  0.91520701  0.03873512  0.40479591  1
  O2-  O272  1  0.90993522  0.04079989  0.73405932  1
  O2-  O273  1  0.91401913  0.54747084  0.06419621  1
  O2-  O274  1  0.91513232  0.54519890  0.39437895  1
  O2-  O275  1  0.91734388  0.54369267  0.73673046  1
  O2-  O276  1  0.29811345  0.17473435  0.06327945  1
  O2-  O277  1  0.29892707  0.16736433  0.39660785  1
  O2-  O278  1  0.30259554  0.16526531  0.72850722  1
  O2-  O279  1  0.28930096  0.66287981  0.07267804  1
  O2-  O280  1  0.29660537  0.66452896  0.39393639  1
  O2-  O281  1  0.29144644  0.66778842  0.73451845  1
  O2-  O282  1  0.79269368  0.16515278  0.06024864  1
  O2-  O283  1  0.79461286  0.17225841  0.40289984  1
  O2-  O284  1  0.79235646  0.16229564  0.73158498  1
  O2-  O285  1  0.79067438  0.66363630  0.06539093  1
  O2-  O286  1  0.79552793  0.66187738  0.39763132  1
  O2-  O287  1  0.79827718  0.67528418  0.73146402  1
