# generated using pymatgen
data_Ca2Al2SiO7
_symmetry_space_group_name_H-M   'P 1'
_cell_length_a   15.45865097
_cell_length_b   15.45861886
_cell_length_c   15.28436920
_cell_angle_alpha   89.99450497
_cell_angle_beta   90.01545713
_cell_angle_gamma   89.98644081
_symmetry_Int_Tables_number   1
_chemical_formula_structural   Ca2Al2SiO7
_chemical_formula_sum   'Ca48 Al48 Si24 O168'
_cell_volume   3652.49618537
_cell_formula_units_Z   24
loop_
 _symmetry_equiv_pos_site_id
 _symmetry_equiv_pos_as_xyz
  1  'x, y, z'
loop_
 _atom_type_symbol
 _atom_type_oxidation_number
  Ca2+  2.0
  Al0+  0.0
  Si0+  0.0
  O2-  -2.0
loop_
 _atom_site_type_symbol
 _atom_site_label
 _atom_site_symmetry_multiplicity
 _atom_site_fract_x
 _atom_site_fract_y
 _atom_site_fract_z
 _atom_site_occupancy
  Ca2+  Ca0  1  0.16390719  0.07789082  0.16842264  1
  Ca2+  Ca1  1  0.15567263  0.07470774  0.50445914  1
  Ca2+  Ca2  1  0.16867891  0.07595252  0.84353557  1
  Ca2+  Ca3  1  0.16848904  0.58509803  0.17357493  1
  Ca2+  Ca4  1  0.16354500  0.58632380  0.50568946  1
  Ca2+  Ca5  1  0.16634941  0.58283025  0.83532032  1
  Ca2+  Ca6  1  0.67241259  0.09007942  0.16539542  1
  Ca2+  Ca7  1  0.66773500  0.08413591  0.50572871  1
  Ca2+  Ca8  1  0.67049364  0.09222676  0.84272481  1
  Ca2+  Ca9  1  0.66735352  0.57436907  0.17422774  1
  Ca2+  Ca10  1  0.67875839  0.57559423  0.50861533  1
  Ca2+  Ca11  1  0.65774237  0.57475121  0.83509785  1
  Ca2+  Ca12  1  0.07517509  0.32380646  0.16360798  1
  Ca2+  Ca13  1  0.07793133  0.32183486  0.48991124  1
  Ca2+  Ca14  1  0.08468802  0.31743020  0.82697777  1
  Ca2+  Ca15  1  0.08462802  0.83581840  0.16881885  1
  Ca2+  Ca16  1  0.08136696  0.82683149  0.49301854  1
  Ca2+  Ca17  1  0.08632723  0.83370950  0.82743638  1
  Ca2+  Ca18  1  0.58186191  0.33666887  0.16208107  1
  Ca2+  Ca19  1  0.57831247  0.34199093  0.50012887  1
  Ca2+  Ca20  1  0.58505464  0.32688968  0.82751283  1
  Ca2+  Ca21  1  0.57643564  0.82546657  0.15408353  1
  Ca2+  Ca22  1  0.58798036  0.82410676  0.49725345  1
  Ca2+  Ca23  1  0.57830775  0.82624710  0.82959084  1
  Ca2+  Ca24  1  0.33433883  0.41636738  0.17226466  1
  Ca2+  Ca25  1  0.33625350  0.41231358  0.50277343  1
  Ca2+  Ca26  1  0.33741044  0.41462148  0.83279080  1
  Ca2+  Ca27  1  0.32679270  0.92058547  0.16883229  1
  Ca2+  Ca28  1  0.31928799  0.91879428  0.50585341  1
  Ca2+  Ca29  1  0.32358491  0.92000521  0.84338502  1
  Ca2+  Ca30  1  0.82155763  0.41753996  0.17747299  1
  Ca2+  Ca31  1  0.83035410  0.42202907  0.50504837  1
  Ca2+  Ca32  1  0.82238100  0.42200817  0.83735880  1
  Ca2+  Ca33  1  0.83821667  0.92129976  0.16910168  1
  Ca2+  Ca34  1  0.83855272  0.91603557  0.50000543  1
  Ca2+  Ca35  1  0.83059031  0.92435529  0.83862719  1
  Ca2+  Ca36  1  0.42081762  0.16994477  0.15941580  1
  Ca2+  Ca37  1  0.42198970  0.17843085  0.49802494  1
  Ca2+  Ca38  1  0.42557189  0.16702823  0.82790019  1
  Ca2+  Ca39  1  0.42203704  0.67398793  0.15679292  1
  Ca2+  Ca40  1  0.42519081  0.66322849  0.50001831  1
  Ca2+  Ca41  1  0.42626097  0.67066381  0.83354567  1
  Ca2+  Ca42  1  0.92463602  0.16463443  0.16336279  1
  Ca2+  Ca43  1  0.92570022  0.17192604  0.49381689  1
  Ca2+  Ca44  1  0.92539002  0.16005333  0.83165227  1
  Ca2+  Ca45  1  0.91599939  0.66859080  0.17034588  1
  Ca2+  Ca46  1  0.92243030  0.66462435  0.49194582  1
  Ca2+  Ca47  1  0.92094261  0.66764179  0.82451144  1
  Al0+  Al48  1  -0.00103256  -0.00079092  0.00352757  1
  Al0+  Al49  1  0.00018728  -0.00220262  0.33161616  1
  Al0+  Al50  1  -0.00076380  -0.00167606  0.66805869  1
  Al0+  Al51  1  -0.00176711  0.50047870  0.00011286  1
  Al0+  Al52  1  0.00122870  0.49887622  0.32821352  1
  Al0+  Al53  1  0.00087830  0.50018888  0.66941057  1
  Al0+  Al54  1  0.49821721  0.00062250  -0.00421566  1
  Al0+  Al55  1  0.49954902  0.00064875  0.33585523  1
  Al0+  Al56  1  0.49826437  0.00056701  0.66173337  1
  Al0+  Al57  1  0.49872746  0.50079624  0.00120752  1
  Al0+  Al58  1  0.49957328  0.49912886  0.33305676  1
  Al0+  Al59  1  0.49953145  0.50184150  0.66397100  1
  Al0+  Al60  1  0.24801030  0.24961022  -0.00010800  1
  Al0+  Al61  1  0.25398203  0.24981095  0.32589882  1
  Al0+  Al62  1  0.25131224  0.24817236  0.65894235  1
  Al0+  Al63  1  0.24912863  0.74942227  0.00033627  1
  Al0+  Al64  1  0.25082129  0.75144488  0.33588385  1
  Al0+  Al65  1  0.24878169  0.74992451  0.66849898  1
  Al0+  Al66  1  0.74938886  0.25318832  0.00633050  1
  Al0+  Al67  1  0.74881537  0.24868908  0.33761750  1
  Al0+  Al68  1  0.75103925  0.25017239  0.66755474  1
  Al0+  Al69  1  0.75226033  0.74873603  -0.00539693  1
  Al0+  Al70  1  0.75151103  0.74926307  0.33167017  1
  Al0+  Al71  1  0.75034996  0.75210742  0.66715645  1
  Al0+  Al72  1  0.67874925  0.43210278  0.01520856  1
  Al0+  Al73  1  0.43023001  0.32124584  0.65203267  1
  Al0+  Al74  1  0.82243101  0.57123305  0.34833204  1
  Al0+  Al75  1  0.06893405  0.17888175  0.98500240  1
  Al0+  Al76  1  0.07075758  0.67866410  0.65484976  1
  Al0+  Al77  1  0.43218346  0.32138294  0.31703859  1
  Al0+  Al78  1  0.92655860  0.32114935  0.31869306  1
  Al0+  Al79  1  0.17915327  0.92998379  0.68132632  1
  Al0+  Al80  1  0.18004033  0.93113849  0.34973168  1
  Al0+  Al81  1  0.07032618  0.17687552  0.65358761  1
  Al0+  Al82  1  0.32276755  0.07304231  0.01501500  1
  Al0+  Al83  1  0.57222799  0.67789311  0.98524597  1
  Al0+  Al84  1  0.82344035  0.57305421  0.68358610  1
  Al0+  Al85  1  0.67830640  0.43026352  0.68425319  1
  Al0+  Al86  1  0.42683053  0.82231010  0.98488277  1
  Al0+  Al87  1  0.57456609  0.17760370  0.65111592  1
  Al0+  Al88  1  0.67743463  0.42760061  0.35147078  1
  Al0+  Al89  1  0.07348672  0.67844524  0.31776912  1
  Al0+  Al90  1  0.57139872  0.68092848  0.65130279  1
  Al0+  Al91  1  0.07126699  0.17743133  0.31683180  1
  Al0+  Al92  1  0.57139791  0.18146593  0.98879012  1
  Al0+  Al93  1  0.81923445  0.07062423  0.01399328  1
  Al0+  Al94  1  0.92807294  0.81988077  0.31701597  1
  Al0+  Al95  1  0.17881240  0.92770885  0.01772497  1
  Si0+  Si96  1  0.92744320  0.32324984  0.98231857  1
  Si0+  Si97  1  0.92956339  0.32203736  0.65220219  1
  Si0+  Si98  1  0.57030150  0.68008456  0.31927081  1
  Si0+  Si99  1  0.67724398  0.92833801  0.34676936  1
  Si0+  Si100  1  0.31856934  0.56910346  0.01453970  1
  Si0+  Si101  1  0.32043423  0.57120291  0.68226355  1
  Si0+  Si102  1  0.32224449  0.07302545  0.68255458  1
  Si0+  Si103  1  0.17946726  0.42635900  0.67970033  1
  Si0+  Si104  1  0.82485633  0.57407703  0.01817941  1
  Si0+  Si105  1  0.42676420  0.82164015  0.64857564  1
  Si0+  Si106  1  0.18069663  0.42771069  0.34643145  1
  Si0+  Si107  1  0.92977040  0.82136817  0.98321284  1
  Si0+  Si108  1  0.67778490  0.92580147  0.01373740  1
  Si0+  Si109  1  0.67586717  0.92914236  0.68087582  1
  Si0+  Si110  1  0.57186364  0.17488140  0.31615000  1
  Si0+  Si111  1  0.07067987  0.67758765  0.98457190  1
  Si0+  Si112  1  0.32036887  0.57162574  0.34874435  1
  Si0+  Si113  1  0.82091053  0.06944158  0.34941105  1
  Si0+  Si114  1  0.92804110  0.82218249  0.65123283  1
  Si0+  Si115  1  0.42625553  0.32282470  0.98373251  1
  Si0+  Si116  1  0.42963402  0.82199790  0.32031732  1
  Si0+  Si117  1  0.32434330  0.07371203  0.35261316  1
  Si0+  Si118  1  0.17640197  0.42828947  0.01450760  1
  Si0+  Si119  1  0.81967067  0.06992347  0.68057489  1
  O2-  O120  1  0.25123913  0.00063899  0.06574985  1
  O2-  O121  1  0.25162191  0.00910566  0.39679542  1
  O2-  O122  1  0.25341748  0.00497764  0.72730211  1
  O2-  O123  1  0.24809658  0.49835840  0.05757885  1
  O2-  O124  1  0.24808686  0.50170001  0.39052245  1
  O2-  O125  1  0.25014275  0.49805530  0.72277583  1
  O2-  O126  1  0.74267259  -0.00324754  0.06036636  1
  O2-  O127  1  0.74836846  -0.00122684  0.39025467  1
  O2-  O128  1  0.74282233  0.00439780  0.72222112  1
  O2-  O129  1  0.75266240  0.50849058  0.06035779  1
  O2-  O130  1  0.75313648  0.49715681  0.39901249  1
  O2-  O131  1  0.74892178  0.50412548  0.73445280  1
  O2-  O132  1  -0.00197750  0.24894221  0.26768040  1
  O2-  O133  1  -0.00116233  0.25428811  0.60745372  1
  O2-  O134  1  -0.00476121  0.25418844  0.93687849  1
  O2-  O135  1  0.00051004  0.74842695  0.26642146  1
  O2-  O136  1  -0.00682513  0.74968603  0.60879868  1
  O2-  O137  1  0.00053950  0.74927517  0.94256996  1
  O2-  O138  1  0.50708811  0.24691602  0.27200876  1
  O2-  O139  1  0.50498979  0.25202229  0.60182090  1
  O2-  O140  1  0.49372014  0.25263167  0.94121101  1
  O2-  O141  1  0.50131924  0.75270393  0.27685651  1
  O2-  O142  1  0.49846596  0.75690438  0.60257998  1
  O2-  O143  1  0.50330593  0.75381070  0.93635602  1
  O2-  O144  1  0.06774950  0.18067683  0.09759756  1
  O2-  O145  1  0.06830963  0.17826236  0.43089250  1
  O2-  O146  1  0.06896144  0.17663929  0.76686541  1
  O2-  O147  1  0.07123599  0.67518217  0.08916735  1
  O2-  O148  1  0.07552343  0.68081370  0.43133819  1
  O2-  O149  1  0.07208959  0.68058327  0.76845304  1
  O2-  O150  1  0.57219306  0.18447172  0.10186904  1
  O2-  O151  1  0.56875807  0.16976218  0.42136433  1
  O2-  O152  1  0.57356331  0.17720151  0.76477027  1
  O2-  O153  1  0.56846147  0.67848356  0.09952263  1
  O2-  O154  1  0.56874753  0.68194585  0.42446824  1
  O2-  O155  1  0.56770293  0.68229985  0.76403512  1
  O2-  O156  1  0.18423136  0.42883767  0.24101895  1
  O2-  O157  1  0.17922089  0.42736800  0.57463910  1
  O2-  O158  1  0.17642998  0.42995379  0.90905310  1
  O2-  O159  1  0.18395286  0.92932144  0.23714334  1
  O2-  O160  1  0.17893752  0.92972636  0.56827292  1
  O2-  O161  1  0.17860537  0.92771824  0.90378908  1
  O2-  O162  1  0.67500344  0.43175350  0.23760654  1
  O2-  O163  1  0.67970748  0.43191492  0.57114601  1
  O2-  O164  1  0.67834471  0.43141633  0.90239753  1
  O2-  O165  1  0.67424592  0.92913530  0.24194059  1
  O2-  O166  1  0.67832242  0.92727976  0.57535238  1
  O2-  O167  1  0.68232061  0.92503530  0.90797238  1
  O2-  O168  1  0.42772695  0.32503494  0.08933582  1
  O2-  O169  1  0.43116331  0.32225320  0.42965841  1
  O2-  O170  1  0.42788631  0.31935118  0.76567020  1
  O2-  O171  1  0.42736110  0.81758218  0.09926056  1
  O2-  O172  1  0.43127526  0.82033714  0.42550363  1
  O2-  O173  1  0.42742644  0.81963903  0.75385803  1
  O2-  O174  1  0.93063784  0.32389642  0.08767314  1
  O2-  O175  1  0.93012081  0.31872427  0.43280432  1
  O2-  O176  1  0.93122065  0.32016765  0.75798946  1
  O2-  O177  1  0.92760621  0.82114781  0.08783967  1
  O2-  O178  1  0.92858658  0.82083966  0.43066683  1
  O2-  O179  1  0.92962590  0.82563231  0.75703279  1
  O2-  O180  1  0.32936651  0.06988765  0.24748021  1
  O2-  O181  1  0.32223110  0.07111484  0.57688553  1
  O2-  O182  1  0.32001460  0.07383891  0.90117014  1
  O2-  O183  1  0.32117708  0.57173915  0.24332679  1
  O2-  O184  1  0.31987494  0.57310862  0.57695200  1
  O2-  O185  1  0.31769913  0.56853834  0.90931598  1
  O2-  O186  1  0.81985134  0.06917543  0.24432068  1
  O2-  O187  1  0.82188952  0.06658577  0.57539998  1
  O2-  O188  1  0.81986034  0.06826475  0.90038467  1
  O2-  O189  1  0.81575837  0.57375836  0.23462981  1
  O2-  O190  1  0.82484438  0.57113929  0.57029272  1
  O2-  O191  1  0.83032973  0.57202966  0.91299703  1
  O2-  O192  1  0.04072545  0.07989915  0.26506192  1
  O2-  O193  1  0.03360332  0.08218046  0.60006492  1
  O2-  O194  1  0.03566177  0.08182600  0.93329984  1
  O2-  O195  1  0.05076994  0.57912645  0.26439506  1
  O2-  O196  1  0.04584907  0.57992503  0.60233980  1
  O2-  O197  1  0.04300163  0.58559628  0.93635136  1
  O2-  O198  1  0.54357538  0.08211603  0.26875895  1
  O2-  O199  1  0.54544583  0.07935408  0.59661575  1
  O2-  O200  1  0.54795558  0.08302236  0.93488545  1
  O2-  O201  1  0.53856765  0.58973680  0.27244397  1
  O2-  O202  1  0.53668430  0.58670563  0.59650992  1
  O2-  O203  1  0.53432030  0.58265025  0.93179708  1
  O2-  O204  1  0.17008801  0.20518710  0.26572180  1
  O2-  O205  1  0.16649554  0.20420595  0.59849897  1
  O2-  O206  1  0.16545786  0.21131777  0.93130025  1
  O2-  O207  1  0.17268029  0.70887727  0.26586061  1
  O2-  O208  1  0.16728160  0.70955902  0.60094236  1
  O2-  O209  1  0.16299744  0.70331062  0.93744916  1
  O2-  O210  1  0.66782311  0.19598059  0.27458454  1
  O2-  O211  1  0.67498503  0.20071923  0.59997810  1
  O2-  O212  1  0.66792211  0.21496314  0.93571566  1
  O2-  O213  1  0.66164376  0.70672456  0.27190133  1
  O2-  O214  1  0.66799870  0.71353290  0.59810396  1
  O2-  O215  1  0.67179851  0.70076705  0.93248119  1
  O2-  O216  1  0.08533064  0.45802650  0.06222911  1
  O2-  O217  1  0.08762028  0.45096346  0.39257121  1
  O2-  O218  1  0.08918446  0.45331948  0.73032244  1
  O2-  O219  1  0.08040177  0.95633568  0.06942742  1
  O2-  O220  1  0.08144105  0.95859818  0.40187297  1
  O2-  O221  1  0.08183488  0.95928584  0.73506869  1
  O2-  O222  1  0.58112089  0.46247887  0.06861954  1
  O2-  O223  1  0.57948300  0.46154387  0.40255741  1
  O2-  O224  1  0.57838966  0.45990985  0.73439294  1
  O2-  O225  1  0.58207455  0.94618437  0.05657093  1
  O2-  O226  1  0.58629912  0.95516232  0.39751898  1
  O2-  O227  1  0.58151447  0.95133052  0.72554819  1
  O2-  O228  1  0.20286413  0.33707364  0.06267270  1
  O2-  O229  1  0.21251844  0.33653149  0.39320283  1
  O2-  O230  1  0.20935776  0.33453833  0.72669838  1
  O2-  O231  1  0.20684406  0.82809236  0.06907579  1
  O2-  O232  1  0.21491133  0.83510115  0.40392285  1
  O2-  O233  1  0.21076578  0.83323467  0.73518350  1
  O2-  O234  1  0.71048633  0.33756107  0.07208043  1
  O2-  O235  1  0.69949852  0.32673454  0.40240425  1
  O2-  O236  1  0.70828555  0.33058576  0.73505105  1
  O2-  O237  1  0.70671770  0.83261105  0.05976717  1
  O2-  O238  1  0.70588889  0.83680902  0.39455956  1
  O2-  O239  1  0.70695143  0.83985388  0.73094538  1
  O2-  O240  1  0.45997198  0.41920478  0.26255455  1
  O2-  O241  1  0.45356663  0.42098934  0.59924518  1
  O2-  O242  1  0.45209342  0.41648093  0.93825972  1
  O2-  O243  1  0.45655280  0.91420427  0.27369885  1
  O2-  O244  1  0.44748711  0.91613287  0.60258767  1
  O2-  O245  1  0.45046851  0.92058675  0.93055007  1
  O2-  O246  1  0.95485302  0.41809707  0.26349720  1
  O2-  O247  1  0.95567144  0.41540808  0.60700548  1
  O2-  O248  1  0.95398240  0.41692202  0.93616843  1
  O2-  O249  1  0.95660785  0.91773029  0.26391597  1
  O2-  O250  1  0.95767531  0.91342714  0.60277556  1
  O2-  O251  1  0.95811919  0.91262608  0.93543802  1
  O2-  O252  1  0.33642559  0.29270154  0.26053233  1
  O2-  O253  1  0.33343942  0.29180354  0.59510412  1
  O2-  O254  1  0.33133414  0.30128400  0.93884816  1
  O2-  O255  1  0.33922174  0.79182316  0.27293639  1
  O2-  O256  1  0.33495626  0.78998279  0.60261275  1
  O2-  O257  1  0.33053760  0.78680526  0.93132751  1
  O2-  O258  1  0.82694038  0.29224884  0.26857669  1
  O2-  O259  1  0.83689042  0.29530181  0.60598711  1
  O2-  O260  1  0.83334577  0.29750969  0.93898838  1
  O2-  O261  1  0.82920990  0.79357566  0.26211651  1
  O2-  O262  1  0.83290974  0.80365223  0.60585141  1
  O2-  O263  1  0.83852621  0.79547731  0.93297446  1
  O2-  O264  1  0.42223763  0.04582378  0.06768520  1
  O2-  O265  1  0.41592075  0.04327516  0.40150260  1
  O2-  O266  1  0.41677265  0.04718912  0.72738271  1
  O2-  O267  1  0.40951760  0.54226631  0.06416216  1
  O2-  O268  1  0.41127794  0.54141759  0.39654339  1
  O2-  O269  1  0.41157797  0.54373167  0.73054117  1
  O2-  O270  1  0.91324974  0.03595428  0.06961797  1
  O2-  O271  1  0.91149992  0.03889799  0.39738452  1
  O2-  O272  1  0.90827824  0.03515541  0.73057737  1
  O2-  O273  1  0.91751699  0.54648739  0.06602769  1
  O2-  O274  1  0.92400937  0.54625799  0.39665595  1
  O2-  O275  1  0.92170128  0.54309712  0.73787355  1
  O2-  O276  1  0.29424811  0.17210219  0.06764468  1
  O2-  O277  1  0.30266884  0.17003259  0.39425070  1
  O2-  O278  1  0.29793685  0.16756081  0.72668205  1
  O2-  O279  1  0.29022057  0.66010822  0.06317155  1
  O2-  O280  1  0.29566579  0.66323907  0.39806905  1
  O2-  O281  1  0.29011759  0.66109105  0.73191101  1
  O2-  O282  1  0.78992350  0.16655165  0.06960984  1
  O2-  O283  1  0.79422998  0.16012084  0.39939432  1
  O2-  O284  1  0.79935212  0.16299517  0.72844023  1
  O2-  O285  1  0.80263596  0.66993972  0.06087646  1
  O2-  O286  1  0.79268039  0.67021355  0.40082078  1
  O2-  O287  1  0.79902926  0.67446060  0.73286679  1
