# generated using pymatgen
data_Ca2Al2SiO7
_symmetry_space_group_name_H-M   'P 1'
_cell_length_a   15.47016417
_cell_length_b   15.47437586
_cell_length_c   15.29255385
_cell_angle_alpha   90.01664036
_cell_angle_beta   89.99839717
_cell_angle_gamma   90.00688516
_symmetry_Int_Tables_number   1
_chemical_formula_structural   Ca2Al2SiO7
_chemical_formula_sum   'Ca48 Al48 Si24 O168'
_cell_volume   3660.90164135
_cell_formula_units_Z   24
loop_
 _symmetry_equiv_pos_site_id
 _symmetry_equiv_pos_as_xyz
  1  'x, y, z'
loop_
 _atom_type_symbol
 _atom_type_oxidation_number
  Ca2+  2.0
  Al0+  0.0
  Si0+  0.0
  O2-  -2.0
loop_
 _atom_site_type_symbol
 _atom_site_label
 _atom_site_symmetry_multiplicity
 _atom_site_fract_x
 _atom_site_fract_y
 _atom_site_fract_z
 _atom_site_occupancy
  Ca2+  Ca0  1  0.17658357  0.09449678  0.16933246  1
  Ca2+  Ca1  1  0.17734261  0.09590542  0.50344970  1
  Ca2+  Ca2  1  0.17813894  0.09246298  0.83682125  1
  Ca2+  Ca3  1  0.16984413  0.58133756  0.16896782  1
  Ca2+  Ca4  1  0.16797628  0.57508824  0.50844013  1
  Ca2+  Ca5  1  0.16410531  0.57570172  0.83325247  1
  Ca2+  Ca6  1  0.67217486  0.07886414  0.17471075  1
  Ca2+  Ca7  1  0.67790940  0.07765725  0.51052528  1
  Ca2+  Ca8  1  0.66683889  0.08491212  0.83329807  1
  Ca2+  Ca9  1  0.65946220  0.56996448  0.16965390  1
  Ca2+  Ca10  1  0.66782483  0.57032754  0.50609470  1
  Ca2+  Ca11  1  0.66647095  0.57281250  0.83216073  1
  Ca2+  Ca12  1  0.07982192  0.32098962  0.16316863  1
  Ca2+  Ca13  1  0.08322223  0.32567552  0.49882012  1
  Ca2+  Ca14  1  0.08630356  0.32356997  0.82637925  1
  Ca2+  Ca15  1  0.06990771  0.83811502  0.16230590  1
  Ca2+  Ca16  1  0.06835607  0.83637350  0.49673618  1
  Ca2+  Ca17  1  0.07022396  0.83522882  0.82664584  1
  Ca2+  Ca18  1  0.57690641  0.33020150  0.15806266  1
  Ca2+  Ca19  1  0.58425163  0.32999957  0.49541869  1
  Ca2+  Ca20  1  0.58514207  0.32486257  0.83029836  1
  Ca2+  Ca21  1  0.58118404  0.83582975  0.16146725  1
  Ca2+  Ca22  1  0.58599732  0.84098458  0.50150345  1
  Ca2+  Ca23  1  0.57317508  0.84244850  0.82494301  1
  Ca2+  Ca24  1  0.33876944  0.41077918  0.17147000  1
  Ca2+  Ca25  1  0.32930915  0.41121301  0.50438773  1
  Ca2+  Ca26  1  0.32875464  0.40913743  0.83699958  1
  Ca2+  Ca27  1  0.33699089  0.93134778  0.16963290  1
  Ca2+  Ca28  1  0.33371002  0.92980700  0.50863945  1
  Ca2+  Ca29  1  0.34041072  0.92783823  0.83733603  1
  Ca2+  Ca30  1  0.81779734  0.41259910  0.17070328  1
  Ca2+  Ca31  1  0.82311533  0.42069808  0.51064287  1
  Ca2+  Ca32  1  0.82013843  0.41390154  0.83521776  1
  Ca2+  Ca33  1  0.83042978  0.91835325  0.17602435  1
  Ca2+  Ca34  1  0.82788513  0.92047256  0.50452151  1
  Ca2+  Ca35  1  0.83392768  0.91732427  0.83140396  1
  Ca2+  Ca36  1  0.42071155  0.17244188  0.15994017  1
  Ca2+  Ca37  1  0.42311955  0.16536670  0.49856767  1
  Ca2+  Ca38  1  0.42804512  0.16156672  0.83064260  1
  Ca2+  Ca39  1  0.41912803  0.67695221  0.15887101  1
  Ca2+  Ca40  1  0.41516428  0.67658951  0.49901167  1
  Ca2+  Ca41  1  0.41614808  0.68123164  0.82855356  1
  Ca2+  Ca42  1  0.92847481  0.15405033  0.16544626  1
  Ca2+  Ca43  1  0.92832875  0.14980745  0.49777761  1
  Ca2+  Ca44  1  0.93002123  0.15998879  0.82485225  1
  Ca2+  Ca45  1  0.91108926  0.67982345  0.16340465  1
  Ca2+  Ca46  1  0.90090584  0.67746704  0.50088170  1
  Ca2+  Ca47  1  0.90754754  0.67578899  0.82606461  1
  Al0+  Al48  1  0.00123695  -0.00179845  -0.00902110  1
  Al0+  Al49  1  0.00222940  -0.00287266  0.32581679  1
  Al0+  Al50  1  0.00178404  -0.00218986  0.66004337  1
  Al0+  Al51  1  -0.00060778  0.50092834  0.00399212  1
  Al0+  Al52  1  0.00067100  0.49982972  0.33133556  1
  Al0+  Al53  1  0.00145419  0.50006192  0.67522982  1
  Al0+  Al54  1  0.50009095  0.00144618  -0.00012667  1
  Al0+  Al55  1  0.49881383  0.00078545  0.33946983  1
  Al0+  Al56  1  0.49967672  0.00287246  0.66365832  1
  Al0+  Al57  1  0.49797803  0.50121262  0.00017903  1
  Al0+  Al58  1  0.49865421  0.50189261  0.33515516  1
  Al0+  Al59  1  0.49810293  0.50239889  0.67086669  1
  Al0+  Al60  1  0.24947016  0.25046236  -0.00025469  1
  Al0+  Al61  1  0.25029354  0.25139103  0.32977329  1
  Al0+  Al62  1  0.25068864  0.25064231  0.67135642  1
  Al0+  Al63  1  0.24776808  0.74937618  -0.00263361  1
  Al0+  Al64  1  0.24976947  0.74990064  0.33226006  1
  Al0+  Al65  1  0.24889613  0.75086384  0.66145940  1
  Al0+  Al66  1  0.75119918  0.24942424  0.00429010  1
  Al0+  Al67  1  0.75239159  0.24866017  0.34202107  1
  Al0+  Al68  1  0.75223143  0.24881611  0.67061870  1
  Al0+  Al69  1  0.74974362  0.74923270  -0.00404059  1
  Al0+  Al70  1  0.74766773  0.74834796  0.32994599  1
  Al0+  Al71  1  0.74610716  0.74920104  0.66931337  1
  Al0+  Al72  1  0.31860626  0.07290707  0.34754522  1
  Al0+  Al73  1  0.42925166  0.82172182  0.98799413  1
  Al0+  Al74  1  0.06947979  0.18065850  0.98504932  1
  Al0+  Al75  1  0.67737108  0.42829969  0.34686131  1
  Al0+  Al76  1  0.67887490  0.93101427  0.68323478  1
  Al0+  Al77  1  0.92839593  0.81918352  0.98357972  1
  Al0+  Al78  1  0.31977850  0.07049358  0.68136885  1
  Al0+  Al79  1  0.67635982  0.42617245  0.68293353  1
  Al0+  Al80  1  0.43227994  0.32059287  0.32190269  1
  Al0+  Al81  1  0.67853143  0.42907680  0.01552318  1
  Al0+  Al82  1  0.18126399  0.42965657  0.68061628  1
  Al0+  Al83  1  0.92724898  0.81861411  0.65051767  1
  Al0+  Al84  1  0.42897462  0.32248646  0.98480957  1
  Al0+  Al85  1  0.06974720  0.18064044  0.31910811  1
  Al0+  Al86  1  0.67838578  0.92716983  0.34721392  1
  Al0+  Al87  1  0.57358541  0.17896379  0.98689534  1
  Al0+  Al88  1  0.57342646  0.18098351  0.65159916  1
  Al0+  Al89  1  0.82501075  0.06932223  0.34726692  1
  Al0+  Al90  1  0.92901936  0.81754166  0.31874838  1
  Al0+  Al91  1  0.07208971  0.18026977  0.65173702  1
  Al0+  Al92  1  0.82533783  0.06933045  0.68334738  1
  Al0+  Al93  1  0.82016648  0.57125261  0.68154108  1
  Al0+  Al94  1  0.32073641  0.07068804  0.01543920  1
  Al0+  Al95  1  0.42857884  0.82266652  0.65095458  1
  Si0+  Si96  1  0.56818869  0.67941797  0.31796310  1
  Si0+  Si97  1  0.31913014  0.57289152  0.01581028  1
  Si0+  Si98  1  0.67928010  0.92876288  0.01357894  1
  Si0+  Si99  1  0.17951829  0.43026898  0.34674074  1
  Si0+  Si100  1  0.07185029  0.67558459  0.98222057  1
  Si0+  Si101  1  0.17687478  0.92696287  0.01574078  1
  Si0+  Si102  1  0.92939550  0.32338070  0.65202512  1
  Si0+  Si103  1  0.92662058  0.32592282  0.31733564  1
  Si0+  Si104  1  0.42892378  0.32314421  0.65189213  1
  Si0+  Si105  1  0.82434641  0.06884544  0.01398495  1
  Si0+  Si106  1  0.92772959  0.32414899  0.98471178  1
  Si0+  Si107  1  0.82150737  0.57348479  0.01882444  1
  Si0+  Si108  1  0.17931039  0.92548375  0.34904725  1
  Si0+  Si109  1  0.07153665  0.67568047  0.64945988  1
  Si0+  Si110  1  0.56953850  0.67705293  0.64841248  1
  Si0+  Si111  1  0.07489844  0.67541237  0.31540420  1
  Si0+  Si112  1  0.42725371  0.82290395  0.31795702  1
  Si0+  Si113  1  0.17842397  0.92589664  0.68214090  1
  Si0+  Si114  1  0.17868205  0.42880535  0.01815916  1
  Si0+  Si115  1  0.57449503  0.17678751  0.31920826  1
  Si0+  Si116  1  0.32082199  0.57329623  0.34837734  1
  Si0+  Si117  1  0.32120315  0.57590626  0.68435318  1
  Si0+  Si118  1  0.82176201  0.57062191  0.34699485  1
  Si0+  Si119  1  0.57091288  0.67776229  0.98237495  1
  O2-  O120  1  0.24572363  -0.00522417  0.06128163  1
  O2-  O121  1  0.24551884  -0.00407578  0.39356848  1
  O2-  O122  1  0.24653049  -0.00607192  0.72753498  1
  O2-  O123  1  0.25109680  0.49934905  0.05970876  1
  O2-  O124  1  0.24881556  0.50298773  0.38901221  1
  O2-  O125  1  0.25544822  0.50469654  0.72838851  1
  O2-  O126  1  0.75139959  -0.00112102  0.05551469  1
  O2-  O127  1  0.74886374  0.00105703  0.39584524  1
  O2-  O128  1  0.75163641  0.00055115  0.73560823  1
  O2-  O129  1  0.75369884  0.50405812  0.06297315  1
  O2-  O130  1  0.75820706  0.49770314  0.39105197  1
  O2-  O131  1  0.75089744  0.49686592  0.73148431  1
  O2-  O132  1  -0.00973806  0.25173734  0.27377995  1
  O2-  O133  1  -0.00639233  0.25156459  0.60549675  1
  O2-  O134  1  -0.00493424  0.25552490  0.93909832  1
  O2-  O135  1  0.00492406  0.74294719  0.27213504  1
  O2-  O136  1  0.00066124  0.74119773  0.60456020  1
  O2-  O137  1  0.00202425  0.74246397  0.93859035  1
  O2-  O138  1  0.50902579  0.24852905  0.27468784  1
  O2-  O139  1  0.50212591  0.26056628  0.60682061  1
  O2-  O140  1  0.50216960  0.25175362  0.93642050  1
  O2-  O141  1  0.50098219  0.75449445  0.27596931  1
  O2-  O142  1  0.50246095  0.74724726  0.60364745  1
  O2-  O143  1  0.50548028  0.74978925  0.93948723  1
  O2-  O144  1  0.06888838  0.18169731  0.09855708  1
  O2-  O145  1  0.07229903  0.18467834  0.43178390  1
  O2-  O146  1  0.07340151  0.18300764  0.76481401  1
  O2-  O147  1  0.07322823  0.67522528  0.08803489  1
  O2-  O148  1  0.07977278  0.67359544  0.42023671  1
  O2-  O149  1  0.07426130  0.67810694  0.75497120  1
  O2-  O150  1  0.57413692  0.17812852  0.10109459  1
  O2-  O151  1  0.57183577  0.17738288  0.42449609  1
  O2-  O152  1  0.57047979  0.17965283  0.76451115  1
  O2-  O153  1  0.56883097  0.67751735  0.08870358  1
  O2-  O154  1  0.56567066  0.67620175  0.42248987  1
  O2-  O155  1  0.56662581  0.67521339  0.75391179  1
  O2-  O156  1  0.18034385  0.43171061  0.24152387  1
  O2-  O157  1  0.18310688  0.43044247  0.56681571  1
  O2-  O158  1  0.17792324  0.43055912  0.91337455  1
  O2-  O159  1  0.18218177  0.92195931  0.24336772  1
  O2-  O160  1  0.18034710  0.92439785  0.57641657  1
  O2-  O161  1  0.17695252  0.92634974  0.91050895  1
  O2-  O162  1  0.67517842  0.43187046  0.23352766  1
  O2-  O163  1  0.67563592  0.42971347  0.56903584  1
  O2-  O164  1  0.67951068  0.43061275  0.90322631  1
  O2-  O165  1  0.67878664  0.92654828  0.23260294  1
  O2-  O166  1  0.68092547  0.93177879  0.56973713  1
  O2-  O167  1  0.67853852  0.92793795  0.90920087  1
  O2-  O168  1  0.43080518  0.32153170  0.09891938  1
  O2-  O169  1  0.43061340  0.32174635  0.43474835  1
  O2-  O170  1  0.42757041  0.32136104  0.75714263  1
  O2-  O171  1  0.43151208  0.81997123  0.10177896  1
  O2-  O172  1  0.42370143  0.81930311  0.42254347  1
  O2-  O173  1  0.42864023  0.82009622  0.76426636  1
  O2-  O174  1  0.92975390  0.32477734  0.09060591  1
  O2-  O175  1  0.93199811  0.33661678  0.42182331  1
  O2-  O176  1  0.93331699  0.32404590  0.75772385  1
  O2-  O177  1  0.92858111  0.81848648  0.09699540  1
  O2-  O178  1  0.92893431  0.81453202  0.43131141  1
  O2-  O179  1  0.93045096  0.81758788  0.76358088  1
  O2-  O180  1  0.31903168  0.07214559  0.23418889  1
  O2-  O181  1  0.31793883  0.07176221  0.56793086  1
  O2-  O182  1  0.32087988  0.06933878  0.90277717  1
  O2-  O183  1  0.32060425  0.57565963  0.24319153  1
  O2-  O184  1  0.31965753  0.57691298  0.57832867  1
  O2-  O185  1  0.31611408  0.57567163  0.91129155  1
  O2-  O186  1  0.82466917  0.06605539  0.23267160  1
  O2-  O187  1  0.82620284  0.06530753  0.56992839  1
  O2-  O188  1  0.82643088  0.06779711  0.90950812  1
  O2-  O189  1  0.81931483  0.57152648  0.24128054  1
  O2-  O190  1  0.81767162  0.56896573  0.56726699  1
  O2-  O191  1  0.82170960  0.57327199  0.91387226  1
  O2-  O192  1  0.04507237  0.08292190  0.26349997  1
  O2-  O193  1  0.04643815  0.08254487  0.59746611  1
  O2-  O194  1  0.04158464  0.08440518  0.93029681  1
  O2-  O195  1  0.05070498  0.58177253  0.26770354  1
  O2-  O196  1  0.04973874  0.58004012  0.60594552  1
  O2-  O197  1  0.04771523  0.58077734  0.93791618  1
  O2-  O198  1  0.54502526  0.08368666  0.27353724  1
  O2-  O199  1  0.53693538  0.08743482  0.59597032  1
  O2-  O200  1  0.54347538  0.08165115  0.93355609  1
  O2-  O201  1  0.53414438  0.59059549  0.26782268  1
  O2-  O202  1  0.54079100  0.58425777  0.60099875  1
  O2-  O203  1  0.54023556  0.58672107  0.93559800  1
  O2-  O204  1  0.16336816  0.21849164  0.26329658  1
  O2-  O205  1  0.16761601  0.21799692  0.59947187  1
  O2-  O206  1  0.16529210  0.21400254  0.93281888  1
  O2-  O207  1  0.16806687  0.70231105  0.26723842  1
  O2-  O208  1  0.16422535  0.70167410  0.60109841  1
  O2-  O209  1  0.16478844  0.70042292  0.93504852  1
  O2-  O210  1  0.67103377  0.19744514  0.27684533  1
  O2-  O211  1  0.67261400  0.20668521  0.59992568  1
  O2-  O212  1  0.67328522  0.20549612  0.93584355  1
  O2-  O213  1  0.65986899  0.70270827  0.26813551  1
  O2-  O214  1  0.66301458  0.70128829  0.60256316  1
  O2-  O215  1  0.66550727  0.69852517  0.93799939  1
  O2-  O216  1  0.08735309  0.45813979  0.06690348  1
  O2-  O217  1  0.08735745  0.45657097  0.39419956  1
  O2-  O218  1  0.08682341  0.45963132  0.73910637  1
  O2-  O219  1  0.08295083  0.95466682  0.06081382  1
  O2-  O220  1  0.08441369  0.94914362  0.39137402  1
  O2-  O221  1  0.08464915  0.95137293  0.72624244  1
  O2-  O222  1  0.58152127  0.46346038  0.06817150  1
  O2-  O223  1  0.58358645  0.46703087  0.40110628  1
  O2-  O224  1  0.57863335  0.45825447  0.73557679  1
  O2-  O225  1  0.58828727  0.95647858  0.06265198  1
  O2-  O226  1  0.57879031  0.95011070  0.39918801  1
  O2-  O227  1  0.58029936  0.96202645  0.73340512  1
  O2-  O228  1  0.20604808  0.33766319  0.06623347  1
  O2-  O229  1  0.21066232  0.34040002  0.39446139  1
  O2-  O230  1  0.21393638  0.33592610  0.73789517  1
  O2-  O231  1  0.19942200  0.83193502  0.06128458  1
  O2-  O232  1  0.20474549  0.83214378  0.39632521  1
  O2-  O233  1  0.20196347  0.83153010  0.72774052  1
  O2-  O234  1  0.71070828  0.33319317  0.07143199  1
  O2-  O235  1  0.70250008  0.33127815  0.40113269  1
  O2-  O236  1  0.70574985  0.32912624  0.73671034  1
  O2-  O237  1  0.70551421  0.83520785  0.05957788  1
  O2-  O238  1  0.70617742  0.82760690  0.39813531  1
  O2-  O239  1  0.70079541  0.83052876  0.73396372  1
  O2-  O240  1  0.45770125  0.41984793  0.26880569  1
  O2-  O241  1  0.44565331  0.42057750  0.60918294  1
  O2-  O242  1  0.45058970  0.42345486  0.93434271  1
  O2-  O243  1  0.45331907  0.91585770  0.27234033  1
  O2-  O244  1  0.45973711  0.91800346  0.59630198  1
  O2-  O245  1  0.45960994  0.91745486  0.93437932  1
  O2-  O246  1  0.95678903  0.41646996  0.26559660  1
  O2-  O247  1  0.95999056  0.41627221  0.60681254  1
  O2-  O248  1  0.95318509  0.41854946  0.94054791  1
  O2-  O249  1  0.96171989  0.91180870  0.26101659  1
  O2-  O250  1  0.96214930  0.91255786  0.59455187  1
  O2-  O251  1  0.96168216  0.91319958  0.92756559  1
  O2-  O252  1  0.33608962  0.29054096  0.26644250  1
  O2-  O253  1  0.33684416  0.29237471  0.60562514  1
  O2-  O254  1  0.32955539  0.29574381  0.93493639  1
  O2-  O255  1  0.33715772  0.79071367  0.26910478  1
  O2-  O256  1  0.33250619  0.79016105  0.59567405  1
  O2-  O257  1  0.33301802  0.78866382  0.93506098  1
  O2-  O258  1  0.83057059  0.30313537  0.27524261  1
  O2-  O259  1  0.83380772  0.30405589  0.60872122  1
  O2-  O260  1  0.83370961  0.29933425  0.94113980  1
  O2-  O261  1  0.83276653  0.78516316  0.26332852  1
  O2-  O262  1  0.82938717  0.78694924  0.59951192  1
  O2-  O263  1  0.83157244  0.78950161  0.92991419  1
  O2-  O264  1  0.41730211  0.03867906  0.06998602  1
  O2-  O265  1  0.41469331  0.04319585  0.40195786  1
  O2-  O266  1  0.41590678  0.03841727  0.73360936  1
  O2-  O267  1  0.41166632  0.54903376  0.06383140  1
  O2-  O268  1  0.41082673  0.54530909  0.39794770  1
  O2-  O269  1  0.41510021  0.55522108  0.73054756  1
  O2-  O270  1  0.91579453  0.03682883  0.06030375  1
  O2-  O271  1  0.92331550  0.03569276  0.39678257  1
  O2-  O272  1  0.92421240  0.03696039  0.73368498  1
  O2-  O273  1  0.91622608  0.55110421  0.06523945  1
  O2-  O274  1  0.91819894  0.55248523  0.39021201  1
  O2-  O275  1  0.92006793  0.55031641  0.73446640  1
  O2-  O276  1  0.28738342  0.16746343  0.06849734  1
  O2-  O277  1  0.28447113  0.16893490  0.40021890  1
  O2-  O278  1  0.28765153  0.16542596  0.73627436  1
  O2-  O279  1  0.28775723  0.66319324  0.06602516  1
  O2-  O280  1  0.29285775  0.66470107  0.39684010  1
  O2-  O281  1  0.29121990  0.66826404  0.73051232  1
  O2-  O282  1  0.80076298  0.16121459  0.06235404  1
  O2-  O283  1  0.80737160  0.16978165  0.40015290  1
  O2-  O284  1  0.80333211  0.16969866  0.73410388  1
  O2-  O285  1  0.79337611  0.66711648  0.06457680  1
  O2-  O286  1  0.78927552  0.66157898  0.39335910  1
  O2-  O287  1  0.78699296  0.66698450  0.73619325  1
