# generated using pymatgen
data_Ca2Al2SiO7
_symmetry_space_group_name_H-M   'P 1'
_cell_length_a   15.45966162
_cell_length_b   15.45900701
_cell_length_c   15.28467830
_cell_angle_alpha   90.01928446
_cell_angle_beta   90.00033284
_cell_angle_gamma   90.00242643
_symmetry_Int_Tables_number   1
_chemical_formula_structural   Ca2Al2SiO7
_chemical_formula_sum   'Ca48 Al48 Si24 O168'
_cell_volume   3652.90060679
_cell_formula_units_Z   24
loop_
 _symmetry_equiv_pos_site_id
 _symmetry_equiv_pos_as_xyz
  1  'x, y, z'
loop_
 _atom_type_symbol
 _atom_type_oxidation_number
  Ca2+  2.0
  Al0+  0.0
  Si0+  0.0
  O2-  -2.0
loop_
 _atom_site_type_symbol
 _atom_site_label
 _atom_site_symmetry_multiplicity
 _atom_site_fract_x
 _atom_site_fract_y
 _atom_site_fract_z
 _atom_site_occupancy
  Ca2+  Ca0  1  0.16962912  0.08149232  0.16969583  1
  Ca2+  Ca1  1  0.17441143  0.07647488  0.51163552  1
  Ca2+  Ca2  1  0.16976184  0.07993227  0.83046440  1
  Ca2+  Ca3  1  0.16510678  0.58148220  0.16919126  1
  Ca2+  Ca4  1  0.16587051  0.58282951  0.50445116  1
  Ca2+  Ca5  1  0.16442331  0.57029026  0.83721468  1
  Ca2+  Ca6  1  0.66334421  0.07903669  0.17114347  1
  Ca2+  Ca7  1  0.67184951  0.06936470  0.50701968  1
  Ca2+  Ca8  1  0.67025367  0.08067245  0.83245310  1
  Ca2+  Ca9  1  0.66552087  0.57816035  0.16522593  1
  Ca2+  Ca10  1  0.67074411  0.57392813  0.50935435  1
  Ca2+  Ca11  1  0.67191348  0.58076317  0.83651392  1
  Ca2+  Ca12  1  0.07727234  0.33669360  0.16430241  1
  Ca2+  Ca13  1  0.06910581  0.34007557  0.49965716  1
  Ca2+  Ca14  1  0.07953445  0.33824714  0.82429237  1
  Ca2+  Ca15  1  0.07232543  0.82562205  0.16325164  1
  Ca2+  Ca16  1  0.07411040  0.83190705  0.49370591  1
  Ca2+  Ca17  1  0.07218872  0.83378219  0.82484965  1
  Ca2+  Ca18  1  0.57722383  0.33813915  0.15805931  1
  Ca2+  Ca19  1  0.58280963  0.33487539  0.49311781  1
  Ca2+  Ca20  1  0.58754860  0.33424625  0.83023200  1
  Ca2+  Ca21  1  0.58230282  0.83151683  0.16202102  1
  Ca2+  Ca22  1  0.58944100  0.82923906  0.49729622  1
  Ca2+  Ca23  1  0.59146991  0.81982682  0.82562437  1
  Ca2+  Ca24  1  0.33232070  0.41014521  0.16839976  1
  Ca2+  Ca25  1  0.32704351  0.41544136  0.50531270  1
  Ca2+  Ca26  1  0.32235314  0.40940355  0.83880429  1
  Ca2+  Ca27  1  0.33735211  0.91733453  0.17565371  1
  Ca2+  Ca28  1  0.32925280  0.91909521  0.50922277  1
  Ca2+  Ca29  1  0.33063455  0.92028335  0.83159324  1
  Ca2+  Ca30  1  0.82212302  0.42041260  0.17329060  1
  Ca2+  Ca31  1  0.82676123  0.41834630  0.50985645  1
  Ca2+  Ca32  1  0.82819608  0.42920182  0.83867702  1
  Ca2+  Ca33  1  0.83047979  0.91375335  0.17227453  1
  Ca2+  Ca34  1  0.82970904  0.91517191  0.50849725  1
  Ca2+  Ca35  1  0.83417525  0.91481815  0.83303340  1
  Ca2+  Ca36  1  0.42689766  0.17750491  0.15890124  1
  Ca2+  Ca37  1  0.41542892  0.17081646  0.49576110  1
  Ca2+  Ca38  1  0.42143005  0.16947588  0.83300515  1
  Ca2+  Ca39  1  0.42379593  0.67272978  0.16253429  1
  Ca2+  Ca40  1  0.42429825  0.67264408  0.49635356  1
  Ca2+  Ca41  1  0.43244045  0.65959313  0.82939066  1
  Ca2+  Ca42  1  0.91241958  0.17587938  0.16605082  1
  Ca2+  Ca43  1  0.90698231  0.17703976  0.50187516  1
  Ca2+  Ca44  1  0.91392006  0.17446708  0.82335436  1
  Ca2+  Ca45  1  0.90978330  0.67588932  0.16401345  1
  Ca2+  Ca46  1  0.91741399  0.67424019  0.49859538  1
  Ca2+  Ca47  1  0.90503764  0.67353070  0.82744592  1
  Al0+  Al48  1  -0.00025322  0.00026953  -0.00140981  1
  Al0+  Al49  1  0.00129409  0.00086079  0.33072604  1
  Al0+  Al50  1  0.00129179  0.00126265  0.66866392  1
  Al0+  Al51  1  0.00037743  0.50208679  0.01006046  1
  Al0+  Al52  1  0.00052827  0.49884599  0.32577407  1
  Al0+  Al53  1  -0.00039417  0.50111948  0.66922563  1
  Al0+  Al54  1  0.49919068  0.00247568  -0.00368517  1
  Al0+  Al55  1  0.50084801  0.00014114  0.33534220  1
  Al0+  Al56  1  0.50011790  0.00041558  0.67479250  1
  Al0+  Al57  1  0.49676950  0.50153789  -0.00488880  1
  Al0+  Al58  1  0.49811177  0.50018210  0.33396939  1
  Al0+  Al59  1  0.49981799  0.49934530  0.66261057  1
  Al0+  Al60  1  0.25002041  0.24778355  0.00273435  1
  Al0+  Al61  1  0.25053764  0.25032904  0.33064946  1
  Al0+  Al62  1  0.25062808  0.24924333  0.67287053  1
  Al0+  Al63  1  0.24692926  0.74975517  -0.00036011  1
  Al0+  Al64  1  0.25136333  0.74919176  0.32606200  1
  Al0+  Al65  1  0.25160422  0.74941976  0.67293306  1
  Al0+  Al66  1  0.75019044  0.24917390  0.00009156  1
  Al0+  Al67  1  0.74970706  0.24883200  0.33243101  1
  Al0+  Al68  1  0.74762883  0.24755825  0.66719800  1
  Al0+  Al69  1  0.74902209  0.75168133  -0.00256434  1
  Al0+  Al70  1  0.75072536  0.74812094  0.33346258  1
  Al0+  Al71  1  0.75016786  0.74823855  0.66132768  1
  Al0+  Al72  1  0.92748640  0.82207208  0.31806194  1
  Al0+  Al73  1  0.42859569  0.32156929  0.32054427  1
  Al0+  Al74  1  0.43104471  0.82183217  0.32231694  1
  Al0+  Al75  1  0.93067227  0.82193449  0.65213547  1
  Al0+  Al76  1  0.67635843  0.42720819  0.68065137  1
  Al0+  Al77  1  0.17963876  0.43129473  0.67743031  1
  Al0+  Al78  1  0.56901359  0.68123057  0.98647847  1
  Al0+  Al79  1  0.81963066  0.57432102  0.01784592  1
  Al0+  Al80  1  0.92735158  0.31976404  0.31910713  1
  Al0+  Al81  1  0.68031740  0.92696479  0.68260129  1
  Al0+  Al82  1  0.17998269  0.42758251  0.01692867  1
  Al0+  Al83  1  0.82103894  0.57015133  0.67950848  1
  Al0+  Al84  1  0.67804589  0.42838784  0.01488575  1
  Al0+  Al85  1  0.67774250  0.42940566  0.34704001  1
  Al0+  Al86  1  0.32248631  0.07219566  0.68339441  1
  Al0+  Al87  1  0.07238273  0.67846071  0.31777605  1
  Al0+  Al88  1  0.42819639  0.32122266  0.98302809  1
  Al0+  Al89  1  0.93019954  0.82013600  0.98432172  1
  Al0+  Al90  1  0.57121954  0.67812927  0.65013699  1
  Al0+  Al91  1  0.57342936  0.17880353  0.98248712  1
  Al0+  Al92  1  0.92823060  0.32176729  0.65570523  1
  Al0+  Al93  1  0.67972925  0.92822734  0.34560465  1
  Al0+  Al94  1  0.82159294  0.07101465  0.68119414  1
  Al0+  Al95  1  0.17822231  0.92657881  0.68133028  1
  Si0+  Si96  1  0.82395579  0.57035282  0.35069671  1
  Si0+  Si97  1  0.17902938  0.42820324  0.34849958  1
  Si0+  Si98  1  0.32030170  0.57236640  0.34815031  1
  Si0+  Si99  1  0.32364377  0.57248280  0.68283679  1
  Si0+  Si100  1  0.07386416  0.17843369  0.31707136  1
  Si0+  Si101  1  0.07228691  0.67674456  0.98111078  1
  Si0+  Si102  1  0.17997625  0.92781995  0.34588314  1
  Si0+  Si103  1  0.42765619  0.31922066  0.65083341  1
  Si0+  Si104  1  0.42484480  0.82390235  0.98242373  1
  Si0+  Si105  1  0.32116407  0.57359275  0.01771699  1
  Si0+  Si106  1  0.57093204  0.17807856  0.31885505  1
  Si0+  Si107  1  0.07385847  0.17954344  0.65062767  1
  Si0+  Si108  1  0.17727617  0.92927610  0.01723148  1
  Si0+  Si109  1  0.82441132  0.07200419  0.34931481  1
  Si0+  Si110  1  0.42818704  0.82282770  0.65224819  1
  Si0+  Si111  1  0.67901238  0.93093471  0.01399291  1
  Si0+  Si112  1  0.57183368  0.67733402  0.31680776  1
  Si0+  Si113  1  0.57053567  0.17699659  0.64955345  1
  Si0+  Si114  1  0.07065394  0.17880476  0.98516333  1
  Si0+  Si115  1  0.93045947  0.32203616  0.98639335  1
  Si0+  Si116  1  0.32098385  0.06837733  0.01854408  1
  Si0+  Si117  1  0.07465066  0.67773937  0.65262357  1
  Si0+  Si118  1  0.32025366  0.07098745  0.34695678  1
  Si0+  Si119  1  0.82321107  0.07130005  0.01617779  1
  O2-  O120  1  0.25299448  -0.00548845  0.06181532  1
  O2-  O121  1  0.25009804  -0.00067261  0.38894897  1
  O2-  O122  1  0.25083243  -0.00160723  0.73153660  1
  O2-  O123  1  0.25484580  0.50285108  0.06322460  1
  O2-  O124  1  0.24879198  0.50093261  0.38995871  1
  O2-  O125  1  0.25348288  0.50522609  0.72635186  1
  O2-  O126  1  0.74921311  0.00261531  0.05713460  1
  O2-  O127  1  0.75928052  -0.00120994  0.39088158  1
  O2-  O128  1  0.75368582  -0.00309858  0.73383029  1
  O2-  O129  1  0.74977021  0.49951311  0.06718097  1
  O2-  O130  1  0.75459861  0.50163902  0.39374702  1
  O2-  O131  1  0.74950477  0.49781898  0.72951807  1
  O2-  O132  1  0.00244874  0.24429980  0.27288511  1
  O2-  O133  1  0.00305510  0.24641395  0.60728211  1
  O2-  O134  1  0.00322490  0.25292932  0.94345178  1
  O2-  O135  1  -0.00198159  0.74844028  0.26813402  1
  O2-  O136  1  0.00978408  0.74984122  0.60833074  1
  O2-  O137  1  0.00230715  0.74330814  0.93700675  1
  O2-  O138  1  0.50741559  0.25136059  0.27453133  1
  O2-  O139  1  0.50013369  0.24971797  0.60815110  1
  O2-  O140  1  0.50536481  0.25505552  0.93255583  1
  O2-  O141  1  0.50787319  0.75125200  0.27340856  1
  O2-  O142  1  0.49729320  0.75590047  0.60628640  1
  O2-  O143  1  0.49249232  0.75475882  0.93901358  1
  O2-  O144  1  0.06918461  0.17675222  0.09067088  1
  O2-  O145  1  0.07875751  0.17899043  0.42203013  1
  O2-  O146  1  0.07555533  0.18219564  0.75653170  1
  O2-  O147  1  0.07579907  0.68099246  0.08655135  1
  O2-  O148  1  0.07519583  0.68096201  0.43156069  1
  O2-  O149  1  0.07492883  0.67653639  0.75797405  1
  O2-  O150  1  0.56880025  0.17291122  0.09642157  1
  O2-  O151  1  0.56750471  0.17599279  0.42438790  1
  O2-  O152  1  0.57033067  0.17693798  0.75430095  1
  O2-  O153  1  0.56742685  0.68509592  0.10015092  1
  O2-  O154  1  0.56835001  0.67656712  0.42220675  1
  O2-  O155  1  0.56896905  0.67764336  0.76322615  1
  O2-  O156  1  0.18172456  0.42622163  0.24355623  1
  O2-  O157  1  0.18072858  0.43188273  0.56384469  1
  O2-  O158  1  0.17940921  0.42748744  0.90373242  1
  O2-  O159  1  0.18159690  0.93075138  0.24044463  1
  O2-  O160  1  0.18076608  0.92755497  0.56687588  1
  O2-  O161  1  0.17713741  0.93272801  0.91270360  1
  O2-  O162  1  0.67617189  0.43130665  0.23413552  1
  O2-  O163  1  0.67654024  0.42830825  0.56642475  1
  O2-  O164  1  0.68222322  0.42795729  0.90194985  1
  O2-  O165  1  0.67699104  0.93248075  0.23191380  1
  O2-  O166  1  0.67997489  0.92929700  0.56864941  1
  O2-  O167  1  0.68047232  0.93079195  0.90952408  1
  O2-  O168  1  0.42768086  0.31675858  0.09707171  1
  O2-  O169  1  0.42377330  0.31754096  0.43369340  1
  O2-  O170  1  0.42554703  0.31822598  0.75538620  1
  O2-  O171  1  0.42638471  0.82481280  0.08860757  1
  O2-  O172  1  0.42737102  0.82036122  0.43488743  1
  O2-  O173  1  0.42734274  0.82040169  0.75778009  1
  O2-  O174  1  0.93104768  0.31757897  0.09182451  1
  O2-  O175  1  0.92850599  0.31998592  0.43215409  1
  O2-  O176  1  0.93209084  0.32148813  0.76894420  1
  O2-  O177  1  0.93202529  0.82261453  0.09744124  1
  O2-  O178  1  0.93030560  0.82365434  0.43129688  1
  O2-  O179  1  0.93129546  0.82015634  0.76525405  1
  O2-  O180  1  0.31906707  0.07003362  0.24168479  1
  O2-  O181  1  0.32041018  0.07323288  0.56887580  1
  O2-  O182  1  0.31908390  0.06830147  0.91400803  1
  O2-  O183  1  0.32105639  0.57251114  0.24328006  1
  O2-  O184  1  0.32268099  0.57267456  0.57673026  1
  O2-  O185  1  0.31776161  0.57544370  0.91231693  1
  O2-  O186  1  0.82329381  0.07386787  0.24324867  1
  O2-  O187  1  0.81746982  0.07247023  0.56736931  1
  O2-  O188  1  0.82711255  0.07098734  0.91178647  1
  O2-  O189  1  0.82182929  0.57047086  0.24510900  1
  O2-  O190  1  0.82213070  0.56821913  0.56558176  1
  O2-  O191  1  0.81938523  0.57365742  0.90460999  1
  O2-  O192  1  0.05197564  0.08430741  0.26960021  1
  O2-  O193  1  0.05211153  0.08503053  0.60531769  1
  O2-  O194  1  0.04051098  0.08858149  0.93663562  1
  O2-  O195  1  0.04962694  0.57917870  0.26444621  1
  O2-  O196  1  0.04601806  0.58592393  0.60435551  1
  O2-  O197  1  0.04931289  0.58047697  0.94020226  1
  O2-  O198  1  0.53927826  0.08718483  0.27044715  1
  O2-  O199  1  0.53993536  0.08483964  0.60369437  1
  O2-  O200  1  0.53893687  0.08232011  0.92817251  1
  O2-  O201  1  0.53831991  0.58695622  0.26943971  1
  O2-  O202  1  0.53651695  0.58295750  0.59424225  1
  O2-  O203  1  0.53852671  0.58577003  0.93070753  1
  O2-  O204  1  0.16515725  0.20725523  0.26687205  1
  O2-  O205  1  0.16728659  0.20685614  0.60440954  1
  O2-  O206  1  0.16394973  0.20243032  0.93985765  1
  O2-  O207  1  0.16888289  0.70860247  0.26086713  1
  O2-  O208  1  0.17077277  0.69887073  0.60843496  1
  O2-  O209  1  0.16573570  0.70295662  0.93433366  1
  O2-  O210  1  0.66602476  0.19639089  0.27361805  1
  O2-  O211  1  0.66174893  0.20270618  0.60024130  1
  O2-  O212  1  0.67428073  0.20062477  0.93179777  1
  O2-  O213  1  0.66687847  0.69740614  0.27263663  1
  O2-  O214  1  0.66610090  0.70825004  0.59342507  1
  O2-  O215  1  0.66370198  0.71492584  0.93187061  1
  O2-  O216  1  0.08467830  0.45850229  0.07337992  1
  O2-  O217  1  0.08583296  0.45474168  0.39338851  1
  O2-  O218  1  0.08489813  0.46160647  0.73428927  1
  O2-  O219  1  0.08803592  0.96411150  0.06584417  1
  O2-  O220  1  0.08795356  0.95543209  0.39272025  1
  O2-  O221  1  0.08229679  0.95832183  0.73625908  1
  O2-  O222  1  0.57701251  0.45768879  0.06304446  1
  O2-  O223  1  0.58029216  0.45951712  0.40054358  1
  O2-  O224  1  0.57724990  0.45568729  0.73122159  1
  O2-  O225  1  0.58547911  0.95802901  0.05980552  1
  O2-  O226  1  0.58449756  0.96213367  0.40145364  1
  O2-  O227  1  0.58259386  0.95463444  0.73630833  1
  O2-  O228  1  0.20964400  0.32992901  0.07074640  1
  O2-  O229  1  0.20911060  0.33676407  0.39552191  1
  O2-  O230  1  0.20993791  0.33577804  0.73307392  1
  O2-  O231  1  0.19941475  0.83488415  0.06222124  1
  O2-  O232  1  0.20926654  0.83606294  0.39119616  1
  O2-  O233  1  0.20564178  0.82932645  0.73768543  1
  O2-  O234  1  0.70542181  0.32847038  0.06724351  1
  O2-  O235  1  0.70553799  0.33007907  0.39760638  1
  O2-  O236  1  0.70013645  0.32748602  0.73038072  1
  O2-  O237  1  0.70757586  0.84034853  0.06246580  1
  O2-  O238  1  0.70529604  0.82956930  0.39781852  1
  O2-  O239  1  0.70873655  0.82800494  0.73205407  1
  O2-  O240  1  0.45384429  0.41967077  0.26731553  1
  O2-  O241  1  0.45177711  0.41156586  0.60253951  1
  O2-  O242  1  0.44349429  0.42275590  0.93300960  1
  O2-  O243  1  0.45874145  0.91933513  0.26721984  1
  O2-  O244  1  0.45045702  0.91855963  0.60909504  1
  O2-  O245  1  0.44953812  0.91762057  0.93750046  1
  O2-  O246  1  0.95959351  0.41388996  0.26235060  1
  O2-  O247  1  0.96220172  0.41708184  0.60041521  1
  O2-  O248  1  0.95803962  0.41579072  0.94409534  1
  O2-  O249  1  0.95635883  0.92112568  0.26519260  1
  O2-  O250  1  0.95924279  0.92036536  0.59994780  1
  O2-  O251  1  0.96449212  0.91671483  0.93203370  1
  O2-  O252  1  0.33388416  0.28720167  0.26444236  1
  O2-  O253  1  0.33609140  0.28841661  0.60341744  1
  O2-  O254  1  0.33077393  0.28387639  0.93241884  1
  O2-  O255  1  0.33706787  0.79024472  0.26346107  1
  O2-  O256  1  0.33409658  0.79584865  0.60658694  1
  O2-  O257  1  0.32956420  0.80024661  0.93899765  1
  O2-  O258  1  0.83201055  0.28683271  0.26299619  1
  O2-  O259  1  0.83204098  0.28872047  0.60119334  1
  O2-  O260  1  0.83961465  0.29225398  0.93993869  1
  O2-  O261  1  0.82878923  0.79340396  0.26467729  1
  O2-  O262  1  0.83618539  0.78826169  0.59651639  1
  O2-  O263  1  0.83243945  0.79335479  0.93219391  1
  O2-  O264  1  0.41386498  0.04259636  0.06553271  1
  O2-  O265  1  0.41168239  0.04483588  0.39511812  1
  O2-  O266  1  0.41882629  0.04496141  0.73972244  1
  O2-  O267  1  0.41549171  0.55152520  0.06322061  1
  O2-  O268  1  0.41079414  0.54423394  0.39769903  1
  O2-  O269  1  0.41566541  0.54265394  0.72816492  1
  O2-  O270  1  0.91402506  0.04127300  0.06535098  1
  O2-  O271  1  0.92042949  0.05287841  0.39332228  1
  O2-  O272  1  0.92215390  0.05118696  0.73249833  1
  O2-  O273  1  0.91902201  0.55039456  0.07092588  1
  O2-  O274  1  0.91888995  0.54407393  0.39319255  1
  O2-  O275  1  0.91887085  0.54472072  0.73477643  1
  O2-  O276  1  0.28909521  0.15826229  0.06739362  1
  O2-  O277  1  0.29041696  0.16238010  0.39423471  1
  O2-  O278  1  0.29091415  0.16777756  0.73972825  1
  O2-  O279  1  0.29349784  0.66740225  0.06471746  1
  O2-  O280  1  0.29175528  0.66425076  0.39550978  1
  O2-  O281  1  0.30333711  0.66566908  0.73137042  1
  O2-  O282  1  0.79674575  0.16311386  0.06460471  1
  O2-  O283  1  0.79453121  0.16383269  0.39634175  1
  O2-  O284  1  0.78909329  0.16721351  0.73603630  1
  O2-  O285  1  0.78664102  0.67240379  0.06998731  1
  O2-  O286  1  0.79980785  0.66471667  0.39562168  1
  O2-  O287  1  0.79004935  0.66769917  0.73068572  1
