# generated using pymatgen
data_Ca2Al2SiO7
_symmetry_space_group_name_H-M   'P 1'
_cell_length_a   15.47391534
_cell_length_b   15.47113401
_cell_length_c   15.29461802
_cell_angle_alpha   89.99968831
_cell_angle_beta   90.00900810
_cell_angle_gamma   89.98690578
_symmetry_Int_Tables_number   1
_chemical_formula_structural   Ca2Al2SiO7
_chemical_formula_sum   'Ca48 Al48 Si24 O168'
_cell_volume   3661.51639191
_cell_formula_units_Z   24
loop_
 _symmetry_equiv_pos_site_id
 _symmetry_equiv_pos_as_xyz
  1  'x, y, z'
loop_
 _atom_type_symbol
 _atom_type_oxidation_number
  Ca2+  2.0
  Al0+  0.0
  Si0+  0.0
  O2-  -2.0
loop_
 _atom_site_type_symbol
 _atom_site_label
 _atom_site_symmetry_multiplicity
 _atom_site_fract_x
 _atom_site_fract_y
 _atom_site_fract_z
 _atom_site_occupancy
  Ca2+  Ca0  1  0.16905268  0.09152461  0.16899704  1
  Ca2+  Ca1  1  0.16189594  0.08066890  0.51187791  1
  Ca2+  Ca2  1  0.17127160  0.08567324  0.83327956  1
  Ca2+  Ca3  1  0.16301694  0.57334733  0.17526620  1
  Ca2+  Ca4  1  0.14933191  0.57343038  0.50381815  1
  Ca2+  Ca5  1  0.15482669  0.56905708  0.83323150  1
  Ca2+  Ca6  1  0.66941250  0.07892246  0.17236496  1
  Ca2+  Ca7  1  0.67783329  0.07944292  0.50761572  1
  Ca2+  Ca8  1  0.67740552  0.08748624  0.83273606  1
  Ca2+  Ca9  1  0.66966580  0.57387298  0.17755779  1
  Ca2+  Ca10  1  0.67715642  0.58727702  0.50295786  1
  Ca2+  Ca11  1  0.67170503  0.58171650  0.83307455  1
  Ca2+  Ca12  1  0.08596747  0.33022254  0.16487184  1
  Ca2+  Ca13  1  0.07660268  0.32969453  0.49654964  1
  Ca2+  Ca14  1  0.08696076  0.32651712  0.82384364  1
  Ca2+  Ca15  1  0.08018133  0.82668190  0.16827762  1
  Ca2+  Ca16  1  0.07459529  0.82939246  0.49610164  1
  Ca2+  Ca17  1  0.08134006  0.82545174  0.82059996  1
  Ca2+  Ca18  1  0.58653571  0.33773740  0.16245080  1
  Ca2+  Ca19  1  0.57493313  0.34117602  0.49741595  1
  Ca2+  Ca20  1  0.57519038  0.33912276  0.82627252  1
  Ca2+  Ca21  1  0.57936348  0.82425344  0.16270702  1
  Ca2+  Ca22  1  0.58676952  0.81843285  0.49754219  1
  Ca2+  Ca23  1  0.57585875  0.82942725  0.82677308  1
  Ca2+  Ca24  1  0.31945708  0.41432130  0.17047066  1
  Ca2+  Ca25  1  0.31995825  0.41432224  0.50674860  1
  Ca2+  Ca26  1  0.32233088  0.41158314  0.83170901  1
  Ca2+  Ca27  1  0.33699585  0.92047762  0.16668665  1
  Ca2+  Ca28  1  0.32220437  0.92488773  0.51178358  1
  Ca2+  Ca29  1  0.32955556  0.92414275  0.83737384  1
  Ca2+  Ca30  1  0.82365559  0.41880370  0.17957187  1
  Ca2+  Ca31  1  0.83974103  0.42491653  0.50429148  1
  Ca2+  Ca32  1  0.83604257  0.42323168  0.83435262  1
  Ca2+  Ca33  1  0.83733366  0.91653095  0.17272659  1
  Ca2+  Ca34  1  0.84120185  0.91851175  0.50925858  1
  Ca2+  Ca35  1  0.84254277  0.92278500  0.82829467  1
  Ca2+  Ca36  1  0.41772701  0.16653260  0.16054240  1
  Ca2+  Ca37  1  0.40880052  0.17214896  0.50283465  1
  Ca2+  Ca38  1  0.41254147  0.16821749  0.82635338  1
  Ca2+  Ca39  1  0.42283237  0.66774929  0.16233413  1
  Ca2+  Ca40  1  0.43076903  0.65742985  0.49726037  1
  Ca2+  Ca41  1  0.42297287  0.66907190  0.82734750  1
  Ca2+  Ca42  1  0.93052554  0.17365456  0.16483841  1
  Ca2+  Ca43  1  0.92375298  0.17460940  0.49703969  1
  Ca2+  Ca44  1  0.92740770  0.17438783  0.82201113  1
  Ca2+  Ca45  1  0.91633793  0.66309241  0.17454182  1
  Ca2+  Ca46  1  0.92062115  0.67005657  0.49769710  1
  Ca2+  Ca47  1  0.91999879  0.67118246  0.82053140  1
  Al0+  Al48  1  0.00235378  -0.00022160  -0.00241873  1
  Al0+  Al49  1  0.00148313  0.00135112  0.32490849  1
  Al0+  Al50  1  0.00028240  -0.00011924  0.67168919  1
  Al0+  Al51  1  -0.00146550  0.50053698  0.00664760  1
  Al0+  Al52  1  -0.00290860  0.50011324  0.33275516  1
  Al0+  Al53  1  -0.00289298  0.49972713  0.67202933  1
  Al0+  Al54  1  0.50063335  -0.00020503  -0.00064139  1
  Al0+  Al55  1  0.50058183  0.00174166  0.33583166  1
  Al0+  Al56  1  0.50061773  -0.00035106  0.66900026  1
  Al0+  Al57  1  0.50124653  0.50023418  0.00195918  1
  Al0+  Al58  1  0.49781400  0.49943970  0.32895333  1
  Al0+  Al59  1  0.49821445  0.49893842  0.65887662  1
  Al0+  Al60  1  0.25219067  0.24898419  0.00475930  1
  Al0+  Al61  1  0.25230427  0.25118992  0.33368923  1
  Al0+  Al62  1  0.25134905  0.25038079  0.66573359  1
  Al0+  Al63  1  0.25037704  0.75119314  -0.00430939  1
  Al0+  Al64  1  0.25044743  0.75300098  0.33103027  1
  Al0+  Al65  1  0.25182527  0.74799462  0.66618947  1
  Al0+  Al66  1  0.75208227  0.24954371  0.00439117  1
  Al0+  Al67  1  0.74741608  0.24768208  0.33394976  1
  Al0+  Al68  1  0.74773581  0.24945591  0.66820646  1
  Al0+  Al69  1  0.75063358  0.75112918  -0.00039853  1
  Al0+  Al70  1  0.74659165  0.74907164  0.32636508  1
  Al0+  Al71  1  0.74904249  0.74898379  0.66615443  1
  Al0+  Al72  1  0.17910064  0.43002638  0.34846540  1
  Al0+  Al73  1  0.92567219  0.32223877  0.65377984  1
  Al0+  Al74  1  0.18019766  0.42978119  0.01413656  1
  Al0+  Al75  1  0.67604199  0.42591600  0.35100359  1
  Al0+  Al76  1  0.07311167  0.18125530  0.98406720  1
  Al0+  Al77  1  0.81935368  0.57075074  0.68129993  1
  Al0+  Al78  1  0.56952678  0.67956222  0.65361510  1
  Al0+  Al79  1  0.07333018  0.67644629  0.65404168  1
  Al0+  Al80  1  0.81851162  0.57149356  0.35034613  1
  Al0+  Al81  1  0.32089189  0.07101120  0.68179316  1
  Al0+  Al82  1  0.07304114  0.18077814  0.31786535  1
  Al0+  Al83  1  0.67960255  0.42957805  0.01227298  1
  Al0+  Al84  1  0.17865140  0.43173917  0.67897775  1
  Al0+  Al85  1  0.17760014  0.92615770  0.68193569  1
  Al0+  Al86  1  0.42950055  0.82183274  0.98524199  1
  Al0+  Al87  1  0.92622458  0.32151028  0.31818979  1
  Al0+  Al88  1  0.32096339  0.06877079  0.01545843  1
  Al0+  Al89  1  0.82161937  0.07257413  0.68008946  1
  Al0+  Al90  1  0.92818283  0.82169863  0.31769556  1
  Al0+  Al91  1  0.42972795  0.31874283  0.65291699  1
  Al0+  Al92  1  0.07145862  0.18027784  0.65344005  1
  Al0+  Al93  1  0.07219106  0.67821396  0.31786374  1
  Al0+  Al94  1  0.56850057  0.67835240  0.31696886  1
  Al0+  Al95  1  0.93013596  0.82096823  0.65416515  1
  Si0+  Si96  1  0.56975310  0.17703633  0.31793771  1
  Si0+  Si97  1  0.32069828  0.57481324  0.34828939  1
  Si0+  Si98  1  0.42769752  0.82404024  0.64898295  1
  Si0+  Si99  1  0.17822860  0.93014397  0.34685206  1
  Si0+  Si100  1  0.82354253  0.06980636  0.01669556  1
  Si0+  Si101  1  0.43159567  0.32039672  0.98641727  1
  Si0+  Si102  1  0.06997484  0.67774572  0.98582066  1
  Si0+  Si103  1  0.42957392  0.31981858  0.31546810  1
  Si0+  Si104  1  0.82104390  0.57456475  0.01857807  1
  Si0+  Si105  1  0.32664538  0.57073572  0.68230351  1
  Si0+  Si106  1  0.57388106  0.17828788  0.98569120  1
  Si0+  Si107  1  0.57293195  0.17529178  0.64974062  1
  Si0+  Si108  1  0.57221046  0.67781107  0.98203456  1
  Si0+  Si109  1  0.32220352  0.07073217  0.34872736  1
  Si0+  Si110  1  0.42912408  0.82575006  0.31776998  1
  Si0+  Si111  1  0.67475012  0.42862465  0.68187441  1
  Si0+  Si112  1  0.92847183  0.82117947  0.98373322  1
  Si0+  Si113  1  0.82187062  0.06834292  0.34652077  1
  Si0+  Si114  1  0.32267437  0.57409087  0.01517788  1
  Si0+  Si115  1  0.67999390  0.92997375  0.01493524  1
  Si0+  Si116  1  0.92748100  0.32218799  0.98411604  1
  Si0+  Si117  1  0.67770626  0.92931027  0.34711969  1
  Si0+  Si118  1  0.67881769  0.92705280  0.68390815  1
  Si0+  Si119  1  0.17777431  0.92594180  0.01919702  1
  O2-  O120  1  0.24559803  -0.00433651  0.06409412  1
  O2-  O121  1  0.24869948  0.00212965  0.38833330  1
  O2-  O122  1  0.25016647  -0.00180503  0.73203449  1
  O2-  O123  1  0.25284815  0.50739008  0.06018003  1
  O2-  O124  1  0.24787857  0.51169162  0.39331969  1
  O2-  O125  1  0.25107386  0.50959360  0.72597464  1
  O2-  O126  1  0.75241675  -0.00149238  0.05911503  1
  O2-  O127  1  0.75462912  -0.00659496  0.38878731  1
  O2-  O128  1  0.74683816  -0.00308406  0.72754659  1
  O2-  O129  1  0.75319638  0.50394175  0.06007288  1
  O2-  O130  1  0.74952093  0.49597744  0.40049349  1
  O2-  O131  1  0.74645207  0.49319187  0.72696519  1
  O2-  O132  1  0.00294443  0.25461910  0.26734255  1
  O2-  O133  1  -0.00220461  0.25038754  0.60428713  1
  O2-  O134  1  -0.00053124  0.25774274  0.93947651  1
  O2-  O135  1  -0.00110852  0.74891703  0.26661329  1
  O2-  O136  1  0.00527214  0.75258010  0.60500162  1
  O2-  O137  1  -0.00138341  0.74871297  0.94416580  1
  O2-  O138  1  0.50343466  0.25127252  0.27387908  1
  O2-  O139  1  0.50385160  0.24324410  0.60560910  1
  O2-  O140  1  0.50600576  0.25239964  0.94465421  1
  O2-  O141  1  0.49238123  0.75283527  0.27207273  1
  O2-  O142  1  0.49425663  0.75338744  0.60525531  1
  O2-  O143  1  0.50224595  0.74524159  0.93848297  1
  O2-  O144  1  0.07131625  0.18187503  0.09717881  1
  O2-  O145  1  0.07159044  0.17681143  0.43059697  1
  O2-  O146  1  0.07210534  0.18319588  0.76735255  1
  O2-  O147  1  0.07034576  0.67833316  0.09072476  1
  O2-  O148  1  0.07367067  0.68270516  0.43049154  1
  O2-  O149  1  0.06824322  0.67610610  0.76860538  1
  O2-  O150  1  0.57301170  0.17644366  0.09111463  1
  O2-  O151  1  0.56643702  0.17069217  0.42210118  1
  O2-  O152  1  0.57396058  0.17622427  0.75573078  1
  O2-  O153  1  0.57162846  0.67896448  0.08753079  1
  O2-  O154  1  0.56851359  0.68045330  0.42981119  1
  O2-  O155  1  0.56780562  0.68085624  0.76716934  1
  O2-  O156  1  0.18463044  0.42830235  0.23482913  1
  O2-  O157  1  0.17977762  0.43087276  0.56622861  1
  O2-  O158  1  0.18165886  0.42963511  0.90127165  1
  O2-  O159  1  0.18027313  0.92891987  0.24155241  1
  O2-  O160  1  0.17892817  0.92792224  0.56771232  1
  O2-  O161  1  0.17870625  0.92442886  0.91431898  1
  O2-  O162  1  0.67657472  0.42821828  0.23671610  1
  O2-  O163  1  0.67224691  0.43106586  0.57696716  1
  O2-  O164  1  0.67727747  0.43103538  0.89942915  1
  O2-  O165  1  0.67362531  0.93427436  0.24160042  1
  O2-  O166  1  0.67769162  0.92776922  0.57812461  1
  O2-  O167  1  0.67976792  0.93056953  0.91032836  1
  O2-  O168  1  0.43255616  0.31843078  0.09173782  1
  O2-  O169  1  0.42782059  0.31761307  0.42017115  1
  O2-  O170  1  0.43166640  0.31971497  0.76664600  1
  O2-  O171  1  0.43384387  0.82107232  0.09866114  1
  O2-  O172  1  0.43308983  0.82977866  0.42263826  1
  O2-  O173  1  0.43148586  0.82471052  0.75479496  1
  O2-  O174  1  0.92528057  0.31899519  0.08944640  1
  O2-  O175  1  0.92543127  0.31710912  0.43121583  1
  O2-  O176  1  0.92677907  0.32127835  0.76805106  1
  O2-  O177  1  0.92695159  0.82224608  0.08861249  1
  O2-  O178  1  0.93022891  0.82651053  0.43026685  1
  O2-  O179  1  0.92889077  0.81793235  0.76850181  1
  O2-  O180  1  0.32628505  0.06887354  0.24344489  1
  O2-  O181  1  0.32131363  0.06901770  0.56772433  1
  O2-  O182  1  0.32283153  0.06878652  0.90339082  1
  O2-  O183  1  0.32199296  0.57198279  0.24215899  1
  O2-  O184  1  0.33418387  0.56496593  0.57733913  1
  O2-  O185  1  0.32571648  0.57271691  0.91000527  1
  O2-  O186  1  0.81776308  0.06730282  0.24081482  1
  O2-  O187  1  0.81856807  0.07141414  0.56681002  1
  O2-  O188  1  0.82120943  0.07002624  0.91195090  1
  O2-  O189  1  0.81372378  0.57164145  0.23597853  1
  O2-  O190  1  0.81815926  0.57430153  0.56921448  1
  O2-  O191  1  0.82071046  0.57657153  0.91305554  1
  O2-  O192  1  0.04345277  0.08438004  0.26073515  1
  O2-  O193  1  0.04385173  0.08052357  0.60487241  1
  O2-  O194  1  0.04232365  0.08303430  0.93352866  1
  O2-  O195  1  0.04347246  0.58021121  0.26437082  1
  O2-  O196  1  0.03701067  0.58073758  0.60306941  1
  O2-  O197  1  0.04097018  0.58527731  0.94020394  1
  O2-  O198  1  0.53757197  0.08719724  0.26708861  1
  O2-  O199  1  0.54949522  0.08088673  0.60409254  1
  O2-  O200  1  0.54423442  0.08797848  0.93767552  1
  O2-  O201  1  0.53602434  0.58280026  0.26112684  1
  O2-  O202  1  0.53852495  0.58490979  0.59728683  1
  O2-  O203  1  0.54690952  0.58383601  0.93699874  1
  O2-  O204  1  0.17288113  0.20854710  0.26606291  1
  O2-  O205  1  0.16934210  0.20735824  0.60064979  1
  O2-  O206  1  0.17178262  0.21080088  0.93430869  1
  O2-  O207  1  0.17099510  0.70847755  0.26384930  1
  O2-  O208  1  0.17557157  0.69261652  0.60463848  1
  O2-  O209  1  0.16201882  0.70380500  0.93888290  1
  O2-  O210  1  0.66218204  0.19920068  0.26923882  1
  O2-  O211  1  0.66569286  0.20033301  0.60286803  1
  O2-  O212  1  0.66741444  0.20291862  0.94011411  1
  O2-  O213  1  0.66155950  0.71189500  0.25882508  1
  O2-  O214  1  0.66397033  0.71348231  0.59871698  1
  O2-  O215  1  0.66550820  0.70662199  0.93726665  1
  O2-  O216  1  0.08292556  0.45802723  0.06848987  1
  O2-  O217  1  0.07987591  0.45457291  0.39806589  1
  O2-  O218  1  0.08340686  0.45965407  0.73716390  1
  O2-  O219  1  0.08314923  0.95096669  0.06377709  1
  O2-  O220  1  0.08599314  0.95883602  0.39181298  1
  O2-  O221  1  0.08046261  0.95275362  0.73769316  1
  O2-  O222  1  0.58257874  0.45855720  0.06789237  1
  O2-  O223  1  0.57533115  0.45559084  0.39800071  1
  O2-  O224  1  0.58244617  0.45971149  0.72847346  1
  O2-  O225  1  0.58990819  0.96045013  0.06402172  1
  O2-  O226  1  0.58962912  0.96392539  0.39749597  1
  O2-  O227  1  0.58554645  0.95289252  0.73095580  1
  O2-  O228  1  0.21644483  0.33577671  0.06951500  1
  O2-  O229  1  0.21820743  0.33541120  0.40085886  1
  O2-  O230  1  0.21615231  0.33706694  0.73253827  1
  O2-  O231  1  0.20583521  0.83249609  0.06525759  1
  O2-  O232  1  0.20623230  0.83887762  0.39487868  1
  O2-  O233  1  0.20644500  0.82658815  0.73427467  1
  O2-  O234  1  0.70701395  0.33166537  0.06700027  1
  O2-  O235  1  0.69538251  0.32347504  0.39933959  1
  O2-  O236  1  0.69288700  0.33282191  0.72645917  1
  O2-  O237  1  0.70618947  0.83723055  0.06237413  1
  O2-  O238  1  0.69827141  0.83492023  0.39013037  1
  O2-  O239  1  0.70439883  0.83484702  0.73196456  1
  O2-  O240  1  0.45301490  0.41176530  0.26654320  1
  O2-  O241  1  0.46074707  0.41283798  0.59508106  1
  O2-  O242  1  0.45686764  0.41329135  0.93985897  1
  O2-  O243  1  0.46145172  0.91713617  0.26942748  1
  O2-  O244  1  0.45570843  0.91705246  0.60307382  1
  O2-  O245  1  0.46495506  0.91678391  0.93106614  1
  O2-  O246  1  0.94772484  0.42142204  0.26644701  1
  O2-  O247  1  0.95452596  0.42035563  0.60332329  1
  O2-  O248  1  0.94841640  0.41918662  0.94331019  1
  O2-  O249  1  0.95908373  0.91812885  0.26057375  1
  O2-  O250  1  0.95406301  0.92094156  0.60410935  1
  O2-  O251  1  0.95642298  0.91302074  0.93702063  1
  O2-  O252  1  0.34045837  0.28711682  0.26586077  1
  O2-  O253  1  0.33541419  0.28704067  0.59602810  1
  O2-  O254  1  0.34119766  0.28892838  0.93995807  1
  O2-  O255  1  0.33421427  0.80652164  0.27212640  1
  O2-  O256  1  0.33358790  0.80174774  0.60398810  1
  O2-  O257  1  0.33237169  0.79483670  0.93096228  1
  O2-  O258  1  0.82828274  0.28717340  0.26549680  1
  O2-  O259  1  0.82620754  0.29566099  0.60295238  1
  O2-  O260  1  0.83476425  0.29262620  0.93813659  1
  O2-  O261  1  0.82887922  0.79659979  0.26378863  1
  O2-  O262  1  0.83129869  0.79342964  0.60273219  1
  O2-  O263  1  0.83555403  0.79576865  0.93702141  1
  O2-  O264  1  0.41867754  0.03728660  0.06938195  1
  O2-  O265  1  0.41281331  0.04126011  0.39754756  1
  O2-  O266  1  0.42119954  0.04534437  0.73383593  1
  O2-  O267  1  0.41594984  0.54736990  0.06241587  1
  O2-  O268  1  0.41265211  0.54254477  0.39326534  1
  O2-  O269  1  0.41645967  0.53705610  0.73228881  1
  O2-  O270  1  0.91491976  0.03988589  0.06348536  1
  O2-  O271  1  0.91530097  0.04347473  0.39056486  1
  O2-  O272  1  0.91553747  0.04163858  0.73855713  1
  O2-  O273  1  0.91443766  0.55093786  0.06548039  1
  O2-  O274  1  0.91901868  0.54891818  0.40005257  1
  O2-  O275  1  0.91342032  0.54020473  0.74048676  1
  O2-  O276  1  0.29299021  0.16527711  0.07149548  1
  O2-  O277  1  0.29822704  0.16386244  0.39386930  1
  O2-  O278  1  0.29394974  0.16958236  0.73444808  1
  O2-  O279  1  0.29919981  0.66878584  0.06022669  1
  O2-  O280  1  0.30551778  0.67176901  0.39117678  1
  O2-  O281  1  0.31155010  0.66777776  0.72451817  1
  O2-  O282  1  0.79464035  0.16056375  0.06537563  1
  O2-  O283  1  0.78842099  0.15736193  0.39436411  1
  O2-  O284  1  0.78653972  0.16690887  0.73779060  1
  O2-  O285  1  0.79415222  0.66826214  0.06432678  1
  O2-  O286  1  0.78494652  0.67083494  0.39867008  1
  O2-  O287  1  0.78412148  0.66583508  0.73705174  1
