# generated using pymatgen
data_Ca2Al2SiO7
_symmetry_space_group_name_H-M   'P 1'
_cell_length_a   15.46703547
_cell_length_b   15.46474331
_cell_length_c   15.28920271
_cell_angle_alpha   90.00752910
_cell_angle_beta   89.99662136
_cell_angle_gamma   89.99538250
_symmetry_Int_Tables_number   1
_chemical_formula_structural   Ca2Al2SiO7
_chemical_formula_sum   'Ca48 Al48 Si24 O168'
_cell_volume   3657.08142577
_cell_formula_units_Z   24
loop_
 _symmetry_equiv_pos_site_id
 _symmetry_equiv_pos_as_xyz
  1  'x, y, z'
loop_
 _atom_type_symbol
 _atom_type_oxidation_number
  Ca2+  2.0
  Al0+  0.0
  Si0+  0.0
  O2-  -2.0
loop_
 _atom_site_type_symbol
 _atom_site_label
 _atom_site_symmetry_multiplicity
 _atom_site_fract_x
 _atom_site_fract_y
 _atom_site_fract_z
 _atom_site_occupancy
  Ca2+  Ca0  1  0.16435739  0.07868747  0.16840434  1
  Ca2+  Ca1  1  0.16089030  0.07389811  0.50661180  1
  Ca2+  Ca2  1  0.15900203  0.08358182  0.83523768  1
  Ca2+  Ca3  1  0.17891961  0.58643018  0.17198104  1
  Ca2+  Ca4  1  0.17824422  0.58625188  0.50429597  1
  Ca2+  Ca5  1  0.17942406  0.57977386  0.83942666  1
  Ca2+  Ca6  1  0.66633323  0.07870105  0.16564896  1
  Ca2+  Ca7  1  0.67022239  0.07186737  0.50887990  1
  Ca2+  Ca8  1  0.67510330  0.08107170  0.84435973  1
  Ca2+  Ca9  1  0.66783608  0.58255697  0.15824131  1
  Ca2+  Ca10  1  0.66871287  0.58036519  0.50389240  1
  Ca2+  Ca11  1  0.66933705  0.57575112  0.84713464  1
  Ca2+  Ca12  1  0.07755533  0.32492866  0.15483091  1
  Ca2+  Ca13  1  0.07874655  0.32871444  0.50081081  1
  Ca2+  Ca14  1  0.07168267  0.32253813  0.82949662  1
  Ca2+  Ca15  1  0.08195065  0.82890038  0.16103826  1
  Ca2+  Ca16  1  0.08785937  0.83203323  0.49347835  1
  Ca2+  Ca17  1  0.07606530  0.83642138  0.83156902  1
  Ca2+  Ca18  1  0.57568125  0.33168590  0.15620255  1
  Ca2+  Ca19  1  0.57279994  0.33213472  0.49692594  1
  Ca2+  Ca20  1  0.58089890  0.33330825  0.83536897  1
  Ca2+  Ca21  1  0.58148933  0.83140981  0.15249067  1
  Ca2+  Ca22  1  0.58703600  0.83424138  0.49567123  1
  Ca2+  Ca23  1  0.58887024  0.83056650  0.83439882  1
  Ca2+  Ca24  1  0.34489697  0.42642856  0.16837044  1
  Ca2+  Ca25  1  0.34127779  0.42536545  0.50534517  1
  Ca2+  Ca26  1  0.34237296  0.42240479  0.84014475  1
  Ca2+  Ca27  1  0.33097129  0.91589080  0.17031803  1
  Ca2+  Ca28  1  0.31908676  0.91570524  0.50491052  1
  Ca2+  Ca29  1  0.32567014  0.91287647  0.83854010  1
  Ca2+  Ca30  1  0.82981003  0.41335430  0.16178063  1
  Ca2+  Ca31  1  0.83493006  0.41684928  0.50687248  1
  Ca2+  Ca32  1  0.83344101  0.41808538  0.84689723  1
  Ca2+  Ca33  1  0.82371690  0.91479203  0.16273282  1
  Ca2+  Ca34  1  0.82303189  0.92163957  0.50874740  1
  Ca2+  Ca35  1  0.82604447  0.92601788  0.84171488  1
  Ca2+  Ca36  1  0.42170514  0.17780658  0.15490005  1
  Ca2+  Ca37  1  0.41029931  0.18085084  0.49574247  1
  Ca2+  Ca38  1  0.42355096  0.17685191  0.83175161  1
  Ca2+  Ca39  1  0.41939593  0.67058437  0.15617111  1
  Ca2+  Ca40  1  0.41347195  0.66483271  0.49686455  1
  Ca2+  Ca41  1  0.41824430  0.66589666  0.83690673  1
  Ca2+  Ca42  1  0.92218580  0.16697910  0.15321687  1
  Ca2+  Ca43  1  0.91522044  0.16386167  0.50685103  1
  Ca2+  Ca44  1  0.91846924  0.16579751  0.82915900  1
  Ca2+  Ca45  1  0.92135261  0.67139808  0.15721248  1
  Ca2+  Ca46  1  0.92850968  0.66993123  0.49092389  1
  Ca2+  Ca47  1  0.90465757  0.67501601  0.83456617  1
  Al0+  Al48  1  -0.00069980  -0.00371453  -0.00212414  1
  Al0+  Al49  1  -0.00228025  0.00037591  0.33725592  1
  Al0+  Al50  1  -0.00224670  -0.00136109  0.66859531  1
  Al0+  Al51  1  0.00397656  0.49919594  0.00145401  1
  Al0+  Al52  1  0.00227061  0.50049322  0.32847294  1
  Al0+  Al53  1  0.00294908  0.50122750  0.66319273  1
  Al0+  Al54  1  0.49621287  0.00090646  -0.00478349  1
  Al0+  Al55  1  0.49996380  0.00163850  0.33989957  1
  Al0+  Al56  1  0.49661206  -0.00279376  0.66745156  1
  Al0+  Al57  1  0.50118577  0.50296567  0.00241782  1
  Al0+  Al58  1  0.50153918  0.50158687  0.33446610  1
  Al0+  Al59  1  0.50245779  0.50235549  0.66561488  1
  Al0+  Al60  1  0.24910283  0.24905706  -0.00765017  1
  Al0+  Al61  1  0.24766133  0.25320737  0.32757123  1
  Al0+  Al62  1  0.24826037  0.25056632  0.65688688  1
  Al0+  Al63  1  0.25013334  0.74884129  0.00048134  1
  Al0+  Al64  1  0.25148774  0.74926090  0.33706459  1
  Al0+  Al65  1  0.25162296  0.74973444  0.67559710  1
  Al0+  Al66  1  0.74971808  0.25015268  0.00435005  1
  Al0+  Al67  1  0.74922352  0.25059976  0.33617633  1
  Al0+  Al68  1  0.74838306  0.24977638  0.66364468  1
  Al0+  Al69  1  0.75077345  0.74893682  -0.00059301  1
  Al0+  Al70  1  0.75134707  0.74932727  0.33783065  1
  Al0+  Al71  1  0.74927150  0.74837888  0.66556242  1
  Al0+  Al72  1  0.17941599  0.93001582  0.68213401  1
  Al0+  Al73  1  0.57104576  0.68115029  0.98520632  1
  Al0+  Al74  1  0.67846227  0.92814060  0.34717161  1
  Al0+  Al75  1  0.57214721  0.17754090  0.98626915  1
  Al0+  Al76  1  0.67583225  0.92561576  0.68387761  1
  Al0+  Al77  1  0.81758230  0.07106931  0.68309087  1
  Al0+  Al78  1  0.42603559  0.82249059  0.98502303  1
  Al0+  Al79  1  0.42977255  0.32279526  0.98512634  1
  Al0+  Al80  1  0.43110908  0.32225557  0.65217447  1
  Al0+  Al81  1  0.92948652  0.81781999  0.98651099  1
  Al0+  Al82  1  0.07351109  0.68073687  0.31948974  1
  Al0+  Al83  1  0.42949550  0.32228222  0.31821433  1
  Al0+  Al84  1  0.82238987  0.07090501  0.01628607  1
  Al0+  Al85  1  0.82507271  0.57166673  0.01499235  1
  Al0+  Al86  1  0.92867134  0.32189535  0.98777539  1
  Al0+  Al87  1  0.32110494  0.56846465  0.34811235  1
  Al0+  Al88  1  0.67627979  0.92988115  0.01392381  1
  Al0+  Al89  1  0.67929317  0.42809752  0.01539910  1
  Al0+  Al90  1  0.32021479  0.56970506  0.01529545  1
  Al0+  Al91  1  0.32219681  0.56841035  0.68289000  1
  Al0+  Al92  1  0.07037769  0.17589501  0.98501916  1
  Al0+  Al93  1  0.18006207  0.93085632  0.34492206  1
  Al0+  Al94  1  0.92704406  0.32299472  0.65106455  1
  Al0+  Al95  1  0.06906822  0.17663178  0.64851518  1
  Si0+  Si96  1  0.92763103  0.32188123  0.31785399  1
  Si0+  Si97  1  0.31991633  0.07276840  0.01313643  1
  Si0+  Si98  1  0.43041508  0.82142521  0.32248798  1
  Si0+  Si99  1  0.32075872  0.07536460  0.68232065  1
  Si0+  Si100  1  0.82117837  0.07390472  0.35185501  1
  Si0+  Si101  1  0.17990927  0.42531590  0.01653899  1
  Si0+  Si102  1  0.17714288  0.42695012  0.68286297  1
  Si0+  Si103  1  0.82362347  0.57030132  0.34880754  1
  Si0+  Si104  1  0.06851310  0.17756771  0.31822365  1
  Si0+  Si105  1  0.92838853  0.81844994  0.65022116  1
  Si0+  Si106  1  0.17918708  0.92870776  0.01522236  1
  Si0+  Si107  1  0.68066861  0.43091508  0.67846499  1
  Si0+  Si108  1  0.57371376  0.68028642  0.31931471  1
  Si0+  Si109  1  0.42577280  0.82034187  0.64987572  1
  Si0+  Si110  1  0.57087518  0.17547174  0.64878010  1
  Si0+  Si111  1  0.57055324  0.68099522  0.64927337  1
  Si0+  Si112  1  0.92743420  0.82200222  0.31749025  1
  Si0+  Si113  1  0.32108577  0.07580642  0.34856087  1
  Si0+  Si114  1  0.07409870  0.67722190  0.98227065  1
  Si0+  Si115  1  0.07408045  0.68092306  0.65223717  1
  Si0+  Si116  1  0.82431965  0.56966359  0.67823299  1
  Si0+  Si117  1  0.57182346  0.17776733  0.31833312  1
  Si0+  Si118  1  0.68047381  0.42999773  0.35023873  1
  Si0+  Si119  1  0.17547303  0.42708181  0.35083576  1
  O2-  O120  1  0.25005261  0.00031256  0.05621889  1
  O2-  O121  1  0.25260094  0.00701546  0.39329421  1
  O2-  O122  1  0.25114740  0.00800576  0.72751708  1
  O2-  O123  1  0.24859425  0.49281850  0.06302581  1
  O2-  O124  1  0.24709096  0.49297991  0.39530041  1
  O2-  O125  1  0.25053991  0.49013010  0.72758800  1
  O2-  O126  1  0.74677317  0.00223989  0.06609992  1
  O2-  O127  1  0.75200810  0.00410074  0.39344135  1
  O2-  O128  1  0.74250509  0.00228775  0.73210490  1
  O2-  O129  1  0.75462331  0.49804307  0.06517843  1
  O2-  O130  1  0.75402533  0.49869255  0.39284761  1
  O2-  O131  1  0.76045282  0.49237388  0.71853840  1
  O2-  O132  1  -0.00281052  0.24875940  0.27744013  1
  O2-  O133  1  -0.00257611  0.25006367  0.59894176  1
  O2-  O134  1  -0.00461732  0.24580010  0.93731694  1
  O2-  O135  1  -0.00114079  0.75581759  0.27395026  1
  O2-  O136  1  0.00191233  0.74993724  0.60777405  1
  O2-  O137  1  0.00036513  0.73983483  0.93764506  1
  O2-  O138  1  0.50095535  0.24383791  0.27407789  1
  O2-  O139  1  0.50065512  0.24290210  0.60370033  1
  O2-  O140  1  0.50327508  0.25241705  0.93581282  1
  O2-  O141  1  0.50679632  0.75647641  0.28047116  1
  O2-  O142  1  0.50140249  0.75399184  0.60696538  1
  O2-  O143  1  0.50145072  0.75478135  0.93396158  1
  O2-  O144  1  0.07176165  0.17678653  0.09967895  1
  O2-  O145  1  0.06855900  0.17654518  0.42292614  1
  O2-  O146  1  0.06798850  0.17753045  0.76119975  1
  O2-  O147  1  0.07653511  0.68249480  0.08816332  1
  O2-  O148  1  0.07192645  0.68209023  0.43332684  1
  O2-  O149  1  0.07335090  0.68117516  0.75676377  1
  O2-  O150  1  0.56664376  0.17630069  0.10048611  1
  O2-  O151  1  0.57195480  0.18006067  0.42416704  1
  O2-  O152  1  0.57144100  0.17775387  0.75363933  1
  O2-  O153  1  0.56905443  0.68192677  0.09959555  1
  O2-  O154  1  0.57402169  0.67873638  0.42505251  1
  O2-  O155  1  0.57236938  0.67842998  0.75328377  1
  O2-  O156  1  0.17298375  0.42762042  0.24579047  1
  O2-  O157  1  0.17490061  0.43192051  0.57694003  1
  O2-  O158  1  0.17989556  0.42778328  0.91102555  1
  O2-  O159  1  0.18130477  0.93142904  0.23195629  1
  O2-  O160  1  0.18167650  0.92752116  0.56841494  1
  O2-  O161  1  0.17951974  0.92758314  0.91025285  1
  O2-  O162  1  0.68021441  0.42941832  0.24615301  1
  O2-  O163  1  0.67881023  0.43608756  0.57253510  1
  O2-  O164  1  0.67804654  0.43125504  0.90134978  1
  O2-  O165  1  0.67773188  0.92587944  0.23509890  1
  O2-  O166  1  0.68073904  0.92436152  0.56935265  1
  O2-  O167  1  0.67972380  0.93026662  0.90091278  1
  O2-  O168  1  0.42988862  0.32041464  0.09905950  1
  O2-  O169  1  0.43256521  0.32271585  0.43179233  1
  O2-  O170  1  0.43573299  0.32429824  0.76426064  1
  O2-  O171  1  0.42335928  0.82009177  0.09963424  1
  O2-  O172  1  0.42926341  0.81819695  0.42786767  1
  O2-  O173  1  0.42181614  0.81759404  0.75394649  1
  O2-  O174  1  0.93366137  0.32087579  0.10224343  1
  O2-  O175  1  0.92813076  0.32351218  0.42290673  1
  O2-  O176  1  0.92892126  0.32749252  0.76335182  1
  O2-  O177  1  0.93359999  0.81867152  0.10006479  1
  O2-  O178  1  0.92689904  0.81884792  0.42361367  1
  O2-  O179  1  0.92708486  0.81523535  0.75483343  1
  O2-  O180  1  0.32139827  0.07407982  0.24306077  1
  O2-  O181  1  0.32039597  0.07219600  0.57608252  1
  O2-  O182  1  0.31805472  0.07377087  0.90830388  1
  O2-  O183  1  0.32166564  0.56996164  0.23574365  1
  O2-  O184  1  0.32068276  0.56986344  0.56920749  1
  O2-  O185  1  0.31804420  0.56981533  0.90221181  1
  O2-  O186  1  0.82305048  0.07635626  0.24706756  1
  O2-  O187  1  0.81633839  0.06723105  0.56849057  1
  O2-  O188  1  0.82405102  0.06824494  0.90318339  1
  O2-  O189  1  0.82316963  0.57162484  0.24473279  1
  O2-  O190  1  0.82194032  0.57184544  0.57235947  1
  O2-  O191  1  0.82213873  0.57072773  0.90070293  1
  O2-  O192  1  0.04062958  0.08527150  0.27139583  1
  O2-  O193  1  0.03761625  0.07768928  0.59599801  1
  O2-  O194  1  0.04537342  0.07683895  0.93361993  1
  O2-  O195  1  0.04387584  0.58423212  0.26528811  1
  O2-  O196  1  0.04864063  0.58929901  0.60276864  1
  O2-  O197  1  0.05721761  0.58102719  0.93983115  1
  O2-  O198  1  0.54876472  0.08244880  0.27497807  1
  O2-  O199  1  0.54627773  0.08033808  0.60397071  1
  O2-  O200  1  0.54006287  0.08247038  0.93002032  1
  O2-  O201  1  0.54213030  0.59007339  0.27264551  1
  O2-  O202  1  0.54050759  0.59088835  0.59878446  1
  O2-  O203  1  0.53991480  0.58413979  0.93197937  1
  O2-  O204  1  0.16023763  0.20419700  0.26992177  1
  O2-  O205  1  0.16733992  0.20292926  0.59270161  1
  O2-  O206  1  0.16671265  0.20518332  0.92936952  1
  O2-  O207  1  0.16990848  0.71284373  0.26617593  1
  O2-  O208  1  0.16569480  0.71202821  0.60593352  1
  O2-  O209  1  0.16428630  0.70962906  0.93427482  1
  O2-  O210  1  0.66544245  0.20549389  0.27375390  1
  O2-  O211  1  0.66287674  0.20304759  0.60005344  1
  O2-  O212  1  0.67133420  0.20380367  0.93587688  1
  O2-  O213  1  0.66755990  0.70301840  0.27428860  1
  O2-  O214  1  0.66287736  0.70666651  0.59934475  1
  O2-  O215  1  0.67017654  0.70428655  0.93202495  1
  O2-  O216  1  0.08733437  0.45084341  0.06485077  1
  O2-  O217  1  0.08265105  0.45557263  0.39786423  1
  O2-  O218  1  0.08589843  0.45900679  0.73018692  1
  O2-  O219  1  0.08812172  0.95550504  0.06375329  1
  O2-  O220  1  0.08228017  0.95805802  0.39969034  1
  O2-  O221  1  0.08109997  0.95561594  0.73362335  1
  O2-  O222  1  0.58374535  0.46307705  0.07097948  1
  O2-  O223  1  0.59094663  0.46314133  0.39939849  1
  O2-  O224  1  0.59377241  0.46881630  0.72702052  1
  O2-  O225  1  0.57511322  0.95497960  0.06377857  1
  O2-  O226  1  0.58163644  0.95660547  0.40417674  1
  O2-  O227  1  0.57247657  0.94282199  0.72903452  1
  O2-  O228  1  0.20369763  0.33042519  0.06108196  1
  O2-  O229  1  0.19814849  0.33194142  0.39550521  1
  O2-  O230  1  0.19686763  0.33022429  0.72282429  1
  O2-  O231  1  0.20826425  0.83749938  0.06308433  1
  O2-  O232  1  0.21391661  0.83607160  0.40117917  1
  O2-  O233  1  0.21314573  0.83587897  0.73812143  1
  O2-  O234  1  0.70311421  0.33051399  0.07237941  1
  O2-  O235  1  0.70556548  0.33768005  0.39908485  1
  O2-  O236  1  0.69676702  0.33564256  0.72138553  1
  O2-  O237  1  0.70807523  0.83168820  0.06568523  1
  O2-  O238  1  0.71031980  0.83173963  0.40328329  1
  O2-  O239  1  0.70954209  0.82738506  0.73338659  1
  O2-  O240  1  0.46617779  0.41811699  0.26705105  1
  O2-  O241  1  0.46885064  0.41736088  0.59735832  1
  O2-  O242  1  0.45812171  0.42171335  0.93549710  1
  O2-  O243  1  0.45065320  0.91683139  0.27885263  1
  O2-  O244  1  0.44597097  0.91416299  0.60214329  1
  O2-  O245  1  0.44388558  0.92232785  0.93240219  1
  O2-  O246  1  0.95571892  0.41298609  0.27016025  1
  O2-  O247  1  0.95835086  0.42167015  0.59599112  1
  O2-  O248  1  0.96010711  0.41968163  0.93476065  1
  O2-  O249  1  0.94957859  0.91734021  0.27470522  1
  O2-  O250  1  0.95445018  0.91042032  0.60336466  1
  O2-  O251  1  0.96465080  0.91107753  0.93020324  1
  O2-  O252  1  0.33060269  0.29822717  0.26577499  1
  O2-  O253  1  0.33322983  0.29748360  0.59657128  1
  O2-  O254  1  0.33274179  0.29336810  0.93102931  1
  O2-  O255  1  0.34072638  0.78949465  0.27443803  1
  O2-  O256  1  0.33568162  0.78571304  0.60187563  1
  O2-  O257  1  0.32968859  0.78794977  0.93103094  1
  O2-  O258  1  0.83382305  0.29623970  0.27375544  1
  O2-  O259  1  0.82769536  0.29685136  0.59637972  1
  O2-  O260  1  0.82730021  0.30272047  0.94013741  1
  O2-  O261  1  0.83513799  0.79135324  0.27208560  1
  O2-  O262  1  0.83805187  0.78663214  0.60092239  1
  O2-  O263  1  0.83398321  0.78859270  0.93059458  1
  O2-  O264  1  0.41068701  0.04636329  0.06282318  1
  O2-  O265  1  0.41425805  0.05295128  0.39697472  1
  O2-  O266  1  0.41410684  0.04909854  0.72745142  1
  O2-  O267  1  0.41713635  0.54325310  0.06984734  1
  O2-  O268  1  0.41856800  0.53912976  0.40289952  1
  O2-  O269  1  0.42061969  0.54033714  0.73353565  1
  O2-  O270  1  0.91979916  0.03601029  0.06924921  1
  O2-  O271  1  0.91381269  0.04707208  0.39978224  1
  O2-  O272  1  0.91526768  0.03953564  0.73336227  1
  O2-  O273  1  0.92518086  0.54745730  0.06732743  1
  O2-  O274  1  0.91629353  0.54270667  0.39554779  1
  O2-  O275  1  0.91861762  0.55146063  0.72350096  1
  O2-  O276  1  0.29004710  0.16376778  0.06177171  1
  O2-  O277  1  0.29350869  0.16989416  0.39287700  1
  O2-  O278  1  0.29726449  0.17069637  0.72476367  1
  O2-  O279  1  0.28576657  0.66576906  0.06935322  1
  O2-  O280  1  0.28902035  0.66436640  0.40364323  1
  O2-  O281  1  0.28841806  0.66286688  0.73754426  1
  O2-  O282  1  0.79861655  0.16983063  0.06968278  1
  O2-  O283  1  0.79514180  0.16722545  0.39967409  1
  O2-  O284  1  0.79379859  0.17240855  0.73140030  1
  O2-  O285  1  0.79411759  0.66865141  0.06930654  1
  O2-  O286  1  0.79542243  0.66099512  0.39926772  1
  O2-  O287  1  0.78933873  0.65883933  0.72517573  1
