# generated using pymatgen
data_Ca2Al2SiO7
_symmetry_space_group_name_H-M   'P 1'
_cell_length_a   15.46130722
_cell_length_b   15.46073626
_cell_length_c   15.28582721
_cell_angle_alpha   90.00636660
_cell_angle_beta   90.00214276
_cell_angle_gamma   89.98953042
_symmetry_Int_Tables_number   1
_chemical_formula_structural   Ca2Al2SiO7
_chemical_formula_sum   'Ca48 Al48 Si24 O168'
_cell_volume   3653.97285907
_cell_formula_units_Z   24
loop_
 _symmetry_equiv_pos_site_id
 _symmetry_equiv_pos_as_xyz
  1  'x, y, z'
loop_
 _atom_type_symbol
 _atom_type_oxidation_number
  Ca2+  2.0
  Al0+  0.0
  Si0+  0.0
  O2-  -2.0
loop_
 _atom_site_type_symbol
 _atom_site_label
 _atom_site_symmetry_multiplicity
 _atom_site_fract_x
 _atom_site_fract_y
 _atom_site_fract_z
 _atom_site_occupancy
  Ca2+  Ca0  1  0.17410655  0.09818693  0.16861881  1
  Ca2+  Ca1  1  0.17792002  0.09168343  0.50184994  1
  Ca2+  Ca2  1  0.17954704  0.08808467  0.84088427  1
  Ca2+  Ca3  1  0.16258952  0.57511764  0.16753189  1
  Ca2+  Ca4  1  0.16801524  0.58111057  0.50345273  1
  Ca2+  Ca5  1  0.16920222  0.57791224  0.84098133  1
  Ca2+  Ca6  1  0.66365967  0.07061731  0.17440029  1
  Ca2+  Ca7  1  0.66747030  0.08295232  0.50551968  1
  Ca2+  Ca8  1  0.67188931  0.07904263  0.83532791  1
  Ca2+  Ca9  1  0.66891669  0.57419194  0.16493586  1
  Ca2+  Ca10  1  0.66176970  0.56981492  0.50355826  1
  Ca2+  Ca11  1  0.66405540  0.57742753  0.84134422  1
  Ca2+  Ca12  1  0.07573252  0.32784693  0.15961018  1
  Ca2+  Ca13  1  0.07323285  0.32492499  0.48767377  1
  Ca2+  Ca14  1  0.07935931  0.33395645  0.83827655  1
  Ca2+  Ca15  1  0.06901376  0.83438734  0.16124480  1
  Ca2+  Ca16  1  0.07045662  0.83762690  0.49635664  1
  Ca2+  Ca17  1  0.07052101  0.83746208  0.83003074  1
  Ca2+  Ca18  1  0.58366320  0.33270249  0.16677947  1
  Ca2+  Ca19  1  0.58540652  0.32206421  0.49240295  1
  Ca2+  Ca20  1  0.58891613  0.32999566  0.82631932  1
  Ca2+  Ca21  1  0.59152463  0.82997233  0.15758848  1
  Ca2+  Ca22  1  0.58335368  0.83208046  0.49849847  1
  Ca2+  Ca23  1  0.58703430  0.82275977  0.82933936  1
  Ca2+  Ca24  1  0.32876108  0.41060545  0.17050215  1
  Ca2+  Ca25  1  0.33568512  0.41190104  0.50008894  1
  Ca2+  Ca26  1  0.32690659  0.41698385  0.84136636  1
  Ca2+  Ca27  1  0.33218282  0.93228961  0.17322945  1
  Ca2+  Ca28  1  0.33583336  0.92835757  0.50728876  1
  Ca2+  Ca29  1  0.34242754  0.92675674  0.83601655  1
  Ca2+  Ca30  1  0.82852176  0.41334694  0.16990038  1
  Ca2+  Ca31  1  0.82099860  0.40676748  0.50314142  1
  Ca2+  Ca32  1  0.82093357  0.42256001  0.84493070  1
  Ca2+  Ca33  1  0.82507334  0.90973783  0.17054577  1
  Ca2+  Ca34  1  0.83247277  0.92063202  0.50356407  1
  Ca2+  Ca35  1  0.83409394  0.91921760  0.83891331  1
  Ca2+  Ca36  1  0.41831859  0.16490568  0.16877352  1
  Ca2+  Ca37  1  0.42623405  0.16476077  0.49340354  1
  Ca2+  Ca38  1  0.42276722  0.16272409  0.82835578  1
  Ca2+  Ca39  1  0.42682371  0.67021619  0.15868536  1
  Ca2+  Ca40  1  0.42199772  0.67191568  0.50046830  1
  Ca2+  Ca41  1  0.43023747  0.67167486  0.82489184  1
  Ca2+  Ca42  1  0.92551221  0.17637882  0.16037769  1
  Ca2+  Ca43  1  0.92007471  0.16760524  0.49090393  1
  Ca2+  Ca44  1  0.91742979  0.16877251  0.83096261  1
  Ca2+  Ca45  1  0.90434070  0.67562634  0.16113026  1
  Ca2+  Ca46  1  0.90937293  0.67976646  0.49783608  1
  Ca2+  Ca47  1  0.90574902  0.67684920  0.83423978  1
  Al0+  Al48  1  0.00297986  0.00126078  -0.00818877  1
  Al0+  Al49  1  0.00066200  -0.00199164  0.32331030  1
  Al0+  Al50  1  0.00121805  0.00101364  0.66600549  1
  Al0+  Al51  1  0.00009492  0.50177118  0.00402340  1
  Al0+  Al52  1  -0.00007982  0.50247675  0.33428130  1
  Al0+  Al53  1  -0.00156796  0.49995342  0.66635504  1
  Al0+  Al54  1  0.50013756  0.00162723  0.00837435  1
  Al0+  Al55  1  0.49858056  -0.00132557  0.33907405  1
  Al0+  Al56  1  0.50086109  -0.00017029  0.66467324  1
  Al0+  Al57  1  0.50002800  0.50019580  -0.00078107  1
  Al0+  Al58  1  0.50009296  0.50070496  0.33385469  1
  Al0+  Al59  1  0.49755257  0.49963719  0.66718859  1
  Al0+  Al60  1  0.25099481  0.25183398  0.00345444  1
  Al0+  Al61  1  0.25137722  0.25154560  0.33454433  1
  Al0+  Al62  1  0.24926252  0.24963673  0.67209837  1
  Al0+  Al63  1  0.24968032  0.75362717  0.00019512  1
  Al0+  Al64  1  0.24986823  0.75005484  0.33393476  1
  Al0+  Al65  1  0.24877161  0.74941598  0.66443683  1
  Al0+  Al66  1  0.74993274  0.24923486  0.00008629  1
  Al0+  Al67  1  0.74935665  0.24747232  0.32847209  1
  Al0+  Al68  1  0.75002580  0.24887489  0.67191355  1
  Al0+  Al69  1  0.74843490  0.74909031  -0.00279027  1
  Al0+  Al70  1  0.74850259  0.74862613  0.33597761  1
  Al0+  Al71  1  0.75005528  0.74797855  0.65585643  1
  Al0+  Al72  1  0.07309765  0.18141239  0.98139598  1
  Al0+  Al73  1  0.68236767  0.93114924  0.01053045  1
  Al0+  Al74  1  0.92827723  0.81870266  0.31810350  1
  Al0+  Al75  1  0.82288011  0.07006829  0.67952230  1
  Al0+  Al76  1  0.18003612  0.43165469  0.01476137  1
  Al0+  Al77  1  0.43111680  0.32242794  0.31867383  1
  Al0+  Al78  1  0.93005301  0.82221665  0.65177353  1
  Al0+  Al79  1  0.67813435  0.42957456  0.67998097  1
  Al0+  Al80  1  0.67975544  0.42753949  0.34761887  1
  Al0+  Al81  1  0.92892088  0.81958951  0.98536441  1
  Al0+  Al82  1  0.57091583  0.17537113  0.31716992  1
  Al0+  Al83  1  0.67916438  0.92719097  0.34925820  1
  Al0+  Al84  1  0.07210325  0.17893443  0.31899333  1
  Al0+  Al85  1  0.57211540  0.18034890  0.65533928  1
  Al0+  Al86  1  0.92707498  0.32317044  0.98272680  1
  Al0+  Al87  1  0.57154046  0.67614014  0.64830573  1
  Al0+  Al88  1  0.92673333  0.32268862  0.31923416  1
  Al0+  Al89  1  0.42843966  0.82137087  0.65154922  1
  Al0+  Al90  1  0.32184331  0.06981641  0.68160274  1
  Al0+  Al91  1  0.67688534  0.42591667  0.01659220  1
  Al0+  Al92  1  0.32049582  0.07054417  0.01570972  1
  Al0+  Al93  1  0.81980343  0.57160846  0.01390993  1
  Al0+  Al94  1  0.56904731  0.67923287  0.98696085  1
  Al0+  Al95  1  0.31814616  0.07176927  0.35000242  1
  Si0+  Si96  1  0.31930063  0.57192918  0.68192099  1
  Si0+  Si97  1  0.17894342  0.43070892  0.35003645  1
  Si0+  Si98  1  0.42765356  0.82486284  0.98599756  1
  Si0+  Si99  1  0.32260932  0.57474563  0.01577838  1
  Si0+  Si100  1  0.92952466  0.32100841  0.65297523  1
  Si0+  Si101  1  0.82317775  0.06965821  0.34622572  1
  Si0+  Si102  1  0.17707735  0.42918049  0.68143212  1
  Si0+  Si103  1  0.07453745  0.67814294  0.31626052  1
  Si0+  Si104  1  0.56897150  0.67971408  0.31709940  1
  Si0+  Si105  1  0.17587225  0.92768189  0.01718408  1
  Si0+  Si106  1  0.42515076  0.32102056  0.65292407  1
  Si0+  Si107  1  0.57057201  0.17666913  0.98562525  1
  Si0+  Si108  1  0.17798683  0.92692665  0.68331049  1
  Si0+  Si109  1  0.07524227  0.67839507  0.98353454  1
  Si0+  Si110  1  0.82213911  0.57168293  0.35230073  1
  Si0+  Si111  1  0.07255437  0.18070667  0.65203136  1
  Si0+  Si112  1  0.32139088  0.57284512  0.34916428  1
  Si0+  Si113  1  0.07184613  0.67561938  0.64997069  1
  Si0+  Si114  1  0.82579096  0.07239877  0.01656792  1
  Si0+  Si115  1  0.82225483  0.57232914  0.68197710  1
  Si0+  Si116  1  0.43024324  0.32057815  0.98532301  1
  Si0+  Si117  1  0.17711362  0.92554088  0.35005984  1
  Si0+  Si118  1  0.67941666  0.92622779  0.68195044  1
  Si0+  Si119  1  0.42718713  0.82070722  0.31805311  1
  O2-  O120  1  0.24385424  -0.00306977  0.06115085  1
  O2-  O121  1  0.24217974  -0.00297758  0.39532808  1
  O2-  O122  1  0.24962082  -0.00773966  0.72806436  1
  O2-  O123  1  0.25277892  0.50867295  0.06180407  1
  O2-  O124  1  0.25031884  0.50169744  0.39244383  1
  O2-  O125  1  0.24835382  0.50041567  0.72329846  1
  O2-  O126  1  0.75782850  0.00319908  0.06052854  1
  O2-  O127  1  0.75322149  0.00362647  0.39332312  1
  O2-  O128  1  0.75045408  -0.00748540  0.72587930  1
  O2-  O129  1  0.75360726  0.49441202  0.06437309  1
  O2-  O130  1  0.75911988  0.49742756  0.39559893  1
  O2-  O131  1  0.75045128  0.50705184  0.72542182  1
  O2-  O132  1  -0.00057278  0.25087783  0.27061455  1
  O2-  O133  1  0.00012039  0.24995944  0.61001983  1
  O2-  O134  1  -0.00280689  0.24943333  0.93098996  1
  O2-  O135  1  0.00385669  0.74421558  0.27242288  1
  O2-  O136  1  0.00417967  0.74543610  0.60634702  1
  O2-  O137  1  0.00571020  0.74593452  0.93916586  1
  O2-  O138  1  0.50159628  0.25029651  0.26700557  1
  O2-  O139  1  0.49580186  0.25443757  0.61012796  1
  O2-  O140  1  0.50429105  0.25280396  0.94356687  1
  O2-  O141  1  0.50094646  0.75361140  0.27463989  1
  O2-  O142  1  0.50161490  0.75129929  0.59942266  1
  O2-  O143  1  0.49234309  0.75293083  0.94171884  1
  O2-  O144  1  0.07344067  0.18487556  0.09467446  1
  O2-  O145  1  0.07135798  0.18125880  0.43368533  1
  O2-  O146  1  0.07512235  0.18308469  0.75655029  1
  O2-  O147  1  0.07977400  0.68148744  0.08882828  1
  O2-  O148  1  0.07725299  0.67852826  0.42203160  1
  O2-  O149  1  0.07363208  0.67309163  0.75512161  1
  O2-  O150  1  0.56737053  0.17311154  0.09015157  1
  O2-  O151  1  0.57009058  0.17636151  0.43115916  1
  O2-  O152  1  0.57092689  0.18079928  0.76894820  1
  O2-  O153  1  0.56758560  0.68052382  0.10048801  1
  O2-  O154  1  0.56584496  0.67853607  0.42197420  1
  O2-  O155  1  0.56961629  0.67606114  0.76195099  1
  O2-  O156  1  0.17915881  0.43272842  0.24537118  1
  O2-  O157  1  0.17696006  0.42953274  0.57618161  1
  O2-  O158  1  0.18371842  0.43295948  0.90085120  1
  O2-  O159  1  0.18170231  0.91958231  0.24501645  1
  O2-  O160  1  0.17651874  0.92917127  0.57767383  1
  O2-  O161  1  0.17710784  0.92531158  0.91158405  1
  O2-  O162  1  0.67714117  0.43255710  0.23524958  1
  O2-  O163  1  0.68033469  0.42753094  0.56674324  1
  O2-  O164  1  0.67459916  0.42885264  0.90268569  1
  O2-  O165  1  0.68091583  0.92456205  0.23594149  1
  O2-  O166  1  0.68027188  0.92874909  0.57624566  1
  O2-  O167  1  0.68149560  0.93225933  0.89733670  1
  O2-  O168  1  0.42886005  0.32076904  0.09002623  1
  O2-  O169  1  0.43128703  0.32226786  0.43274042  1
  O2-  O170  1  0.42209314  0.32070016  0.75868358  1
  O2-  O171  1  0.42824341  0.82337411  0.09187251  1
  O2-  O172  1  0.42517243  0.81715438  0.42280273  1
  O2-  O173  1  0.42901456  0.81874130  0.76543141  1
  O2-  O174  1  0.92928646  0.32171159  0.09605511  1
  O2-  O175  1  0.92935355  0.32078792  0.43404743  1
  O2-  O176  1  0.93218750  0.32300407  0.75740275  1
  O2-  O177  1  0.92869363  0.81704364  0.09829215  1
  O2-  O178  1  0.93043231  0.81859249  0.43140647  1
  O2-  O179  1  0.93064693  0.82083435  0.76469675  1
  O2-  O180  1  0.31773442  0.06991738  0.23693954  1
  O2-  O181  1  0.31826616  0.07288544  0.56884395  1
  O2-  O182  1  0.32286102  0.06841128  0.90235032  1
  O2-  O183  1  0.31993144  0.57485751  0.24434216  1
  O2-  O184  1  0.31803051  0.57158883  0.57655155  1
  O2-  O185  1  0.32152597  0.57242235  0.90987211  1
  O2-  O186  1  0.82329932  0.06654523  0.24089374  1
  O2-  O187  1  0.82433585  0.07078284  0.56630753  1
  O2-  O188  1  0.82316771  0.07116505  0.91046495  1
  O2-  O189  1  0.81962785  0.57515786  0.24718580  1
  O2-  O190  1  0.82639498  0.56896253  0.57650719  1
  O2-  O191  1  0.81527759  0.57341901  0.89996724  1
  O2-  O192  1  0.04983467  0.08035284  0.26454462  1
  O2-  O193  1  0.04774835  0.08830177  0.60532384  1
  O2-  O194  1  0.05176737  0.08137801  0.92850975  1
  O2-  O195  1  0.05115643  0.58366932  0.27172366  1
  O2-  O196  1  0.04532087  0.58248808  0.60168799  1
  O2-  O197  1  0.05227393  0.58398723  0.93895200  1
  O2-  O198  1  0.53756664  0.07697232  0.26638967  1
  O2-  O199  1  0.54340768  0.08385582  0.60127321  1
  O2-  O200  1  0.53633159  0.08688754  0.93768832  1
  O2-  O201  1  0.53679159  0.58999887  0.26909105  1
  O2-  O202  1  0.53549973  0.57918658  0.59581406  1
  O2-  O203  1  0.53752422  0.58324568  0.93160316  1
  O2-  O204  1  0.16929062  0.21203910  0.26818097  1
  O2-  O205  1  0.16343324  0.21231308  0.60438520  1
  O2-  O206  1  0.17116854  0.21610876  0.93006045  1
  O2-  O207  1  0.16778605  0.70363351  0.26914655  1
  O2-  O208  1  0.16541337  0.69918119  0.60258304  1
  O2-  O209  1  0.16887685  0.70420142  0.93529021  1
  O2-  O210  1  0.66992366  0.19802566  0.26447771  1
  O2-  O211  1  0.66856605  0.21176260  0.60112743  1
  O2-  O212  1  0.66421895  0.19851263  0.93934971  1
  O2-  O213  1  0.66178251  0.70581300  0.27225196  1
  O2-  O214  1  0.66981268  0.69888401  0.59326190  1
  O2-  O215  1  0.66282020  0.71255795  0.93046299  1
  O2-  O216  1  0.08452190  0.46111419  0.07065017  1
  O2-  O217  1  0.08773471  0.45971362  0.39929953  1
  O2-  O218  1  0.08563465  0.45793897  0.72914529  1
  O2-  O219  1  0.08162773  0.95292657  0.06176530  1
  O2-  O220  1  0.08122281  0.94940634  0.39203755  1
  O2-  O221  1  0.08608618  0.95643555  0.73030483  1
  O2-  O222  1  0.57908902  0.45921513  0.06837458  1
  O2-  O223  1  0.58411726  0.46422377  0.40116709  1
  O2-  O224  1  0.57912710  0.45592079  0.73211575  1
  O2-  O225  1  0.58712205  0.96119703  0.06812144  1
  O2-  O226  1  0.58182067  0.95456708  0.40293324  1
  O2-  O227  1  0.58640582  0.95285148  0.72769111  1
  O2-  O228  1  0.21520997  0.33768321  0.06963147  1
  O2-  O229  1  0.20777265  0.34024697  0.39909857  1
  O2-  O230  1  0.20564518  0.33895475  0.73094911  1
  O2-  O231  1  0.20033727  0.83404681  0.06470634  1
  O2-  O232  1  0.20437607  0.83291505  0.39881050  1
  O2-  O233  1  0.19796872  0.83096000  0.72741754  1
  O2-  O234  1  0.70028355  0.32541534  0.06705655  1
  O2-  O235  1  0.70741216  0.32824617  0.39911594  1
  O2-  O236  1  0.71170360  0.33501388  0.73558310  1
  O2-  O237  1  0.71173732  0.83438073  0.06425368  1
  O2-  O238  1  0.71060163  0.83103995  0.40410056  1
  O2-  O239  1  0.70328334  0.82981710  0.72291072  1
  O2-  O240  1  0.45592519  0.42204959  0.26571981  1
  O2-  O241  1  0.44576522  0.41591288  0.60801682  1
  O2-  O242  1  0.45264293  0.41383328  0.93756874  1
  O2-  O243  1  0.45183647  0.91383126  0.27342368  1
  O2-  O244  1  0.45572042  0.91951010  0.59829452  1
  O2-  O245  1  0.45811820  0.91744697  0.94117474  1
  O2-  O246  1  0.95522429  0.42269128  0.27015852  1
  O2-  O247  1  0.95708718  0.41258652  0.60432317  1
  O2-  O248  1  0.95889223  0.42242144  0.93252689  1
  O2-  O249  1  0.95758328  0.91343670  0.26093603  1
  O2-  O250  1  0.96394691  0.91797605  0.59719784  1
  O2-  O251  1  0.95931622  0.91589830  0.93029555  1
  O2-  O252  1  0.33165220  0.29558651  0.26794575  1
  O2-  O253  1  0.33162726  0.29450156  0.60623784  1
  O2-  O254  1  0.33966905  0.29055011  0.93698647  1
  O2-  O255  1  0.33659180  0.78982790  0.26969204  1
  O2-  O256  1  0.32966208  0.79169113  0.59856945  1
  O2-  O257  1  0.33240530  0.80510542  0.94048612  1
  O2-  O258  1  0.82966095  0.29565950  0.26526581  1
  O2-  O259  1  0.83799098  0.29084150  0.60736728  1
  O2-  O260  1  0.82729783  0.29556976  0.93091335  1
  O2-  O261  1  0.83132797  0.78462498  0.26680343  1
  O2-  O262  1  0.83492351  0.79252580  0.59475069  1
  O2-  O263  1  0.83394061  0.78675387  0.93006048  1
  O2-  O264  1  0.41449803  0.03799300  0.07327575  1
  O2-  O265  1  0.41350006  0.03794138  0.40420965  1
  O2-  O266  1  0.41935037  0.03995543  0.73492921  1
  O2-  O267  1  0.41478565  0.54674568  0.06243640  1
  O2-  O268  1  0.41208358  0.54441586  0.39799801  1
  O2-  O269  1  0.41011548  0.54388300  0.73061574  1
  O2-  O270  1  0.92123968  0.04823288  0.05826120  1
  O2-  O271  1  0.91741377  0.04183847  0.39130614  1
  O2-  O272  1  0.92018904  0.04176475  0.73406877  1
  O2-  O273  1  0.92119735  0.55516264  0.06521771  1
  O2-  O274  1  0.91889710  0.55534607  0.39664850  1
  O2-  O275  1  0.91539536  0.54581597  0.72938029  1
  O2-  O276  1  0.29063256  0.16742056  0.06856098  1
  O2-  O277  1  0.28885651  0.16901477  0.40436740  1
  O2-  O278  1  0.28867501  0.16577968  0.73673759  1
  O2-  O279  1  0.30067202  0.67011043  0.06044319  1
  O2-  O280  1  0.29186817  0.66360994  0.39880752  1
  O2-  O281  1  0.29111635  0.66314825  0.73018493  1
  O2-  O282  1  0.80031952  0.16587884  0.06136965  1
  O2-  O283  1  0.80080202  0.16433364  0.39160316  1
  O2-  O284  1  0.78998558  0.16422519  0.73692860  1
  O2-  O285  1  0.78364104  0.66699203  0.06831991  1
  O2-  O286  1  0.78889760  0.66198762  0.40097197  1
  O2-  O287  1  0.79893799  0.66836672  0.72366338  1
