# generated using pymatgen
data_Ca2Al2SiO7
_symmetry_space_group_name_H-M   'P 1'
_cell_length_a   15.45441493
_cell_length_b   15.45440880
_cell_length_c   15.28080312
_cell_angle_alpha   89.99862329
_cell_angle_beta   90.01173116
_cell_angle_gamma   89.99819887
_symmetry_Int_Tables_number   1
_chemical_formula_structural   Ca2Al2SiO7
_chemical_formula_sum   'Ca48 Al48 Si24 O168'
_cell_volume   3649.64930734
_cell_formula_units_Z   24
loop_
 _symmetry_equiv_pos_site_id
 _symmetry_equiv_pos_as_xyz
  1  'x, y, z'
loop_
 _atom_type_symbol
 _atom_type_oxidation_number
  Ca2+  2.0
  Al0+  0.0
  Si0+  0.0
  O2-  -2.0
loop_
 _atom_site_type_symbol
 _atom_site_label
 _atom_site_symmetry_multiplicity
 _atom_site_fract_x
 _atom_site_fract_y
 _atom_site_fract_z
 _atom_site_occupancy
  Ca2+  Ca0  1  0.16825690  0.08117081  0.16105244  1
  Ca2+  Ca1  1  0.16697736  0.08329342  0.50620543  1
  Ca2+  Ca2  1  0.17251165  0.08253860  0.84691198  1
  Ca2+  Ca3  1  0.17211704  0.58279216  0.17323008  1
  Ca2+  Ca4  1  0.16711951  0.58336665  0.50546445  1
  Ca2+  Ca5  1  0.16257958  0.57072370  0.83683098  1
  Ca2+  Ca6  1  0.66625839  0.07792987  0.16778067  1
  Ca2+  Ca7  1  0.66414355  0.08170580  0.50832630  1
  Ca2+  Ca8  1  0.66523456  0.07527909  0.83947302  1
  Ca2+  Ca9  1  0.66395858  0.58391810  0.16733817  1
  Ca2+  Ca10  1  0.66746350  0.57927170  0.50632051  1
  Ca2+  Ca11  1  0.66669643  0.57389323  0.84328364  1
  Ca2+  Ca12  1  0.07747689  0.33342446  0.15865120  1
  Ca2+  Ca13  1  0.08131830  0.33181955  0.49999560  1
  Ca2+  Ca14  1  0.09045918  0.32338622  0.82810218  1
  Ca2+  Ca15  1  0.08248710  0.83134349  0.16335941  1
  Ca2+  Ca16  1  0.07751361  0.82095024  0.49276185  1
  Ca2+  Ca17  1  0.08484096  0.82837767  0.82727282  1
  Ca2+  Ca18  1  0.58403932  0.32944639  0.16217244  1
  Ca2+  Ca19  1  0.58760899  0.32537043  0.49730178  1
  Ca2+  Ca20  1  0.58123389  0.33117238  0.82485108  1
  Ca2+  Ca21  1  0.58135280  0.82102658  0.15494657  1
  Ca2+  Ca22  1  0.57955452  0.83093934  0.49697586  1
  Ca2+  Ca23  1  0.57575703  0.84091545  0.83101125  1
  Ca2+  Ca24  1  0.32501709  0.42169806  0.17067385  1
  Ca2+  Ca25  1  0.33201823  0.42462096  0.50771968  1
  Ca2+  Ca26  1  0.32367051  0.40848277  0.83636679  1
  Ca2+  Ca27  1  0.33296061  0.91511076  0.16185656  1
  Ca2+  Ca28  1  0.33571880  0.91687656  0.50542212  1
  Ca2+  Ca29  1  0.33236222  0.92089848  0.84313733  1
  Ca2+  Ca30  1  0.83143166  0.42017494  0.16583169  1
  Ca2+  Ca31  1  0.82992953  0.41486802  0.50498603  1
  Ca2+  Ca32  1  0.82093373  0.42174304  0.84112767  1
  Ca2+  Ca33  1  0.83371390  0.91976234  0.16718535  1
  Ca2+  Ca34  1  0.82667652  0.91371774  0.50479348  1
  Ca2+  Ca35  1  0.81972832  0.92116483  0.84253856  1
  Ca2+  Ca36  1  0.42009351  0.16330673  0.16254428  1
  Ca2+  Ca37  1  0.42876011  0.17377310  0.50220479  1
  Ca2+  Ca38  1  0.42005920  0.17071370  0.82509817  1
  Ca2+  Ca39  1  0.42572718  0.66503236  0.15925033  1
  Ca2+  Ca40  1  0.41942057  0.66986032  0.49425956  1
  Ca2+  Ca41  1  0.41950192  0.67987754  0.83237037  1
  Ca2+  Ca42  1  0.91880994  0.17210688  0.15854762  1
  Ca2+  Ca43  1  0.92128622  0.17361622  0.49557762  1
  Ca2+  Ca44  1  0.92876597  0.15699197  0.83344758  1
  Ca2+  Ca45  1  0.91769614  0.66971824  0.16378695  1
  Ca2+  Ca46  1  0.92848867  0.66757155  0.49243748  1
  Ca2+  Ca47  1  0.91970131  0.66193815  0.83195828  1
  Al0+  Al48  1  0.00044493  -0.00037934  0.00298052  1
  Al0+  Al49  1  -0.00064073  0.00084585  0.33371161  1
  Al0+  Al50  1  0.00027080  -0.00107015  0.66012734  1
  Al0+  Al51  1  -0.00252266  0.49904859  0.00671075  1
  Al0+  Al52  1  -0.00100619  0.49870416  0.32643004  1
  Al0+  Al53  1  0.00212705  0.49962912  0.66694419  1
  Al0+  Al54  1  0.49982818  0.00044157  0.00544858  1
  Al0+  Al55  1  0.49966597  0.00083364  0.33132453  1
  Al0+  Al56  1  0.49924575  0.00063871  0.66161998  1
  Al0+  Al57  1  0.49915800  0.49880858  -0.00215123  1
  Al0+  Al58  1  0.49767736  0.49906089  0.33566600  1
  Al0+  Al59  1  0.49910464  0.50301383  0.66890059  1
  Al0+  Al60  1  0.24915581  0.24957252  0.00791696  1
  Al0+  Al61  1  0.25079839  0.24868514  0.33726936  1
  Al0+  Al62  1  0.25124392  0.25084919  0.65879945  1
  Al0+  Al63  1  0.25026928  0.74959292  -0.00143662  1
  Al0+  Al64  1  0.24986271  0.75063388  0.33543622  1
  Al0+  Al65  1  0.25062146  0.75050575  0.65771208  1
  Al0+  Al66  1  0.75003048  0.25167014  0.00529124  1
  Al0+  Al67  1  0.75113159  0.24820253  0.32522801  1
  Al0+  Al68  1  0.75313242  0.24979087  0.66964237  1
  Al0+  Al69  1  0.75164894  0.74817928  0.00142255  1
  Al0+  Al70  1  0.74939314  0.74958688  0.32875633  1
  Al0+  Al71  1  0.74954599  0.75183196  0.67278848  1
  Al0+  Al72  1  0.92987371  0.31952158  0.31877533  1
  Al0+  Al73  1  0.82205525  0.07055014  0.01541042  1
  Al0+  Al74  1  0.42853437  0.32448230  0.65184387  1
  Al0+  Al75  1  0.17842835  0.92593909  0.01350396  1
  Al0+  Al76  1  0.82075304  0.57130607  0.01679507  1
  Al0+  Al77  1  0.07213883  0.17751379  0.65308932  1
  Al0+  Al78  1  0.92832452  0.82168542  0.31751980  1
  Al0+  Al79  1  0.67775513  0.92884607  0.01706390  1
  Al0+  Al80  1  0.32165095  0.07198218  0.01471766  1
  Al0+  Al81  1  0.56896586  0.67773186  0.32173135  1
  Al0+  Al82  1  0.43031665  0.82136154  0.65163236  1
  Al0+  Al83  1  0.67533628  0.42924486  0.01719020  1
  Al0+  Al84  1  0.67833523  0.42839967  0.67827701  1
  Al0+  Al85  1  0.56996398  0.17929994  0.31776652  1
  Al0+  Al86  1  0.07240050  0.67927800  0.31598847  1
  Al0+  Al87  1  0.06945506  0.67806857  0.65439333  1
  Al0+  Al88  1  0.42963381  0.82173527  0.98510387  1
  Al0+  Al89  1  0.17907900  0.42808157  0.01395351  1
  Al0+  Al90  1  0.18111307  0.42976256  0.67954980  1
  Al0+  Al91  1  0.57349599  0.67708828  0.98238596  1
  Al0+  Al92  1  0.32050922  0.57092400  0.34754035  1
  Al0+  Al93  1  0.06961915  0.18091667  0.98775818  1
  Al0+  Al94  1  0.67792947  0.93084408  0.67922166  1
  Al0+  Al95  1  0.57324730  0.18045917  0.65458518  1
  Si0+  Si96  1  0.67909567  0.92885641  0.34862430  1
  Si0+  Si97  1  0.57393250  0.67889156  0.65088648  1
  Si0+  Si98  1  0.31867108  0.06996314  0.67866572  1
  Si0+  Si99  1  0.17820551  0.93047547  0.35103239  1
  Si0+  Si100  1  0.07442034  0.17754624  0.31591116  1
  Si0+  Si101  1  0.92619173  0.82185335  0.65115503  1
  Si0+  Si102  1  0.17851287  0.92813772  0.67798134  1
  Si0+  Si103  1  0.32005652  0.57189072  0.01412751  1
  Si0+  Si104  1  0.42738923  0.32179036  0.31621199  1
  Si0+  Si105  1  0.82268968  0.57189860  0.68118364  1
  Si0+  Si106  1  0.93017006  0.82178217  0.98374286  1
  Si0+  Si107  1  0.82074191  0.57143334  0.34916585  1
  Si0+  Si108  1  0.92688781  0.32344658  0.98064504  1
  Si0+  Si109  1  0.68007008  0.42764862  0.34826916  1
  Si0+  Si110  1  0.82043557  0.07203067  0.34992442  1
  Si0+  Si111  1  0.42788829  0.31999844  0.98725281  1
  Si0+  Si112  1  0.42766587  0.82310637  0.31618974  1
  Si0+  Si113  1  0.57204130  0.17986990  0.98615870  1
  Si0+  Si114  1  0.17572608  0.42774738  0.35118927  1
  Si0+  Si115  1  0.07100324  0.67733003  0.98510399  1
  Si0+  Si116  1  0.82524347  0.07225074  0.68229561  1
  Si0+  Si117  1  0.32206297  0.57599882  0.68498002  1
  Si0+  Si118  1  0.92946019  0.32202911  0.65256532  1
  Si0+  Si119  1  0.32304870  0.07103930  0.35279170  1
  O2-  O120  1  0.25157916  -0.00301718  0.06371060  1
  O2-  O121  1  0.25014759  0.00094179  0.39390890  1
  O2-  O122  1  0.24565208  0.00151739  0.72154101  1
  O2-  O123  1  0.25067166  0.50516867  0.06024750  1
  O2-  O124  1  0.24342223  0.49789913  0.39441279  1
  O2-  O125  1  0.25672771  0.50311226  0.72805044  1
  O2-  O126  1  0.74969384  0.00046596  0.06817822  1
  O2-  O127  1  0.75023343  -0.00007029  0.39199527  1
  O2-  O128  1  0.75288456  0.00636511  0.72427165  1
  O2-  O129  1  0.74513117  0.50320663  0.06748006  1
  O2-  O130  1  0.74967731  0.50010980  0.39156931  1
  O2-  O131  1  0.75071443  0.50592996  0.72374717  1
  O2-  O132  1  0.00874809  0.24892373  0.27280185  1
  O2-  O133  1  -0.00322705  0.25197178  0.60768378  1
  O2-  O134  1  -0.00489731  0.25389629  0.93713860  1
  O2-  O135  1  0.00075806  0.75121862  0.26558399  1
  O2-  O136  1  -0.00653953  0.75156713  0.60791567  1
  O2-  O137  1  0.00109499  0.74961010  0.94232406  1
  O2-  O138  1  0.49474128  0.25296965  0.27041174  1
  O2-  O139  1  0.50735563  0.25820652  0.60373443  1
  O2-  O140  1  0.50074855  0.25082591  0.94476341  1
  O2-  O141  1  0.49448252  0.75214941  0.27435900  1
  O2-  O142  1  0.50525594  0.74679138  0.60542523  1
  O2-  O143  1  0.50485812  0.75350077  0.93392961  1
  O2-  O144  1  0.06931999  0.18389648  0.10084571  1
  O2-  O145  1  0.07246205  0.17726305  0.42200427  1
  O2-  O146  1  0.07358067  0.17552722  0.76589384  1
  O2-  O147  1  0.07134779  0.67823693  0.08991205  1
  O2-  O148  1  0.06977111  0.67999771  0.43000713  1
  O2-  O149  1  0.06877802  0.67862825  0.76783326  1
  O2-  O150  1  0.57052865  0.18098282  0.09155635  1
  O2-  O151  1  0.57111396  0.18040558  0.43093960  1
  O2-  O152  1  0.56901312  0.17792380  0.76815200  1
  O2-  O153  1  0.56809100  0.67586733  0.09637112  1
  O2-  O154  1  0.57020076  0.67988044  0.43533140  1
  O2-  O155  1  0.57367381  0.67941915  0.75583026  1
  O2-  O156  1  0.17805802  0.42605780  0.24557335  1
  O2-  O157  1  0.17926344  0.43184030  0.56647717  1
  O2-  O158  1  0.18089444  0.42654420  0.90055807  1
  O2-  O159  1  0.17788678  0.93113202  0.24632081  1
  O2-  O160  1  0.17992383  0.92966155  0.57262502  1
  O2-  O161  1  0.17835455  0.92700903  0.89913726  1
  O2-  O162  1  0.68033829  0.42839084  0.24361350  1
  O2-  O163  1  0.68260763  0.42893217  0.56436368  1
  O2-  O164  1  0.67693754  0.42792797  0.90322968  1
  O2-  O165  1  0.67890259  0.93016887  0.24410943  1
  O2-  O166  1  0.68043783  0.92985798  0.56539971  1
  O2-  O167  1  0.67753273  0.93311317  0.90302307  1
  O2-  O168  1  0.42811138  0.31949890  0.09264128  1
  O2-  O169  1  0.42940925  0.32121934  0.42156580  1
  O2-  O170  1  0.42449834  0.31747901  0.76557534  1
  O2-  O171  1  0.42827334  0.81714692  0.09877688  1
  O2-  O172  1  0.43042820  0.82445829  0.42224377  1
  O2-  O173  1  0.42836385  0.82334381  0.76405134  1
  O2-  O174  1  0.92890321  0.32257830  0.08653214  1
  O2-  O175  1  0.92819917  0.31735038  0.43252938  1
  O2-  O176  1  0.93012721  0.32308132  0.75756232  1
  O2-  O177  1  0.93178706  0.82225511  0.08868676  1
  O2-  O178  1  0.92869965  0.81895471  0.43176975  1
  O2-  O179  1  0.92790327  0.82406279  0.75661306  1
  O2-  O180  1  0.32386503  0.07195937  0.24814922  1
  O2-  O181  1  0.31821261  0.06739148  0.57315584  1
  O2-  O182  1  0.32016267  0.07481693  0.90054096  1
  O2-  O183  1  0.32090220  0.56725976  0.23427731  1
  O2-  O184  1  0.31955584  0.57640556  0.57906246  1
  O2-  O185  1  0.31720574  0.57169695  0.90858084  1
  O2-  O186  1  0.82050570  0.07221725  0.24534029  1
  O2-  O187  1  0.82678555  0.07135693  0.57627261  1
  O2-  O188  1  0.82238302  0.06705947  0.90134884  1
  O2-  O189  1  0.81991473  0.57158804  0.24469616  1
  O2-  O190  1  0.82304526  0.57189231  0.57509932  1
  O2-  O191  1  0.82412035  0.56640692  0.90267190  1
  O2-  O192  1  0.04618507  0.08469414  0.27133498  1
  O2-  O193  1  0.04221499  0.08175360  0.59531763  1
  O2-  O194  1  0.04033133  0.08291471  0.93464474  1
  O2-  O195  1  0.04644452  0.58026400  0.26484540  1
  O2-  O196  1  0.03919793  0.58230249  0.59819719  1
  O2-  O197  1  0.03935579  0.58537813  0.93948151  1
  O2-  O198  1  0.53770871  0.08312587  0.26418900  1
  O2-  O199  1  0.53763525  0.08622928  0.59717361  1
  O2-  O200  1  0.54422511  0.08748298  0.94098130  1
  O2-  O201  1  0.53796715  0.58086054  0.26860042  1
  O2-  O202  1  0.54902763  0.58522126  0.60458265  1
  O2-  O203  1  0.54066977  0.57929326  0.92976785  1
  O2-  O204  1  0.17047605  0.19878649  0.27341826  1
  O2-  O205  1  0.16597286  0.20939989  0.59489618  1
  O2-  O206  1  0.16742253  0.21298326  0.93631084  1
  O2-  O207  1  0.17142728  0.70884212  0.26549412  1
  O2-  O208  1  0.16362057  0.71059996  0.59703581  1
  O2-  O209  1  0.16279238  0.70271090  0.93692032  1
  O2-  O210  1  0.66538848  0.20896562  0.26260893  1
  O2-  O211  1  0.67430307  0.20284896  0.60291134  1
  O2-  O212  1  0.66436917  0.20715229  0.93985977  1
  O2-  O213  1  0.66483352  0.70727033  0.26704639  1
  O2-  O214  1  0.66845186  0.70479382  0.60584764  1
  O2-  O215  1  0.67500204  0.69876834  0.93350916  1
  O2-  O216  1  0.08262471  0.45646431  0.06777257  1
  O2-  O217  1  0.08064252  0.45204305  0.39483489  1
  O2-  O218  1  0.08486841  0.46082024  0.73463978  1
  O2-  O219  1  0.08248872  0.95664758  0.06888397  1
  O2-  O220  1  0.08651927  0.95940310  0.39932272  1
  O2-  O221  1  0.08423354  0.95095566  0.72269096  1
  O2-  O222  1  0.57541802  0.45402006  0.06902331  1
  O2-  O223  1  0.58729391  0.45285552  0.39489796  1
  O2-  O224  1  0.58066911  0.45577185  0.73192107  1
  O2-  O225  1  0.58079390  0.95698090  0.07196409  1
  O2-  O226  1  0.58659027  0.95795237  0.39492472  1
  O2-  O227  1  0.58116566  0.96352426  0.73150397  1
  O2-  O228  1  0.21264602  0.33566985  0.07302883  1
  O2-  O229  1  0.20169898  0.33335063  0.39685782  1
  O2-  O230  1  0.21246450  0.33135653  0.73039380  1
  O2-  O231  1  0.20624055  0.82781518  0.06784936  1
  O2-  O232  1  0.20526435  0.83841390  0.39870027  1
  O2-  O233  1  0.20836862  0.83649560  0.72369862  1
  O2-  O234  1  0.70569619  0.33212801  0.07133738  1
  O2-  O235  1  0.71245326  0.33562658  0.39315111  1
  O2-  O236  1  0.70989024  0.33263395  0.73388156  1
  O2-  O237  1  0.70592766  0.82954242  0.06603417  1
  O2-  O238  1  0.70747807  0.83672523  0.39578724  1
  O2-  O239  1  0.70718175  0.83517908  0.73608570  1
  O2-  O240  1  0.45295626  0.41481997  0.27007249  1
  O2-  O241  1  0.44938135  0.42621483  0.60244758  1
  O2-  O242  1  0.45164712  0.41153172  0.93776890  1
  O2-  O243  1  0.45376379  0.91620370  0.27045426  1
  O2-  O244  1  0.46141260  0.91634491  0.59431279  1
  O2-  O245  1  0.45536931  0.92271090  0.93505802  1
  O2-  O246  1  0.95571610  0.41591806  0.26267250  1
  O2-  O247  1  0.95666466  0.41419388  0.60394878  1
  O2-  O248  1  0.95358211  0.41748636  0.93683784  1
  O2-  O249  1  0.95608770  0.92150206  0.26738361  1
  O2-  O250  1  0.95247663  0.91345350  0.60087261  1
  O2-  O251  1  0.95869855  0.91275068  0.93557389  1
  O2-  O252  1  0.33246823  0.29577989  0.27262891  1
  O2-  O253  1  0.33493232  0.29004964  0.59279184  1
  O2-  O254  1  0.33653739  0.28903505  0.94128092  1
  O2-  O255  1  0.33239141  0.80106232  0.27378330  1
  O2-  O256  1  0.33511421  0.79127127  0.59363309  1
  O2-  O257  1  0.33126431  0.79152150  0.93103640  1
  O2-  O258  1  0.83649267  0.28575450  0.26142486  1
  O2-  O259  1  0.83645699  0.29670872  0.60461929  1
  O2-  O260  1  0.83172455  0.29882857  0.93759498  1
  O2-  O261  1  0.83069145  0.79372511  0.26420740  1
  O2-  O262  1  0.83170143  0.79742365  0.60609458  1
  O2-  O263  1  0.83846198  0.79392381  0.93629227  1
  O2-  O264  1  0.41869562  0.04563236  0.07067499  1
  O2-  O265  1  0.41442995  0.04065299  0.40038392  1
  O2-  O266  1  0.41001037  0.04063635  0.72511882  1
  O2-  O267  1  0.41286345  0.54374060  0.05949681  1
  O2-  O268  1  0.41559210  0.53783808  0.40491227  1
  O2-  O269  1  0.41716578  0.55673181  0.72983361  1
  O2-  O270  1  0.91900127  0.04123347  0.07031526  1
  O2-  O271  1  0.91327753  0.04639582  0.39775097  1
  O2-  O272  1  0.91825731  0.04176517  0.72772144  1
  O2-  O273  1  0.91659409  0.53968851  0.07380809  1
  O2-  O274  1  0.91330251  0.54149192  0.39474772  1
  O2-  O275  1  0.91474800  0.54301982  0.72826618  1
  O2-  O276  1  0.28935539  0.16631371  0.07373460  1
  O2-  O277  1  0.29656093  0.16341757  0.40092980  1
  O2-  O278  1  0.29278874  0.16294601  0.72336736  1
  O2-  O279  1  0.29569442  0.66474732  0.06157704  1
  O2-  O280  1  0.29326338  0.66902198  0.40178234  1
  O2-  O281  1  0.29130408  0.66905299  0.72891409  1
  O2-  O282  1  0.79623095  0.16966193  0.06727603  1
  O2-  O283  1  0.79015860  0.16365067  0.39674517  1
  O2-  O284  1  0.80630589  0.16665890  0.72869667  1
  O2-  O285  1  0.79976635  0.67106261  0.06908447  1
  O2-  O286  1  0.79275509  0.66338079  0.39672255  1
  O2-  O287  1  0.80180403  0.66622592  0.72801974  1
