# generated using pymatgen
data_Ca2Al2SiO7
_symmetry_space_group_name_H-M   'P 1'
_cell_length_a   15.45821164
_cell_length_b   15.45801401
_cell_length_c   15.28331816
_cell_angle_alpha   89.98744312
_cell_angle_beta   89.99996635
_cell_angle_gamma   89.99293237
_symmetry_Int_Tables_number   1
_chemical_formula_structural   Ca2Al2SiO7
_chemical_formula_sum   'Ca48 Al48 Si24 O168'
_cell_volume   3651.99846469
_cell_formula_units_Z   24
loop_
 _symmetry_equiv_pos_site_id
 _symmetry_equiv_pos_as_xyz
  1  'x, y, z'
loop_
 _atom_type_symbol
 _atom_type_oxidation_number
  Ca2+  2.0
  Al0+  0.0
  Si0+  0.0
  O2-  -2.0
loop_
 _atom_site_type_symbol
 _atom_site_label
 _atom_site_symmetry_multiplicity
 _atom_site_fract_x
 _atom_site_fract_y
 _atom_site_fract_z
 _atom_site_occupancy
  Ca2+  Ca0  1  0.17776501  0.08742563  0.17373706  1
  Ca2+  Ca1  1  0.17443272  0.08074990  0.50401761  1
  Ca2+  Ca2  1  0.17708781  0.07731400  0.83626496  1
  Ca2+  Ca3  1  0.16365682  0.57353774  0.17180016  1
  Ca2+  Ca4  1  0.16631875  0.58150007  0.50649033  1
  Ca2+  Ca5  1  0.17681005  0.58539739  0.83888728  1
  Ca2+  Ca6  1  0.67315372  0.08532692  0.17082545  1
  Ca2+  Ca7  1  0.66787987  0.07853156  0.51121176  1
  Ca2+  Ca8  1  0.67134385  0.07944097  0.83436444  1
  Ca2+  Ca9  1  0.66357290  0.58877654  0.17102940  1
  Ca2+  Ca10  1  0.66281933  0.58619000  0.50427854  1
  Ca2+  Ca11  1  0.66226443  0.58626364  0.83751250  1
  Ca2+  Ca12  1  0.08875720  0.33080787  0.16319075  1
  Ca2+  Ca13  1  0.08596219  0.32690417  0.49130688  1
  Ca2+  Ca14  1  0.07997273  0.33862524  0.83598496  1
  Ca2+  Ca15  1  0.07384983  0.83427138  0.16335242  1
  Ca2+  Ca16  1  0.08553183  0.82703631  0.49539020  1
  Ca2+  Ca17  1  0.08195798  0.83543996  0.82681370  1
  Ca2+  Ca18  1  0.57388393  0.32924653  0.16861754  1
  Ca2+  Ca19  1  0.57411105  0.31811113  0.49404628  1
  Ca2+  Ca20  1  0.58034774  0.32398052  0.82569496  1
  Ca2+  Ca21  1  0.57709497  0.82327251  0.15965141  1
  Ca2+  Ca22  1  0.58710805  0.82693583  0.49751154  1
  Ca2+  Ca23  1  0.57829732  0.82667224  0.83033374  1
  Ca2+  Ca24  1  0.32503833  0.41920016  0.17198009  1
  Ca2+  Ca25  1  0.33156617  0.41880249  0.49998242  1
  Ca2+  Ca26  1  0.32999725  0.43052884  0.84101617  1
  Ca2+  Ca27  1  0.34259157  0.92591882  0.16775690  1
  Ca2+  Ca28  1  0.32983193  0.92778881  0.50818292  1
  Ca2+  Ca29  1  0.33391675  0.92178409  0.83669444  1
  Ca2+  Ca30  1  0.83392418  0.41617732  0.16818359  1
  Ca2+  Ca31  1  0.83024573  0.41963207  0.50332755  1
  Ca2+  Ca32  1  0.83162817  0.41716411  0.84117862  1
  Ca2+  Ca33  1  0.83756590  0.91467772  0.16868090  1
  Ca2+  Ca34  1  0.82914046  0.92031183  0.50802428  1
  Ca2+  Ca35  1  0.82993651  0.92402847  0.83781445  1
  Ca2+  Ca36  1  0.41370593  0.16641573  0.16590466  1
  Ca2+  Ca37  1  0.42072291  0.16294163  0.49149364  1
  Ca2+  Ca38  1  0.41647758  0.16311733  0.82718964  1
  Ca2+  Ca39  1  0.42467047  0.66721245  0.15675480  1
  Ca2+  Ca40  1  0.42344167  0.66447081  0.49802091  1
  Ca2+  Ca41  1  0.41931777  0.66481151  0.82787826  1
  Ca2+  Ca42  1  0.92635457  0.16847980  0.15830298  1
  Ca2+  Ca43  1  0.92276859  0.16305441  0.49577111  1
  Ca2+  Ca44  1  0.90793865  0.16963853  0.83174061  1
  Ca2+  Ca45  1  0.92090804  0.67859964  0.16486163  1
  Ca2+  Ca46  1  0.93001218  0.67522517  0.49281540  1
  Ca2+  Ca47  1  0.92520294  0.67459083  0.82880999  1
  Al0+  Al48  1  0.00054378  0.00133569  -0.00177864  1
  Al0+  Al49  1  0.00078328  0.00190874  0.32619905  1
  Al0+  Al50  1  -0.00084115  0.00341197  0.67397384  1
  Al0+  Al51  1  -0.00221059  0.49865336  -0.00017610  1
  Al0+  Al52  1  -0.00097943  0.50111170  0.33663165  1
  Al0+  Al53  1  -0.00236716  0.50109664  0.66223939  1
  Al0+  Al54  1  0.50202884  -0.00283537  0.00104748  1
  Al0+  Al55  1  0.50390886  -0.00095542  0.33438743  1
  Al0+  Al56  1  0.50197886  -0.00149225  0.67026473  1
  Al0+  Al57  1  0.50034698  0.49663367  0.00064413  1
  Al0+  Al58  1  0.50021241  0.49763821  0.32731206  1
  Al0+  Al59  1  0.49905395  0.49871345  0.66574918  1
  Al0+  Al60  1  0.25060664  0.24893834  0.00407541  1
  Al0+  Al61  1  0.24982482  0.25192676  0.33539327  1
  Al0+  Al62  1  0.24664660  0.25224604  0.67085381  1
  Al0+  Al63  1  0.25149012  0.75120156  0.00264808  1
  Al0+  Al64  1  0.25073055  0.74965319  0.32856615  1
  Al0+  Al65  1  0.25022394  0.74914913  0.66857080  1
  Al0+  Al66  1  0.75159675  0.24963763  0.00191520  1
  Al0+  Al67  1  0.74876052  0.25080016  0.33301110  1
  Al0+  Al68  1  0.74762206  0.25186579  0.66385896  1
  Al0+  Al69  1  0.75133500  0.74966398  -0.00801507  1
  Al0+  Al70  1  0.75025438  0.75049571  0.32748460  1
  Al0+  Al71  1  0.75038711  0.74967881  0.66729902  1
  Al0+  Al72  1  0.07059569  0.18094376  0.32080144  1
  Al0+  Al73  1  0.07239798  0.68016658  0.65382500  1
  Al0+  Al74  1  0.17832841  0.43121666  0.34961154  1
  Al0+  Al75  1  0.56920483  0.67939715  0.32039935  1
  Al0+  Al76  1  0.56933927  0.67648935  0.98302294  1
  Al0+  Al77  1  0.93018928  0.82160673  0.31960181  1
  Al0+  Al78  1  0.32203147  0.07305673  0.68075333  1
  Al0+  Al79  1  0.17801114  0.43121873  0.01530433  1
  Al0+  Al80  1  0.17903998  0.92818419  0.68013062  1
  Al0+  Al81  1  0.32168458  0.06954495  0.34723169  1
  Al0+  Al82  1  0.93069736  0.82297881  0.98257070  1
  Al0+  Al83  1  0.67896386  0.92503378  0.68325411  1
  Al0+  Al84  1  0.57066472  0.67834616  0.65181194  1
  Al0+  Al85  1  0.92943536  0.31973745  0.98676669  1
  Al0+  Al86  1  0.32088387  0.56857256  0.67820658  1
  Al0+  Al87  1  0.57242402  0.17551886  0.31738477  1
  Al0+  Al88  1  0.82036418  0.07129900  0.01612601  1
  Al0+  Al89  1  0.07380868  0.67677931  0.31748053  1
  Al0+  Al90  1  0.32241862  0.06849454  0.01504378  1
  Al0+  Al91  1  0.32324281  0.57284784  0.01700120  1
  Al0+  Al92  1  0.42761369  0.82224781  0.98362394  1
  Al0+  Al93  1  0.82019127  0.07347781  0.68123691  1
  Al0+  Al94  1  0.56909928  0.17763856  0.65463362  1
  Al0+  Al95  1  0.42805543  0.31880053  0.31777510  1
  Si0+  Si96  1  0.17341861  0.42854353  0.68379329  1
  Si0+  Si97  1  0.92635501  0.32308378  0.31850611  1
  Si0+  Si98  1  0.57206059  0.17961256  0.98574512  1
  Si0+  Si99  1  0.81858757  0.57238286  0.34875735  1
  Si0+  Si100  1  0.07051757  0.18001553  0.65312497  1
  Si0+  Si101  1  0.32417561  0.57279033  0.34939980  1
  Si0+  Si102  1  0.92931706  0.82421846  0.65154330  1
  Si0+  Si103  1  0.42778042  0.82335079  0.31881784  1
  Si0+  Si104  1  0.67938311  0.42721844  0.01572271  1
  Si0+  Si105  1  0.68101934  0.92654606  0.01873789  1
  Si0+  Si106  1  0.17606394  0.92785985  0.34749098  1
  Si0+  Si107  1  0.68201975  0.92799649  0.34731087  1
  Si0+  Si108  1  0.42772234  0.31845593  0.98406196  1
  Si0+  Si109  1  0.67755936  0.42859943  0.34963793  1
  Si0+  Si110  1  0.82239587  0.07237657  0.34699340  1
  Si0+  Si111  1  0.42602393  0.32125469  0.65198986  1
  Si0+  Si112  1  0.92731350  0.32199475  0.65015786  1
  Si0+  Si113  1  0.17657425  0.92759371  0.01811845  1
  Si0+  Si114  1  0.07098228  0.67728289  0.98437928  1
  Si0+  Si115  1  0.82184862  0.57029660  0.68142675  1
  Si0+  Si116  1  0.07450563  0.17899023  0.98090200  1
  Si0+  Si117  1  0.42780187  0.82190171  0.64909173  1
  Si0+  Si118  1  0.81955794  0.57144473  0.01435123  1
  Si0+  Si119  1  0.67968913  0.43079105  0.68072103  1
  O2-  O120  1  0.24819129  -0.00659094  0.06216841  1
  O2-  O121  1  0.24808463  -0.00717399  0.39220808  1
  O2-  O122  1  0.25238886  -0.00124067  0.73041322  1
  O2-  O123  1  0.24793092  0.50419260  0.06669097  1
  O2-  O124  1  0.25078677  0.50930325  0.39471403  1
  O2-  O125  1  0.24336206  0.49667683  0.72541673  1
  O2-  O126  1  0.74978319  -0.00579065  0.06513865  1
  O2-  O127  1  0.75103491  0.00179912  0.38892042  1
  O2-  O128  1  0.74977237  -0.00010942  0.73097284  1
  O2-  O129  1  0.74567934  0.50328662  0.05707024  1
  O2-  O130  1  0.74811914  0.50051262  0.39189223  1
  O2-  O131  1  0.74861121  0.50243233  0.72500732  1
  O2-  O132  1  -0.00454473  0.25566234  0.27447141  1
  O2-  O133  1  -0.00112422  0.25103275  0.61016222  1
  O2-  O134  1  0.00392743  0.24676983  0.93730577  1
  O2-  O135  1  0.00451211  0.75203445  0.26912754  1
  O2-  O136  1  0.00097151  0.75871326  0.60743080  1
  O2-  O137  1  0.00878933  0.75091185  0.93786517  1
  O2-  O138  1  0.49738912  0.24389583  0.26714020  1
  O2-  O139  1  0.48690463  0.24490351  0.60887748  1
  O2-  O140  1  0.49774759  0.24638996  0.94199395  1
  O2-  O141  1  0.49055857  0.74904641  0.27484553  1
  O2-  O142  1  0.49792932  0.75418777  0.60432216  1
  O2-  O143  1  0.49419248  0.74492652  0.93339547  1
  O2-  O144  1  0.07421341  0.18060109  0.08671221  1
  O2-  O145  1  0.06768640  0.17998849  0.43453275  1
  O2-  O146  1  0.07162500  0.18248572  0.75784513  1
  O2-  O147  1  0.06485203  0.67561588  0.08970143  1
  O2-  O148  1  0.07082034  0.67713387  0.43145920  1
  O2-  O149  1  0.06800390  0.67685574  0.76676755  1
  O2-  O150  1  0.57314979  0.18314199  0.09068495  1
  O2-  O151  1  0.57457977  0.17716908  0.43107275  1
  O2-  O152  1  0.57293180  0.18383960  0.76801783  1
  O2-  O153  1  0.57143755  0.67875487  0.09686752  1
  O2-  O154  1  0.57113590  0.68113926  0.43361059  1
  O2-  O155  1  0.56835174  0.67542206  0.76403966  1
  O2-  O156  1  0.17755843  0.43093392  0.23698410  1
  O2-  O157  1  0.17213143  0.42741905  0.57822803  1
  O2-  O158  1  0.17882146  0.43318264  0.90119661  1
  O2-  O159  1  0.17408136  0.93085139  0.24214075  1
  O2-  O160  1  0.17887043  0.93033910  0.56602799  1
  O2-  O161  1  0.17512994  0.93064358  0.91250212  1
  O2-  O162  1  0.67968883  0.42747289  0.24450880  1
  O2-  O163  1  0.68253295  0.43077203  0.57552557  1
  O2-  O164  1  0.68126915  0.42465120  0.91024894  1
  O2-  O165  1  0.68321695  0.92632063  0.24243123  1
  O2-  O166  1  0.68277020  0.92401335  0.56876453  1
  O2-  O167  1  0.68165172  0.92848494  0.91338542  1
  O2-  O168  1  0.42909852  0.31842372  0.08885930  1
  O2-  O169  1  0.43156112  0.31964936  0.43178533  1
  O2-  O170  1  0.43067378  0.32389305  0.75781639  1
  O2-  O171  1  0.43449171  0.82494929  0.09749483  1
  O2-  O172  1  0.42989558  0.82470373  0.42442757  1
  O2-  O173  1  0.42763609  0.82020115  0.75435929  1
  O2-  O174  1  0.92737657  0.31825209  0.09956741  1
  O2-  O175  1  0.92455816  0.32133674  0.42460179  1
  O2-  O176  1  0.92592062  0.32479276  0.75506302  1
  O2-  O177  1  0.92996172  0.81984991  0.09564705  1
  O2-  O178  1  0.92857708  0.82059162  0.43335578  1
  O2-  O179  1  0.92963179  0.82077069  0.75706620  1
  O2-  O180  1  0.32097682  0.06781986  0.23409981  1
  O2-  O181  1  0.31915572  0.07347751  0.56692917  1
  O2-  O182  1  0.32078795  0.07030535  0.90215916  1
  O2-  O183  1  0.32616783  0.56926237  0.24436342  1
  O2-  O184  1  0.32271474  0.56520106  0.56505227  1
  O2-  O185  1  0.32364778  0.56893418  0.90294175  1
  O2-  O186  1  0.82146451  0.07308618  0.24206176  1
  O2-  O187  1  0.82084663  0.07333630  0.56693635  1
  O2-  O188  1  0.81448626  0.07408444  0.90347563  1
  O2-  O189  1  0.81730787  0.57145541  0.24354842  1
  O2-  O190  1  0.82270087  0.56725381  0.57615796  1
  O2-  O191  1  0.82057918  0.56843193  0.90890719  1
  O2-  O192  1  0.04074694  0.08681382  0.26247970  1
  O2-  O193  1  0.04201169  0.08832326  0.60577790  1
  O2-  O194  1  0.04964651  0.08534984  0.93604981  1
  O2-  O195  1  0.03804343  0.57995441  0.26610841  1
  O2-  O196  1  0.03589929  0.58533246  0.59807639  1
  O2-  O197  1  0.03863488  0.58628719  0.93695626  1
  O2-  O198  1  0.55035503  0.07581843  0.26518794  1
  O2-  O199  1  0.54791972  0.07821659  0.60237521  1
  O2-  O200  1  0.54899188  0.08570966  0.94164872  1
  O2-  O201  1  0.54567877  0.58145072  0.26648292  1
  O2-  O202  1  0.53939767  0.58097049  0.59804347  1
  O2-  O203  1  0.54689250  0.57458273  0.93348202  1
  O2-  O204  1  0.16587334  0.21326952  0.26696735  1
  O2-  O205  1  0.16173673  0.20913709  0.60436091  1
  O2-  O206  1  0.16734617  0.20723846  0.93472423  1
  O2-  O207  1  0.17358631  0.69790020  0.26488094  1
  O2-  O208  1  0.16975260  0.70597923  0.59914130  1
  O2-  O209  1  0.16786300  0.69669710  0.94374384  1
  O2-  O210  1  0.66954869  0.20993578  0.26464085  1
  O2-  O211  1  0.66233143  0.21690815  0.59808358  1
  O2-  O212  1  0.66159976  0.21366545  0.93817314  1
  O2-  O213  1  0.66408229  0.71238649  0.26477405  1
  O2-  O214  1  0.66982212  0.70559704  0.59965331  1
  O2-  O215  1  0.66773632  0.70564020  0.93036076  1
  O2-  O216  1  0.07759123  0.45589159  0.06716234  1
  O2-  O217  1  0.07966742  0.45742990  0.40399491  1
  O2-  O218  1  0.07915266  0.45522944  0.72816064  1
  O2-  O219  1  0.08375475  0.95645890  0.06407020  1
  O2-  O220  1  0.08351274  0.95765689  0.39400793  1
  O2-  O221  1  0.08218369  0.95854761  0.73526599  1
  O2-  O222  1  0.58663993  0.44973384  0.06317714  1
  O2-  O223  1  0.58577301  0.45630889  0.39659273  1
  O2-  O224  1  0.58771448  0.45601886  0.72838575  1
  O2-  O225  1  0.58809468  0.95303434  0.06512707  1
  O2-  O226  1  0.59048107  0.95277808  0.39658954  1
  O2-  O227  1  0.58087695  0.95125183  0.73649891  1
  O2-  O228  1  0.20792280  0.33254268  0.06654722  1
  O2-  O229  1  0.21166679  0.33587817  0.40511746  1
  O2-  O230  1  0.19597138  0.33532951  0.73145938  1
  O2-  O231  1  0.19604194  0.83247821  0.06317338  1
  O2-  O232  1  0.19764267  0.83160484  0.39062154  1
  O2-  O233  1  0.20375479  0.82957302  0.73379855  1
  O2-  O234  1  0.71345818  0.33909504  0.06583118  1
  O2-  O235  1  0.70725223  0.33756567  0.39894400  1
  O2-  O236  1  0.70996821  0.34047959  0.72941847  1
  O2-  O237  1  0.70831823  0.83180241  0.06185537  1
  O2-  O238  1  0.71276314  0.83689165  0.39532534  1
  O2-  O239  1  0.70865913  0.82743636  0.73720985  1
  O2-  O240  1  0.46210176  0.41412066  0.26176184  1
  O2-  O241  1  0.46071573  0.41019798  0.60249831  1
  O2-  O242  1  0.45848869  0.40912964  0.93624219  1
  O2-  O243  1  0.46178409  0.91322940  0.27074932  1
  O2-  O244  1  0.45322359  0.91603414  0.60413500  1
  O2-  O245  1  0.46244543  0.91890048  0.92954500  1
  O2-  O246  1  0.94885927  0.41791118  0.27487941  1
  O2-  O247  1  0.95414735  0.41320932  0.60045768  1
  O2-  O248  1  0.95712677  0.41689805  0.93070085  1
  O2-  O249  1  0.95512167  0.91956792  0.26423931  1
  O2-  O250  1  0.95003412  0.92053686  0.60920906  1
  O2-  O251  1  0.95795015  0.92103909  0.92982923  1
  O2-  O252  1  0.32954520  0.29385840  0.26549655  1
  O2-  O253  1  0.32861874  0.30527718  0.61017895  1
  O2-  O254  1  0.33592697  0.29161022  0.93669588  1
  O2-  O255  1  0.33265453  0.80695173  0.27275895  1
  O2-  O256  1  0.33492320  0.79505556  0.60256989  1
  O2-  O257  1  0.32561529  0.80277411  0.93424256  1
  O2-  O258  1  0.83272908  0.29901768  0.27229379  1
  O2-  O259  1  0.83592961  0.29508727  0.60109646  1
  O2-  O260  1  0.83277987  0.28838928  0.93156419  1
  O2-  O261  1  0.83465110  0.78817811  0.26318370  1
  O2-  O262  1  0.83722960  0.79396504  0.60520924  1
  O2-  O263  1  0.83630114  0.78846417  0.92744518  1
  O2-  O264  1  0.42021165  0.03924004  0.06839682  1
  O2-  O265  1  0.42000869  0.03962971  0.39951819  1
  O2-  O266  1  0.42116961  0.04791509  0.73242392  1
  O2-  O267  1  0.42100135  0.53863181  0.06859357  1
  O2-  O268  1  0.41684223  0.54082550  0.39522016  1
  O2-  O269  1  0.41584320  0.53382320  0.73391191  1
  O2-  O270  1  0.91995638  0.04494472  0.06599346  1
  O2-  O271  1  0.91465119  0.04410264  0.39344760  1
  O2-  O272  1  0.91824231  0.05070294  0.73676220  1
  O2-  O273  1  0.90888484  0.53949535  0.06345743  1
  O2-  O274  1  0.90940348  0.54456622  0.39834751  1
  O2-  O275  1  0.91168232  0.53831949  0.73024508  1
  O2-  O276  1  0.29071462  0.16487879  0.06894284  1
  O2-  O277  1  0.28979821  0.16586139  0.40012463  1
  O2-  O278  1  0.29182228  0.17131443  0.73426344  1
  O2-  O279  1  0.30271199  0.67384989  0.06741583  1
  O2-  O280  1  0.30551338  0.66963471  0.39221304  1
  O2-  O281  1  0.29345895  0.66527482  0.73247352  1
  O2-  O282  1  0.78728654  0.16698493  0.07115049  1
  O2-  O283  1  0.79671394  0.16521964  0.39412911  1
  O2-  O284  1  0.78928021  0.17271794  0.73215573  1
  O2-  O285  1  0.79341941  0.66418876  0.06043444  1
  O2-  O286  1  0.78852540  0.66361315  0.39590166  1
  O2-  O287  1  0.79768785  0.66260567  0.72828872  1
