# generated using pymatgen
data_Ca2Al2SiO7
_symmetry_space_group_name_H-M   'P 1'
_cell_length_a   15.46307742
_cell_length_b   15.46078945
_cell_length_c   15.28642053
_cell_angle_alpha   89.99903612
_cell_angle_beta   89.99551010
_cell_angle_gamma   89.97670421
_symmetry_Int_Tables_number   1
_chemical_formula_structural   Ca2Al2SiO7
_chemical_formula_sum   'Ca48 Al48 Si24 O168'
_cell_volume   3654.54540341
_cell_formula_units_Z   24
loop_
 _symmetry_equiv_pos_site_id
 _symmetry_equiv_pos_as_xyz
  1  'x, y, z'
loop_
 _atom_type_symbol
 _atom_type_oxidation_number
  Ca2+  2.0
  Al0+  0.0
  Si0+  0.0
  O2-  -2.0
loop_
 _atom_site_type_symbol
 _atom_site_label
 _atom_site_symmetry_multiplicity
 _atom_site_fract_x
 _atom_site_fract_y
 _atom_site_fract_z
 _atom_site_occupancy
  Ca2+  Ca0  1  0.16698859  0.08009936  0.16812348  1
  Ca2+  Ca1  1  0.17377224  0.07931116  0.50917741  1
  Ca2+  Ca2  1  0.16423094  0.07595114  0.83412574  1
  Ca2+  Ca3  1  0.17170621  0.57936427  0.16713034  1
  Ca2+  Ca4  1  0.15988264  0.58202034  0.50611222  1
  Ca2+  Ca5  1  0.17257429  0.57700555  0.84426420  1
  Ca2+  Ca6  1  0.67379768  0.08286604  0.17531867  1
  Ca2+  Ca7  1  0.67668254  0.07827205  0.50615375  1
  Ca2+  Ca8  1  0.66246992  0.07544836  0.83370454  1
  Ca2+  Ca9  1  0.66215633  0.58531575  0.17020066  1
  Ca2+  Ca10  1  0.67118332  0.58981107  0.50805401  1
  Ca2+  Ca11  1  0.67029279  0.59361067  0.83454162  1
  Ca2+  Ca12  1  0.07471520  0.32729922  0.15692822  1
  Ca2+  Ca13  1  0.07765124  0.32518522  0.49631180  1
  Ca2+  Ca14  1  0.09309783  0.32126913  0.83233587  1
  Ca2+  Ca15  1  0.08196070  0.83476529  0.16461342  1
  Ca2+  Ca16  1  0.08633993  0.82324083  0.49723656  1
  Ca2+  Ca17  1  0.08951279  0.83006959  0.82510690  1
  Ca2+  Ca18  1  0.57111051  0.33131287  0.16273306  1
  Ca2+  Ca19  1  0.57084113  0.33312082  0.49687966  1
  Ca2+  Ca20  1  0.57024693  0.33240160  0.82988210  1
  Ca2+  Ca21  1  0.57677462  0.82301918  0.15946091  1
  Ca2+  Ca22  1  0.58902573  0.82670547  0.50029658  1
  Ca2+  Ca23  1  0.57161891  0.82789186  0.82612739  1
  Ca2+  Ca24  1  0.33328641  0.41599825  0.16663973  1
  Ca2+  Ca25  1  0.33665995  0.41629797  0.50422233  1
  Ca2+  Ca26  1  0.33305078  0.42127300  0.84310074  1
  Ca2+  Ca27  1  0.32940555  0.91852827  0.16935375  1
  Ca2+  Ca28  1  0.33207239  0.92790140  0.51199909  1
  Ca2+  Ca29  1  0.32534814  0.91173431  0.83767956  1
  Ca2+  Ca30  1  0.83448251  0.41216992  0.17273343  1
  Ca2+  Ca31  1  0.83363972  0.42278602  0.50590103  1
  Ca2+  Ca32  1  0.83490064  0.42235640  0.83759279  1
  Ca2+  Ca33  1  0.83444102  0.92245172  0.17612479  1
  Ca2+  Ca34  1  0.83164006  0.91413474  0.50308085  1
  Ca2+  Ca35  1  0.82353402  0.91222685  0.83497575  1
  Ca2+  Ca36  1  0.40553888  0.17543322  0.16616347  1
  Ca2+  Ca37  1  0.40527399  0.17382455  0.49731788  1
  Ca2+  Ca38  1  0.40032131  0.17984559  0.82869000  1
  Ca2+  Ca39  1  0.42590161  0.66715609  0.15548330  1
  Ca2+  Ca40  1  0.42640637  0.67696444  0.49792863  1
  Ca2+  Ca41  1  0.41818836  0.67524083  0.82822993  1
  Ca2+  Ca42  1  0.91710698  0.17420048  0.15797438  1
  Ca2+  Ca43  1  0.92183946  0.16566236  0.49354297  1
  Ca2+  Ca44  1  0.92936730  0.17231158  0.83188979  1
  Ca2+  Ca45  1  0.92332071  0.67224125  0.16925958  1
  Ca2+  Ca46  1  0.92535709  0.66981210  0.49604420  1
  Ca2+  Ca47  1  0.92419469  0.66479864  0.82488223  1
  Al0+  Al48  1  -0.00094287  0.00083179  0.00026016  1
  Al0+  Al49  1  0.00060521  -0.00162344  0.33609594  1
  Al0+  Al50  1  0.00067453  0.00152702  0.66595345  1
  Al0+  Al51  1  -0.00192615  0.50154062  0.00316857  1
  Al0+  Al52  1  0.00001245  0.49895525  0.32674405  1
  Al0+  Al53  1  -0.00096447  0.50031444  0.66898417  1
  Al0+  Al54  1  0.49982476  -0.00174452  0.00063024  1
  Al0+  Al55  1  0.50045847  0.00003173  0.33903860  1
  Al0+  Al56  1  0.50141160  0.00531819  0.67272580  1
  Al0+  Al57  1  0.50446960  0.49853472  -0.00373284  1
  Al0+  Al58  1  0.49909679  0.49853463  0.32724487  1
  Al0+  Al59  1  0.50067756  0.49959656  0.65936101  1
  Al0+  Al60  1  0.24787411  0.24909523  -0.00282734  1
  Al0+  Al61  1  0.24726146  0.25133051  0.33310886  1
  Al0+  Al62  1  0.24696947  0.25041557  0.65958134  1
  Al0+  Al63  1  0.25014232  0.75004834  0.00798299  1
  Al0+  Al64  1  0.25244803  0.74719299  0.33044147  1
  Al0+  Al65  1  0.25167937  0.74983152  0.65955482  1
  Al0+  Al66  1  0.75034757  0.25155683  -0.00552072  1
  Al0+  Al67  1  0.74791505  0.24982418  0.33748117  1
  Al0+  Al68  1  0.74833011  0.25276891  0.66914188  1
  Al0+  Al69  1  0.75071243  0.75017869  0.00042332  1
  Al0+  Al70  1  0.75162731  0.74840466  0.32555347  1
  Al0+  Al71  1  0.75135345  0.75062901  0.67355916  1
  Al0+  Al72  1  0.92686909  0.31862397  0.32185376  1
  Al0+  Al73  1  0.57228520  0.68143997  0.65137721  1
  Al0+  Al74  1  0.32356907  0.56949667  0.01445614  1
  Al0+  Al75  1  0.32067377  0.07439782  0.68290045  1
  Al0+  Al76  1  0.57033791  0.67985480  0.31920924  1
  Al0+  Al77  1  0.17743233  0.92859740  0.01504557  1
  Al0+  Al78  1  0.93076252  0.82130133  0.31906221  1
  Al0+  Al79  1  0.42666585  0.82130534  0.98560160  1
  Al0+  Al80  1  0.82194435  0.07199252  0.34659182  1
  Al0+  Al81  1  0.92728822  0.32401194  0.98302962  1
  Al0+  Al82  1  0.82056704  0.56982298  0.67988771  1
  Al0+  Al83  1  0.07411363  0.67707638  0.31576460  1
  Al0+  Al84  1  0.07210107  0.67813501  0.65637554  1
  Al0+  Al85  1  0.42745278  0.31879016  0.31816693  1
  Al0+  Al86  1  0.31897129  0.07132537  0.34711811  1
  Al0+  Al87  1  0.07027028  0.17793630  0.98463995  1
  Al0+  Al88  1  0.06873718  0.17864548  0.65019923  1
  Al0+  Al89  1  0.42825899  0.82528630  0.65103855  1
  Al0+  Al90  1  0.68036365  0.93031374  0.68134148  1
  Al0+  Al91  1  0.57276609  0.67859822  0.98294945  1
  Al0+  Al92  1  0.42955534  0.31831703  0.98680102  1
  Al0+  Al93  1  0.42905791  0.31933504  0.65219343  1
  Al0+  Al94  1  0.17806809  0.42691174  0.01570541  1
  Al0+  Al95  1  0.18047835  0.92743747  0.68033982  1
  Si0+  Si96  1  0.57612497  0.17858950  0.64888248  1
  Si0+  Si97  1  0.68011306  0.92605061  0.34888297  1
  Si0+  Si98  1  0.82350542  0.07570655  0.68545408  1
  Si0+  Si99  1  0.42900541  0.82484053  0.31708484  1
  Si0+  Si100  1  0.92806507  0.82201473  0.65331624  1
  Si0+  Si101  1  0.07027743  0.68052833  0.98644843  1
  Si0+  Si102  1  0.57164611  0.17689914  0.31906632  1
  Si0+  Si103  1  0.07064214  0.17772762  0.31699864  1
  Si0+  Si104  1  0.67841819  0.92787437  0.01734817  1
  Si0+  Si105  1  0.67559023  0.42864759  0.68448456  1
  Si0+  Si106  1  0.82113275  0.57328511  0.01900739  1
  Si0+  Si107  1  0.82084901  0.56970497  0.34723173  1
  Si0+  Si108  1  0.57373039  0.17676959  0.98427971  1
  Si0+  Si109  1  0.32275098  0.57013519  0.67766366  1
  Si0+  Si110  1  0.17852689  0.43054516  0.67945551  1
  Si0+  Si111  1  0.32371249  0.56941959  0.34947928  1
  Si0+  Si112  1  0.17858273  0.92477786  0.35099019  1
  Si0+  Si113  1  0.92948917  0.82199383  0.98468383  1
  Si0+  Si114  1  0.92689341  0.32272275  0.65072127  1
  Si0+  Si115  1  0.17797698  0.43150985  0.34939241  1
  Si0+  Si116  1  0.32248440  0.07180211  0.01652187  1
  Si0+  Si117  1  0.68160260  0.42793063  0.01600540  1
  Si0+  Si118  1  0.67687978  0.42935874  0.34858588  1
  Si0+  Si119  1  0.81802901  0.07037467  0.01317990  1
  O2-  O120  1  0.25449654  0.00198761  0.06026597  1
  O2-  O121  1  0.24773009  -0.00662123  0.39375316  1
  O2-  O122  1  0.25411557  -0.00309576  0.73229886  1
  O2-  O123  1  0.25276462  0.49629424  0.06619430  1
  O2-  O124  1  0.24838697  0.50298156  0.39274859  1
  O2-  O125  1  0.24973108  0.50157238  0.72045126  1
  O2-  O126  1  0.74666615  0.00157938  0.05900757  1
  O2-  O127  1  0.74889997  -0.00487048  0.39258122  1
  O2-  O128  1  0.75488482  0.00632021  0.72895335  1
  O2-  O129  1  0.75118188  0.50016611  0.05964569  1
  O2-  O130  1  0.74863401  0.50016843  0.39020311  1
  O2-  O131  1  0.74447578  0.49724901  0.72836802  1
  O2-  O132  1  -0.00368949  0.24037858  0.27357227  1
  O2-  O133  1  -0.01017542  0.25004291  0.60510915  1
  O2-  O134  1  0.00395605  0.25628750  0.93514471  1
  O2-  O135  1  0.00601920  0.75379278  0.26713689  1
  O2-  O136  1  0.00050961  0.75654809  0.61071076  1
  O2-  O137  1  0.00155726  0.75271966  0.94223383  1
  O2-  O138  1  0.49917982  0.24038672  0.27316929  1
  O2-  O139  1  0.50293873  0.24323858  0.60592923  1
  O2-  O140  1  0.49959441  0.23931734  0.94004488  1
  O2-  O141  1  0.49608760  0.75462120  0.27296611  1
  O2-  O142  1  0.50326062  0.75584326  0.60076163  1
  O2-  O143  1  0.49722143  0.74775001  0.93578373  1
  O2-  O144  1  0.06524396  0.17547438  0.09857537  1
  O2-  O145  1  0.07079251  0.18153417  0.42263507  1
  O2-  O146  1  0.06945195  0.18036265  0.76289891  1
  O2-  O147  1  0.06679928  0.68102039  0.09134749  1
  O2-  O148  1  0.06970328  0.67495760  0.42956703  1
  O2-  O149  1  0.07033921  0.67505685  0.76960568  1
  O2-  O150  1  0.57874195  0.17998385  0.08997910  1
  O2-  O151  1  0.57458799  0.18015834  0.42423283  1
  O2-  O152  1  0.58268996  0.18264106  0.75420423  1
  O2-  O153  1  0.57375436  0.68176441  0.09702415  1
  O2-  O154  1  0.57224822  0.68091833  0.43202097  1
  O2-  O155  1  0.57025781  0.68117224  0.76427851  1
  O2-  O156  1  0.17853805  0.43055689  0.24473362  1
  O2-  O157  1  0.17646552  0.43166063  0.57387441  1
  O2-  O158  1  0.17940376  0.42972243  0.90146818  1
  O2-  O159  1  0.17854072  0.92668698  0.24509462  1
  O2-  O160  1  0.17977406  0.92816492  0.56669930  1
  O2-  O161  1  0.17495288  0.92767067  0.90248033  1
  O2-  O162  1  0.67703935  0.42885871  0.24341313  1
  O2-  O163  1  0.67702007  0.42768604  0.57849587  1
  O2-  O164  1  0.68316291  0.42635116  0.91125890  1
  O2-  O165  1  0.68014913  0.92821387  0.24296152  1
  O2-  O166  1  0.68576940  0.92941150  0.56789788  1
  O2-  O167  1  0.68054826  0.92739767  0.91249289  1
  O2-  O168  1  0.43178302  0.31679656  0.10003757  1
  O2-  O169  1  0.42951653  0.32036686  0.43104012  1
  O2-  O170  1  0.42964086  0.32085460  0.76525716  1
  O2-  O171  1  0.43117337  0.82329398  0.09967551  1
  O2-  O172  1  0.43055041  0.82470445  0.42232458  1
  O2-  O173  1  0.42599252  0.81930660  0.76430297  1
  O2-  O174  1  0.92363250  0.31822266  0.09679234  1
  O2-  O175  1  0.93000271  0.32091826  0.43500627  1
  O2-  O176  1  0.92908703  0.32352334  0.75591287  1
  O2-  O177  1  0.92843894  0.82145035  0.08967477  1
  O2-  O178  1  0.92745939  0.81739614  0.43253520  1
  O2-  O179  1  0.92684049  0.81959125  0.75933928  1
  O2-  O180  1  0.31634395  0.07179708  0.23378694  1
  O2-  O181  1  0.31534304  0.07536762  0.56893935  1
  O2-  O182  1  0.32258206  0.07253881  0.91151697  1
  O2-  O183  1  0.32542296  0.56609009  0.24477717  1
  O2-  O184  1  0.32277154  0.56710319  0.57221971  1
  O2-  O185  1  0.32014099  0.56941700  0.90020123  1
  O2-  O186  1  0.81774806  0.07303989  0.23301187  1
  O2-  O187  1  0.82155953  0.07648791  0.57965901  1
  O2-  O188  1  0.81617972  0.06743550  0.90834278  1
  O2-  O189  1  0.81986647  0.56845534  0.24203921  1
  O2-  O190  1  0.82179519  0.56789760  0.56629355  1
  O2-  O191  1  0.82174292  0.57547777  0.91405640  1
  O2-  O192  1  0.05242265  0.08124478  0.27534801  1
  O2-  O193  1  0.04034926  0.08173545  0.59535483  1
  O2-  O194  1  0.03440637  0.08225569  0.93043648  1
  O2-  O195  1  0.03944181  0.58180609  0.26093491  1
  O2-  O196  1  0.03631672  0.58323343  0.60094664  1
  O2-  O197  1  0.04038620  0.58911814  0.93993691  1
  O2-  O198  1  0.55223677  0.08102687  0.27487599  1
  O2-  O199  1  0.55709189  0.08317212  0.60547765  1
  O2-  O200  1  0.55460716  0.08043818  0.94226951  1
  O2-  O201  1  0.53892793  0.58381276  0.26472964  1
  O2-  O202  1  0.54512651  0.58310574  0.59769797  1
  O2-  O203  1  0.55419752  0.57765449  0.93303337  1
  O2-  O204  1  0.16076751  0.21056221  0.26920652  1
  O2-  O205  1  0.16125597  0.21532538  0.59283326  1
  O2-  O206  1  0.16897563  0.20194756  0.93091768  1
  O2-  O207  1  0.17476500  0.69903049  0.26472791  1
  O2-  O208  1  0.16736180  0.70366898  0.59776828  1
  O2-  O209  1  0.16359820  0.70551049  0.94256994  1
  O2-  O210  1  0.66292277  0.20773575  0.27096699  1
  O2-  O211  1  0.66794657  0.20903088  0.60000336  1
  O2-  O212  1  0.66351705  0.20760852  0.93392008  1
  O2-  O213  1  0.66659476  0.70746666  0.26326263  1
  O2-  O214  1  0.67268230  0.71031759  0.60169409  1
  O2-  O215  1  0.67100220  0.71163561  0.93229739  1
  O2-  O216  1  0.07958182  0.45785161  0.06822412  1
  O2-  O217  1  0.08564363  0.45990045  0.39639705  1
  O2-  O218  1  0.08778184  0.45720272  0.72868880  1
  O2-  O219  1  0.08077970  0.96199515  0.06955058  1
  O2-  O220  1  0.08443239  0.94801880  0.39662243  1
  O2-  O221  1  0.08059327  0.95577188  0.73160935  1
  O2-  O222  1  0.58979556  0.45422782  0.06440153  1
  O2-  O223  1  0.58498053  0.45848943  0.39515381  1
  O2-  O224  1  0.58156967  0.45460036  0.72903354  1
  O2-  O225  1  0.58611152  0.95279291  0.06528306  1
  O2-  O226  1  0.58705464  0.94999655  0.39638134  1
  O2-  O227  1  0.58525648  0.96160302  0.73829625  1
  O2-  O228  1  0.20284630  0.32685084  0.06723694  1
  O2-  O229  1  0.20594811  0.33967467  0.39707395  1
  O2-  O230  1  0.20807059  0.33891120  0.72454222  1
  O2-  O231  1  0.20586447  0.83325407  0.07273117  1
  O2-  O232  1  0.20299135  0.82919369  0.39388240  1
  O2-  O233  1  0.20693882  0.82664409  0.73078746  1
  O2-  O234  1  0.71036418  0.33600648  0.06395986  1
  O2-  O235  1  0.70314444  0.33833702  0.39829855  1
  O2-  O236  1  0.70023600  0.33542294  0.73219649  1
  O2-  O237  1  0.71099370  0.83760537  0.06518929  1
  O2-  O238  1  0.70927726  0.83242029  0.39303724  1
  O2-  O239  1  0.71363002  0.83629937  0.73917474  1
  O2-  O240  1  0.46263681  0.41267643  0.26270405  1
  O2-  O241  1  0.46185281  0.41406751  0.59504091  1
  O2-  O242  1  0.46502687  0.41265861  0.93226063  1
  O2-  O243  1  0.45550966  0.91848874  0.27127905  1
  O2-  O244  1  0.45399730  0.92721613  0.60502235  1
  O2-  O245  1  0.45597621  0.91990694  0.93341904  1
  O2-  O246  1  0.95898651  0.41313897  0.26565556  1
  O2-  O247  1  0.95767993  0.41433824  0.60382559  1
  O2-  O248  1  0.94890985  0.42594704  0.93546212  1
  O2-  O249  1  0.95502453  0.92146863  0.26632574  1
  O2-  O250  1  0.94706531  0.91725529  0.60857129  1
  O2-  O251  1  0.95289165  0.91431336  0.93769311  1
  O2-  O252  1  0.32988333  0.29015267  0.26519444  1
  O2-  O253  1  0.33294595  0.29074822  0.59619017  1
  O2-  O254  1  0.33182065  0.29270261  0.93323745  1
  O2-  O255  1  0.33499965  0.80031470  0.27202663  1
  O2-  O256  1  0.33326954  0.79317260  0.59352262  1
  O2-  O257  1  0.32676699  0.79324311  0.93634002  1
  O2-  O258  1  0.82806573  0.29238352  0.26968499  1
  O2-  O259  1  0.83037265  0.30380740  0.60771328  1
  O2-  O260  1  0.83131968  0.29149979  0.92739233  1
  O2-  O261  1  0.83497705  0.79018954  0.26151616  1
  O2-  O262  1  0.83675959  0.79156380  0.60652557  1
  O2-  O263  1  0.83833286  0.79145059  0.93785593  1
  O2-  O264  1  0.41719139  0.04897473  0.06326444  1
  O2-  O265  1  0.41804060  0.04689336  0.40059945  1
  O2-  O266  1  0.42333867  0.06225452  0.73225228  1
  O2-  O267  1  0.42391378  0.54111672  0.06448379  1
  O2-  O268  1  0.41376388  0.53581163  0.39710795  1
  O2-  O269  1  0.41379428  0.53960403  0.72464106  1
  O2-  O270  1  0.90871000  0.04160615  0.06163705  1
  O2-  O271  1  0.91881913  0.04331660  0.40125007  1
  O2-  O272  1  0.91713257  0.05032529  0.73033860  1
  O2-  O273  1  0.91268167  0.54777635  0.06784410  1
  O2-  O274  1  0.91279580  0.53992290  0.39333287  1
  O2-  O275  1  0.91552388  0.53663415  0.73721465  1
  O2-  O276  1  0.29396194  0.16476561  0.06250384  1
  O2-  O277  1  0.28522232  0.16809960  0.40004473  1
  O2-  O278  1  0.28261765  0.17159239  0.73308716  1
  O2-  O279  1  0.29408437  0.66598453  0.07083485  1
  O2-  O280  1  0.30209119  0.66407511  0.39443220  1
  O2-  O281  1  0.29728850  0.66290233  0.72266702  1
  O2-  O282  1  0.79044205  0.16350507  0.05871043  1
  O2-  O283  1  0.78842100  0.16661814  0.40377379  1
  O2-  O284  1  0.79735959  0.16961854  0.73093922  1
  O2-  O285  1  0.79131662  0.66466307  0.06722486  1
  O2-  O286  1  0.79348949  0.66251240  0.39270202  1
  O2-  O287  1  0.79353781  0.66562882  0.73727864  1
