# generated using pymatgen
data_Ca2Al2SiO7
_symmetry_space_group_name_H-M   'P 1'
_cell_length_a   15.45658338
_cell_length_b   15.45659761
_cell_length_c   15.28322120
_cell_angle_alpha   89.99838157
_cell_angle_beta   89.99841557
_cell_angle_gamma   90.00216147
_symmetry_Int_Tables_number   1
_chemical_formula_structural   Ca2Al2SiO7
_chemical_formula_sum   'Ca48 Al48 Si24 O168'
_cell_volume   3651.25613706
_cell_formula_units_Z   24
loop_
 _symmetry_equiv_pos_site_id
 _symmetry_equiv_pos_as_xyz
  1  'x, y, z'
loop_
 _atom_type_symbol
 _atom_type_oxidation_number
  Ca2+  2.0
  Al0+  0.0
  Si0+  0.0
  O2-  -2.0
loop_
 _atom_site_type_symbol
 _atom_site_label
 _atom_site_symmetry_multiplicity
 _atom_site_fract_x
 _atom_site_fract_y
 _atom_site_fract_z
 _atom_site_occupancy
  Ca2+  Ca0  1  0.17020047  0.08195073  0.17580519  1
  Ca2+  Ca1  1  0.16932904  0.09504260  0.50307192  1
  Ca2+  Ca2  1  0.16481457  0.08457177  0.83199335  1
  Ca2+  Ca3  1  0.16876166  0.58356131  0.17762966  1
  Ca2+  Ca4  1  0.16753455  0.57358863  0.50127633  1
  Ca2+  Ca5  1  0.16326843  0.57969144  0.83750055  1
  Ca2+  Ca6  1  0.67360536  0.07547703  0.17214940  1
  Ca2+  Ca7  1  0.68151465  0.07821610  0.50835464  1
  Ca2+  Ca8  1  0.67099769  0.07248536  0.83685658  1
  Ca2+  Ca9  1  0.67041193  0.58557779  0.16237372  1
  Ca2+  Ca10  1  0.67073275  0.58059496  0.51231379  1
  Ca2+  Ca11  1  0.67143080  0.58117825  0.83677249  1
  Ca2+  Ca12  1  0.08036800  0.33028241  0.16545034  1
  Ca2+  Ca13  1  0.08962077  0.32733631  0.49616210  1
  Ca2+  Ca14  1  0.07596459  0.33158198  0.82759202  1
  Ca2+  Ca15  1  0.07972333  0.82095487  0.15863778  1
  Ca2+  Ca16  1  0.07573528  0.82688899  0.49548470  1
  Ca2+  Ca17  1  0.07048616  0.82478551  0.83072364  1
  Ca2+  Ca18  1  0.57891357  0.33556849  0.16222292  1
  Ca2+  Ca19  1  0.57158278  0.34327465  0.49804983  1
  Ca2+  Ca20  1  0.57965427  0.34401964  0.82618597  1
  Ca2+  Ca21  1  0.57732853  0.82902259  0.15399636  1
  Ca2+  Ca22  1  0.59123839  0.82818698  0.50265554  1
  Ca2+  Ca23  1  0.59509341  0.82486146  0.83076873  1
  Ca2+  Ca24  1  0.32630622  0.42492785  0.17938425  1
  Ca2+  Ca25  1  0.32609129  0.41278110  0.50143221  1
  Ca2+  Ca26  1  0.32817006  0.41319517  0.83145961  1
  Ca2+  Ca27  1  0.33396957  0.92001715  0.17263109  1
  Ca2+  Ca28  1  0.33038273  0.92432586  0.50149167  1
  Ca2+  Ca29  1  0.33424997  0.91547888  0.84006870  1
  Ca2+  Ca30  1  0.83251625  0.41720351  0.16307912  1
  Ca2+  Ca31  1  0.82596523  0.42492637  0.51174860  1
  Ca2+  Ca32  1  0.82698967  0.42592198  0.84328526  1
  Ca2+  Ca33  1  0.82996182  0.91314113  0.16679830  1
  Ca2+  Ca34  1  0.83568186  0.92498090  0.50984231  1
  Ca2+  Ca35  1  0.83067214  0.91427117  0.83442802  1
  Ca2+  Ca36  1  0.41059093  0.17325025  0.16732349  1
  Ca2+  Ca37  1  0.41532279  0.17824244  0.49391762  1
  Ca2+  Ca38  1  0.42368749  0.17330857  0.82512986  1
  Ca2+  Ca39  1  0.41892597  0.67097962  0.15761405  1
  Ca2+  Ca40  1  0.42341325  0.66039298  0.49685876  1
  Ca2+  Ca41  1  0.43100875  0.67022522  0.83152504  1
  Ca2+  Ca42  1  0.91753977  0.17049435  0.16460611  1
  Ca2+  Ca43  1  0.92458019  0.16075592  0.49535132  1
  Ca2+  Ca44  1  0.91777672  0.17113191  0.82631155  1
  Ca2+  Ca45  1  0.92839014  0.66473630  0.15623163  1
  Ca2+  Ca46  1  0.91415605  0.67126702  0.49848258  1
  Ca2+  Ca47  1  0.90350230  0.67365529  0.83180504  1
  Al0+  Al48  1  0.00347240  -0.00147136  -0.00106358  1
  Al0+  Al49  1  -0.00124944  -0.00050109  0.33001942  1
  Al0+  Al50  1  0.00254392  -0.00015012  0.66273866  1
  Al0+  Al51  1  0.00017056  0.49541034  -0.00274948  1
  Al0+  Al52  1  -0.00146315  0.49978200  0.33438747  1
  Al0+  Al53  1  0.00160336  0.49994032  0.67445386  1
  Al0+  Al54  1  0.49980849  0.00331366  0.00236673  1
  Al0+  Al55  1  0.50005625  -0.00060591  0.33941361  1
  Al0+  Al56  1  0.49978142  0.00084565  0.66853491  1
  Al0+  Al57  1  0.49770866  0.50039660  0.00004813  1
  Al0+  Al58  1  0.49939547  0.50042881  0.32944917  1
  Al0+  Al59  1  0.49796576  0.50260240  0.66096601  1
  Al0+  Al60  1  0.25095026  0.24996375  0.00018954  1
  Al0+  Al61  1  0.24960934  0.24970838  0.32993729  1
  Al0+  Al62  1  0.25089115  0.25138863  0.66585761  1
  Al0+  Al63  1  0.24963891  0.75046092  -0.00780106  1
  Al0+  Al64  1  0.25132502  0.74988066  0.33591182  1
  Al0+  Al65  1  0.25074259  0.75080039  0.66609435  1
  Al0+  Al66  1  0.74949700  0.24986886  0.00054140  1
  Al0+  Al67  1  0.74896035  0.24845501  0.33829283  1
  Al0+  Al68  1  0.74924366  0.24946231  0.67265996  1
  Al0+  Al69  1  0.75067814  0.74973604  0.00463466  1
  Al0+  Al70  1  0.74855027  0.74907748  0.33161387  1
  Al0+  Al71  1  0.75025054  0.75093220  0.66137992  1
  Al0+  Al72  1  0.32000207  0.07080498  0.34755158  1
  Al0+  Al73  1  0.67947982  0.92949039  0.01499246  1
  Al0+  Al74  1  0.67960666  0.93001750  0.68147406  1
  Al0+  Al75  1  0.82141931  0.07028306  0.34639013  1
  Al0+  Al76  1  0.06883830  0.18161035  0.65311645  1
  Al0+  Al77  1  0.92799391  0.31803761  0.98630661  1
  Al0+  Al78  1  0.82163326  0.57137790  0.68114293  1
  Al0+  Al79  1  0.42996828  0.32015511  0.31709529  1
  Al0+  Al80  1  0.82583607  0.07129203  0.68336413  1
  Al0+  Al81  1  0.32286897  0.57320061  0.34843296  1
  Al0+  Al82  1  0.56953286  0.68232557  0.65164243  1
  Al0+  Al83  1  0.67576578  0.42961808  0.67977333  1
  Al0+  Al84  1  0.57081006  0.67885605  0.98528882  1
  Al0+  Al85  1  0.07001652  0.17916692  0.31846260  1
  Al0+  Al86  1  0.18129063  0.42840497  0.68214043  1
  Al0+  Al87  1  0.07178615  0.67559256  0.98414682  1
  Al0+  Al88  1  0.07014793  0.67855289  0.32221019  1
  Al0+  Al89  1  0.42934639  0.82460205  0.98568722  1
  Al0+  Al90  1  0.17730412  0.42936770  0.34745508  1
  Al0+  Al91  1  0.92897497  0.82102280  0.98555200  1
  Al0+  Al92  1  0.82191713  0.57058592  0.01730171  1
  Al0+  Al93  1  0.43120067  0.32016066  0.65244676  1
  Al0+  Al94  1  0.67607410  0.42799084  0.01707621  1
  Al0+  Al95  1  0.93034830  0.81850997  0.65149102  1
  Si0+  Si96  1  0.67804509  0.92635135  0.35079890  1
  Si0+  Si97  1  0.42982067  0.82260233  0.32030916  1
  Si0+  Si98  1  0.17758608  0.92743107  0.34965093  1
  Si0+  Si99  1  0.31972539  0.07133325  0.68220222  1
  Si0+  Si100  1  0.92419870  0.32241572  0.31856352  1
  Si0+  Si101  1  0.18039412  0.92830108  0.01445755  1
  Si0+  Si102  1  0.32173461  0.57410242  0.68483636  1
  Si0+  Si103  1  0.07531135  0.67562534  0.64879024  1
  Si0+  Si104  1  0.32068887  0.07244379  0.01529617  1
  Si0+  Si105  1  0.82455413  0.07208373  0.01683656  1
  Si0+  Si106  1  0.42519931  0.82511780  0.64749626  1
  Si0+  Si107  1  0.67832757  0.42906585  0.34751422  1
  Si0+  Si108  1  0.92700256  0.82123578  0.31536072  1
  Si0+  Si109  1  0.57259509  0.17677523  0.31745627  1
  Si0+  Si110  1  0.92603138  0.32376259  0.65121030  1
  Si0+  Si111  1  0.82016977  0.57124581  0.34780909  1
  Si0+  Si112  1  0.31823943  0.57110549  0.01287351  1
  Si0+  Si113  1  0.42853679  0.32052062  0.98492010  1
  Si0+  Si114  1  0.57127817  0.67895224  0.31632656  1
  Si0+  Si115  1  0.57111300  0.17945803  0.98619125  1
  Si0+  Si116  1  0.07434400  0.17814352  0.98359347  1
  Si0+  Si117  1  0.17951968  0.42645446  0.01580941  1
  Si0+  Si118  1  0.17984213  0.92730580  0.68192039  1
  Si0+  Si119  1  0.57337677  0.17525361  0.64966619  1
  O2-  O120  1  0.25198938  -0.00103273  0.05685423  1
  O2-  O121  1  0.24239999  -0.00051404  0.39524907  1
  O2-  O122  1  0.25292223  -0.00327835  0.72476109  1
  O2-  O123  1  0.24517513  0.50288537  0.05649605  1
  O2-  O124  1  0.25010337  0.50129668  0.39700086  1
  O2-  O125  1  0.25142764  0.50737057  0.72971458  1
  O2-  O126  1  0.75763925  0.00139378  0.06137107  1
  O2-  O127  1  0.74839398  -0.00610337  0.39269635  1
  O2-  O128  1  0.75125181  0.00175195  0.73254439  1
  O2-  O129  1  0.74840367  0.49930893  0.06800304  1
  O2-  O130  1  0.74970205  0.49957536  0.38921319  1
  O2-  O131  1  0.75260222  0.49568783  0.72981522  1
  O2-  O132  1  -0.00597397  0.25382555  0.27462603  1
  O2-  O133  1  -0.00787300  0.25361200  0.60500745  1
  O2-  O134  1  0.00188104  0.24209202  0.94014580  1
  O2-  O135  1  -0.00389149  0.75244281  0.27295503  1
  O2-  O136  1  0.00355690  0.74150429  0.60524944  1
  O2-  O137  1  -0.00452839  0.74367208  0.93534012  1
  O2-  O138  1  0.50438975  0.24460777  0.27028237  1
  O2-  O139  1  0.50985663  0.24909225  0.60578297  1
  O2-  O140  1  0.50408726  0.25438534  0.94347017  1
  O2-  O141  1  0.49941590  0.75076189  0.27716380  1
  O2-  O142  1  0.49460504  0.75738244  0.60356918  1
  O2-  O143  1  0.50403887  0.75637362  0.93545700  1
  O2-  O144  1  0.07788092  0.17970366  0.08910439  1
  O2-  O145  1  0.06981725  0.18038508  0.43131406  1
  O2-  O146  1  0.07115459  0.18286669  0.76647180  1
  O2-  O147  1  0.07542778  0.67962766  0.09826454  1
  O2-  O148  1  0.06699717  0.68022292  0.43516485  1
  O2-  O149  1  0.07999756  0.67987454  0.75385368  1
  O2-  O150  1  0.56776348  0.17788340  0.09140752  1
  O2-  O151  1  0.57200350  0.17828590  0.42269753  1
  O2-  O152  1  0.56731186  0.17067925  0.75536389  1
  O2-  O153  1  0.56514726  0.67905149  0.09963079  1
  O2-  O154  1  0.57369986  0.67948011  0.42127380  1
  O2-  O155  1  0.56858943  0.68171488  0.76414447  1
  O2-  O156  1  0.17855181  0.43113553  0.23324599  1
  O2-  O157  1  0.18356821  0.42652194  0.56936996  1
  O2-  O158  1  0.18470349  0.42149216  0.91094611  1
  O2-  O159  1  0.18145920  0.92670597  0.24376765  1
  O2-  O160  1  0.18163691  0.92665749  0.57678428  1
  O2-  O161  1  0.18042187  0.93083720  0.90935104  1
  O2-  O162  1  0.67834781  0.42862384  0.24265205  1
  O2-  O163  1  0.67592507  0.43355918  0.56527833  1
  O2-  O164  1  0.67504272  0.42856218  0.90416319  1
  O2-  O165  1  0.67636207  0.92634996  0.24512070  1
  O2-  O166  1  0.68102770  0.93217256  0.56732384  1
  O2-  O167  1  0.67740042  0.93313439  0.90273644  1
  O2-  O168  1  0.42505666  0.31767295  0.08989044  1
  O2-  O169  1  0.43156087  0.31984598  0.42994967  1
  O2-  O170  1  0.42968008  0.31645526  0.76621739  1
  O2-  O171  1  0.42762639  0.82302465  0.10006941  1
  O2-  O172  1  0.43118361  0.82462369  0.42508108  1
  O2-  O173  1  0.42232863  0.82456715  0.75276383  1
  O2-  O174  1  0.93044910  0.31619855  0.10004684  1
  O2-  O175  1  0.92143039  0.32303479  0.42383086  1
  O2-  O176  1  0.92939339  0.32198576  0.75672283  1
  O2-  O177  1  0.93477450  0.82371109  0.09946032  1
  O2-  O178  1  0.92626929  0.82061451  0.42098641  1
  O2-  O179  1  0.93145761  0.81915348  0.76413508  1
  O2-  O180  1  0.31996099  0.06738312  0.23399848  1
  O2-  O181  1  0.31818769  0.07189772  0.57716391  1
  O2-  O182  1  0.31883300  0.07607000  0.91018972  1
  O2-  O183  1  0.32252966  0.57366762  0.23412634  1
  O2-  O184  1  0.32103994  0.57412494  0.57930885  1
  O2-  O185  1  0.31932953  0.56806947  0.90795368  1
  O2-  O186  1  0.81856060  0.07037849  0.23309464  1
  O2-  O187  1  0.82636002  0.06825059  0.56936875  1
  O2-  O188  1  0.82336010  0.07295624  0.91167828  1
  O2-  O189  1  0.81975029  0.57274523  0.24317396  1
  O2-  O190  1  0.81966729  0.57054198  0.56620025  1
  O2-  O191  1  0.82018068  0.56904360  0.90438384  1
  O2-  O192  1  0.04139435  0.08163561  0.26355147  1
  O2-  O193  1  0.04530569  0.08374731  0.59802251  1
  O2-  O194  1  0.05484922  0.08260912  0.93958448  1
  O2-  O195  1  0.03983930  0.58201559  0.26742075  1
  O2-  O196  1  0.05286924  0.57958665  0.60714325  1
  O2-  O197  1  0.05183815  0.57446575  0.93535754  1
  O2-  O198  1  0.54684212  0.08176411  0.27347923  1
  O2-  O199  1  0.54191111  0.08427099  0.60103911  1
  O2-  O200  1  0.53729456  0.09093431  0.93632745  1
  O2-  O201  1  0.54429840  0.58783267  0.26813833  1
  O2-  O202  1  0.53636546  0.58760284  0.59449816  1
  O2-  O203  1  0.53584984  0.58226601  0.93235407  1
  O2-  O204  1  0.16598316  0.20874339  0.26255092  1
  O2-  O205  1  0.16530515  0.21534026  0.60009767  1
  O2-  O206  1  0.16655152  0.20823083  0.93600305  1
  O2-  O207  1  0.16825579  0.70932124  0.26996944  1
  O2-  O208  1  0.16777389  0.70536846  0.60160779  1
  O2-  O209  1  0.16712242  0.70892365  0.92801771  1
  O2-  O210  1  0.66618116  0.20288052  0.27116954  1
  O2-  O211  1  0.66989303  0.19475305  0.60759277  1
  O2-  O212  1  0.66409475  0.20069964  0.93957967  1
  O2-  O213  1  0.66264113  0.70772538  0.26784453  1
  O2-  O214  1  0.66431289  0.71338785  0.59368786  1
  O2-  O215  1  0.67122863  0.70308900  0.93720968  1
  O2-  O216  1  0.08560482  0.44624848  0.06085988  1
  O2-  O217  1  0.07855022  0.45581469  0.40124665  1
  O2-  O218  1  0.08445171  0.45421303  0.73773603  1
  O2-  O219  1  0.09004670  0.95652980  0.06487297  1
  O2-  O220  1  0.08191532  0.94872374  0.39194724  1
  O2-  O221  1  0.09022384  0.95917525  0.72968988  1
  O2-  O222  1  0.57615996  0.45609427  0.06910725  1
  O2-  O223  1  0.58680366  0.45950737  0.39318201  1
  O2-  O224  1  0.57769905  0.46236837  0.73074144  1
  O2-  O225  1  0.58333506  0.96500410  0.06976761  1
  O2-  O226  1  0.58533101  0.95120896  0.39848864  1
  O2-  O227  1  0.57950129  0.95579225  0.73330195  1
  O2-  O228  1  0.21365446  0.33672564  0.06469566  1
  O2-  O229  1  0.20854299  0.33101723  0.39783560  1
  O2-  O230  1  0.21859581  0.33418238  0.73765874  1
  O2-  O231  1  0.20882511  0.83613530  0.06114108  1
  O2-  O232  1  0.20745652  0.83668154  0.39879554  1
  O2-  O233  1  0.20632573  0.83564324  0.73048635  1
  O2-  O234  1  0.70405948  0.32829795  0.06942954  1
  O2-  O235  1  0.70251300  0.33700023  0.39580770  1
  O2-  O236  1  0.69280771  0.32793473  0.72995774  1
  O2-  O237  1  0.70592460  0.83306953  0.07147651  1
  O2-  O238  1  0.70338348  0.83178939  0.39550820  1
  O2-  O239  1  0.70991981  0.83166043  0.73095294  1
  O2-  O240  1  0.46109935  0.41667205  0.26224062  1
  O2-  O241  1  0.45628267  0.41736349  0.59716500  1
  O2-  O242  1  0.45069511  0.41340983  0.93819577  1
  O2-  O243  1  0.45819219  0.91448220  0.27224930  1
  O2-  O244  1  0.44931344  0.92017104  0.60310207  1
  O2-  O245  1  0.45069284  0.92624935  0.93643826  1
  O2-  O246  1  0.94976141  0.41567370  0.27170106  1
  O2-  O247  1  0.95359007  0.41797601  0.60714515  1
  O2-  O248  1  0.96048697  0.41227322  0.93038500  1
  O2-  O249  1  0.95113167  0.91448120  0.26870347  1
  O2-  O250  1  0.96641348  0.91343348  0.59670507  1
  O2-  O251  1  0.96293520  0.91810214  0.93201944  1
  O2-  O252  1  0.33445534  0.28799131  0.26187067  1
  O2-  O253  1  0.33711989  0.28279577  0.59836037  1
  O2-  O254  1  0.33895589  0.28642934  0.93608646  1
  O2-  O255  1  0.33725368  0.79732536  0.27307648  1
  O2-  O256  1  0.33161436  0.79962945  0.60051945  1
  O2-  O257  1  0.33280405  0.79490484  0.93043206  1
  O2-  O258  1  0.83127022  0.29402589  0.27155736  1
  O2-  O259  1  0.83005742  0.30228677  0.60780755  1
  O2-  O260  1  0.83075111  0.29003457  0.93260355  1
  O2-  O261  1  0.83273572  0.79486957  0.27041968  1
  O2-  O262  1  0.83507517  0.79019362  0.59377309  1
  O2-  O263  1  0.82839564  0.79811063  0.93642359  1
  O2-  O264  1  0.41245021  0.04939087  0.06458316  1
  O2-  O265  1  0.41556216  0.03925443  0.40363384  1
  O2-  O266  1  0.41235047  0.04716044  0.72982894  1
  O2-  O267  1  0.40847019  0.54151677  0.06216312  1
  O2-  O268  1  0.42169267  0.54270456  0.39951915  1
  O2-  O269  1  0.41416649  0.54475993  0.72995292  1
  O2-  O270  1  0.92032438  0.04916484  0.06064757  1
  O2-  O271  1  0.91878738  0.04020826  0.39907318  1
  O2-  O272  1  0.92458731  0.04141704  0.73443000  1
  O2-  O273  1  0.92089581  0.53690049  0.06841020  1
  O2-  O274  1  0.91132552  0.54524748  0.39633972  1
  O2-  O275  1  0.92122709  0.55075844  0.73406949  1
  O2-  O276  1  0.28894028  0.16278900  0.06462834  1
  O2-  O277  1  0.29038993  0.16778879  0.39984485  1
  O2-  O278  1  0.28789826  0.16080522  0.73137444  1
  O2-  O279  1  0.29289506  0.66488377  0.05820124  1
  O2-  O280  1  0.29844002  0.67191878  0.40256239  1
  O2-  O281  1  0.29930351  0.66917265  0.72978659  1
  O2-  O282  1  0.79544946  0.16414458  0.06405296  1
  O2-  O283  1  0.79047081  0.16574205  0.40308545  1
  O2-  O284  1  0.79965497  0.17041218  0.73540095  1
  O2-  O285  1  0.79660270  0.66900604  0.07224241  1
  O2-  O286  1  0.79031287  0.66319026  0.39481766  1
  O2-  O287  1  0.78821372  0.66897716  0.73030112  1
