# generated using pymatgen
data_Ca2Al2SiO7
_symmetry_space_group_name_H-M   'P 1'
_cell_length_a   15.45424590
_cell_length_b   15.45385716
_cell_length_c   15.28125446
_cell_angle_alpha   89.99481776
_cell_angle_beta   89.99934554
_cell_angle_gamma   89.99690533
_symmetry_Int_Tables_number   1
_chemical_formula_structural   Ca2Al2SiO7
_chemical_formula_sum   'Ca48 Al48 Si24 O168'
_cell_volume   3649.58696641
_cell_formula_units_Z   24
loop_
 _symmetry_equiv_pos_site_id
 _symmetry_equiv_pos_as_xyz
  1  'x, y, z'
loop_
 _atom_type_symbol
 _atom_type_oxidation_number
  Ca2+  2.0
  Al0+  0.0
  Si0+  0.0
  O2-  -2.0
loop_
 _atom_site_type_symbol
 _atom_site_label
 _atom_site_symmetry_multiplicity
 _atom_site_fract_x
 _atom_site_fract_y
 _atom_site_fract_z
 _atom_site_occupancy
  Ca2+  Ca0  1  0.17220777  0.08793179  0.17274988  1
  Ca2+  Ca1  1  0.17257158  0.08693786  0.50272287  1
  Ca2+  Ca2  1  0.16063352  0.08810737  0.83585968  1
  Ca2+  Ca3  1  0.17355490  0.57565687  0.18130794  1
  Ca2+  Ca4  1  0.16742266  0.57799471  0.50499331  1
  Ca2+  Ca5  1  0.17044363  0.57784028  0.83359616  1
  Ca2+  Ca6  1  0.67463363  0.08965321  0.17207321  1
  Ca2+  Ca7  1  0.67341613  0.08000025  0.50286831  1
  Ca2+  Ca8  1  0.66937979  0.07150286  0.84392575  1
  Ca2+  Ca9  1  0.66099642  0.57771959  0.17344157  1
  Ca2+  Ca10  1  0.66740628  0.58049858  0.50165611  1
  Ca2+  Ca11  1  0.67385242  0.58746318  0.83635170  1
  Ca2+  Ca12  1  0.07893472  0.32947361  0.15834870  1
  Ca2+  Ca13  1  0.08318827  0.33889640  0.50184762  1
  Ca2+  Ca14  1  0.07593664  0.32417194  0.82608250  1
  Ca2+  Ca15  1  0.08030787  0.83015857  0.16999434  1
  Ca2+  Ca16  1  0.07073228  0.82589025  0.49157682  1
  Ca2+  Ca17  1  0.07338694  0.83257487  0.82386207  1
  Ca2+  Ca18  1  0.58213629  0.32386735  0.16117152  1
  Ca2+  Ca19  1  0.58554197  0.32945758  0.48997775  1
  Ca2+  Ca20  1  0.58145716  0.32644876  0.83533361  1
  Ca2+  Ca21  1  0.58911525  0.82148563  0.16266326  1
  Ca2+  Ca22  1  0.58169944  0.82846571  0.49744683  1
  Ca2+  Ca23  1  0.58609165  0.83312794  0.82759656  1
  Ca2+  Ca24  1  0.32845570  0.41620043  0.17740827  1
  Ca2+  Ca25  1  0.32290030  0.42993931  0.50534409  1
  Ca2+  Ca26  1  0.33088871  0.41522646  0.83424053  1
  Ca2+  Ca27  1  0.33261672  0.92554165  0.17269106  1
  Ca2+  Ca28  1  0.33884468  0.92116617  0.50432570  1
  Ca2+  Ca29  1  0.33239560  0.91461335  0.83430831  1
  Ca2+  Ca30  1  0.82696396  0.41239603  0.17253084  1
  Ca2+  Ca31  1  0.82940208  0.42111047  0.50576160  1
  Ca2+  Ca32  1  0.84358794  0.41952707  0.83361811  1
  Ca2+  Ca33  1  0.83105273  0.92880168  0.17002085  1
  Ca2+  Ca34  1  0.83211017  0.91600751  0.50475660  1
  Ca2+  Ca35  1  0.82397296  0.91825325  0.84061278  1
  Ca2+  Ca36  1  0.42611650  0.16980467  0.16170320  1
  Ca2+  Ca37  1  0.42444932  0.16644384  0.49103714  1
  Ca2+  Ca38  1  0.41995545  0.17085935  0.83380090  1
  Ca2+  Ca39  1  0.42784454  0.65772444  0.16516132  1
  Ca2+  Ca40  1  0.41307668  0.66861035  0.49470142  1
  Ca2+  Ca41  1  0.42351260  0.67100172  0.82647377  1
  Ca2+  Ca42  1  0.91691011  0.16963279  0.15727228  1
  Ca2+  Ca43  1  0.92058318  0.16882897  0.49705135  1
  Ca2+  Ca44  1  0.92077910  0.17224375  0.82936924  1
  Ca2+  Ca45  1  0.91929739  0.67155919  0.16827201  1
  Ca2+  Ca46  1  0.91261642  0.67581873  0.49446577  1
  Ca2+  Ca47  1  0.91356794  0.67201418  0.82244700  1
  Al0+  Al48  1  -0.00063959  -0.00185605  0.00129895  1
  Al0+  Al49  1  -0.00080050  0.00185211  0.33300689  1
  Al0+  Al50  1  0.00131909  0.00114055  0.65799285  1
  Al0+  Al51  1  0.00216803  0.50093007  -0.00069627  1
  Al0+  Al52  1  -0.00158521  0.50073895  0.33219752  1
  Al0+  Al53  1  0.00013767  0.49836378  0.67215433  1
  Al0+  Al54  1  0.49800045  -0.00316994  0.00259917  1
  Al0+  Al55  1  0.50171358  -0.00011789  0.33227414  1
  Al0+  Al56  1  0.50060813  -0.00144546  0.66767824  1
  Al0+  Al57  1  0.50126932  0.50244367  -0.01024611  1
  Al0+  Al58  1  0.49818246  0.49961289  0.33912717  1
  Al0+  Al59  1  0.50073110  0.49863040  0.67132280  1
  Al0+  Al60  1  0.24925758  0.25022526  -0.00621206  1
  Al0+  Al61  1  0.24940792  0.24970779  0.34299505  1
  Al0+  Al62  1  0.25195641  0.25040566  0.66682684  1
  Al0+  Al63  1  0.25061620  0.74908211  0.00285797  1
  Al0+  Al64  1  0.24844314  0.75174291  0.33138425  1
  Al0+  Al65  1  0.25190906  0.75204620  0.66701354  1
  Al0+  Al66  1  0.74959608  0.25158479  -0.00651718  1
  Al0+  Al67  1  0.75061742  0.24901173  0.33934859  1
  Al0+  Al68  1  0.75121180  0.24932796  0.66398671  1
  Al0+  Al69  1  0.75062966  0.74945074  0.00189114  1
  Al0+  Al70  1  0.74847320  0.75182909  0.32297255  1
  Al0+  Al71  1  0.74857292  0.74888718  0.66922548  1
  Al0+  Al72  1  0.07279592  0.17945413  0.64748827  1
  Al0+  Al73  1  0.42859111  0.32160290  0.98571823  1
  Al0+  Al74  1  0.92644159  0.81997645  0.65443100  1
  Al0+  Al75  1  0.92734791  0.82391098  0.31505549  1
  Al0+  Al76  1  0.42960482  0.82078808  0.65288565  1
  Al0+  Al77  1  0.81975653  0.07219246  0.01369283  1
  Al0+  Al78  1  0.56802371  0.67796083  0.32114428  1
  Al0+  Al79  1  0.92779878  0.32345490  0.98578083  1
  Al0+  Al80  1  0.17543311  0.42832574  0.34849574  1
  Al0+  Al81  1  0.67644335  0.92708802  0.01831039  1
  Al0+  Al82  1  0.32248311  0.06951316  0.34664039  1
  Al0+  Al83  1  0.81857863  0.56932932  0.67831676  1
  Al0+  Al84  1  0.17957129  0.42834328  0.68628177  1
  Al0+  Al85  1  0.92854708  0.32233964  0.64811256  1
  Al0+  Al86  1  0.57209886  0.68069665  0.98412659  1
  Al0+  Al87  1  0.32208834  0.57397620  0.68494756  1
  Al0+  Al88  1  0.07114205  0.67763232  0.31850914  1
  Al0+  Al89  1  0.32138231  0.57273229  0.34746788  1
  Al0+  Al90  1  0.57261057  0.17905073  0.32101877  1
  Al0+  Al91  1  0.68016590  0.93054941  0.67907154  1
  Al0+  Al92  1  0.57184428  0.17590663  0.98489272  1
  Al0+  Al93  1  0.67918497  0.42886216  0.34452170  1
  Al0+  Al94  1  0.82175684  0.07115096  0.34902053  1
  Al0+  Al95  1  0.07034604  0.17691733  0.98682918  1
  Si0+  Si96  1  0.17748557  0.92898436  0.35082022  1
  Si0+  Si97  1  0.82434324  0.07216537  0.68307906  1
  Si0+  Si98  1  0.17828483  0.93047316  0.67991338  1
  Si0+  Si99  1  0.32192829  0.57104845  0.01518834  1
  Si0+  Si100  1  0.07242989  0.67884874  0.65297984  1
  Si0+  Si101  1  0.32217161  0.07016626  0.68289073  1
  Si0+  Si102  1  0.93121110  0.81871077  0.98476267  1
  Si0+  Si103  1  0.42749148  0.32001452  0.32102550  1
  Si0+  Si104  1  0.42696379  0.82368391  0.31573959  1
  Si0+  Si105  1  0.56960002  0.17829667  0.65180663  1
  Si0+  Si106  1  0.43040738  0.32182996  0.64961440  1
  Si0+  Si107  1  0.82337506  0.57132528  0.01645678  1
  Si0+  Si108  1  0.42543419  0.82083369  0.98447073  1
  Si0+  Si109  1  0.57162489  0.67689375  0.64984737  1
  Si0+  Si110  1  0.67926732  0.92623743  0.34991678  1
  Si0+  Si111  1  0.82029828  0.57384776  0.34661809  1
  Si0+  Si112  1  0.18074017  0.42937255  0.01506306  1
  Si0+  Si113  1  0.07348587  0.67928932  0.98457605  1
  Si0+  Si114  1  0.07231842  0.18072967  0.31896996  1
  Si0+  Si115  1  0.67739184  0.42399257  0.68563111  1
  Si0+  Si116  1  0.17794172  0.92684819  0.01496710  1
  Si0+  Si117  1  0.92843210  0.32076822  0.31946948  1
  Si0+  Si118  1  0.67816569  0.43149854  0.01249635  1
  Si0+  Si119  1  0.31933268  0.07197255  0.01388009  1
  O2-  O120  1  0.24714832  0.00101494  0.05523994  1
  O2-  O121  1  0.24958468  -0.00610082  0.39535590  1
  O2-  O122  1  0.24762830  0.00230414  0.72454816  1
  O2-  O123  1  0.25349125  0.49806844  0.05802352  1
  O2-  O124  1  0.24469764  0.50477529  0.39571927  1
  O2-  O125  1  0.25165607  0.50105124  0.73641611  1
  O2-  O126  1  0.74370278  0.00503213  0.06598084  1
  O2-  O127  1  0.74872463  -0.00608938  0.39429718  1
  O2-  O128  1  0.75648925  0.00282615  0.72684463  1
  O2-  O129  1  0.75315067  0.49827717  0.05619675  1
  O2-  O130  1  0.75124595  0.50610318  0.39094907  1
  O2-  O131  1  0.74700002  0.49272166  0.72827843  1
  O2-  O132  1  0.00237175  0.25263839  0.27720175  1
  O2-  O133  1  0.00081824  0.25114738  0.59704474  1
  O2-  O134  1  -0.00323307  0.24742895  0.93793701  1
  O2-  O135  1  -0.00021105  0.75018787  0.26718621  1
  O2-  O136  1  0.00071365  0.74425152  0.60883390  1
  O2-  O137  1  0.00153586  0.74798220  0.94078646  1
  O2-  O138  1  0.49653552  0.25285471  0.27512326  1
  O2-  O139  1  0.50378125  0.25327505  0.60777132  1
  O2-  O140  1  0.49905897  0.24768774  0.93506485  1
  O2-  O141  1  0.49178115  0.75092385  0.27253748  1
  O2-  O142  1  0.49919459  0.74173248  0.60619066  1
  O2-  O143  1  0.49902245  0.75801777  0.94001003  1
  O2-  O144  1  0.07445137  0.18046588  0.10085438  1
  O2-  O145  1  0.07221585  0.17969527  0.42353025  1
  O2-  O146  1  0.07054360  0.17735545  0.76109498  1
  O2-  O147  1  0.07396091  0.68018425  0.08923455  1
  O2-  O148  1  0.06890863  0.67915522  0.43218978  1
  O2-  O149  1  0.07224659  0.68360346  0.75942210  1
  O2-  O150  1  0.57078717  0.17994568  0.09863519  1
  O2-  O151  1  0.57113770  0.17993009  0.43465641  1
  O2-  O152  1  0.56612436  0.17768604  0.75676898  1
  O2-  O153  1  0.56907611  0.67638413  0.09727464  1
  O2-  O154  1  0.57015240  0.68029752  0.43398043  1
  O2-  O155  1  0.57302021  0.68052218  0.75559828  1
  O2-  O156  1  0.17847615  0.42523241  0.23396622  1
  O2-  O157  1  0.18123047  0.43097854  0.57285974  1
  O2-  O158  1  0.18040449  0.43191458  0.91053242  1
  O2-  O159  1  0.17832267  0.93158516  0.24452728  1
  O2-  O160  1  0.18029150  0.92997577  0.57527902  1
  O2-  O161  1  0.17874909  0.92298742  0.90979562  1
  O2-  O162  1  0.68053558  0.42794144  0.23090336  1
  O2-  O163  1  0.67580768  0.42467717  0.57986654  1
  O2-  O164  1  0.67723255  0.43479162  0.90750240  1
  O2-  O165  1  0.67951045  0.92678136  0.24464294  1
  O2-  O166  1  0.67909784  0.93204238  0.56597653  1
  O2-  O167  1  0.68055979  0.92553807  0.90428607  1
  O2-  O168  1  0.42794537  0.32122308  0.09965290  1
  O2-  O169  1  0.42972401  0.31760377  0.42668013  1
  O2-  O170  1  0.43063938  0.31918015  0.75484566  1
  O2-  O171  1  0.41975490  0.81751444  0.08968830  1
  O2-  O172  1  0.42979629  0.82578707  0.42137480  1
  O2-  O173  1  0.43116554  0.82303854  0.76606624  1
  O2-  O174  1  0.93071984  0.32610446  0.10006350  1
  O2-  O175  1  0.92729534  0.32035082  0.42405682  1
  O2-  O176  1  0.92912173  0.31964257  0.76156226  1
  O2-  O177  1  0.93387439  0.81824323  0.08942809  1
  O2-  O178  1  0.92701493  0.82112549  0.42895495  1
  O2-  O179  1  0.92897393  0.81917543  0.76821144  1
  O2-  O180  1  0.31956060  0.07049689  0.23300257  1
  O2-  O181  1  0.32467684  0.06796289  0.57786239  1
  O2-  O182  1  0.31986269  0.07025641  0.90857024  1
  O2-  O183  1  0.32342081  0.56665807  0.23309287  1
  O2-  O184  1  0.32011231  0.57398972  0.57170786  1
  O2-  O185  1  0.31801922  0.57447481  0.91056897  1
  O2-  O186  1  0.82124692  0.07445054  0.23607704  1
  O2-  O187  1  0.82168774  0.07187185  0.57727287  1
  O2-  O188  1  0.82244349  0.06627940  0.90013423  1
  O2-  O189  1  0.82082003  0.57088824  0.24060867  1
  O2-  O190  1  0.81437932  0.57168589  0.56522215  1
  O2-  O191  1  0.82360591  0.57375233  0.91132916  1
  O2-  O192  1  0.04554028  0.08896011  0.27135434  1
  O2-  O193  1  0.04726182  0.08095854  0.59270418  1
  O2-  O194  1  0.04616021  0.07653935  0.93504265  1
  O2-  O195  1  0.04200216  0.57982161  0.26308912  1
  O2-  O196  1  0.05053221  0.58343938  0.61170936  1
  O2-  O197  1  0.04743297  0.58726060  0.93748324  1
  O2-  O198  1  0.54308400  0.08255616  0.26688489  1
  O2-  O199  1  0.53648517  0.08864508  0.60397433  1
  O2-  O200  1  0.54161698  0.07643335  0.93478940  1
  O2-  O201  1  0.53750521  0.58019340  0.26735247  1
  O2-  O202  1  0.55139020  0.58021868  0.60804912  1
  O2-  O203  1  0.54059793  0.58731035  0.92542675  1
  O2-  O204  1  0.16554982  0.20774007  0.27326992  1
  O2-  O205  1  0.17361901  0.20642607  0.59820625  1
  O2-  O206  1  0.16718431  0.20557659  0.93123843  1
  O2-  O207  1  0.16926362  0.70699884  0.26334452  1
  O2-  O208  1  0.16430354  0.70844399  0.60671919  1
  O2-  O209  1  0.16484796  0.70905725  0.93735692  1
  O2-  O210  1  0.66845555  0.21356579  0.26828179  1
  O2-  O211  1  0.66339847  0.20108990  0.60626794  1
  O2-  O212  1  0.66801963  0.20535486  0.92882057  1
  O2-  O213  1  0.66292341  0.70751399  0.26277588  1
  O2-  O214  1  0.66303248  0.70700314  0.60288066  1
  O2-  O215  1  0.67036291  0.70943833  0.93189922  1
  O2-  O216  1  0.08950533  0.45944557  0.06292209  1
  O2-  O217  1  0.07604067  0.45531062  0.40011531  1
  O2-  O218  1  0.08114042  0.45507127  0.73975001  1
  O2-  O219  1  0.08638591  0.95144750  0.06370816  1
  O2-  O220  1  0.08529250  0.95810915  0.39663118  1
  O2-  O221  1  0.08567662  0.95751192  0.72723367  1
  O2-  O222  1  0.58714700  0.46401088  0.05903974  1
  O2-  O223  1  0.58342613  0.45659082  0.40132582  1
  O2-  O224  1  0.58410254  0.44863721  0.73255638  1
  O2-  O225  1  0.57398197  0.94448342  0.06757295  1
  O2-  O226  1  0.58550532  0.95211898  0.39525812  1
  O2-  O227  1  0.58456706  0.96326939  0.73486119  1
  O2-  O228  1  0.20669250  0.33590483  0.06029690  1
  O2-  O229  1  0.20559131  0.33252627  0.40482807  1
  O2-  O230  1  0.21215120  0.32965726  0.73728662  1
  O2-  O231  1  0.20934514  0.83698211  0.06532333  1
  O2-  O232  1  0.19805885  0.83391305  0.39513701  1
  O2-  O233  1  0.20677864  0.84004385  0.73018272  1
  O2-  O234  1  0.70132385  0.33766389  0.05777639  1
  O2-  O235  1  0.71262748  0.33570076  0.40287078  1
  O2-  O236  1  0.70238357  0.32962508  0.73062097  1
  O2-  O237  1  0.71174585  0.83001782  0.07048757  1
  O2-  O238  1  0.70491073  0.83182349  0.39453604  1
  O2-  O239  1  0.70843496  0.83363212  0.73350988  1
  O2-  O240  1  0.45079790  0.41428316  0.27636576  1
  O2-  O241  1  0.45623293  0.41517858  0.60444612  1
  O2-  O242  1  0.45814754  0.41775457  0.92904689  1
  O2-  O243  1  0.45613101  0.91553861  0.26767492  1
  O2-  O244  1  0.46368719  0.91636800  0.59810977  1
  O2-  O245  1  0.44337321  0.91661779  0.94022069  1
  O2-  O246  1  0.95064721  0.41371273  0.27160426  1
  O2-  O247  1  0.95592291  0.42285030  0.59868090  1
  O2-  O248  1  0.96084663  0.42112872  0.93274768  1
  O2-  O249  1  0.96059222  0.92151058  0.26259961  1
  O2-  O250  1  0.95743711  0.91507758  0.59900424  1
  O2-  O251  1  0.95963198  0.90981074  0.93699858  1
  O2-  O252  1  0.33367464  0.29232737  0.27617024  1
  O2-  O253  1  0.33976578  0.29164568  0.60278189  1
  O2-  O254  1  0.33197651  0.29209691  0.92953083  1
  O2-  O255  1  0.33103773  0.80595796  0.27138526  1
  O2-  O256  1  0.33143189  0.79621415  0.59857141  1
  O2-  O257  1  0.33351552  0.79040757  0.93587290  1
  O2-  O258  1  0.83793746  0.28860875  0.27231792  1
  O2-  O259  1  0.82865550  0.29514485  0.59616392  1
  O2-  O260  1  0.82897271  0.30289989  0.93141605  1
  O2-  O261  1  0.83085915  0.79564078  0.25888314  1
  O2-  O262  1  0.83085181  0.78723488  0.60012783  1
  O2-  O263  1  0.83940009  0.78951526  0.93893600  1
  O2-  O264  1  0.40986410  0.04347704  0.06343401  1
  O2-  O265  1  0.41933276  0.03913108  0.40113576  1
  O2-  O266  1  0.41145493  0.03767759  0.73228779  1
  O2-  O267  1  0.41628691  0.54469036  0.05756516  1
  O2-  O268  1  0.41665314  0.54234278  0.40499217  1
  O2-  O269  1  0.42157161  0.54519908  0.73649377  1
  O2-  O270  1  0.91766953  0.03943461  0.06755942  1
  O2-  O271  1  0.91915278  0.04242651  0.40230640  1
  O2-  O272  1  0.91965028  0.04745371  0.72513993  1
  O2-  O273  1  0.91641989  0.54586728  0.06325844  1
  O2-  O274  1  0.91316998  0.54889768  0.39326567  1
  O2-  O275  1  0.91577045  0.54432679  0.73482154  1
  O2-  O276  1  0.29135174  0.16402357  0.06069753  1
  O2-  O277  1  0.29149258  0.16376075  0.40446781  1
  O2-  O278  1  0.29776367  0.16284291  0.72952863  1
  O2-  O279  1  0.29240945  0.66165282  0.06446336  1
  O2-  O280  1  0.29840494  0.67440369  0.39583391  1
  O2-  O281  1  0.29406881  0.67346540  0.73733210  1
  O2-  O282  1  0.79607547  0.17409023  0.06305994  1
  O2-  O283  1  0.78796040  0.16478784  0.40639089  1
  O2-  O284  1  0.79774924  0.16606613  0.72759834  1
  O2-  O285  1  0.79404521  0.66181570  0.06486092  1
  O2-  O286  1  0.79374760  0.66851537  0.38935479  1
  O2-  O287  1  0.78552251  0.66388256  0.73654511  1
