# generated using pymatgen
data_Ca2Al2SiO7
_symmetry_space_group_name_H-M   'P 1'
_cell_length_a   15.45920321
_cell_length_b   15.45856636
_cell_length_c   15.28411653
_cell_angle_alpha   89.99544864
_cell_angle_beta   89.99576123
_cell_angle_gamma   89.98448827
_symmetry_Int_Tables_number   1
_chemical_formula_structural   Ca2Al2SiO7
_chemical_formula_sum   'Ca48 Al48 Si24 O168'
_cell_volume   3652.55397580
_cell_formula_units_Z   24
loop_
 _symmetry_equiv_pos_site_id
 _symmetry_equiv_pos_as_xyz
  1  'x, y, z'
loop_
 _atom_type_symbol
 _atom_type_oxidation_number
  Ca2+  2.0
  Al0+  0.0
  Si0+  0.0
  O2-  -2.0
loop_
 _atom_site_type_symbol
 _atom_site_label
 _atom_site_symmetry_multiplicity
 _atom_site_fract_x
 _atom_site_fract_y
 _atom_site_fract_z
 _atom_site_occupancy
  Ca2+  Ca0  1  0.16343750  0.07288100  0.17176170  1
  Ca2+  Ca1  1  0.15868958  0.07654816  0.50082763  1
  Ca2+  Ca2  1  0.17481328  0.07349581  0.84605075  1
  Ca2+  Ca3  1  0.16976633  0.58652152  0.17454145  1
  Ca2+  Ca4  1  0.16806725  0.59098260  0.50026538  1
  Ca2+  Ca5  1  0.16207968  0.58762155  0.83697009  1
  Ca2+  Ca6  1  0.66045853  0.08237248  0.16565989  1
  Ca2+  Ca7  1  0.66994756  0.08444609  0.50606294  1
  Ca2+  Ca8  1  0.66961563  0.07569742  0.84120258  1
  Ca2+  Ca9  1  0.68054789  0.58925926  0.16923589  1
  Ca2+  Ca10  1  0.67824891  0.58414652  0.50733563  1
  Ca2+  Ca11  1  0.67683952  0.59312505  0.83888376  1
  Ca2+  Ca12  1  0.08135686  0.32820156  0.16265300  1
  Ca2+  Ca13  1  0.07714001  0.32663530  0.49709606  1
  Ca2+  Ca14  1  0.07073498  0.33332435  0.83174964  1
  Ca2+  Ca15  1  0.08312505  0.82579373  0.16015994  1
  Ca2+  Ca16  1  0.07847647  0.82612081  0.49584899  1
  Ca2+  Ca17  1  0.07817040  0.82625988  0.83051209  1
  Ca2+  Ca18  1  0.57431942  0.32499097  0.16061726  1
  Ca2+  Ca19  1  0.57984759  0.32771517  0.49017554  1
  Ca2+  Ca20  1  0.58082848  0.32918401  0.83573213  1
  Ca2+  Ca21  1  0.58342338  0.82902001  0.15640599  1
  Ca2+  Ca22  1  0.57960636  0.82958940  0.50321895  1
  Ca2+  Ca23  1  0.58590190  0.82594418  0.83091606  1
  Ca2+  Ca24  1  0.33914421  0.41997264  0.17187095  1
  Ca2+  Ca25  1  0.33549052  0.42039932  0.49883140  1
  Ca2+  Ca26  1  0.33087335  0.41670256  0.84027138  1
  Ca2+  Ca27  1  0.32068605  0.91906235  0.16874488  1
  Ca2+  Ca28  1  0.32688335  0.91209302  0.50343064  1
  Ca2+  Ca29  1  0.32981593  0.91724093  0.84323274  1
  Ca2+  Ca30  1  0.83987720  0.42825933  0.16785430  1
  Ca2+  Ca31  1  0.83864979  0.42676056  0.50677625  1
  Ca2+  Ca32  1  0.84053962  0.42741451  0.83839177  1
  Ca2+  Ca33  1  0.82671179  0.90838110  0.16563153  1
  Ca2+  Ca34  1  0.83608625  0.92429528  0.50892203  1
  Ca2+  Ca35  1  0.83518681  0.91638424  0.83976686  1
  Ca2+  Ca36  1  0.42075850  0.17331307  0.15819042  1
  Ca2+  Ca37  1  0.42430286  0.17433727  0.48739522  1
  Ca2+  Ca38  1  0.41870526  0.16282163  0.83671611  1
  Ca2+  Ca39  1  0.42218909  0.66411260  0.16047912  1
  Ca2+  Ca40  1  0.41880856  0.66833506  0.49798185  1
  Ca2+  Ca41  1  0.43068617  0.67325773  0.82662464  1
  Ca2+  Ca42  1  0.92211794  0.17298592  0.16183886  1
  Ca2+  Ca43  1  0.91429589  0.17192031  0.49617351  1
  Ca2+  Ca44  1  0.90559356  0.17840616  0.82916371  1
  Ca2+  Ca45  1  0.92505394  0.66647703  0.15655773  1
  Ca2+  Ca46  1  0.92348277  0.66341673  0.49830723  1
  Ca2+  Ca47  1  0.91966345  0.67540946  0.82924649  1
  Al0+  Al48  1  -0.00012228  -0.00011175  0.00238722  1
  Al0+  Al49  1  -0.00256507  -0.00009872  0.33383177  1
  Al0+  Al50  1  0.00092699  0.00015703  0.67207941  1
  Al0+  Al51  1  0.00203544  0.49890567  -0.00153743  1
  Al0+  Al52  1  0.00218756  0.50117406  0.33559625  1
  Al0+  Al53  1  0.00058374  0.49768220  0.66301092  1
  Al0+  Al54  1  0.50021539  0.00117626  0.00547533  1
  Al0+  Al55  1  0.49886959  -0.00154897  0.33164386  1
  Al0+  Al56  1  0.49926906  0.00025896  0.66248198  1
  Al0+  Al57  1  0.50156618  0.49832282  -0.00840067  1
  Al0+  Al58  1  0.50138592  0.50082032  0.33512268  1
  Al0+  Al59  1  0.49990650  0.49903199  0.66411709  1
  Al0+  Al60  1  0.25033361  0.25147471  0.00012038  1
  Al0+  Al61  1  0.24905786  0.25008246  0.32722866  1
  Al0+  Al62  1  0.24991182  0.25007502  0.66780009  1
  Al0+  Al63  1  0.25076676  0.74876984  0.00086232  1
  Al0+  Al64  1  0.24897209  0.75024074  0.33849540  1
  Al0+  Al65  1  0.25084784  0.74950863  0.66272249  1
  Al0+  Al66  1  0.74781155  0.25075195  -0.00573466  1
  Al0+  Al67  1  0.74875945  0.25041993  0.32791979  1
  Al0+  Al68  1  0.74897651  0.25112880  0.66590792  1
  Al0+  Al69  1  0.75207946  0.75072143  0.00236597  1
  Al0+  Al70  1  0.74928113  0.75142238  0.34178919  1
  Al0+  Al71  1  0.74985276  0.75090824  0.66189183  1
  Al0+  Al72  1  0.82128685  0.07197499  0.68028610  1
  Al0+  Al73  1  0.82120612  0.56982903  0.01299685  1
  Al0+  Al74  1  0.32108263  0.07242499  0.01705632  1
  Al0+  Al75  1  0.82282613  0.57109149  0.34859468  1
  Al0+  Al76  1  0.57000237  0.17655274  0.98200380  1
  Al0+  Al77  1  0.32213335  0.57013694  0.34704182  1
  Al0+  Al78  1  0.92871219  0.82427215  0.65120947  1
  Al0+  Al79  1  0.92958299  0.32003673  0.98745505  1
  Al0+  Al80  1  0.07343795  0.67840118  0.98581805  1
  Al0+  Al81  1  0.92811925  0.31932659  0.65209892  1
  Al0+  Al82  1  0.57238397  0.67720763  0.64947310  1
  Al0+  Al83  1  0.06908427  0.17698223  0.32034285  1
  Al0+  Al84  1  0.57215052  0.17668405  0.31702461  1
  Al0+  Al85  1  0.17746421  0.92673032  0.01586722  1
  Al0+  Al86  1  0.82140806  0.57051249  0.68204223  1
  Al0+  Al87  1  0.07031182  0.68052113  0.31890577  1
  Al0+  Al88  1  0.42928120  0.82201671  0.65191062  1
  Al0+  Al89  1  0.92883263  0.82181735  0.98689698  1
  Al0+  Al90  1  0.57267330  0.67924449  0.98900382  1
  Al0+  Al91  1  0.42738275  0.32109598  0.98215424  1
  Al0+  Al92  1  0.68128298  0.92936193  0.01285962  1
  Al0+  Al93  1  0.42933612  0.32321988  0.31831107  1
  Al0+  Al94  1  0.07015313  0.67834909  0.64993748  1
  Al0+  Al95  1  0.17758310  0.93006196  0.34989968  1
  Si0+  Si96  1  0.56930514  0.18006039  0.65159308  1
  Si0+  Si97  1  0.32148358  0.07190361  0.67998247  1
  Si0+  Si98  1  0.92846766  0.32311978  0.31673714  1
  Si0+  Si99  1  0.17794867  0.42561098  0.35112411  1
  Si0+  Si100  1  0.42838535  0.82118374  0.98729730  1
  Si0+  Si101  1  0.18043743  0.92775112  0.68267471  1
  Si0+  Si102  1  0.32174977  0.57119024  0.68271669  1
  Si0+  Si103  1  0.32335184  0.56940538  0.01195183  1
  Si0+  Si104  1  0.18099184  0.42750122  0.68202034  1
  Si0+  Si105  1  0.67665978  0.93008504  0.68231110  1
  Si0+  Si106  1  0.32116246  0.07181474  0.35056481  1
  Si0+  Si107  1  0.42791520  0.81965085  0.31727675  1
  Si0+  Si108  1  0.67601970  0.92870338  0.35091605  1
  Si0+  Si109  1  0.17897849  0.42987409  0.01502659  1
  Si0+  Si110  1  0.57211044  0.68083763  0.31890678  1
  Si0+  Si111  1  0.67677140  0.42724170  0.01649856  1
  Si0+  Si112  1  0.81866830  0.07190688  0.34640805  1
  Si0+  Si113  1  0.42608324  0.32054090  0.65051361  1
  Si0+  Si114  1  0.92587375  0.82218089  0.31730775  1
  Si0+  Si115  1  0.82153087  0.07569698  0.01758968  1
  Si0+  Si116  1  0.67572580  0.42779103  0.68418036  1
  Si0+  Si117  1  0.07197274  0.17714848  0.98365871  1
  Si0+  Si118  1  0.67994462  0.42823308  0.34855650  1
  Si0+  Si119  1  0.07391727  0.17867583  0.65287874  1
  O2-  O120  1  0.24688504  0.00186324  0.06577337  1
  O2-  O121  1  0.25119689  0.00631685  0.39799454  1
  O2-  O122  1  0.25230308  -0.00051157  0.72258341  1
  O2-  O123  1  0.25165758  0.49993026  0.05558658  1
  O2-  O124  1  0.24818654  0.49390226  0.39405281  1
  O2-  O125  1  0.24975519  0.50096674  0.72459945  1
  O2-  O126  1  0.75531824  0.00450861  0.06183081  1
  O2-  O127  1  0.74519259  0.00340215  0.38940832  1
  O2-  O128  1  0.74947246  -0.00565256  0.72622156  1
  O2-  O129  1  0.74602858  0.49533410  0.06094500  1
  O2-  O130  1  0.74980601  0.49413270  0.39482802  1
  O2-  O131  1  0.74249384  0.49861033  0.72775118  1
  O2-  O132  1  -0.00277274  0.25420660  0.27348182  1
  O2-  O133  1  0.00042529  0.24138360  0.60729577  1
  O2-  O134  1  -0.00052640  0.24122606  0.93897607  1
  O2-  O135  1  -0.00709310  0.75222226  0.27325943  1
  O2-  O136  1  -0.00263280  0.74983696  0.59994032  1
  O2-  O137  1  0.00275259  0.75186854  0.93737922  1
  O2-  O138  1  0.49785551  0.24751161  0.26972078  1
  O2-  O139  1  0.49871936  0.25125872  0.60895492  1
  O2-  O140  1  0.49692116  0.24727623  0.93127995  1
  O2-  O141  1  0.50010728  0.74987253  0.27506837  1
  O2-  O142  1  0.49892657  0.74850631  0.60009956  1
  O2-  O143  1  0.49835279  0.75447541  0.94276061  1
  O2-  O144  1  0.07124131  0.17994633  0.08950984  1
  O2-  O145  1  0.06496656  0.17742953  0.43392544  1
  O2-  O146  1  0.07929775  0.18353538  0.75790990  1
  O2-  O147  1  0.07382400  0.67725642  0.09958977  1
  O2-  O148  1  0.06969634  0.68185502  0.43169620  1
  O2-  O149  1  0.07202677  0.68003525  0.76321646  1
  O2-  O150  1  0.56957907  0.17937157  0.09523698  1
  O2-  O151  1  0.57250785  0.17872368  0.43167048  1
  O2-  O152  1  0.56732609  0.17835829  0.75599820  1
  O2-  O153  1  0.57021894  0.67978321  0.10281005  1
  O2-  O154  1  0.57138475  0.68287148  0.42371431  1
  O2-  O155  1  0.57099896  0.67887619  0.76317373  1
  O2-  O156  1  0.17515929  0.42645877  0.24558001  1
  O2-  O157  1  0.18485590  0.42196021  0.57725735  1
  O2-  O158  1  0.17832807  0.42945845  0.90958377  1
  O2-  O159  1  0.17921406  0.92964341  0.23740949  1
  O2-  O160  1  0.17990194  0.92980995  0.57736729  1
  O2-  O161  1  0.18166117  0.92681179  0.90171300  1
  O2-  O162  1  0.68006147  0.42978617  0.24329175  1
  O2-  O163  1  0.67588272  0.42590183  0.57823571  1
  O2-  O164  1  0.67710065  0.42790393  0.91084693  1
  O2-  O165  1  0.67667103  0.92384992  0.24617126  1
  O2-  O166  1  0.67333822  0.93571667  0.57629004  1
  O2-  O167  1  0.68167567  0.92946063  0.89979514  1
  O2-  O168  1  0.42981403  0.32427438  0.09525769  1
  O2-  O169  1  0.43212547  0.32160379  0.43294142  1
  O2-  O170  1  0.42353396  0.31945578  0.75497449  1
  O2-  O171  1  0.42769414  0.81707804  0.09322088  1
  O2-  O172  1  0.42970237  0.82003264  0.42236715  1
  O2-  O173  1  0.43016016  0.82239649  0.76558889  1
  O2-  O174  1  0.93401092  0.32064527  0.10080499  1
  O2-  O175  1  0.92779497  0.32091417  0.42252193  1
  O2-  O176  1  0.93039698  0.31978117  0.76502126  1
  O2-  O177  1  0.92675900  0.81753894  0.10075052  1
  O2-  O178  1  0.92688199  0.82422404  0.42283648  1
  O2-  O179  1  0.93202986  0.82548830  0.76429809  1
  O2-  O180  1  0.32113365  0.06825429  0.24568749  1
  O2-  O181  1  0.32019200  0.07462375  0.57500002  1
  O2-  O182  1  0.31956387  0.06942683  0.90220029  1
  O2-  O183  1  0.32267184  0.57016888  0.23360159  1
  O2-  O184  1  0.32254517  0.56877822  0.57756811  1
  O2-  O185  1  0.32281154  0.56849169  0.90670741  1
  O2-  O186  1  0.81988541  0.07146778  0.24171269  1
  O2-  O187  1  0.81741540  0.07367706  0.56634551  1
  O2-  O188  1  0.81908253  0.07656216  0.91194255  1
  O2-  O189  1  0.82175069  0.57166466  0.23539597  1
  O2-  O190  1  0.82133915  0.56614477  0.56857497  1
  O2-  O191  1  0.82101238  0.56986667  0.90005687  1
  O2-  O192  1  0.03450631  0.08253834  0.26487759  1
  O2-  O193  1  0.05297917  0.08304312  0.61059363  1
  O2-  O194  1  0.05254346  0.08170951  0.93990244  1
  O2-  O195  1  0.04484440  0.58112052  0.26787156  1
  O2-  O196  1  0.04508334  0.57888273  0.59773016  1
  O2-  O197  1  0.04566377  0.58015406  0.93340979  1
  O2-  O198  1  0.54580010  0.07675192  0.26686500  1
  O2-  O199  1  0.54178287  0.08925857  0.60202298  1
  O2-  O200  1  0.54133858  0.07729843  0.93049309  1
  O2-  O201  1  0.54693147  0.58804275  0.27350202  1
  O2-  O202  1  0.54346178  0.57820459  0.59709184  1
  O2-  O203  1  0.54327698  0.58467446  0.93178704  1
  O2-  O204  1  0.16571515  0.20427631  0.26566830  1
  O2-  O205  1  0.16480876  0.20966855  0.60285126  1
  O2-  O206  1  0.16381683  0.20731219  0.93736986  1
  O2-  O207  1  0.16795543  0.71238176  0.26781264  1
  O2-  O208  1  0.16923857  0.70663516  0.59830390  1
  O2-  O209  1  0.17280534  0.70434892  0.93280275  1
  O2-  O210  1  0.66964041  0.20525720  0.26259092  1
  O2-  O211  1  0.66041074  0.20875368  0.60352247  1
  O2-  O212  1  0.66742007  0.20610439  0.92792063  1
  O2-  O213  1  0.66401748  0.71200271  0.27370549  1
  O2-  O214  1  0.66890467  0.70709553  0.59443672  1
  O2-  O215  1  0.66741886  0.71294535  0.93517883  1
  O2-  O216  1  0.08895925  0.45784645  0.06529879  1
  O2-  O217  1  0.08565656  0.45255490  0.39945577  1
  O2-  O218  1  0.08836685  0.45364436  0.72792074  1
  O2-  O219  1  0.07844081  0.95319102  0.06927334  1
  O2-  O220  1  0.08033000  0.96224826  0.40313609  1
  O2-  O221  1  0.08995249  0.95559269  0.73184323  1
  O2-  O222  1  0.58265938  0.45377631  0.06103950  1
  O2-  O223  1  0.58743750  0.45484765  0.39686538  1
  O2-  O224  1  0.58023785  0.44941035  0.72904097  1
  O2-  O225  1  0.58479436  0.95746222  0.06903482  1
  O2-  O226  1  0.58340153  0.95469837  0.39836113  1
  O2-  O227  1  0.58428378  0.96061677  0.72884340  1
  O2-  O228  1  0.20514124  0.33798334  0.06310245  1
  O2-  O229  1  0.20257502  0.33125903  0.39728147  1
  O2-  O230  1  0.21170398  0.33749893  0.73258023  1
  O2-  O231  1  0.21043314  0.82926803  0.06949081  1
  O2-  O232  1  0.21192268  0.83552499  0.40533239  1
  O2-  O233  1  0.21002249  0.83593349  0.72858139  1
  O2-  O234  1  0.70161405  0.33293021  0.06138069  1
  O2-  O235  1  0.70311669  0.33290337  0.39395684  1
  O2-  O236  1  0.70254341  0.33457133  0.73007832  1
  O2-  O237  1  0.71258377  0.83460085  0.07120539  1
  O2-  O238  1  0.70569626  0.83962619  0.40275406  1
  O2-  O239  1  0.69640395  0.83384860  0.72367820  1
  O2-  O240  1  0.46081009  0.42116125  0.26612453  1
  O2-  O241  1  0.45195471  0.41285367  0.60366141  1
  O2-  O242  1  0.45813298  0.41726613  0.92540040  1
  O2-  O243  1  0.45462727  0.91158535  0.27031605  1
  O2-  O244  1  0.45769632  0.91966113  0.59543841  1
  O2-  O245  1  0.45120727  0.91587787  0.94414314  1
  O2-  O246  1  0.95654488  0.41617022  0.27206402  1
  O2-  O247  1  0.96445025  0.41217987  0.59565992  1
  O2-  O248  1  0.96656832  0.41332922  0.93169562  1
  O2-  O249  1  0.95032901  0.91566477  0.27143095  1
  O2-  O250  1  0.95988737  0.92346284  0.59932064  1
  O2-  O251  1  0.95166076  0.92283271  0.93628106  1
  O2-  O252  1  0.32930561  0.30105206  0.26712086  1
  O2-  O253  1  0.33540134  0.29048411  0.60195303  1
  O2-  O254  1  0.32748876  0.29583213  0.92984007  1
  O2-  O255  1  0.33652856  0.79011426  0.27153326  1
  O2-  O256  1  0.33205023  0.79310615  0.59730648  1
  O2-  O257  1  0.33680435  0.79346300  0.93886768  1
  O2-  O258  1  0.83536947  0.29826689  0.27011433  1
  O2-  O259  1  0.83100026  0.29087938  0.59738495  1
  O2-  O260  1  0.83246450  0.29463881  0.93271263  1
  O2-  O261  1  0.83017874  0.79733382  0.27513876  1
  O2-  O262  1  0.82828119  0.80393212  0.59965740  1
  O2-  O263  1  0.83197089  0.79168513  0.93294486  1
  O2-  O264  1  0.41855416  0.04484595  0.07092990  1
  O2-  O265  1  0.41484180  0.04364252  0.39684195  1
  O2-  O266  1  0.41412369  0.04515165  0.72629014  1
  O2-  O267  1  0.41535499  0.54005870  0.05865717  1
  O2-  O268  1  0.41878178  0.54051336  0.40322475  1
  O2-  O269  1  0.41368918  0.54177902  0.72935818  1
  O2-  O270  1  0.91689581  0.05472428  0.06180366  1
  O2-  O271  1  0.90865141  0.04255024  0.39653902  1
  O2-  O272  1  0.91923900  0.04811628  0.73508515  1
  O2-  O273  1  0.91765717  0.53547541  0.06635349  1
  O2-  O274  1  0.91929442  0.53986923  0.40273538  1
  O2-  O275  1  0.91799442  0.53441920  0.73287642  1
  O2-  O276  1  0.29467312  0.17262205  0.06708598  1
  O2-  O277  1  0.29880311  0.16795198  0.39337138  1
  O2-  O278  1  0.29268936  0.16291198  0.72910574  1
  O2-  O279  1  0.29864834  0.66127085  0.06061129  1
  O2-  O280  1  0.28998693  0.66521521  0.40327048  1
  O2-  O281  1  0.29538790  0.66384733  0.72883656  1
  O2-  O282  1  0.79300193  0.16873308  0.06373774  1
  O2-  O283  1  0.79312403  0.16532868  0.39323773  1
  O2-  O284  1  0.78631152  0.16780746  0.73348471  1
  O2-  O285  1  0.78957444  0.66486990  0.06905245  1
  O2-  O286  1  0.78948336  0.66642308  0.40393585  1
  O2-  O287  1  0.79219726  0.67005959  0.73111321  1
