# generated using pymatgen
data_Ca2Al2SiO7
_symmetry_space_group_name_H-M   'P 1'
_cell_length_a   15.45523440
_cell_length_b   15.45558565
_cell_length_c   15.28148453
_cell_angle_alpha   90.01082511
_cell_angle_beta   89.99656054
_cell_angle_gamma   90.00880472
_symmetry_Int_Tables_number   1
_chemical_formula_structural   Ca2Al2SiO7
_chemical_formula_sum   'Ca48 Al48 Si24 O168'
_cell_volume   3650.28349675
_cell_formula_units_Z   24
loop_
 _symmetry_equiv_pos_site_id
 _symmetry_equiv_pos_as_xyz
  1  'x, y, z'
loop_
 _atom_type_symbol
 _atom_type_oxidation_number
  Ca2+  2.0
  Al0+  0.0
  Si0+  0.0
  O2-  -2.0
loop_
 _atom_site_type_symbol
 _atom_site_label
 _atom_site_symmetry_multiplicity
 _atom_site_fract_x
 _atom_site_fract_y
 _atom_site_fract_z
 _atom_site_occupancy
  Ca2+  Ca0  1  0.16650152  0.07286585  0.16871145  1
  Ca2+  Ca1  1  0.15712569  0.07679751  0.50316630  1
  Ca2+  Ca2  1  0.16958560  0.07584533  0.83723163  1
  Ca2+  Ca3  1  0.16989919  0.57855085  0.16985445  1
  Ca2+  Ca4  1  0.18048217  0.58884903  0.50530688  1
  Ca2+  Ca5  1  0.17152294  0.57828777  0.83665661  1
  Ca2+  Ca6  1  0.68081708  0.08127967  0.17024869  1
  Ca2+  Ca7  1  0.67530701  0.07568063  0.50587688  1
  Ca2+  Ca8  1  0.67279025  0.07706386  0.83732458  1
  Ca2+  Ca9  1  0.66948834  0.57639646  0.16656111  1
  Ca2+  Ca10  1  0.66356991  0.57617315  0.50849953  1
  Ca2+  Ca11  1  0.66756308  0.57668379  0.83451606  1
  Ca2+  Ca12  1  0.08767530  0.32649415  0.16045337  1
  Ca2+  Ca13  1  0.08001044  0.32007285  0.49667590  1
  Ca2+  Ca14  1  0.08003658  0.32731881  0.82230292  1
  Ca2+  Ca15  1  0.07807661  0.84003984  0.16359695  1
  Ca2+  Ca16  1  0.07587496  0.84283763  0.49695643  1
  Ca2+  Ca17  1  0.07545186  0.84316844  0.83008241  1
  Ca2+  Ca18  1  0.58767418  0.33697983  0.16435036  1
  Ca2+  Ca19  1  0.58066531  0.34391609  0.50020697  1
  Ca2+  Ca20  1  0.58241146  0.33594325  0.82555923  1
  Ca2+  Ca21  1  0.57398092  0.83173465  0.15641312  1
  Ca2+  Ca22  1  0.58216485  0.83013596  0.50273009  1
  Ca2+  Ca23  1  0.57285595  0.83052578  0.82135482  1
  Ca2+  Ca24  1  0.32612240  0.42163257  0.17023183  1
  Ca2+  Ca25  1  0.33830824  0.42762596  0.50777371  1
  Ca2+  Ca26  1  0.33230793  0.41996743  0.83370520  1
  Ca2+  Ca27  1  0.32332053  0.91375665  0.16828773  1
  Ca2+  Ca28  1  0.31981846  0.91377934  0.51015409  1
  Ca2+  Ca29  1  0.32526074  0.91415364  0.83971981  1
  Ca2+  Ca30  1  0.82384319  0.42176876  0.16936671  1
  Ca2+  Ca31  1  0.82380495  0.41255831  0.50764723  1
  Ca2+  Ca32  1  0.82624800  0.41979708  0.84149823  1
  Ca2+  Ca33  1  0.84786437  0.92544066  0.16872038  1
  Ca2+  Ca34  1  0.83768904  0.91889271  0.50574729  1
  Ca2+  Ca35  1  0.83198766  0.91536057  0.83672669  1
  Ca2+  Ca36  1  0.41859158  0.16502915  0.15857193  1
  Ca2+  Ca37  1  0.41768214  0.17442600  0.49941111  1
  Ca2+  Ca38  1  0.41464309  0.17177644  0.82804879  1
  Ca2+  Ca39  1  0.41448055  0.67007481  0.16244123  1
  Ca2+  Ca40  1  0.41760690  0.66440147  0.50212905  1
  Ca2+  Ca41  1  0.41968128  0.67497249  0.82357799  1
  Ca2+  Ca42  1  0.91944624  0.16037454  0.16518093  1
  Ca2+  Ca43  1  0.92461287  0.16463179  0.49824861  1
  Ca2+  Ca44  1  0.92145912  0.17097964  0.82544839  1
  Ca2+  Ca45  1  0.91393438  0.67786810  0.15809434  1
  Ca2+  Ca46  1  0.91382688  0.68152729  0.49700217  1
  Ca2+  Ca47  1  0.91410753  0.67419627  0.82901974  1
  Al0+  Al48  1  0.00115954  -0.00007298  0.00060464  1
  Al0+  Al49  1  0.00056688  0.00206389  0.33301281  1
  Al0+  Al50  1  0.00108521  0.00060571  0.66511568  1
  Al0+  Al51  1  -0.00038592  0.50008871  0.00865455  1
  Al0+  Al52  1  -0.00136079  0.50018837  0.33434034  1
  Al0+  Al53  1  0.00007238  0.50077955  0.66007663  1
  Al0+  Al54  1  0.50054950  0.00154006  -0.00258300  1
  Al0+  Al55  1  0.49967877  0.00137375  0.33189374  1
  Al0+  Al56  1  0.49971587  0.00031757  0.66500362  1
  Al0+  Al57  1  0.49953710  0.49917126  0.00294422  1
  Al0+  Al58  1  0.49950814  0.50092624  0.33674328  1
  Al0+  Al59  1  0.50073102  0.50059432  0.66942243  1
  Al0+  Al60  1  0.25153237  0.24950155  0.00566436  1
  Al0+  Al61  1  0.25033046  0.24965928  0.32755296  1
  Al0+  Al62  1  0.25133113  0.24966698  0.65595506  1
  Al0+  Al63  1  0.24848414  0.74924866  -0.00049630  1
  Al0+  Al64  1  0.24891064  0.74979598  0.34046716  1
  Al0+  Al65  1  0.24952575  0.75076301  0.67437420  1
  Al0+  Al66  1  0.74986467  0.24821329  0.00673209  1
  Al0+  Al67  1  0.74966482  0.24902013  0.34198787  1
  Al0+  Al68  1  0.75019152  0.24938764  0.66760618  1
  Al0+  Al69  1  0.74895083  0.74885613  -0.00134908  1
  Al0+  Al70  1  0.74777968  0.74997514  0.32545581  1
  Al0+  Al71  1  0.74907939  0.75009253  0.66226283  1
  Al0+  Al72  1  0.56982462  0.67950688  0.65145687  1
  Al0+  Al73  1  0.17853274  0.93082000  0.68220376  1
  Al0+  Al74  1  0.93049209  0.82109913  0.98465462  1
  Al0+  Al75  1  0.17836280  0.42779511  0.01147974  1
  Al0+  Al76  1  0.42804947  0.82118407  0.98649174  1
  Al0+  Al77  1  0.67803806  0.42852877  0.01526826  1
  Al0+  Al78  1  0.18124673  0.93205258  0.34855805  1
  Al0+  Al79  1  0.93019737  0.81944575  0.65391195  1
  Al0+  Al80  1  0.92633632  0.32369557  0.65289572  1
  Al0+  Al81  1  0.82181633  0.57351697  0.01480960  1
  Al0+  Al82  1  0.17950429  0.92824991  0.01566679  1
  Al0+  Al83  1  0.43149856  0.32068317  0.65374506  1
  Al0+  Al84  1  0.68136061  0.43160138  0.34960770  1
  Al0+  Al85  1  0.31839248  0.56915083  0.34741530  1
  Al0+  Al86  1  0.07093622  0.17944784  0.65231091  1
  Al0+  Al87  1  0.32092781  0.57020467  0.68289499  1
  Al0+  Al88  1  0.92979370  0.81992573  0.31824057  1
  Al0+  Al89  1  0.82084170  0.06888631  0.01226723  1
  Al0+  Al90  1  0.82053281  0.06786354  0.34905592  1
  Al0+  Al91  1  0.32303683  0.07143690  0.01406255  1
  Al0+  Al92  1  0.42603469  0.82273840  0.65056404  1
  Al0+  Al93  1  0.07001148  0.18077334  0.31510482  1
  Al0+  Al94  1  0.68098946  0.42891261  0.68160546  1
  Al0+  Al95  1  0.67850002  0.92760707  0.67932965  1
  Si0+  Si96  1  0.32296759  0.07444652  0.68073061  1
  Si0+  Si97  1  0.42734907  0.82111315  0.31929599  1
  Si0+  Si98  1  0.07394861  0.67716118  0.31724606  1
  Si0+  Si99  1  0.57176547  0.17854408  0.31778115  1
  Si0+  Si100  1  0.67401556  0.92626632  0.34816232  1
  Si0+  Si101  1  0.56881390  0.67770377  0.31578663  1
  Si0+  Si102  1  0.57077827  0.67618133  0.98291929  1
  Si0+  Si103  1  0.67722329  0.92734504  0.01497690  1
  Si0+  Si104  1  0.57391530  0.17634446  0.64952010  1
  Si0+  Si105  1  0.07188059  0.67440856  0.98356905  1
  Si0+  Si106  1  0.82237710  0.57560091  0.35077813  1
  Si0+  Si107  1  0.82212336  0.07011508  0.68416291  1
  Si0+  Si108  1  0.57318512  0.18031944  0.98525206  1
  Si0+  Si109  1  0.07173468  0.18063630  0.98518947  1
  Si0+  Si110  1  0.43151330  0.32231551  0.31623607  1
  Si0+  Si111  1  0.92528582  0.32235044  0.31532035  1
  Si0+  Si112  1  0.42874274  0.32098206  0.98606122  1
  Si0+  Si113  1  0.82398843  0.57320976  0.68075796  1
  Si0+  Si114  1  0.92802931  0.32115738  0.98855934  1
  Si0+  Si115  1  0.32105130  0.57130655  0.01595856  1
  Si0+  Si116  1  0.17629192  0.42496437  0.35109391  1
  Si0+  Si117  1  0.17792228  0.42640030  0.67902789  1
  Si0+  Si118  1  0.32515298  0.07397344  0.35114359  1
  Si0+  Si119  1  0.07381271  0.67639743  0.65056825  1
  O2-  O120  1  0.25454799  -0.00255920  0.06556287  1
  O2-  O121  1  0.25717983  0.00574722  0.39559768  1
  O2-  O122  1  0.25720381  0.00351098  0.72514037  1
  O2-  O123  1  0.25150391  0.50348913  0.05973366  1
  O2-  O124  1  0.24231830  0.49590089  0.39496089  1
  O2-  O125  1  0.24428013  0.49548054  0.72626973  1
  O2-  O126  1  0.75002746  -0.00940549  0.06045910  1
  O2-  O127  1  0.74658356  -0.00935340  0.39220996  1
  O2-  O128  1  0.75264601  0.00196736  0.72763905  1
  O2-  O129  1  0.74963861  0.50109303  0.06448438  1
  O2-  O130  1  0.75764190  0.50435265  0.39635599  1
  O2-  O131  1  0.76022743  0.49990597  0.72552141  1
  O2-  O132  1  -0.00225352  0.25892869  0.26859842  1
  O2-  O133  1  -0.00080572  0.25261227  0.60313247  1
  O2-  O134  1  0.00112056  0.25304936  0.94455894  1
  O2-  O135  1  0.00185527  0.74164046  0.27223001  1
  O2-  O136  1  0.00467291  0.74479613  0.60664696  1
  O2-  O137  1  0.00361480  0.74369748  0.93946395  1
  O2-  O138  1  0.50031895  0.24901412  0.27401488  1
  O2-  O139  1  0.50682023  0.24703696  0.60548762  1
  O2-  O140  1  0.50110013  0.25112036  0.94413736  1
  O2-  O141  1  0.50060196  0.75267331  0.27545130  1
  O2-  O142  1  0.49849282  0.75168244  0.59954285  1
  O2-  O143  1  0.50362336  0.74700066  0.94057698  1
  O2-  O144  1  0.07052659  0.18117781  0.09041164  1
  O2-  O145  1  0.06829001  0.18110628  0.42779307  1
  O2-  O146  1  0.07084135  0.18102221  0.76658460  1
  O2-  O147  1  0.07286136  0.67373769  0.08931438  1
  O2-  O148  1  0.07536163  0.67884539  0.42264842  1
  O2-  O149  1  0.07174469  0.67230311  0.75606705  1
  O2-  O150  1  0.57335684  0.18067406  0.09067245  1
  O2-  O151  1  0.56945679  0.17686909  0.42253110  1
  O2-  O152  1  0.57366204  0.17655200  0.75538102  1
  O2-  O153  1  0.56830424  0.67569223  0.08928550  1
  O2-  O154  1  0.56943731  0.67575063  0.42029887  1
  O2-  O155  1  0.56873850  0.67976347  0.76517697  1
  O2-  O156  1  0.17961319  0.42526274  0.24504426  1
  O2-  O157  1  0.18060493  0.42737991  0.57354384  1
  O2-  O158  1  0.18013039  0.42666305  0.89834886  1
  O2-  O159  1  0.18324348  0.93101128  0.23560182  1
  O2-  O160  1  0.17695040  0.93296232  0.56889821  1
  O2-  O161  1  0.17801264  0.93228645  0.90236376  1
  O2-  O162  1  0.68045190  0.43328470  0.23650162  1
  O2-  O163  1  0.68020876  0.43198238  0.56843617  1
  O2-  O164  1  0.67818929  0.42783900  0.90205504  1
  O2-  O165  1  0.66808240  0.92976008  0.24262648  1
  O2-  O166  1  0.68071189  0.93012515  0.56587557  1
  O2-  O167  1  0.67615890  0.93087356  0.90953045  1
  O2-  O168  1  0.42918032  0.32120220  0.09148737  1
  O2-  O169  1  0.43274579  0.32286913  0.42122489  1
  O2-  O170  1  0.43031518  0.31856539  0.76728995  1
  O2-  O171  1  0.42957117  0.81812569  0.10078027  1
  O2-  O172  1  0.42822828  0.82078014  0.42375056  1
  O2-  O173  1  0.42748308  0.82108586  0.76432744  1
  O2-  O174  1  0.92815389  0.31851572  0.09369039  1
  O2-  O175  1  0.92572220  0.32036720  0.42063933  1
  O2-  O176  1  0.92747735  0.32251188  0.76745023  1
  O2-  O177  1  0.93382718  0.82173805  0.09788654  1
  O2-  O178  1  0.93015139  0.81976739  0.43140322  1
  O2-  O179  1  0.93025734  0.81940949  0.76702571  1
  O2-  O180  1  0.32798424  0.07221284  0.24569455  1
  O2-  O181  1  0.32272761  0.07550278  0.57505529  1
  O2-  O182  1  0.31988219  0.07650794  0.90072618  1
  O2-  O183  1  0.31826847  0.56739911  0.23381401  1
  O2-  O184  1  0.32025630  0.56836695  0.56957360  1
  O2-  O185  1  0.32228911  0.56889598  0.91077837  1
  O2-  O186  1  0.81901271  0.06769454  0.23556097  1
  O2-  O187  1  0.82172181  0.06881864  0.57839829  1
  O2-  O188  1  0.81816284  0.07191037  0.89950335  1
  O2-  O189  1  0.81957318  0.57553739  0.24525854  1
  O2-  O190  1  0.82144983  0.57467330  0.57507727  1
  O2-  O191  1  0.82256820  0.57116950  0.90119950  1
  O2-  O192  1  0.03520094  0.08561024  0.26141331  1
  O2-  O193  1  0.03796734  0.08355866  0.59748289  1
  O2-  O194  1  0.04261408  0.08959781  0.93816173  1
  O2-  O195  1  0.05331074  0.58071025  0.27312373  1
  O2-  O196  1  0.05266102  0.58346300  0.60033606  1
  O2-  O197  1  0.04639496  0.57988153  0.93842165  1
  O2-  O198  1  0.54510616  0.08692662  0.26789039  1
  O2-  O199  1  0.54691451  0.08457838  0.60064053  1
  O2-  O200  1  0.54705219  0.08901178  0.93604633  1
  O2-  O201  1  0.53519099  0.58778862  0.26747717  1
  O2-  O202  1  0.53843260  0.58197799  0.59859861  1
  O2-  O203  1  0.54285220  0.58253280  0.93779380  1
  O2-  O204  1  0.16839231  0.20841597  0.26098312  1
  O2-  O205  1  0.16777245  0.20541621  0.59468365  1
  O2-  O206  1  0.16435299  0.20927389  0.94013067  1
  O2-  O207  1  0.16703534  0.70560216  0.27077945  1
  O2-  O208  1  0.16726521  0.70466467  0.60685378  1
  O2-  O209  1  0.16602669  0.69785061  0.93757514  1
  O2-  O210  1  0.66399469  0.20846300  0.27229622  1
  O2-  O211  1  0.66789688  0.19974008  0.60386242  1
  O2-  O212  1  0.66446777  0.20931032  0.93735498  1
  O2-  O213  1  0.66044183  0.70199966  0.26574115  1
  O2-  O214  1  0.66723726  0.70700018  0.59575287  1
  O2-  O215  1  0.66526890  0.69782509  0.93802917  1
  O2-  O216  1  0.08347158  0.45462539  0.07064001  1
  O2-  O217  1  0.08022299  0.44552530  0.39383636  1
  O2-  O218  1  0.08273515  0.44988070  0.72326100  1
  O2-  O219  1  0.08334197  0.96220934  0.06927479  1
  O2-  O220  1  0.08543931  0.96618572  0.40072210  1
  O2-  O221  1  0.08314712  0.96583830  0.73623968  1
  O2-  O222  1  0.57944641  0.45631594  0.06968611  1
  O2-  O223  1  0.58467232  0.46456657  0.40158547  1
  O2-  O224  1  0.58583563  0.46238246  0.73615504  1
  O2-  O225  1  0.58590104  0.95842286  0.06268823  1
  O2-  O226  1  0.58232709  0.95603439  0.39651888  1
  O2-  O227  1  0.58140843  0.95878330  0.73275996  1
  O2-  O228  1  0.21297384  0.33473261  0.07005554  1
  O2-  O229  1  0.20568277  0.33163226  0.39484797  1
  O2-  O230  1  0.20613155  0.33272693  0.72345954  1
  O2-  O231  1  0.20412620  0.82808143  0.06755074  1
  O2-  O232  1  0.20926196  0.83522305  0.40300492  1
  O2-  O233  1  0.20479616  0.83411949  0.73752305  1
  O2-  O234  1  0.70728261  0.33141483  0.07033403  1
  O2-  O235  1  0.70717318  0.33408433  0.40371012  1
  O2-  O236  1  0.70571872  0.32985440  0.73415560  1
  O2-  O237  1  0.69474502  0.83135854  0.05852319  1
  O2-  O238  1  0.69568425  0.82992295  0.38929440  1
  O2-  O239  1  0.70874186  0.83094661  0.73275790  1
  O2-  O240  1  0.46233454  0.41325952  0.26850185  1
  O2-  O241  1  0.46407984  0.41625475  0.59957883  1
  O2-  O242  1  0.45504974  0.41360266  0.93931155  1
  O2-  O243  1  0.45292352  0.91420334  0.27208151  1
  O2-  O244  1  0.45242196  0.92200035  0.59814825  1
  O2-  O245  1  0.45757844  0.91864271  0.93360246  1
  O2-  O246  1  0.94481079  0.41938536  0.27243279  1
  O2-  O247  1  0.95029131  0.42201963  0.59699807  1
  O2-  O248  1  0.95259865  0.41497041  0.94430450  1
  O2-  O249  1  0.96553320  0.91554174  0.26603838  1
  O2-  O250  1  0.96180138  0.91563894  0.60018880  1
  O2-  O251  1  0.96253417  0.91788215  0.93098471  1
  O2-  O252  1  0.33874641  0.29735615  0.26888583  1
  O2-  O253  1  0.33725055  0.29163958  0.59402140  1
  O2-  O254  1  0.33735723  0.29171809  0.93868837  1
  O2-  O255  1  0.33628591  0.78885390  0.27282523  1
  O2-  O256  1  0.32690562  0.79172124  0.60108288  1
  O2-  O257  1  0.33101920  0.79052338  0.93376479  1
  O2-  O258  1  0.83201131  0.29138500  0.27129469  1
  O2-  O259  1  0.82881132  0.29263419  0.59946209  1
  O2-  O260  1  0.83655119  0.29033323  0.94201662  1
  O2-  O261  1  0.83131496  0.79463413  0.26343269  1
  O2-  O262  1  0.83466541  0.78981100  0.59737876  1
  O2-  O263  1  0.83097865  0.79355734  0.93396778  1
  O2-  O264  1  0.42365788  0.04804430  0.06577727  1
  O2-  O265  1  0.41962361  0.05070308  0.39694376  1
  O2-  O266  1  0.41801650  0.05424353  0.72594237  1
  O2-  O267  1  0.41349569  0.54440055  0.06404953  1
  O2-  O268  1  0.41375990  0.53600914  0.40150626  1
  O2-  O269  1  0.41545937  0.53627843  0.73771574  1
  O2-  O270  1  0.91742953  0.04016412  0.06683974  1
  O2-  O271  1  0.91650120  0.03743255  0.40270314  1
  O2-  O272  1  0.91509604  0.04385570  0.72986719  1
  O2-  O273  1  0.91864615  0.54691891  0.07188736  1
  O2-  O274  1  0.91845197  0.55591942  0.39456883  1
  O2-  O275  1  0.92012685  0.55326079  0.72429965  1
  O2-  O276  1  0.29433349  0.16816541  0.07070814  1
  O2-  O277  1  0.29985916  0.16951970  0.39328233  1
  O2-  O278  1  0.29474494  0.16823008  0.72583668  1
  O2-  O279  1  0.29558940  0.66430100  0.06279721  1
  O2-  O280  1  0.28985858  0.66489794  0.40365203  1
  O2-  O281  1  0.29029845  0.66539688  0.73871398  1
  O2-  O282  1  0.78715252  0.16238222  0.07075892  1
  O2-  O283  1  0.78789783  0.16268799  0.40479913  1
  O2-  O284  1  0.79644349  0.16386621  0.72978311  1
  O2-  O285  1  0.79115100  0.67116494  0.06934621  1
  O2-  O286  1  0.79230359  0.66910212  0.39460515  1
  O2-  O287  1  0.79341226  0.66472547  0.72771503  1
