# generated using pymatgen
data_Ca2Al2SiO7
_symmetry_space_group_name_H-M   'P 1'
_cell_length_a   15.45110821
_cell_length_b   15.45131224
_cell_length_c   15.27894388
_cell_angle_alpha   90.00281324
_cell_angle_beta   90.00462072
_cell_angle_gamma   89.99941883
_symmetry_Int_Tables_number   1
_chemical_formula_structural   Ca2Al2SiO7
_chemical_formula_sum   'Ca48 Al48 Si24 O168'
_cell_volume   3647.69347999
_cell_formula_units_Z   24
loop_
 _symmetry_equiv_pos_site_id
 _symmetry_equiv_pos_as_xyz
  1  'x, y, z'
loop_
 _atom_type_symbol
 _atom_type_oxidation_number
  Ca2+  2.0
  Al0+  0.0
  Si0+  0.0
  O2-  -2.0
loop_
 _atom_site_type_symbol
 _atom_site_label
 _atom_site_symmetry_multiplicity
 _atom_site_fract_x
 _atom_site_fract_y
 _atom_site_fract_z
 _atom_site_occupancy
  Ca2+  Ca0  1  0.16848514  0.08430632  0.17082383  1
  Ca2+  Ca1  1  0.17011594  0.07965081  0.50222970  1
  Ca2+  Ca2  1  0.17812305  0.08725924  0.83895777  1
  Ca2+  Ca3  1  0.16737913  0.57666877  0.17746212  1
  Ca2+  Ca4  1  0.16069343  0.57267936  0.50359132  1
  Ca2+  Ca5  1  0.16821987  0.57505976  0.83458031  1
  Ca2+  Ca6  1  0.67831413  0.08931325  0.17278449  1
  Ca2+  Ca7  1  0.67048821  0.07148300  0.50125797  1
  Ca2+  Ca8  1  0.66570895  0.07656606  0.84121271  1
  Ca2+  Ca9  1  0.65907410  0.57069282  0.16683467  1
  Ca2+  Ca10  1  0.66914486  0.58348939  0.50565356  1
  Ca2+  Ca11  1  0.66641735  0.58520766  0.83784520  1
  Ca2+  Ca12  1  0.07866999  0.32141225  0.16066837  1
  Ca2+  Ca13  1  0.08583191  0.33008720  0.49187153  1
  Ca2+  Ca14  1  0.08273108  0.32806174  0.83270114  1
  Ca2+  Ca15  1  0.08858917  0.83080858  0.16876998  1
  Ca2+  Ca16  1  0.07902296  0.83097934  0.48994729  1
  Ca2+  Ca17  1  0.07386387  0.83311182  0.82748923  1
  Ca2+  Ca18  1  0.58281179  0.33001751  0.15324419  1
  Ca2+  Ca19  1  0.57702557  0.33708111  0.49676460  1
  Ca2+  Ca20  1  0.57619685  0.32938263  0.83313972  1
  Ca2+  Ca21  1  0.58313944  0.83219306  0.16613483  1
  Ca2+  Ca22  1  0.57920061  0.83771459  0.49886424  1
  Ca2+  Ca23  1  0.58546886  0.82470505  0.82173154  1
  Ca2+  Ca24  1  0.33115467  0.41666218  0.17132818  1
  Ca2+  Ca25  1  0.32077748  0.41132452  0.50704967  1
  Ca2+  Ca26  1  0.33225971  0.40603496  0.83473678  1
  Ca2+  Ca27  1  0.33275588  0.92429409  0.17352018  1
  Ca2+  Ca28  1  0.33379994  0.91698304  0.50501016  1
  Ca2+  Ca29  1  0.34171375  0.92887189  0.83400665  1
  Ca2+  Ca30  1  0.82064078  0.40551287  0.16730944  1
  Ca2+  Ca31  1  0.82620239  0.42344881  0.50416612  1
  Ca2+  Ca32  1  0.82864689  0.42189168  0.84082161  1
  Ca2+  Ca33  1  0.82695158  0.93034418  0.17414887  1
  Ca2+  Ca34  1  0.82612254  0.91533290  0.50479933  1
  Ca2+  Ca35  1  0.82891484  0.91831939  0.83544306  1
  Ca2+  Ca36  1  0.42345371  0.17327876  0.15515144  1
  Ca2+  Ca37  1  0.41291070  0.16839051  0.50215401  1
  Ca2+  Ca38  1  0.41454864  0.17049006  0.83161415  1
  Ca2+  Ca39  1  0.42001764  0.67630338  0.16223637  1
  Ca2+  Ca40  1  0.42013804  0.67886157  0.49619351  1
  Ca2+  Ca41  1  0.43141667  0.67214273  0.82505085  1
  Ca2+  Ca42  1  0.92354130  0.16277705  0.15840957  1
  Ca2+  Ca43  1  0.92357837  0.16502727  0.49058244  1
  Ca2+  Ca44  1  0.91587978  0.16875137  0.83718242  1
  Ca2+  Ca45  1  0.92307766  0.66558933  0.16722756  1
  Ca2+  Ca46  1  0.91638228  0.67037863  0.50020253  1
  Ca2+  Ca47  1  0.91233749  0.67219658  0.82269087  1
  Al0+  Al48  1  0.00050241  -0.00213418  -0.00081474  1
  Al0+  Al49  1  0.00213665  0.00062925  0.33571877  1
  Al0+  Al50  1  0.00024949  0.00001221  0.66226020  1
  Al0+  Al51  1  0.00019000  0.50027873  -0.00210491  1
  Al0+  Al52  1  -0.00074274  0.50009824  0.33176456  1
  Al0+  Al53  1  -0.00140758  0.49807597  0.67687122  1
  Al0+  Al54  1  0.49824479  -0.00011538  0.00391971  1
  Al0+  Al55  1  0.50126175  0.00241847  0.33116565  1
  Al0+  Al56  1  0.50156325  0.00038954  0.67214088  1
  Al0+  Al57  1  0.49874638  0.50279353  -0.00390167  1
  Al0+  Al58  1  0.49923441  0.50208433  0.33846226  1
  Al0+  Al59  1  0.49843478  0.49836735  0.65636003  1
  Al0+  Al60  1  0.24855925  0.24881350  -0.00011431  1
  Al0+  Al61  1  0.24957032  0.25123978  0.33183158  1
  Al0+  Al62  1  0.24965297  0.24849702  0.67045772  1
  Al0+  Al63  1  0.24948811  0.74871008  -0.00242249  1
  Al0+  Al64  1  0.25107362  0.75181958  0.32773954  1
  Al0+  Al65  1  0.24978097  0.74739766  0.66584504  1
  Al0+  Al66  1  0.75041179  0.24980169  -0.00239285  1
  Al0+  Al67  1  0.74910119  0.25159955  0.34619226  1
  Al0+  Al68  1  0.75099014  0.25041645  0.66480099  1
  Al0+  Al69  1  0.75135221  0.74925794  0.00007592  1
  Al0+  Al70  1  0.74903952  0.74964366  0.33294612  1
  Al0+  Al71  1  0.75183851  0.74970576  0.66532576  1
  Al0+  Al72  1  0.57262305  0.67877912  0.64902960  1
  Al0+  Al73  1  0.67694898  0.42946186  0.34822067  1
  Al0+  Al74  1  0.92794570  0.32165476  0.98458359  1
  Al0+  Al75  1  0.18130455  0.92818412  0.34624970  1
  Al0+  Al76  1  0.07034501  0.17635453  0.98328183  1
  Al0+  Al77  1  0.81801036  0.56917437  0.68010254  1
  Al0+  Al78  1  0.68164769  0.93088833  0.68104124  1
  Al0+  Al79  1  0.17991336  0.42974620  0.34482054  1
  Al0+  Al80  1  0.32048305  0.07145082  0.01593671  1
  Al0+  Al81  1  0.42838210  0.31792312  0.65094100  1
  Al0+  Al82  1  0.82026647  0.06990911  0.01172422  1
  Al0+  Al83  1  0.57274310  0.17695503  0.98621233  1
  Al0+  Al84  1  0.82300091  0.07155124  0.34984255  1
  Al0+  Al85  1  0.67795752  0.92836823  0.34785306  1
  Al0+  Al86  1  0.07084140  0.17895329  0.32008875  1
  Al0+  Al87  1  0.31918320  0.06848615  0.67987057  1
  Al0+  Al88  1  0.67925674  0.43201258  0.00987710  1
  Al0+  Al89  1  0.07007600  0.67849264  0.32084068  1
  Al0+  Al90  1  0.43029173  0.82314480  0.31812036  1
  Al0+  Al91  1  0.93095516  0.82136046  0.65217960  1
  Al0+  Al92  1  0.42871843  0.32193088  0.98655644  1
  Al0+  Al93  1  0.57043099  0.68134812  0.98760686  1
  Al0+  Al94  1  0.42905408  0.82351523  0.65243807  1
  Al0+  Al95  1  0.17998254  0.42896594  0.68267082  1
  Si0+  Si96  1  0.32232275  0.07301919  0.34941798  1
  Si0+  Si97  1  0.57446391  0.17751679  0.64854771  1
  Si0+  Si98  1  0.82420501  0.57414368  0.01871163  1
  Si0+  Si99  1  0.07275283  0.67752236  0.98362547  1
  Si0+  Si100  1  0.07036522  0.18125001  0.65100784  1
  Si0+  Si101  1  0.32335225  0.57234633  0.68319901  1
  Si0+  Si102  1  0.92684461  0.82234154  0.31522563  1
  Si0+  Si103  1  0.42881250  0.32210413  0.31950274  1
  Si0+  Si104  1  0.31998635  0.57225877  0.01461361  1
  Si0+  Si105  1  0.17573636  0.92492342  0.68232441  1
  Si0+  Si106  1  0.57273779  0.67686029  0.31483599  1
  Si0+  Si107  1  0.67487541  0.42657958  0.68408135  1
  Si0+  Si108  1  0.82256917  0.57214912  0.34886257  1
  Si0+  Si109  1  0.32155202  0.57380108  0.35030660  1
  Si0+  Si110  1  0.17798447  0.42981788  0.01650539  1
  Si0+  Si111  1  0.93044482  0.81899776  0.98645818  1
  Si0+  Si112  1  0.92607362  0.32205150  0.31884288  1
  Si0+  Si113  1  0.92876344  0.32289311  0.65100660  1
  Si0+  Si114  1  0.57148948  0.18203001  0.32037523  1
  Si0+  Si115  1  0.42596747  0.82225766  0.98295981  1
  Si0+  Si116  1  0.67784239  0.92539637  0.01693864  1
  Si0+  Si117  1  0.82511635  0.07383845  0.68416409  1
  Si0+  Si118  1  0.17795123  0.92604710  0.01618067  1
  Si0+  Si119  1  0.07135693  0.67518861  0.65185335  1
  O2-  O120  1  0.24657739  -0.00517383  0.06023415  1
  O2-  O121  1  0.25495290  0.00314447  0.39362238  1
  O2-  O122  1  0.24806868  -0.01052598  0.72647713  1
  O2-  O123  1  0.25007382  0.50028310  0.05781585  1
  O2-  O124  1  0.25281067  0.50478342  0.39403383  1
  O2-  O125  1  0.25573612  0.50310968  0.72920136  1
  O2-  O126  1  0.74112477  -0.00003035  0.05933329  1
  O2-  O127  1  0.75384812  -0.00385714  0.39809438  1
  O2-  O128  1  0.75451144  0.00734451  0.72817927  1
  O2-  O129  1  0.75607971  0.50373923  0.06055391  1
  O2-  O130  1  0.75149446  0.50546854  0.39234442  1
  O2-  O131  1  0.74140992  0.49726250  0.72782722  1
  O2-  O132  1  -0.00711989  0.25132669  0.27508750  1
  O2-  O133  1  -0.00343233  0.24922603  0.60835111  1
  O2-  O134  1  -0.00061075  0.24947496  0.93320273  1
  O2-  O135  1  -0.00363742  0.75358924  0.27156815  1
  O2-  O136  1  0.00897473  0.74903501  0.60700180  1
  O2-  O137  1  -0.00044678  0.74634890  0.94288717  1
  O2-  O138  1  0.50243714  0.25464053  0.27719884  1
  O2-  O139  1  0.50654306  0.24709641  0.60349233  1
  O2-  O140  1  0.49904195  0.24784282  0.93691541  1
  O2-  O141  1  0.50617578  0.74854132  0.27202007  1
  O2-  O142  1  0.49986013  0.75118084  0.60094198  1
  O2-  O143  1  0.50056110  0.75981723  0.94001794  1
  O2-  O144  1  0.06984894  0.17777843  0.09706754  1
  O2-  O145  1  0.07308998  0.18249793  0.43371593  1
  O2-  O146  1  0.07035008  0.18165978  0.75590400  1
  O2-  O147  1  0.07432254  0.67715627  0.08870171  1
  O2-  O148  1  0.06752962  0.67723109  0.43378573  1
  O2-  O149  1  0.06922096  0.67585051  0.75803036  1
  O2-  O150  1  0.57299228  0.18084379  0.10060550  1
  O2-  O151  1  0.56873138  0.18167466  0.42550184  1
  O2-  O152  1  0.57577993  0.17875275  0.75391809  1
  O2-  O153  1  0.56704485  0.68020949  0.10089628  1
  O2-  O154  1  0.57145410  0.67457223  0.41990404  1
  O2-  O155  1  0.57170693  0.67989490  0.76311472  1
  O2-  O156  1  0.18291097  0.43060583  0.23162041  1
  O2-  O157  1  0.17847049  0.42942524  0.56921918  1
  O2-  O158  1  0.17765835  0.43219718  0.91127514  1
  O2-  O159  1  0.18335328  0.92830889  0.23301168  1
  O2-  O160  1  0.17363966  0.92767331  0.57683511  1
  O2-  O161  1  0.17728428  0.92348491  0.91049011  1
  O2-  O162  1  0.67586240  0.42812921  0.23481100  1
  O2-  O163  1  0.67872696  0.42619672  0.57814552  1
  O2-  O164  1  0.67895327  0.43559362  0.89715910  1
  O2-  O165  1  0.67945863  0.93086157  0.23397366  1
  O2-  O166  1  0.68240641  0.93234052  0.56811855  1
  O2-  O167  1  0.68177282  0.92182164  0.91135860  1
  O2-  O168  1  0.43052423  0.32323624  0.10090973  1
  O2-  O169  1  0.42678918  0.31892362  0.42452735  1
  O2-  O170  1  0.42806637  0.31553915  0.76362778  1
  O2-  O171  1  0.42277553  0.81864947  0.08873253  1
  O2-  O172  1  0.42954183  0.82167510  0.43083303  1
  O2-  O173  1  0.43141201  0.82202857  0.76627049  1
  O2-  O174  1  0.92986398  0.32202716  0.09845142  1
  O2-  O175  1  0.92890564  0.32343893  0.42492284  1
  O2-  O176  1  0.92894733  0.32268484  0.75575315  1
  O2-  O177  1  0.93158593  0.81784175  0.09145547  1
  O2-  O178  1  0.92724104  0.82014389  0.42077835  1
  O2-  O179  1  0.93219328  0.82046646  0.76607427  1
  O2-  O180  1  0.32133579  0.07335685  0.24384203  1
  O2-  O181  1  0.31491158  0.07103175  0.56658187  1
  O2-  O182  1  0.31914111  0.06994188  0.90269623  1
  O2-  O183  1  0.32234096  0.57095483  0.24402997  1
  O2-  O184  1  0.31956754  0.57260105  0.57769943  1
  O2-  O185  1  0.31671586  0.57582828  0.90988097  1
  O2-  O186  1  0.82132323  0.07283911  0.23589477  1
  O2-  O187  1  0.82606882  0.07317696  0.57874843  1
  O2-  O188  1  0.82152242  0.06449843  0.89862753  1
  O2-  O189  1  0.82384342  0.57203748  0.24324764  1
  O2-  O190  1  0.82101488  0.56566439  0.56684160  1
  O2-  O191  1  0.82406883  0.57668084  0.91323135  1
  O2-  O192  1  0.04454450  0.08097946  0.26655939  1
  O2-  O193  1  0.04586616  0.08836973  0.60364473  1
  O2-  O194  1  0.04347244  0.07736799  0.93071927  1
  O2-  O195  1  0.03799301  0.58304713  0.26322103  1
  O2-  O196  1  0.03858354  0.58253040  0.60811944  1
  O2-  O197  1  0.04747001  0.58555115  0.93581934  1
  O2-  O198  1  0.54450461  0.09155394  0.27054842  1
  O2-  O199  1  0.54563034  0.08447792  0.60404200  1
  O2-  O200  1  0.54481038  0.07696757  0.93585071  1
  O2-  O201  1  0.54192148  0.58377631  0.26910514  1
  O2-  O202  1  0.54592425  0.58039486  0.59522104  1
  O2-  O203  1  0.53557011  0.58826064  0.93048186  1
  O2-  O204  1  0.16626970  0.21335764  0.26498885  1
  O2-  O205  1  0.16059503  0.21288406  0.60367396  1
  O2-  O206  1  0.16770395  0.20825592  0.93098137  1
  O2-  O207  1  0.16585293  0.70844566  0.26417167  1
  O2-  O208  1  0.16717868  0.69199261  0.60775465  1
  O2-  O209  1  0.16313711  0.70669171  0.93376063  1
  O2-  O210  1  0.66508497  0.21052477  0.27695772  1
  O2-  O211  1  0.66867021  0.20140192  0.60170091  1
  O2-  O212  1  0.66962997  0.20415296  0.93121318  1
  O2-  O213  1  0.66734949  0.69884554  0.26878774  1
  O2-  O214  1  0.67075698  0.70761260  0.59728864  1
  O2-  O215  1  0.66944347  0.70714185  0.93517890  1
  O2-  O216  1  0.08658461  0.45984828  0.06344388  1
  O2-  O217  1  0.08228608  0.45902397  0.39796824  1
  O2-  O218  1  0.08530856  0.46021038  0.73998947  1
  O2-  O219  1  0.08467074  0.95083849  0.06304433  1
  O2-  O220  1  0.08473494  0.95680807  0.40082137  1
  O2-  O221  1  0.08335804  0.95555705  0.72901694  1
  O2-  O222  1  0.58298533  0.46554733  0.06458962  1
  O2-  O223  1  0.58068944  0.45966924  0.40382853  1
  O2-  O224  1  0.57850183  0.44886424  0.72441864  1
  O2-  O225  1  0.58160339  0.94350577  0.05991605  1
  O2-  O226  1  0.58120744  0.96277273  0.40073928  1
  O2-  O227  1  0.58579482  0.95927477  0.73768616  1
  O2-  O228  1  0.20421458  0.33737923  0.06244664  1
  O2-  O229  1  0.21300686  0.33437127  0.40048892  1
  O2-  O230  1  0.21237212  0.33346455  0.73716826  1
  O2-  O231  1  0.20383731  0.83153772  0.06166668  1
  O2-  O232  1  0.21071472  0.83101138  0.39943321  1
  O2-  O233  1  0.19422742  0.82874940  0.72649395  1
  O2-  O234  1  0.70865687  0.33470225  0.06380809  1
  O2-  O235  1  0.70704446  0.33636262  0.40888092  1
  O2-  O236  1  0.70331574  0.33284592  0.72840816  1
  O2-  O237  1  0.71007701  0.83440350  0.06534090  1
  O2-  O238  1  0.70170806  0.82768695  0.39845906  1
  O2-  O239  1  0.71576581  0.83490802  0.73375922  1
  O2-  O240  1  0.45253812  0.41677057  0.27593577  1
  O2-  O241  1  0.45280323  0.41469201  0.59394536  1
  O2-  O242  1  0.45516673  0.41988412  0.93238195  1
  O2-  O243  1  0.46069312  0.92009049  0.26339070  1
  O2-  O244  1  0.45793082  0.92254139  0.60121879  1
  O2-  O245  1  0.44595198  0.91844171  0.94193414  1
  O2-  O246  1  0.95136077  0.41460018  0.27133414  1
  O2-  O247  1  0.96056583  0.41408189  0.60505030  1
  O2-  O248  1  0.95707658  0.42069127  0.93178089  1
  O2-  O249  1  0.95460625  0.91585143  0.27072582  1
  O2-  O250  1  0.95819929  0.91823569  0.59646993  1
  O2-  O251  1  0.96026497  0.90855763  0.93634103  1
  O2-  O252  1  0.33852489  0.29291215  0.27001406  1
  O2-  O253  1  0.33202160  0.28225138  0.59799170  1
  O2-  O254  1  0.32986603  0.29368661  0.93538464  1
  O2-  O255  1  0.33568796  0.79055746  0.26106287  1
  O2-  O256  1  0.32849379  0.79601041  0.60159851  1
  O2-  O257  1  0.33448795  0.79165237  0.93516788  1
  O2-  O258  1  0.83019232  0.29704896  0.27736362  1
  O2-  O259  1  0.83565427  0.29944151  0.60318847  1
  O2-  O260  1  0.83084475  0.29427326  0.92946351  1
  O2-  O261  1  0.83367254  0.79579334  0.26824738  1
  O2-  O262  1  0.83730655  0.78578304  0.59708943  1
  O2-  O263  1  0.83869308  0.79242139  0.93814989  1
  O2-  O264  1  0.41731450  0.04273469  0.07197044  1
  O2-  O265  1  0.41637919  0.04919189  0.39443764  1
  O2-  O266  1  0.41647015  0.04305492  0.73532227  1
  O2-  O267  1  0.41141911  0.54549667  0.06275262  1
  O2-  O268  1  0.41434231  0.54975951  0.39795256  1
  O2-  O269  1  0.41826950  0.54594686  0.72556709  1
  O2-  O270  1  0.91585538  0.03418797  0.06586630  1
  O2-  O271  1  0.92207899  0.04567664  0.40175798  1
  O2-  O272  1  0.91860906  0.04576476  0.72923461  1
  O2-  O273  1  0.91925443  0.54975523  0.06299260  1
  O2-  O274  1  0.91473870  0.54451403  0.39658693  1
  O2-  O275  1  0.91250455  0.53802893  0.73879565  1
  O2-  O276  1  0.28882282  0.16801273  0.07012250  1
  O2-  O277  1  0.29431697  0.16610738  0.39523380  1
  O2-  O278  1  0.28310985  0.16200862  0.73606203  1
  O2-  O279  1  0.28979482  0.66319779  0.06387339  1
  O2-  O280  1  0.29523290  0.66749498  0.39374543  1
  O2-  O281  1  0.29789449  0.66536837  0.73178375  1
  O2-  O282  1  0.79466833  0.16790042  0.06525428  1
  O2-  O283  1  0.79343493  0.16767950  0.40673425  1
  O2-  O284  1  0.80196031  0.16943488  0.72755417  1
  O2-  O285  1  0.79843609  0.66719908  0.06610435  1
  O2-  O286  1  0.79871357  0.66632436  0.39452418  1
  O2-  O287  1  0.79070188  0.66638106  0.73434956  1
