# generated using pymatgen
data_Ca2Al2SiO7
_symmetry_space_group_name_H-M   'P 1'
_cell_length_a   15.45801570
_cell_length_b   15.45736390
_cell_length_c   15.28375708
_cell_angle_alpha   90.00117765
_cell_angle_beta   89.99015014
_cell_angle_gamma   89.99751374
_symmetry_Int_Tables_number   1
_chemical_formula_structural   Ca2Al2SiO7
_chemical_formula_sum   'Ca48 Al48 Si24 O168'
_cell_volume   3651.90351617
_cell_formula_units_Z   24
loop_
 _symmetry_equiv_pos_site_id
 _symmetry_equiv_pos_as_xyz
  1  'x, y, z'
loop_
 _atom_type_symbol
 _atom_type_oxidation_number
  Ca2+  2.0
  Al0+  0.0
  Si0+  0.0
  O2-  -2.0
loop_
 _atom_site_type_symbol
 _atom_site_label
 _atom_site_symmetry_multiplicity
 _atom_site_fract_x
 _atom_site_fract_y
 _atom_site_fract_z
 _atom_site_occupancy
  Ca2+  Ca0  1  0.17084967  0.08526019  0.17329154  1
  Ca2+  Ca1  1  0.17227475  0.08395132  0.50497717  1
  Ca2+  Ca2  1  0.18199420  0.08250071  0.83794268  1
  Ca2+  Ca3  1  0.17403468  0.57945048  0.17554621  1
  Ca2+  Ca4  1  0.16364946  0.57821529  0.50019006  1
  Ca2+  Ca5  1  0.16725153  0.58071289  0.83275696  1
  Ca2+  Ca6  1  0.66582839  0.08302212  0.17146100  1
  Ca2+  Ca7  1  0.65769997  0.07984873  0.50610526  1
  Ca2+  Ca8  1  0.66038464  0.07948458  0.83025742  1
  Ca2+  Ca9  1  0.67398413  0.57148371  0.17525402  1
  Ca2+  Ca10  1  0.67723616  0.58044734  0.50148978  1
  Ca2+  Ca11  1  0.68011716  0.57725520  0.84310370  1
  Ca2+  Ca12  1  0.08295803  0.33475669  0.16721243  1
  Ca2+  Ca13  1  0.08332012  0.33620921  0.49631091  1
  Ca2+  Ca14  1  0.07214298  0.34317041  0.82746012  1
  Ca2+  Ca15  1  0.07798033  0.82582369  0.16927022  1
  Ca2+  Ca16  1  0.07897793  0.81792031  0.49087245  1
  Ca2+  Ca17  1  0.08078869  0.82288050  0.82611400  1
  Ca2+  Ca18  1  0.58691464  0.33608165  0.16700830  1
  Ca2+  Ca19  1  0.58084418  0.32343812  0.48973424  1
  Ca2+  Ca20  1  0.58432337  0.32902357  0.82827257  1
  Ca2+  Ca21  1  0.57211156  0.82720375  0.16439020  1
  Ca2+  Ca22  1  0.57598242  0.83519959  0.49757343  1
  Ca2+  Ca23  1  0.57489228  0.83385310  0.82622922  1
  Ca2+  Ca24  1  0.33269062  0.42838766  0.18038062  1
  Ca2+  Ca25  1  0.32218380  0.41235064  0.49971564  1
  Ca2+  Ca26  1  0.32400007  0.42130138  0.83997665  1
  Ca2+  Ca27  1  0.33974728  0.91896203  0.16787960  1
  Ca2+  Ca28  1  0.34031210  0.92130667  0.50693868  1
  Ca2+  Ca29  1  0.34379828  0.92505410  0.83565518  1
  Ca2+  Ca30  1  0.82655980  0.42045712  0.17019722  1
  Ca2+  Ca31  1  0.83715175  0.42573110  0.50364573  1
  Ca2+  Ca32  1  0.83492612  0.42219349  0.83961755  1
  Ca2+  Ca33  1  0.83396495  0.91622749  0.17615376  1
  Ca2+  Ca34  1  0.82869565  0.91587906  0.50475626  1
  Ca2+  Ca35  1  0.82221101  0.91462851  0.83486730  1
  Ca2+  Ca36  1  0.41812622  0.17589299  0.16807471  1
  Ca2+  Ca37  1  0.42390149  0.16966283  0.49398963  1
  Ca2+  Ca38  1  0.41881650  0.16322614  0.82615538  1
  Ca2+  Ca39  1  0.40501980  0.67300938  0.16140907  1
  Ca2+  Ca40  1  0.41041922  0.67894671  0.49149162  1
  Ca2+  Ca41  1  0.41036986  0.67694966  0.83005608  1
  Ca2+  Ca42  1  0.92578759  0.17353111  0.16197355  1
  Ca2+  Ca43  1  0.92210917  0.17606434  0.49283533  1
  Ca2+  Ca44  1  0.91503072  0.18278839  0.82793148  1
  Ca2+  Ca45  1  0.91864325  0.65584785  0.16888536  1
  Ca2+  Ca46  1  0.92293684  0.66254923  0.49424195  1
  Ca2+  Ca47  1  0.92059573  0.65668520  0.82520546  1
  Al0+  Al48  1  0.00101788  -0.00184462  -0.00378992  1
  Al0+  Al49  1  0.00074026  0.00068264  0.32733011  1
  Al0+  Al50  1  -0.00000236  0.00099942  0.67043690  1
  Al0+  Al51  1  0.00059775  0.49936146  -0.00010216  1
  Al0+  Al52  1  0.00076367  0.49979662  0.33438871  1
  Al0+  Al53  1  0.00066992  0.49972846  0.66570500  1
  Al0+  Al54  1  0.49953644  -0.00003609  0.00230043  1
  Al0+  Al55  1  0.50092212  0.00014748  0.32471398  1
  Al0+  Al56  1  0.50067371  0.00012010  0.66759534  1
  Al0+  Al57  1  0.50046877  0.49987492  0.00408816  1
  Al0+  Al58  1  0.50083309  0.50149160  0.34144518  1
  Al0+  Al59  1  0.49997597  0.50157746  0.66629177  1
  Al0+  Al60  1  0.25199803  0.24731524  0.00351225  1
  Al0+  Al61  1  0.25232243  0.24969131  0.32946786  1
  Al0+  Al62  1  0.24896275  0.25081603  0.67840815  1
  Al0+  Al63  1  0.24744515  0.75235712  -0.00310522  1
  Al0+  Al64  1  0.24666258  0.75218650  0.32748547  1
  Al0+  Al65  1  0.24831782  0.75053460  0.65792598  1
  Al0+  Al66  1  0.75145417  0.24797616  -0.00213133  1
  Al0+  Al67  1  0.75099735  0.24758819  0.33244051  1
  Al0+  Al68  1  0.75019377  0.25006830  0.65692898  1
  Al0+  Al69  1  0.74975209  0.75016987  0.00417120  1
  Al0+  Al70  1  0.74710661  0.75211228  0.33431353  1
  Al0+  Al71  1  0.74888167  0.75055311  0.67679122  1
  Al0+  Al72  1  0.93175794  0.31895171  0.98661470  1
  Al0+  Al73  1  0.42845883  0.81982895  0.31859471  1
  Al0+  Al74  1  0.92655973  0.82056797  0.32037963  1
  Al0+  Al75  1  0.32116038  0.57597990  0.34961887  1
  Al0+  Al76  1  0.32209153  0.06988592  0.01789390  1
  Al0+  Al77  1  0.06892264  0.67975412  0.65225328  1
  Al0+  Al78  1  0.43132452  0.81915211  0.65277616  1
  Al0+  Al79  1  0.18054105  0.43069887  0.68186368  1
  Al0+  Al80  1  0.82323734  0.57153614  0.01668107  1
  Al0+  Al81  1  0.81945283  0.56841709  0.68073164  1
  Al0+  Al82  1  0.68016798  0.93109515  0.68024196  1
  Al0+  Al83  1  0.31978493  0.06883999  0.67847547  1
  Al0+  Al84  1  0.57242507  0.17913205  0.31587602  1
  Al0+  Al85  1  0.93062627  0.32045572  0.65112436  1
  Al0+  Al86  1  0.07237613  0.17930282  0.32115610  1
  Al0+  Al87  1  0.67842289  0.42516737  0.35161665  1
  Al0+  Al88  1  0.56817323  0.18132676  0.65422861  1
  Al0+  Al89  1  0.31916299  0.57213447  0.01090175  1
  Al0+  Al90  1  0.18084875  0.42726916  0.34790515  1
  Al0+  Al91  1  0.06891045  0.67663853  0.31541547  1
  Al0+  Al92  1  0.67922721  0.42563140  0.01381194  1
  Al0+  Al93  1  0.81983766  0.57151484  0.34993691  1
  Al0+  Al94  1  0.42984764  0.81966582  0.98398000  1
  Al0+  Al95  1  0.43025443  0.32314693  0.31954008  1
  Si0+  Si96  1  0.92518012  0.82405841  0.65350574  1
  Si0+  Si97  1  0.17672788  0.93079652  0.34783629  1
  Si0+  Si98  1  0.17873340  0.42775808  0.01656522  1
  Si0+  Si99  1  0.32301216  0.57570240  0.68199254  1
  Si0+  Si100  1  0.67902024  0.92984199  0.01715562  1
  Si0+  Si101  1  0.67786950  0.93173504  0.34760112  1
  Si0+  Si102  1  0.82418993  0.07495416  0.68295014  1
  Si0+  Si103  1  0.07491408  0.17547418  0.98081632  1
  Si0+  Si104  1  0.92836807  0.32217876  0.31601680  1
  Si0+  Si105  1  0.92597946  0.82321930  0.98282919  1
  Si0+  Si106  1  0.17596609  0.92867363  0.01813023  1
  Si0+  Si107  1  0.42452503  0.32495431  0.65341079  1
  Si0+  Si108  1  0.82213286  0.06922468  0.01366337  1
  Si0+  Si109  1  0.57494090  0.67726045  0.65127165  1
  Si0+  Si110  1  0.07417015  0.17704422  0.65324095  1
  Si0+  Si111  1  0.57240230  0.67802496  0.31804952  1
  Si0+  Si112  1  0.57350345  0.67687706  0.98344323  1
  Si0+  Si113  1  0.82396031  0.06985486  0.34731175  1
  Si0+  Si114  1  0.42813863  0.32252763  0.98478919  1
  Si0+  Si115  1  0.17620150  0.92545742  0.68213662  1
  Si0+  Si116  1  0.57061011  0.17936000  0.98372290  1
  Si0+  Si117  1  0.32184420  0.06840698  0.34768873  1
  Si0+  Si118  1  0.06849144  0.68051360  0.98370201  1
  Si0+  Si119  1  0.67642362  0.42540082  0.68196500  1
  O2-  O120  1  0.24363087  -0.00171658  0.06282121  1
  O2-  O121  1  0.25104381  -0.00205538  0.39100167  1
  O2-  O122  1  0.24449153  -0.00542963  0.72653753  1
  O2-  O123  1  0.25071803  0.49294403  0.05920993  1
  O2-  O124  1  0.25167104  0.50061475  0.39846425  1
  O2-  O125  1  0.25851419  0.50328102  0.72697502  1
  O2-  O126  1  0.75412946  -0.00317360  0.05871299  1
  O2-  O127  1  0.75061676  0.00125779  0.38941268  1
  O2-  O128  1  0.75688524  0.00447323  0.72731918  1
  O2-  O129  1  0.74874828  0.50047077  0.06290285  1
  O2-  O130  1  0.75105318  0.49689076  0.40099498  1
  O2-  O131  1  0.74303564  0.49525946  0.72739376  1
  O2-  O132  1  -0.00007967  0.25522119  0.27325541  1
  O2-  O133  1  0.00401708  0.24270877  0.60751646  1
  O2-  O134  1  0.00846478  0.24645890  0.93748339  1
  O2-  O135  1  -0.00741154  0.74545365  0.26646613  1
  O2-  O136  1  -0.00534948  0.75721841  0.60939034  1
  O2-  O137  1  -0.00708287  0.74794590  0.94173203  1
  O2-  O138  1  0.50603063  0.25626348  0.26643785  1
  O2-  O139  1  0.49640040  0.25931978  0.60982490  1
  O2-  O140  1  0.50005864  0.25167011  0.94250438  1
  O2-  O141  1  0.49636507  0.73852034  0.27268476  1
  O2-  O142  1  0.50200697  0.74106702  0.60612431  1
  O2-  O143  1  0.50274122  0.74307320  0.93750836  1
  O2-  O144  1  0.07261784  0.17334148  0.08637794  1
  O2-  O145  1  0.06955129  0.17616756  0.43430629  1
  O2-  O146  1  0.07278241  0.17695830  0.75885445  1
  O2-  O147  1  0.06985053  0.68187959  0.08811667  1
  O2-  O148  1  0.06925555  0.67918639  0.42893378  1
  O2-  O149  1  0.06860641  0.68072560  0.76631251  1
  O2-  O150  1  0.57124192  0.17805206  0.08828400  1
  O2-  O151  1  0.56683462  0.17365404  0.42925653  1
  O2-  O152  1  0.56678114  0.18064461  0.76813196  1
  O2-  O153  1  0.57512791  0.68062348  0.08873332  1
  O2-  O154  1  0.57656348  0.68546922  0.42350707  1
  O2-  O155  1  0.57529342  0.67917721  0.75705099  1
  O2-  O156  1  0.18236321  0.42730457  0.23391352  1
  O2-  O157  1  0.18099405  0.42801142  0.56952597  1
  O2-  O158  1  0.17768469  0.43030736  0.91061028  1
  O2-  O159  1  0.17567514  0.93364634  0.24263140  1
  O2-  O160  1  0.17510162  0.92729663  0.57672126  1
  O2-  O161  1  0.17425300  0.92942462  0.91235263  1
  O2-  O162  1  0.68221166  0.42589575  0.23775265  1
  O2-  O163  1  0.67732871  0.42592672  0.57708576  1
  O2-  O164  1  0.68079173  0.42458164  0.89968574  1
  O2-  O165  1  0.67795854  0.93312891  0.24211956  1
  O2-  O166  1  0.67995843  0.93250468  0.56716226  1
  O2-  O167  1  0.67838368  0.93184925  0.91193814  1
  O2-  O168  1  0.42667991  0.32171282  0.08922361  1
  O2-  O169  1  0.42599036  0.31463462  0.43319677  1
  O2-  O170  1  0.42522010  0.32418981  0.75963556  1
  O2-  O171  1  0.43181168  0.81964467  0.09686919  1
  O2-  O172  1  0.43298335  0.82533755  0.43166171  1
  O2-  O173  1  0.43268861  0.81985466  0.76614549  1
  O2-  O174  1  0.93277387  0.31549910  0.09938011  1
  O2-  O175  1  0.92809589  0.31952170  0.42174195  1
  O2-  O176  1  0.93038663  0.32026012  0.76471313  1
  O2-  O177  1  0.92811954  0.82926552  0.08714973  1
  O2-  O178  1  0.93014713  0.82439244  0.43402186  1
  O2-  O179  1  0.92658075  0.82380433  0.75960293  1
  O2-  O180  1  0.32093333  0.06675273  0.24252213  1
  O2-  O181  1  0.31961811  0.06854723  0.56530108  1
  O2-  O182  1  0.32381971  0.06834583  0.90446805  1
  O2-  O183  1  0.31712332  0.57571273  0.23535120  1
  O2-  O184  1  0.32172884  0.57768139  0.57720442  1
  O2-  O185  1  0.31538763  0.57160590  0.89739577  1
  O2-  O186  1  0.82460219  0.06792741  0.24170979  1
  O2-  O187  1  0.82695991  0.07319000  0.57759288  1
  O2-  O188  1  0.82003723  0.06812292  0.90857911  1
  O2-  O189  1  0.81757157  0.56971913  0.23644952  1
  O2-  O190  1  0.81942761  0.56953547  0.56826861  1
  O2-  O191  1  0.82371252  0.56987229  0.90269300  1
  O2-  O192  1  0.03891662  0.08571716  0.26231226  1
  O2-  O193  1  0.05262197  0.08141546  0.60851637  1
  O2-  O194  1  0.04813301  0.08214495  0.93425452  1
  O2-  O195  1  0.04434846  0.57725205  0.26253442  1
  O2-  O196  1  0.03642164  0.58475866  0.59872268  1
  O2-  O197  1  0.04420448  0.58731764  0.93691932  1
  O2-  O198  1  0.53939630  0.08370527  0.25925068  1
  O2-  O199  1  0.53470667  0.08576102  0.60050121  1
  O2-  O200  1  0.53990012  0.08765057  0.93734729  1
  O2-  O201  1  0.55677724  0.58094547  0.27721979  1
  O2-  O202  1  0.55596266  0.58159308  0.60653392  1
  O2-  O203  1  0.55164398  0.58172547  0.93893655  1
  O2-  O204  1  0.16838107  0.20673296  0.26477362  1
  O2-  O205  1  0.16797844  0.20485711  0.60951621  1
  O2-  O206  1  0.17062687  0.19864107  0.93790802  1
  O2-  O207  1  0.16388305  0.71252317  0.26012285  1
  O2-  O208  1  0.16381667  0.70962603  0.59532003  1
  O2-  O209  1  0.15741855  0.71375824  0.93347003  1
  O2-  O210  1  0.67379541  0.19947216  0.26474153  1
  O2-  O211  1  0.66542907  0.20395174  0.59799373  1
  O2-  O212  1  0.66305184  0.20372177  0.93545996  1
  O2-  O213  1  0.66114872  0.71296219  0.26767415  1
  O2-  O214  1  0.66678457  0.71008759  0.60615160  1
  O2-  O215  1  0.66671213  0.70667986  0.93724742  1
  O2-  O216  1  0.08673123  0.45637764  0.06275577  1
  O2-  O217  1  0.08135167  0.45292069  0.39927967  1
  O2-  O218  1  0.08581659  0.46669454  0.73641900  1
  O2-  O219  1  0.08143509  0.95296837  0.06377582  1
  O2-  O220  1  0.08656729  0.96256478  0.39598075  1
  O2-  O221  1  0.08235485  0.94854360  0.73072891  1
  O2-  O222  1  0.58013500  0.45076569  0.06662051  1
  O2-  O223  1  0.58012440  0.45109780  0.40546411  1
  O2-  O224  1  0.58095000  0.44752419  0.72754589  1
  O2-  O225  1  0.58960315  0.96248554  0.06543343  1
  O2-  O226  1  0.58677487  0.96359980  0.39440500  1
  O2-  O227  1  0.58605531  0.96603136  0.73702403  1
  O2-  O228  1  0.19925083  0.33173121  0.05895312  1
  O2-  O229  1  0.21098244  0.32830789  0.40072848  1
  O2-  O230  1  0.20658990  0.33524714  0.74168445  1
  O2-  O231  1  0.20352622  0.83587943  0.06352583  1
  O2-  O232  1  0.20101271  0.83776411  0.39292815  1
  O2-  O233  1  0.20300003  0.83190409  0.72760498  1
  O2-  O234  1  0.71019616  0.32737130  0.06599978  1
  O2-  O235  1  0.70536928  0.32429322  0.40096830  1
  O2-  O236  1  0.70378884  0.33097730  0.72564378  1
  O2-  O237  1  0.70304801  0.83730412  0.06432310  1
  O2-  O238  1  0.70199971  0.84022754  0.39652029  1
  O2-  O239  1  0.70846908  0.83657065  0.74055702  1
  O2-  O240  1  0.45283412  0.42507928  0.27141538  1
  O2-  O241  1  0.44402247  0.42028330  0.60834485  1
  O2-  O242  1  0.45390161  0.41478975  0.93686050  1
  O2-  O243  1  0.46632075  0.91262475  0.26153278  1
  O2-  O244  1  0.46681123  0.91447227  0.59988466  1
  O2-  O245  1  0.46565307  0.91653456  0.93268307  1
  O2-  O246  1  0.95234610  0.41555696  0.27058275  1
  O2-  O247  1  0.96575681  0.41466907  0.59742669  1
  O2-  O248  1  0.96224483  0.41605555  0.93220698  1
  O2-  O249  1  0.96010511  0.91644300  0.26373235  1
  O2-  O250  1  0.94702143  0.91986953  0.60983285  1
  O2-  O251  1  0.95641275  0.91316163  0.93192817  1
  O2-  O252  1  0.33535472  0.28884475  0.26251276  1
  O2-  O253  1  0.33139065  0.29408086  0.61040691  1
  O2-  O254  1  0.33615851  0.29236291  0.93756803  1
  O2-  O255  1  0.33013471  0.79791642  0.26441396  1
  O2-  O256  1  0.33353776  0.79530539  0.59828016  1
  O2-  O257  1  0.33120186  0.79326810  0.93095649  1
  O2-  O258  1  0.83690454  0.29149301  0.26933535  1
  O2-  O259  1  0.83542579  0.29094812  0.59457626  1
  O2-  O260  1  0.83645849  0.28405244  0.93111879  1
  O2-  O261  1  0.82547972  0.80102328  0.26886568  1
  O2-  O262  1  0.83055598  0.79879687  0.61045003  1
  O2-  O263  1  0.83151573  0.79999294  0.93818836  1
  O2-  O264  1  0.41739407  0.03583846  0.07172673  1
  O2-  O265  1  0.41416246  0.03812863  0.39251689  1
  O2-  O266  1  0.41463912  0.03529718  0.73456741  1
  O2-  O267  1  0.41765264  0.54875126  0.06363542  1
  O2-  O268  1  0.42173385  0.55697193  0.40109048  1
  O2-  O269  1  0.41895827  0.55627029  0.72721217  1
  O2-  O270  1  0.91577609  0.04358662  0.05898014  1
  O2-  O271  1  0.91463506  0.03987765  0.39565172  1
  O2-  O272  1  0.91793498  0.05324271  0.73187902  1
  O2-  O273  1  0.92120099  0.54045646  0.06807441  1
  O2-  O274  1  0.91963983  0.54455335  0.40010850  1
  O2-  O275  1  0.91524106  0.53449645  0.73407306  1
  O2-  O276  1  0.29382994  0.16734063  0.07168234  1
  O2-  O277  1  0.29426154  0.16030797  0.39357793  1
  O2-  O278  1  0.29108969  0.16355991  0.73821047  1
  O2-  O279  1  0.28425805  0.66826591  0.06289919  1
  O2-  O280  1  0.28841696  0.67500856  0.39950245  1
  O2-  O281  1  0.29124167  0.66827070  0.72773632  1
  O2-  O282  1  0.79248045  0.15950771  0.06190811  1
  O2-  O283  1  0.79974514  0.16214146  0.39446410  1
  O2-  O284  1  0.79342099  0.16774270  0.72795653  1
  O2-  O285  1  0.79936917  0.67219688  0.06710644  1
  O2-  O286  1  0.78953729  0.67098916  0.40098044  1
  O2-  O287  1  0.79262113  0.66530716  0.73725813  1
