# generated using pymatgen
data_Ca2Al2SiO7
_symmetry_space_group_name_H-M   'P 1'
_cell_length_a   15.45694249
_cell_length_b   15.45799126
_cell_length_c   15.28288788
_cell_angle_alpha   89.99704211
_cell_angle_beta   89.99928129
_cell_angle_gamma   90.01686435
_symmetry_Int_Tables_number   1
_chemical_formula_structural   Ca2Al2SiO7
_chemical_formula_sum   'Ca48 Al48 Si24 O168'
_cell_volume   3651.59039417
_cell_formula_units_Z   24
loop_
 _symmetry_equiv_pos_site_id
 _symmetry_equiv_pos_as_xyz
  1  'x, y, z'
loop_
 _atom_type_symbol
 _atom_type_oxidation_number
  Ca2+  2.0
  Al0+  0.0
  Si0+  0.0
  O2-  -2.0
loop_
 _atom_site_type_symbol
 _atom_site_label
 _atom_site_symmetry_multiplicity
 _atom_site_fract_x
 _atom_site_fract_y
 _atom_site_fract_z
 _atom_site_occupancy
  Ca2+  Ca0  1  0.16940201  0.07599008  0.17592664  1
  Ca2+  Ca1  1  0.17071582  0.07054623  0.50800342  1
  Ca2+  Ca2  1  0.16464027  0.08156853  0.82957856  1
  Ca2+  Ca3  1  0.16982799  0.57391535  0.17173597  1
  Ca2+  Ca4  1  0.16700101  0.58408572  0.50480791  1
  Ca2+  Ca5  1  0.17508600  0.58187487  0.83826430  1
  Ca2+  Ca6  1  0.67931171  0.07995398  0.17594308  1
  Ca2+  Ca7  1  0.67370827  0.08069373  0.50426238  1
  Ca2+  Ca8  1  0.67544423  0.09104472  0.83442046  1
  Ca2+  Ca9  1  0.66340079  0.57632943  0.17125024  1
  Ca2+  Ca10  1  0.66507577  0.58058445  0.50238969  1
  Ca2+  Ca11  1  0.67887923  0.57875346  0.84106152  1
  Ca2+  Ca12  1  0.08641170  0.33554622  0.16236092  1
  Ca2+  Ca13  1  0.08493319  0.32756615  0.49543230  1
  Ca2+  Ca14  1  0.08336910  0.32994393  0.82789887  1
  Ca2+  Ca15  1  0.08173723  0.82956467  0.17108634  1
  Ca2+  Ca16  1  0.08563907  0.82550592  0.49136624  1
  Ca2+  Ca17  1  0.08192944  0.82644986  0.82306464  1
  Ca2+  Ca18  1  0.57439645  0.34510289  0.16372013  1
  Ca2+  Ca19  1  0.57895130  0.32936275  0.49265583  1
  Ca2+  Ca20  1  0.58104114  0.33318066  0.83132614  1
  Ca2+  Ca21  1  0.58553996  0.83159340  0.16981904  1
  Ca2+  Ca22  1  0.57808660  0.82814773  0.48644082  1
  Ca2+  Ca23  1  0.58003200  0.83147762  0.82894394  1
  Ca2+  Ca24  1  0.32796790  0.41411115  0.17184895  1
  Ca2+  Ca25  1  0.33106390  0.42050490  0.50067871  1
  Ca2+  Ca26  1  0.33024619  0.42589324  0.84214812  1
  Ca2+  Ca27  1  0.32999299  0.91613978  0.17586588  1
  Ca2+  Ca28  1  0.32473100  0.91237567  0.50539939  1
  Ca2+  Ca29  1  0.32710603  0.92200908  0.82989396  1
  Ca2+  Ca30  1  0.82071384  0.42128600  0.17063119  1
  Ca2+  Ca31  1  0.82688766  0.42348697  0.50292756  1
  Ca2+  Ca32  1  0.83038407  0.42660478  0.83974144  1
  Ca2+  Ca33  1  0.83399722  0.92553264  0.17781834  1
  Ca2+  Ca34  1  0.83416876  0.92062991  0.49848460  1
  Ca2+  Ca35  1  0.83682038  0.93017829  0.83562149  1
  Ca2+  Ca36  1  0.41652532  0.18130593  0.16174861  1
  Ca2+  Ca37  1  0.42044584  0.16693994  0.49583472  1
  Ca2+  Ca38  1  0.42074226  0.17405903  0.82336890  1
  Ca2+  Ca39  1  0.41882108  0.66777024  0.16834223  1
  Ca2+  Ca40  1  0.41930869  0.67052180  0.49058963  1
  Ca2+  Ca41  1  0.41225210  0.66195030  0.82948656  1
  Ca2+  Ca42  1  0.91438144  0.16304735  0.16389159  1
  Ca2+  Ca43  1  0.92024940  0.15745084  0.49846446  1
  Ca2+  Ca44  1  0.91760928  0.16731029  0.82471953  1
  Ca2+  Ca45  1  0.91783829  0.66819444  0.16519723  1
  Ca2+  Ca46  1  0.92700680  0.66987104  0.49123743  1
  Ca2+  Ca47  1  0.92070385  0.66141164  0.82373576  1
  Al0+  Al48  1  0.00008458  -0.00128238  0.00231346  1
  Al0+  Al49  1  0.00400471  -0.00116623  0.33686740  1
  Al0+  Al50  1  -0.00197237  -0.00018552  0.67055931  1
  Al0+  Al51  1  0.00095176  0.49957979  0.00458564  1
  Al0+  Al52  1  0.00102449  0.49679592  0.33299809  1
  Al0+  Al53  1  -0.00135931  0.49952330  0.66444616  1
  Al0+  Al54  1  0.49929545  -0.00032767  -0.00308514  1
  Al0+  Al55  1  0.50321974  0.00172056  0.33031817  1
  Al0+  Al56  1  0.49862211  0.00038688  0.66612926  1
  Al0+  Al57  1  0.49932152  0.50272653  -0.00070987  1
  Al0+  Al58  1  0.49955939  0.49935132  0.33130156  1
  Al0+  Al59  1  0.49828836  0.49986141  0.67009411  1
  Al0+  Al60  1  0.25104337  0.24864966  -0.00398574  1
  Al0+  Al61  1  0.24989250  0.25058772  0.33376531  1
  Al0+  Al62  1  0.24879099  0.24959369  0.66424952  1
  Al0+  Al63  1  0.24948707  0.75020030  0.00214484  1
  Al0+  Al64  1  0.25076250  0.74887518  0.32731678  1
  Al0+  Al65  1  0.24864392  0.74880829  0.67143823  1
  Al0+  Al66  1  0.75101254  0.25009052  0.00705406  1
  Al0+  Al67  1  0.75213798  0.25207974  0.34208965  1
  Al0+  Al68  1  0.74715740  0.24975884  0.66533040  1
  Al0+  Al69  1  0.75044444  0.75295978  -0.00091896  1
  Al0+  Al70  1  0.75172224  0.75164547  0.32825945  1
  Al0+  Al71  1  0.74889580  0.74968044  0.67043320  1
  Al0+  Al72  1  0.17798996  0.92825694  0.68235346  1
  Al0+  Al73  1  0.57069156  0.17887611  0.65205753  1
  Al0+  Al74  1  0.67826174  0.92749636  0.34833920  1
  Al0+  Al75  1  0.82270258  0.07119422  0.35107611  1
  Al0+  Al76  1  0.42894185  0.32238851  0.98383433  1
  Al0+  Al77  1  0.32005971  0.56990514  0.67869164  1
  Al0+  Al78  1  0.18309097  0.92756934  0.34608825  1
  Al0+  Al79  1  0.57239433  0.67840050  0.31839977  1
  Al0+  Al80  1  0.82097671  0.06981542  0.01411196  1
  Al0+  Al81  1  0.81874728  0.07052034  0.68107884  1
  Al0+  Al82  1  0.32218785  0.07253563  0.68086792  1
  Al0+  Al83  1  0.17789367  0.42749648  0.34930210  1
  Al0+  Al84  1  0.07227384  0.67511583  0.31586511  1
  Al0+  Al85  1  0.42952675  0.31847987  0.32043273  1
  Al0+  Al86  1  0.82070247  0.57112149  0.67776676  1
  Al0+  Al87  1  0.18096028  0.42650462  0.01393480  1
  Al0+  Al88  1  0.07072482  0.67884942  0.65402289  1
  Al0+  Al89  1  0.67690559  0.43169209  0.34934806  1
  Al0+  Al90  1  0.42904295  0.82361094  0.31870239  1
  Al0+  Al91  1  0.67941388  0.43028414  0.01454158  1
  Al0+  Al92  1  0.82314570  0.57415669  0.01596097  1
  Al0+  Al93  1  0.07011622  0.17847500  0.65229244  1
  Al0+  Al94  1  0.93126454  0.82192493  0.31829392  1
  Al0+  Al95  1  0.32131397  0.57333574  0.01794964  1
  Si0+  Si96  1  0.17955378  0.92998212  0.01568880  1
  Si0+  Si97  1  0.67537520  0.92854649  0.01570039  1
  Si0+  Si98  1  0.57222162  0.17781833  0.98424507  1
  Si0+  Si99  1  0.92779625  0.32068004  0.31787762  1
  Si0+  Si100  1  0.32205828  0.07044404  0.01398150  1
  Si0+  Si101  1  0.42791200  0.32369415  0.64938278  1
  Si0+  Si102  1  0.32039869  0.57027930  0.34941117  1
  Si0+  Si103  1  0.57603506  0.17936927  0.31623603  1
  Si0+  Si104  1  0.82292672  0.57251465  0.34899728  1
  Si0+  Si105  1  0.67705919  0.42858974  0.68347894  1
  Si0+  Si106  1  0.57147736  0.67850917  0.65417150  1
  Si0+  Si107  1  0.57149488  0.68079011  0.98249751  1
  Si0+  Si108  1  0.42670650  0.82207292  0.98177369  1
  Si0+  Si109  1  0.92868781  0.32031700  0.98673346  1
  Si0+  Si110  1  0.07040151  0.17653200  0.98524666  1
  Si0+  Si111  1  0.07013193  0.17974369  0.31862515  1
  Si0+  Si112  1  0.92597224  0.82196274  0.65144835  1
  Si0+  Si113  1  0.17666228  0.42696790  0.68177005  1
  Si0+  Si114  1  0.67586316  0.92702510  0.68399388  1
  Si0+  Si115  1  0.42906113  0.81954186  0.65386643  1
  Si0+  Si116  1  0.92672307  0.32202738  0.64923454  1
  Si0+  Si117  1  0.92930512  0.82270884  0.98303990  1
  Si0+  Si118  1  0.06978897  0.67931297  0.98415580  1
  Si0+  Si119  1  0.32311728  0.07350016  0.34696535  1
  O2-  O120  1  0.25148359  0.00009047  0.05761071  1
  O2-  O121  1  0.26305069  -0.00256882  0.39080634  1
  O2-  O122  1  0.24755543  0.00343360  0.73230701  1
  O2-  O123  1  0.25341858  0.49664806  0.06592937  1
  O2-  O124  1  0.24914189  0.50515432  0.39511845  1
  O2-  O125  1  0.24555245  0.49518261  0.72564280  1
  O2-  O126  1  0.74435730  -0.00299383  0.05876329  1
  O2-  O127  1  0.74914284  -0.00025630  0.39927252  1
  O2-  O128  1  0.74365901  -0.00350379  0.72890851  1
  O2-  O129  1  0.74908077  0.50441506  0.06517697  1
  O2-  O130  1  0.74988934  0.50886679  0.39454734  1
  O2-  O131  1  0.74659777  0.49687934  0.72632140  1
  O2-  O132  1  -0.00175181  0.24890317  0.27507385  1
  O2-  O133  1  -0.00537859  0.25226299  0.60503933  1
  O2-  O134  1  0.00045618  0.24958629  0.94429225  1
  O2-  O135  1  -0.00111803  0.74644194  0.26610655  1
  O2-  O136  1  -0.00502581  0.75302262  0.60874463  1
  O2-  O137  1  -0.00442647  0.74712278  0.94079454  1
  O2-  O138  1  0.50575166  0.24602176  0.27145530  1
  O2-  O139  1  0.49422398  0.25228262  0.60609182  1
  O2-  O140  1  0.50508958  0.24770292  0.93903961  1
  O2-  O141  1  0.50306203  0.75365522  0.26811577  1
  O2-  O142  1  0.50095159  0.74948444  0.61210725  1
  O2-  O143  1  0.49839025  0.75086271  0.94015192  1
  O2-  O144  1  0.07016323  0.17379742  0.09045293  1
  O2-  O145  1  0.07039922  0.18071811  0.42349542  1
  O2-  O146  1  0.06785656  0.18131440  0.76624088  1
  O2-  O147  1  0.07044031  0.68204050  0.08869989  1
  O2-  O148  1  0.07154575  0.67633087  0.42983140  1
  O2-  O149  1  0.06964512  0.67939601  0.76788496  1
  O2-  O150  1  0.56896843  0.17404893  0.08940493  1
  O2-  O151  1  0.57409395  0.18053513  0.42199179  1
  O2-  O152  1  0.57217598  0.18274790  0.76566294  1
  O2-  O153  1  0.57302528  0.68300418  0.08694389  1
  O2-  O154  1  0.56842970  0.67705671  0.43289450  1
  O2-  O155  1  0.57174575  0.67999882  0.75941539  1
  O2-  O156  1  0.18065477  0.42451331  0.23645716  1
  O2-  O157  1  0.17754660  0.42752419  0.57623893  1
  O2-  O158  1  0.17942016  0.42772119  0.89996998  1
  O2-  O159  1  0.18194886  0.93280857  0.23223409  1
  O2-  O160  1  0.18160909  0.92597302  0.56914196  1
  O2-  O161  1  0.17898912  0.93062741  0.91083895  1
  O2-  O162  1  0.67827368  0.43140528  0.23650305  1
  O2-  O163  1  0.67544546  0.43071225  0.57793906  1
  O2-  O164  1  0.68305105  0.42997625  0.90042319  1
  O2-  O165  1  0.67914994  0.93170827  0.23431239  1
  O2-  O166  1  0.67593915  0.92477276  0.57913837  1
  O2-  O167  1  0.67480185  0.92843031  0.90973394  1
  O2-  O168  1  0.42749870  0.31872121  0.09686372  1
  O2-  O169  1  0.42950300  0.31668759  0.43360862  1
  O2-  O170  1  0.43071515  0.32498043  0.75507791  1
  O2-  O171  1  0.42640733  0.82530899  0.08610485  1
  O2-  O172  1  0.42716916  0.81937100  0.43281149  1
  O2-  O173  1  0.43070880  0.81891016  0.75954522  1
  O2-  O174  1  0.92858780  0.31831696  0.09170119  1
  O2-  O175  1  0.92877314  0.32197432  0.42288021  1
  O2-  O176  1  0.92770739  0.32245029  0.75547856  1
  O2-  O177  1  0.93242766  0.82645325  0.08740455  1
  O2-  O178  1  0.93393080  0.82167856  0.43210902  1
  O2-  O179  1  0.92640389  0.82080434  0.75783382  1
  O2-  O180  1  0.31710780  0.07637503  0.24068907  1
  O2-  O181  1  0.32311575  0.06888172  0.56743186  1
  O2-  O182  1  0.32173839  0.06927343  0.90926934  1
  O2-  O183  1  0.32072535  0.56778787  0.24403635  1
  O2-  O184  1  0.32290855  0.56986403  0.56600798  1
  O2-  O185  1  0.31727889  0.57421695  0.90381122  1
  O2-  O186  1  0.82248378  0.07120234  0.23698678  1
  O2-  O187  1  0.81898987  0.06846377  0.56902456  1
  O2-  O188  1  0.82196768  0.07019492  0.90092991  1
  O2-  O189  1  0.82365910  0.56761079  0.24354318  1
  O2-  O190  1  0.81831782  0.57062116  0.56502527  1
  O2-  O191  1  0.82302964  0.57127912  0.90174674  1
  O2-  O192  1  0.04434041  0.08772433  0.27064182  1
  O2-  O193  1  0.03900415  0.08073376  0.60076759  1
  O2-  O194  1  0.04000857  0.08545454  0.93713359  1
  O2-  O195  1  0.04451411  0.57559587  0.26447211  1
  O2-  O196  1  0.04156394  0.58192986  0.59990522  1
  O2-  O197  1  0.04543266  0.58553963  0.93850258  1
  O2-  O198  1  0.55487848  0.08532066  0.26948999  1
  O2-  O199  1  0.54136485  0.08129067  0.59886523  1
  O2-  O200  1  0.54628400  0.08466383  0.93589885  1
  O2-  O201  1  0.53897758  0.58216986  0.26409792  1
  O2-  O202  1  0.54347410  0.58612777  0.60812696  1
  O2-  O203  1  0.54547967  0.58926046  0.93378635  1
  O2-  O204  1  0.16117007  0.20901549  0.27005202  1
  O2-  O205  1  0.16690519  0.20719187  0.59726753  1
  O2-  O206  1  0.16245126  0.20160708  0.93698023  1
  O2-  O207  1  0.16917551  0.70494725  0.26152661  1
  O2-  O208  1  0.16769918  0.71020344  0.60130408  1
  O2-  O209  1  0.16117298  0.71168583  0.93736917  1
  O2-  O210  1  0.67021991  0.20761264  0.27331354  1
  O2-  O211  1  0.66617048  0.21029457  0.59641407  1
  O2-  O212  1  0.66739493  0.20433712  0.94085679  1
  O2-  O213  1  0.67118657  0.70233467  0.26442965  1
  O2-  O214  1  0.66330774  0.70536513  0.60656409  1
  O2-  O215  1  0.66306633  0.71087964  0.93357673  1
  O2-  O216  1  0.08262678  0.45374509  0.06690791  1
  O2-  O217  1  0.07967275  0.45260660  0.40252357  1
  O2-  O218  1  0.08244626  0.45124380  0.72693438  1
  O2-  O219  1  0.08892614  0.95962167  0.06375696  1
  O2-  O220  1  0.09001414  0.96291464  0.40204990  1
  O2-  O221  1  0.07963757  0.95505382  0.73634705  1
  O2-  O222  1  0.58069910  0.45934977  0.06485318  1
  O2-  O223  1  0.57999143  0.46056158  0.40368501  1
  O2-  O224  1  0.58447719  0.45520737  0.73095056  1
  O2-  O225  1  0.58098589  0.95263037  0.06074376  1
  O2-  O226  1  0.57857754  0.95459907  0.40051587  1
  O2-  O227  1  0.58215884  0.95182852  0.73021222  1
  O2-  O228  1  0.20655736  0.32601166  0.06492340  1
  O2-  O229  1  0.21221455  0.33196429  0.40363972  1
  O2-  O230  1  0.20042070  0.33301964  0.72741680  1
  O2-  O231  1  0.20713746  0.83852309  0.06252760  1
  O2-  O232  1  0.20989069  0.82905681  0.39769622  1
  O2-  O233  1  0.21092598  0.83272742  0.73889436  1
  O2-  O234  1  0.70780753  0.33310585  0.06937689  1
  O2-  O235  1  0.71075553  0.33719630  0.40514685  1
  O2-  O236  1  0.70219931  0.33505822  0.72876862  1
  O2-  O237  1  0.70082330  0.83515001  0.06067312  1
  O2-  O238  1  0.70489353  0.82773639  0.39955699  1
  O2-  O239  1  0.70143275  0.83409816  0.73268686  1
  O2-  O240  1  0.45885206  0.41489021  0.26630196  1
  O2-  O241  1  0.45712328  0.41643485  0.60277255  1
  O2-  O242  1  0.45794940  0.42031849  0.93086271  1
  O2-  O243  1  0.45373669  0.92340774  0.26477007  1
  O2-  O244  1  0.45391084  0.91154823  0.60662359  1
  O2-  O245  1  0.45535217  0.91350101  0.93230677  1
  O2-  O246  1  0.95605852  0.41097326  0.26838310  1
  O2-  O247  1  0.95329994  0.41430109  0.60110972  1
  O2-  O248  1  0.95640785  0.41254074  0.93898826  1
  O2-  O249  1  0.96652580  0.91900566  0.26467742  1
  O2-  O250  1  0.95017506  0.91603411  0.60751352  1
  O2-  O251  1  0.96344623  0.91261925  0.93399215  1
  O2-  O252  1  0.33360514  0.28531911  0.26510343  1
  O2-  O253  1  0.33284086  0.30208335  0.60533645  1
  O2-  O254  1  0.33342361  0.28851437  0.92841853  1
  O2-  O255  1  0.33298396  0.79305756  0.26216047  1
  O2-  O256  1  0.33757877  0.78956043  0.60827455  1
  O2-  O257  1  0.33446059  0.79356671  0.93476681  1
  O2-  O258  1  0.83560804  0.29271521  0.27112816  1
  O2-  O259  1  0.83225205  0.29847527  0.60478985  1
  O2-  O260  1  0.83714721  0.29133720  0.93877374  1
  O2-  O261  1  0.83207331  0.80030175  0.26395432  1
  O2-  O262  1  0.83149093  0.79674911  0.60697222  1
  O2-  O263  1  0.83490422  0.80290556  0.93644311  1
  O2-  O264  1  0.41398535  0.04271010  0.06088535  1
  O2-  O265  1  0.42060498  0.05828877  0.38709258  1
  O2-  O266  1  0.41906588  0.04134732  0.73637352  1
  O2-  O267  1  0.42232638  0.55217402  0.06578782  1
  O2-  O268  1  0.41267969  0.54144798  0.39592266  1
  O2-  O269  1  0.41619491  0.54036010  0.73596431  1
  O2-  O270  1  0.91702575  0.03682379  0.06807189  1
  O2-  O271  1  0.92111258  0.04053852  0.40190718  1
  O2-  O272  1  0.91434078  0.04032004  0.73762146  1
  O2-  O273  1  0.92021730  0.54458931  0.06882596  1
  O2-  O274  1  0.91431380  0.54020212  0.39563998  1
  O2-  O275  1  0.91672617  0.53878454  0.73281299  1
  O2-  O276  1  0.29347502  0.16184189  0.06095841  1
  O2-  O277  1  0.28959504  0.16261208  0.39614378  1
  O2-  O278  1  0.29540077  0.17215674  0.73266255  1
  O2-  O279  1  0.29001928  0.67104225  0.07024690  1
  O2-  O280  1  0.29754828  0.66534541  0.39280022  1
  O2-  O281  1  0.28978645  0.66471323  0.73621591  1
  O2-  O282  1  0.79374513  0.16588429  0.06979565  1
  O2-  O283  1  0.79740803  0.16976676  0.40447830  1
  O2-  O284  1  0.78807391  0.16835469  0.73410474  1
  O2-  O285  1  0.79808164  0.67512128  0.06402628  1
  O2-  O286  1  0.80439601  0.66875781  0.39070084  1
  O2-  O287  1  0.79091184  0.66685683  0.73495305  1
