# generated using pymatgen
data_Ca2Al2SiO7
_symmetry_space_group_name_H-M   'P 1'
_cell_length_a   15.45438341
_cell_length_b   15.45472700
_cell_length_c   15.28117619
_cell_angle_alpha   90.00361717
_cell_angle_beta   90.01238014
_cell_angle_gamma   89.99666604
_symmetry_Int_Tables_number   1
_chemical_formula_structural   Ca2Al2SiO7
_chemical_formula_sum   'Ca48 Al48 Si24 O168'
_cell_volume   3649.80609223
_cell_formula_units_Z   24
loop_
 _symmetry_equiv_pos_site_id
 _symmetry_equiv_pos_as_xyz
  1  'x, y, z'
loop_
 _atom_type_symbol
 _atom_type_oxidation_number
  Ca2+  2.0
  Al0+  0.0
  Si0+  0.0
  O2-  -2.0
loop_
 _atom_site_type_symbol
 _atom_site_label
 _atom_site_symmetry_multiplicity
 _atom_site_fract_x
 _atom_site_fract_y
 _atom_site_fract_z
 _atom_site_occupancy
  Ca2+  Ca0  1  0.17728616  0.07926024  0.17761793  1
  Ca2+  Ca1  1  0.16136185  0.07483999  0.50221771  1
  Ca2+  Ca2  1  0.16766469  0.07698590  0.83662312  1
  Ca2+  Ca3  1  0.17261297  0.58998119  0.17288877  1
  Ca2+  Ca4  1  0.16894869  0.58956433  0.50550721  1
  Ca2+  Ca5  1  0.15851886  0.57926481  0.83558101  1
  Ca2+  Ca6  1  0.66572077  0.07424848  0.16721974  1
  Ca2+  Ca7  1  0.67090908  0.07595506  0.50806144  1
  Ca2+  Ca8  1  0.66431535  0.07242680  0.83611496  1
  Ca2+  Ca9  1  0.65914272  0.57821920  0.17156874  1
  Ca2+  Ca10  1  0.66523557  0.57616951  0.50279682  1
  Ca2+  Ca11  1  0.67358862  0.57682815  0.84434354  1
  Ca2+  Ca12  1  0.08929075  0.32455344  0.16366530  1
  Ca2+  Ca13  1  0.08598626  0.32577700  0.50098006  1
  Ca2+  Ca14  1  0.07685150  0.32843165  0.81852650  1
  Ca2+  Ca15  1  0.08387686  0.82711064  0.16684478  1
  Ca2+  Ca16  1  0.08400059  0.82992939  0.49163652  1
  Ca2+  Ca17  1  0.08908189  0.82041973  0.82645488  1
  Ca2+  Ca18  1  0.57926437  0.33674827  0.16001793  1
  Ca2+  Ca19  1  0.58660157  0.33654572  0.49486601  1
  Ca2+  Ca20  1  0.58023373  0.34134555  0.83164214  1
  Ca2+  Ca21  1  0.57935372  0.82190820  0.15559188  1
  Ca2+  Ca22  1  0.57853304  0.82987302  0.49544795  1
  Ca2+  Ca23  1  0.57596430  0.83962566  0.82984365  1
  Ca2+  Ca24  1  0.33610782  0.42311551  0.17218744  1
  Ca2+  Ca25  1  0.32674085  0.42785121  0.50271364  1
  Ca2+  Ca26  1  0.32693359  0.41484376  0.83653951  1
  Ca2+  Ca27  1  0.33282393  0.92432156  0.17260786  1
  Ca2+  Ca28  1  0.32139208  0.91578273  0.50457156  1
  Ca2+  Ca29  1  0.33375681  0.91708535  0.83734542  1
  Ca2+  Ca30  1  0.82260698  0.42563235  0.16823987  1
  Ca2+  Ca31  1  0.82509857  0.41293803  0.50714906  1
  Ca2+  Ca32  1  0.82678903  0.41857390  0.83974899  1
  Ca2+  Ca33  1  0.82897189  0.90658428  0.16845825  1
  Ca2+  Ca34  1  0.83134857  0.91242861  0.50357598  1
  Ca2+  Ca35  1  0.82055844  0.91195664  0.83680520  1
  Ca2+  Ca36  1  0.40987443  0.17112479  0.15886289  1
  Ca2+  Ca37  1  0.41449641  0.16833302  0.49642164  1
  Ca2+  Ca38  1  0.41318726  0.16964765  0.83534279  1
  Ca2+  Ca39  1  0.42496484  0.66727157  0.16035962  1
  Ca2+  Ca40  1  0.41818885  0.67126291  0.49475948  1
  Ca2+  Ca41  1  0.42346642  0.67948732  0.83156289  1
  Ca2+  Ca42  1  0.92427024  0.16542129  0.16686317  1
  Ca2+  Ca43  1  0.92717192  0.16969697  0.49770636  1
  Ca2+  Ca44  1  0.92067264  0.17485054  0.82233155  1
  Ca2+  Ca45  1  0.92611670  0.66529037  0.16406523  1
  Ca2+  Ca46  1  0.92916665  0.67220165  0.49362926  1
  Ca2+  Ca47  1  0.92457174  0.65879556  0.83204020  1
  Al0+  Al48  1  0.00009742  -0.00211018  -0.00132136  1
  Al0+  Al49  1  -0.00128429  0.00144762  0.32691365  1
  Al0+  Al50  1  0.00074513  -0.00040273  0.67009915  1
  Al0+  Al51  1  -0.00162169  0.49698013  0.00254393  1
  Al0+  Al52  1  -0.00240091  0.49925224  0.32952988  1
  Al0+  Al53  1  0.00029584  0.49969618  0.65974675  1
  Al0+  Al54  1  0.49984075  0.00202697  0.00585976  1
  Al0+  Al55  1  0.50115248  0.00209858  0.33760799  1
  Al0+  Al56  1  0.49917705  0.00121813  0.66452947  1
  Al0+  Al57  1  0.49748248  0.49940455  -0.00750825  1
  Al0+  Al58  1  0.49815727  0.49964940  0.33997704  1
  Al0+  Al59  1  0.49998208  0.50128260  0.67080751  1
  Al0+  Al60  1  0.25069260  0.24834385  -0.00199914  1
  Al0+  Al61  1  0.25077177  0.25151125  0.33317289  1
  Al0+  Al62  1  0.25152246  0.25197846  0.66524563  1
  Al0+  Al63  1  0.24925540  0.74869133  -0.00826891  1
  Al0+  Al64  1  0.25125256  0.75187298  0.33717035  1
  Al0+  Al65  1  0.25308424  0.75256571  0.66415775  1
  Al0+  Al66  1  0.75024775  0.24878444  0.00463616  1
  Al0+  Al67  1  0.74906968  0.24885960  0.33520071  1
  Al0+  Al68  1  0.74863415  0.25013280  0.66795596  1
  Al0+  Al69  1  0.75318220  0.74835664  0.00476128  1
  Al0+  Al70  1  0.74974522  0.74687076  0.32809360  1
  Al0+  Al71  1  0.74956308  0.74812015  0.67145497  1
  Al0+  Al72  1  0.67944115  0.92940662  0.01492352  1
  Al0+  Al73  1  0.92842764  0.82161762  0.31794175  1
  Al0+  Al74  1  0.17984104  0.43091030  0.67876977  1
  Al0+  Al75  1  0.42882078  0.32067991  0.98589766  1
  Al0+  Al76  1  0.43123264  0.82319186  0.65025296  1
  Al0+  Al77  1  0.57381744  0.67779055  0.98390971  1
  Al0+  Al78  1  0.31948278  0.57138892  0.34561378  1
  Al0+  Al79  1  0.43053333  0.82354341  0.98617622  1
  Al0+  Al80  1  0.32302717  0.07412157  0.35063762  1
  Al0+  Al81  1  0.17842890  0.92869207  0.68199668  1
  Al0+  Al82  1  0.17854159  0.93112721  0.34737343  1
  Al0+  Al83  1  0.82353071  0.57054561  0.01725890  1
  Al0+  Al84  1  0.67626122  0.42984302  0.01590544  1
  Al0+  Al85  1  0.07305562  0.17721675  0.65189452  1
  Al0+  Al86  1  0.67991938  0.43017448  0.34800226  1
  Al0+  Al87  1  0.06979153  0.67825823  0.98542826  1
  Al0+  Al88  1  0.07401421  0.67827058  0.31811218  1
  Al0+  Al89  1  0.07083983  0.67992762  0.65249411  1
  Al0+  Al90  1  0.67867362  0.42832568  0.68217909  1
  Al0+  Al91  1  0.07103089  0.18169250  0.31821343  1
  Al0+  Al92  1  0.31827276  0.07024807  0.01327842  1
  Al0+  Al93  1  0.92691041  0.32125271  0.65098699  1
  Al0+  Al94  1  0.56777129  0.67808911  0.32153550  1
  Al0+  Al95  1  0.67851319  0.92835574  0.67842197  1
  Si0+  Si96  1  0.92551505  0.82150342  0.65310051  1
  Si0+  Si97  1  0.17551142  0.42776322  0.34804651  1
  Si0+  Si98  1  0.82302468  0.57271940  0.35212307  1
  Si0+  Si99  1  0.42940670  0.32363026  0.64997896  1
  Si0+  Si100  1  0.07165344  0.17818935  0.98470618  1
  Si0+  Si101  1  0.68005758  0.92655705  0.34782631  1
  Si0+  Si102  1  0.82446698  0.07204306  0.01754818  1
  Si0+  Si103  1  0.57314731  0.17773022  0.31859961  1
  Si0+  Si104  1  0.92377920  0.32114910  0.31430888  1
  Si0+  Si105  1  0.32207779  0.07306782  0.68392650  1
  Si0+  Si106  1  0.17875293  0.42759072  0.01397753  1
  Si0+  Si107  1  0.92821740  0.82345616  0.98083734  1
  Si0+  Si108  1  0.31843945  0.57098362  0.01159727  1
  Si0+  Si109  1  0.82009874  0.07103343  0.34835196  1
  Si0+  Si110  1  0.32227339  0.57383637  0.68635378  1
  Si0+  Si111  1  0.82181889  0.07163311  0.68270737  1
  Si0+  Si112  1  0.57276192  0.67778476  0.65020539  1
  Si0+  Si113  1  0.56958079  0.17995641  0.65191143  1
  Si0+  Si114  1  0.82262431  0.57112222  0.68214542  1
  Si0+  Si115  1  0.43120165  0.31973098  0.32054632  1
  Si0+  Si116  1  0.17745451  0.92499360  0.01617788  1
  Si0+  Si117  1  0.57381379  0.17849216  0.98402968  1
  Si0+  Si118  1  0.42915750  0.82472469  0.31749482  1
  Si0+  Si119  1  0.92897592  0.31799920  0.98665117  1
  O2-  O120  1  0.24579131  -0.00598627  0.06002543  1
  O2-  O121  1  0.25065334  0.00257718  0.39943928  1
  O2-  O122  1  0.25153017  0.00608259  0.72749419  1
  O2-  O123  1  0.24783260  0.50017692  0.05598473  1
  O2-  O124  1  0.23699965  0.50373941  0.39080919  1
  O2-  O125  1  0.25118009  0.50668011  0.72954863  1
  O2-  O126  1  0.75723658  0.00176955  0.06173627  1
  O2-  O127  1  0.75175484  -0.00293928  0.39028073  1
  O2-  O128  1  0.75564458  0.00021438  0.72621384  1
  O2-  O129  1  0.74340805  0.50608965  0.06644587  1
  O2-  O130  1  0.75644049  0.50175251  0.39637169  1
  O2-  O131  1  0.75441917  0.50196311  0.72671083  1
  O2-  O132  1  -0.00146834  0.25859613  0.26987853  1
  O2-  O133  1  0.00042918  0.24957253  0.60271089  1
  O2-  O134  1  -0.00244676  0.24549944  0.94306927  1
  O2-  O135  1  0.00154156  0.75007103  0.26853332  1
  O2-  O136  1  -0.00248207  0.75715033  0.60829051  1
  O2-  O137  1  -0.00367080  0.75384459  0.93748828  1
  O2-  O138  1  0.49882525  0.24572180  0.27768249  1
  O2-  O139  1  0.50193439  0.25375783  0.60844420  1
  O2-  O140  1  0.50779761  0.24977355  0.93954159  1
  O2-  O141  1  0.49676923  0.75530763  0.27330521  1
  O2-  O142  1  0.50616227  0.74788499  0.60507724  1
  O2-  O143  1  0.50661791  0.75545805  0.93529507  1
  O2-  O144  1  0.07265099  0.18071292  0.08988816  1
  O2-  O145  1  0.06900268  0.18166612  0.43082549  1
  O2-  O146  1  0.07095545  0.17931104  0.76626554  1
  O2-  O147  1  0.07247400  0.67920636  0.09803798  1
  O2-  O148  1  0.07210366  0.67971657  0.43169130  1
  O2-  O149  1  0.06769336  0.67784823  0.76578344  1
  O2-  O150  1  0.57332112  0.17824867  0.08993973  1
  O2-  O151  1  0.57599699  0.17833500  0.42384533  1
  O2-  O152  1  0.56811427  0.17797005  0.75683156  1
  O2-  O153  1  0.56698796  0.67610541  0.09782736  1
  O2-  O154  1  0.56724296  0.67965145  0.43491043  1
  O2-  O155  1  0.57180161  0.67798721  0.75541750  1
  O2-  O156  1  0.18119456  0.42353299  0.24199079  1
  O2-  O157  1  0.18402086  0.43026581  0.56583279  1
  O2-  O158  1  0.17844388  0.42662231  0.90884326  1
  O2-  O159  1  0.18091735  0.93207695  0.23337296  1
  O2-  O160  1  0.17784680  0.92862174  0.56928725  1
  O2-  O161  1  0.17695987  0.92723708  0.91040031  1
  O2-  O162  1  0.67761992  0.43006453  0.23538449  1
  O2-  O163  1  0.67838526  0.42938040  0.56878691  1
  O2-  O164  1  0.68097924  0.42795001  0.90240061  1
  O2-  O165  1  0.67907464  0.92950187  0.24290852  1
  O2-  O166  1  0.68055224  0.93045240  0.56492439  1
  O2-  O167  1  0.67925310  0.93388868  0.90155198  1
  O2-  O168  1  0.42633421  0.31931254  0.09932951  1
  O2-  O169  1  0.43349051  0.32024346  0.42582352  1
  O2-  O170  1  0.42820410  0.32206614  0.75499944  1
  O2-  O171  1  0.42943460  0.82121372  0.09992623  1
  O2-  O172  1  0.43238347  0.82449801  0.42323914  1
  O2-  O173  1  0.43318611  0.82459987  0.76329485  1
  O2-  O174  1  0.93108222  0.31637173  0.09174973  1
  O2-  O175  1  0.92010121  0.31674028  0.41946411  1
  O2-  O176  1  0.92718646  0.31870340  0.76539577  1
  O2-  O177  1  0.93162804  0.82709778  0.08606914  1
  O2-  O178  1  0.92661236  0.82063276  0.43205344  1
  O2-  O179  1  0.92297184  0.81897180  0.75854852  1
  O2-  O180  1  0.32242180  0.07419300  0.23686466  1
  O2-  O181  1  0.32393942  0.07245500  0.57863758  1
  O2-  O182  1  0.31472805  0.07355979  0.90022025  1
  O2-  O183  1  0.32289977  0.56706041  0.23207222  1
  O2-  O184  1  0.32409324  0.57092335  0.58039504  1
  O2-  O185  1  0.31595868  0.56951760  0.90666846  1
  O2-  O186  1  0.81674246  0.07451144  0.24329644  1
  O2-  O187  1  0.81964861  0.07251126  0.57688185  1
  O2-  O188  1  0.82450163  0.07393072  0.91202296  1
  O2-  O189  1  0.82239171  0.57137721  0.24688881  1
  O2-  O190  1  0.81974761  0.57354512  0.57661370  1
  O2-  O191  1  0.82801786  0.56299236  0.90348031  1
  O2-  O192  1  0.03737775  0.08770815  0.26123761  1
  O2-  O193  1  0.04260182  0.07857934  0.60031794  1
  O2-  O194  1  0.04742065  0.08442559  0.93942805  1
  O2-  O195  1  0.04770524  0.57804629  0.26611493  1
  O2-  O196  1  0.04116377  0.58473816  0.59598606  1
  O2-  O197  1  0.03795393  0.57950198  0.93474087  1
  O2-  O198  1  0.54872358  0.08463180  0.27167717  1
  O2-  O199  1  0.53987857  0.09035768  0.60107189  1
  O2-  O200  1  0.54349908  0.08662656  0.93765639  1
  O2-  O201  1  0.53226748  0.58201517  0.26924172  1
  O2-  O202  1  0.54362599  0.58438741  0.60464510  1
  O2-  O203  1  0.54083072  0.58214058  0.92861217  1
  O2-  O204  1  0.16819849  0.21334313  0.26395805  1
  O2-  O205  1  0.17113684  0.20761911  0.59952493  1
  O2-  O206  1  0.16114293  0.20959179  0.93604094  1
  O2-  O207  1  0.17350677  0.70715802  0.26689971  1
  O2-  O208  1  0.16883728  0.70906203  0.60174988  1
  O2-  O209  1  0.16523175  0.70663116  0.92765894  1
  O2-  O210  1  0.66327233  0.20747369  0.26917460  1
  O2-  O211  1  0.66220850  0.20459711  0.60446727  1
  O2-  O212  1  0.66916938  0.19927235  0.93902540  1
  O2-  O213  1  0.66484761  0.70374266  0.26718978  1
  O2-  O214  1  0.66755108  0.70115759  0.60543369  1
  O2-  O215  1  0.67630843  0.69896934  0.93735537  1
  O2-  O216  1  0.08684014  0.45060721  0.06244796  1
  O2-  O217  1  0.07812472  0.44280879  0.38931986  1
  O2-  O218  1  0.08104290  0.45807720  0.73071453  1
  O2-  O219  1  0.08308959  0.95028178  0.06069125  1
  O2-  O220  1  0.07853057  0.96084595  0.39688899  1
  O2-  O221  1  0.08119337  0.95572756  0.73785081  1
  O2-  O222  1  0.57409327  0.45365155  0.06363213  1
  O2-  O223  1  0.58463367  0.46177687  0.40406544  1
  O2-  O224  1  0.58161681  0.45856362  0.73531362  1
  O2-  O225  1  0.58558631  0.96399274  0.07176980  1
  O2-  O226  1  0.58948582  0.95661884  0.39649059  1
  O2-  O227  1  0.58404005  0.96618632  0.73193949  1
  O2-  O228  1  0.21041570  0.33688729  0.06147023  1
  O2-  O229  1  0.20950667  0.33819175  0.39687412  1
  O2-  O230  1  0.21285271  0.33473263  0.73381920  1
  O2-  O231  1  0.20347270  0.83057258  0.05936307  1
  O2-  O232  1  0.20650114  0.83342087  0.40180846  1
  O2-  O233  1  0.21408470  0.83325278  0.73548834  1
  O2-  O234  1  0.70646715  0.33085933  0.06822722  1
  O2-  O235  1  0.70878844  0.33167517  0.40065287  1
  O2-  O236  1  0.70571101  0.33030106  0.73541399  1
  O2-  O237  1  0.70836609  0.83249837  0.06876286  1
  O2-  O238  1  0.70692972  0.83412937  0.39400551  1
  O2-  O239  1  0.70576035  0.83177629  0.73424469  1
  O2-  O240  1  0.46247864  0.41026771  0.27315179  1
  O2-  O241  1  0.45688405  0.41633915  0.60401348  1
  O2-  O242  1  0.45323247  0.41623301  0.92750223  1
  O2-  O243  1  0.45615936  0.91905011  0.27320908  1
  O2-  O244  1  0.46223118  0.91932340  0.59547055  1
  O2-  O245  1  0.45702243  0.92382179  0.93534096  1
  O2-  O246  1  0.94215491  0.41701083  0.27074864  1
  O2-  O247  1  0.95355227  0.41826766  0.59575044  1
  O2-  O248  1  0.95860800  0.40846973  0.93870878  1
  O2-  O249  1  0.95146757  0.92045947  0.26303029  1
  O2-  O250  1  0.94606076  0.91747557  0.61030055  1
  O2-  O251  1  0.95174007  0.91758319  0.93316649  1
  O2-  O252  1  0.33876663  0.29673039  0.27206729  1
  O2-  O253  1  0.33914771  0.29480946  0.60059509  1
  O2-  O254  1  0.33400257  0.28474342  0.92966380  1
  O2-  O255  1  0.33480700  0.80135373  0.27389496  1
  O2-  O256  1  0.33592759  0.79086256  0.59558435  1
  O2-  O257  1  0.33402242  0.79186456  0.93076057  1
  O2-  O258  1  0.83316105  0.28722135  0.26640142  1
  O2-  O259  1  0.82857656  0.28977727  0.59865467  1
  O2-  O260  1  0.83633557  0.29104102  0.94003394  1
  O2-  O261  1  0.83092647  0.79112350  0.26363957  1
  O2-  O262  1  0.83275642  0.79333194  0.60547910  1
  O2-  O263  1  0.83353347  0.79903948  0.93737856  1
  O2-  O264  1  0.41594126  0.04668959  0.06838918  1
  O2-  O265  1  0.42320077  0.04951990  0.40296296  1
  O2-  O266  1  0.41518619  0.04558256  0.73023021  1
  O2-  O267  1  0.41015933  0.54186697  0.05780332  1
  O2-  O268  1  0.41042351  0.53222984  0.40547594  1
  O2-  O269  1  0.41434430  0.54463351  0.73322230  1
  O2-  O270  1  0.91905145  0.04742975  0.06306780  1
  O2-  O271  1  0.91263907  0.04573986  0.39429554  1
  O2-  O272  1  0.91563954  0.05074935  0.72983782  1
  O2-  O273  1  0.91785481  0.53179733  0.07380364  1
  O2-  O274  1  0.91802108  0.54895354  0.39672611  1
  O2-  O275  1  0.91651757  0.54450403  0.72630267  1
  O2-  O276  1  0.28456274  0.16630810  0.06821371  1
  O2-  O277  1  0.29637432  0.17403129  0.40132596  1
  O2-  O278  1  0.29972507  0.16825745  0.72835816  1
  O2-  O279  1  0.29046859  0.66273049  0.05892161  1
  O2-  O280  1  0.29704642  0.66894760  0.40114436  1
  O2-  O281  1  0.29964969  0.66854271  0.72973052  1
  O2-  O282  1  0.79787319  0.16403964  0.06673986  1
  O2-  O283  1  0.78831514  0.16027338  0.39855044  1
  O2-  O284  1  0.79124259  0.16301100  0.73070617  1
  O2-  O285  1  0.80844681  0.67214673  0.06743893  1
  O2-  O286  1  0.79414792  0.66555221  0.39801996  1
  O2-  O287  1  0.79756499  0.66340842  0.73179227  1
