# generated using pymatgen
data_Ca2Al2SiO7
_symmetry_space_group_name_H-M   'P 1'
_cell_length_a   15.45463654
_cell_length_b   15.45524065
_cell_length_c   15.28078889
_cell_angle_alpha   89.99781014
_cell_angle_beta   90.00228066
_cell_angle_gamma   90.00840406
_symmetry_Int_Tables_number   1
_chemical_formula_structural   Ca2Al2SiO7
_chemical_formula_sum   'Ca48 Al48 Si24 O168'
_cell_volume   3649.89472581
_cell_formula_units_Z   24
loop_
 _symmetry_equiv_pos_site_id
 _symmetry_equiv_pos_as_xyz
  1  'x, y, z'
loop_
 _atom_type_symbol
 _atom_type_oxidation_number
  Ca2+  2.0
  Al0+  0.0
  Si0+  0.0
  O2-  -2.0
loop_
 _atom_site_type_symbol
 _atom_site_label
 _atom_site_symmetry_multiplicity
 _atom_site_fract_x
 _atom_site_fract_y
 _atom_site_fract_z
 _atom_site_occupancy
  Ca2+  Ca0  1  0.16837752  0.06816205  0.17185790  1
  Ca2+  Ca1  1  0.16935162  0.07923820  0.50599597  1
  Ca2+  Ca2  1  0.16818314  0.08149580  0.83601304  1
  Ca2+  Ca3  1  0.17150000  0.59374677  0.17010609  1
  Ca2+  Ca4  1  0.17191772  0.58493657  0.50300860  1
  Ca2+  Ca5  1  0.17948643  0.58953722  0.83943991  1
  Ca2+  Ca6  1  0.66532748  0.07492627  0.17689577  1
  Ca2+  Ca7  1  0.66489235  0.07565178  0.49871698  1
  Ca2+  Ca8  1  0.66342059  0.06867310  0.83708498  1
  Ca2+  Ca9  1  0.67218735  0.58503792  0.16839389  1
  Ca2+  Ca10  1  0.67865302  0.59424427  0.50104572  1
  Ca2+  Ca11  1  0.67760279  0.58287756  0.84374011  1
  Ca2+  Ca12  1  0.07476619  0.33407168  0.16583256  1
  Ca2+  Ca13  1  0.07906785  0.32544599  0.49533100  1
  Ca2+  Ca14  1  0.08443942  0.32572416  0.82651571  1
  Ca2+  Ca15  1  0.08690971  0.82587420  0.16136293  1
  Ca2+  Ca16  1  0.07770764  0.82900056  0.49283670  1
  Ca2+  Ca17  1  0.07766828  0.83136957  0.83101028  1
  Ca2+  Ca18  1  0.58575382  0.32800220  0.15936435  1
  Ca2+  Ca19  1  0.57811748  0.32750641  0.49382299  1
  Ca2+  Ca20  1  0.57382007  0.34228254  0.83321209  1
  Ca2+  Ca21  1  0.58896654  0.82676913  0.16458526  1
  Ca2+  Ca22  1  0.57845455  0.83427747  0.49039276  1
  Ca2+  Ca23  1  0.59295375  0.82823186  0.83181352  1
  Ca2+  Ca24  1  0.33868515  0.42215018  0.16291876  1
  Ca2+  Ca25  1  0.33500485  0.42279698  0.50970131  1
  Ca2+  Ca26  1  0.33974582  0.42383997  0.83819565  1
  Ca2+  Ca27  1  0.32292646  0.90361339  0.17154107  1
  Ca2+  Ca28  1  0.32966985  0.91757157  0.50153230  1
  Ca2+  Ca29  1  0.32739205  0.92491610  0.83866241  1
  Ca2+  Ca30  1  0.83193606  0.42528598  0.17264662  1
  Ca2+  Ca31  1  0.83622862  0.42601434  0.50036503  1
  Ca2+  Ca32  1  0.82847915  0.42827009  0.84171109  1
  Ca2+  Ca33  1  0.82127228  0.92150119  0.17417597  1
  Ca2+  Ca34  1  0.82041330  0.91111581  0.50396544  1
  Ca2+  Ca35  1  0.82536928  0.91037600  0.83483440  1
  Ca2+  Ca36  1  0.42324709  0.17149826  0.16375380  1
  Ca2+  Ca37  1  0.41864957  0.16820765  0.49752570  1
  Ca2+  Ca38  1  0.41110074  0.17917918  0.82570084  1
  Ca2+  Ca39  1  0.42802638  0.67005119  0.16229605  1
  Ca2+  Ca40  1  0.42345065  0.67205979  0.48975364  1
  Ca2+  Ca41  1  0.42201326  0.66042319  0.83285592  1
  Ca2+  Ca42  1  0.90513746  0.17247472  0.16838905  1
  Ca2+  Ca43  1  0.91569648  0.17074579  0.49236176  1
  Ca2+  Ca44  1  0.92435323  0.16670282  0.82612270  1
  Ca2+  Ca45  1  0.92586898  0.65844230  0.16238410  1
  Ca2+  Ca46  1  0.91640621  0.66874874  0.49441601  1
  Ca2+  Ca47  1  0.91635472  0.66784542  0.82957060  1
  Al0+  Al48  1  0.00065471  0.00005283  0.00373612  1
  Al0+  Al49  1  0.00099334  0.00020088  0.34055383  1
  Al0+  Al50  1  -0.00199113  -0.00168727  0.65712597  1
  Al0+  Al51  1  0.00289445  0.49928331  -0.00469965  1
  Al0+  Al52  1  0.00055942  0.49842903  0.33073575  1
  Al0+  Al53  1  0.00137151  0.49937293  0.67116770  1
  Al0+  Al54  1  0.49930068  0.00055077  0.00361011  1
  Al0+  Al55  1  0.49604380  0.00205178  0.32785429  1
  Al0+  Al56  1  0.49832292  -0.00063754  0.67645115  1
  Al0+  Al57  1  0.50071715  0.50049026  0.00077896  1
  Al0+  Al58  1  0.49995612  0.50081284  0.33088008  1
  Al0+  Al59  1  0.50065660  0.50000581  0.66327768  1
  Al0+  Al60  1  0.25053657  0.25070037  -0.00187524  1
  Al0+  Al61  1  0.24793003  0.25039125  0.33129708  1
  Al0+  Al62  1  0.24982772  0.24976801  0.66009083  1
  Al0+  Al63  1  0.25089379  0.74998457  0.00113097  1
  Al0+  Al64  1  0.24970306  0.74960957  0.33386207  1
  Al0+  Al65  1  0.25045396  0.74987783  0.67127330  1
  Al0+  Al66  1  0.74959044  0.25004098  -0.00355842  1
  Al0+  Al67  1  0.74859757  0.25104526  0.32966908  1
  Al0+  Al68  1  0.74908062  0.24878372  0.66735565  1
  Al0+  Al69  1  0.75172114  0.75115742  0.00483897  1
  Al0+  Al70  1  0.75056376  0.75005918  0.33672225  1
  Al0+  Al71  1  0.75110398  0.74906465  0.67067534  1
  Al0+  Al72  1  0.32200180  0.57142544  0.67947927  1
  Al0+  Al73  1  0.67870419  0.92946945  0.01544177  1
  Al0+  Al74  1  0.82219552  0.56943634  0.34741681  1
  Al0+  Al75  1  0.31911887  0.07135834  0.67998974  1
  Al0+  Al76  1  0.92786370  0.81789355  0.65213827  1
  Al0+  Al77  1  0.67686153  0.92920541  0.34891974  1
  Al0+  Al78  1  0.57198017  0.68158777  0.98519951  1
  Al0+  Al79  1  0.06890494  0.67987424  0.32128886  1
  Al0+  Al80  1  0.82408046  0.57097151  0.01650380  1
  Al0+  Al81  1  0.67882045  0.42898609  0.01500946  1
  Al0+  Al82  1  0.32075916  0.57038111  0.01525670  1
  Al0+  Al83  1  0.56912950  0.18056079  0.32024203  1
  Al0+  Al84  1  0.57387508  0.67915841  0.31820544  1
  Al0+  Al85  1  0.43039461  0.31948842  0.98577173  1
  Al0+  Al86  1  0.42814284  0.82168788  0.31922875  1
  Al0+  Al87  1  0.17989385  0.92664502  0.34928836  1
  Al0+  Al88  1  0.67907861  0.92992586  0.68109092  1
  Al0+  Al89  1  0.07284627  0.67855061  0.98422055  1
  Al0+  Al90  1  0.07029716  0.17866033  0.65188963  1
  Al0+  Al91  1  0.81981060  0.07374180  0.34897875  1
  Al0+  Al92  1  0.82145366  0.56960225  0.68096938  1
  Al0+  Al93  1  0.17979374  0.93038124  0.01254397  1
  Al0+  Al94  1  0.92985393  0.31931240  0.31989327  1
  Al0+  Al95  1  0.43098801  0.32175586  0.65142941  1
  Si0+  Si96  1  0.07316300  0.17608619  0.31458837  1
  Si0+  Si97  1  0.57313973  0.17585985  0.98055339  1
  Si0+  Si98  1  0.67789083  0.42546643  0.68164008  1
  Si0+  Si99  1  0.92822771  0.32123159  0.98274296  1
  Si0+  Si100  1  0.32109810  0.56917772  0.34817729  1
  Si0+  Si101  1  0.17546806  0.92810610  0.68321412  1
  Si0+  Si102  1  0.06997512  0.17857791  0.98645787  1
  Si0+  Si103  1  0.57052384  0.68027796  0.65295180  1
  Si0+  Si104  1  0.42522588  0.32377780  0.31581325  1
  Si0+  Si105  1  0.31962950  0.07500885  0.34951770  1
  Si0+  Si106  1  0.17860363  0.42539387  0.01671582  1
  Si0+  Si107  1  0.07419288  0.67765728  0.65082980  1
  Si0+  Si108  1  0.57128950  0.17445642  0.65153141  1
  Si0+  Si109  1  0.67626992  0.42821807  0.35044151  1
  Si0+  Si110  1  0.82320213  0.07307258  0.68258408  1
  Si0+  Si111  1  0.17931629  0.42755714  0.68243940  1
  Si0+  Si112  1  0.92993004  0.82326807  0.98498899  1
  Si0+  Si113  1  0.92764389  0.82388504  0.31689414  1
  Si0+  Si114  1  0.82304785  0.07250174  0.01446235  1
  Si0+  Si115  1  0.32100459  0.07475725  0.01764999  1
  Si0+  Si116  1  0.42765815  0.82224869  0.65484958  1
  Si0+  Si117  1  0.92689882  0.32296305  0.65107445  1
  Si0+  Si118  1  0.17855541  0.42785976  0.34806253  1
  Si0+  Si119  1  0.42743008  0.82282630  0.98111664  1
  O2-  O120  1  0.25704059  0.00174863  0.06107188  1
  O2-  O121  1  0.25244302  0.00475129  0.39367400  1
  O2-  O122  1  0.24285840  -0.00174185  0.72725755  1
  O2-  O123  1  0.24344455  0.49734461  0.06143160  1
  O2-  O124  1  0.25282048  0.49533616  0.39039053  1
  O2-  O125  1  0.24665247  0.49725449  0.72660531  1
  O2-  O126  1  0.75082728  0.00810579  0.05833856  1
  O2-  O127  1  0.75091170  -0.00078845  0.39983242  1
  O2-  O128  1  0.75389878  0.00572824  0.72733272  1
  O2-  O129  1  0.75179274  0.49898181  0.06603231  1
  O2-  O130  1  0.74251281  0.49934970  0.39473073  1
  O2-  O131  1  0.74931503  0.49148025  0.72515876  1
  O2-  O132  1  0.00044073  0.24081389  0.27095193  1
  O2-  O133  1  -0.00667797  0.25214918  0.60684835  1
  O2-  O134  1  -0.00076111  0.24902769  0.94228334  1
  O2-  O135  1  -0.00467234  0.75454249  0.27231119  1
  O2-  O136  1  0.00385697  0.74371376  0.60622416  1
  O2-  O137  1  -0.00396184  0.75209643  0.93966810  1
  O2-  O138  1  0.49552457  0.25658944  0.27315680  1
  O2-  O139  1  0.50555358  0.24603351  0.60681185  1
  O2-  O140  1  0.50448131  0.24484434  0.93691086  1
  O2-  O141  1  0.50443952  0.75433892  0.26923934  1
  O2-  O142  1  0.49750445  0.75021930  0.61254707  1
  O2-  O143  1  0.49938630  0.75802858  0.93585198  1
  O2-  O144  1  0.06962271  0.17930699  0.09118704  1
  O2-  O145  1  0.07721350  0.18101361  0.42000779  1
  O2-  O146  1  0.06916562  0.18037806  0.76599308  1
  O2-  O147  1  0.07277685  0.68036762  0.09736494  1
  O2-  O148  1  0.06985204  0.67954562  0.43475479  1
  O2-  O149  1  0.07596674  0.68024740  0.75626916  1
  O2-  O150  1  0.57299653  0.17671116  0.08614120  1
  O2-  O151  1  0.56659559  0.18173046  0.43388928  1
  O2-  O152  1  0.57005501  0.17378681  0.75696197  1
  O2-  O153  1  0.57117632  0.68215902  0.09772311  1
  O2-  O154  1  0.56985287  0.67753322  0.43273499  1
  O2-  O155  1  0.57075799  0.68004196  0.75815725  1
  O2-  O156  1  0.17840716  0.42652392  0.24310901  1
  O2-  O157  1  0.17876256  0.42883950  0.57651256  1
  O2-  O158  1  0.18031772  0.42138316  0.91112621  1
  O2-  O159  1  0.18148546  0.92686336  0.23596178  1
  O2-  O160  1  0.17880380  0.92641466  0.57781111  1
  O2-  O161  1  0.17796948  0.93515349  0.89917657  1
  O2-  O162  1  0.67735813  0.42689383  0.24511255  1
  O2-  O163  1  0.67779509  0.42385894  0.57611284  1
  O2-  O164  1  0.68142421  0.43026687  0.90078755  1
  O2-  O165  1  0.67915345  0.93059343  0.23542315  1
  O2-  O166  1  0.67654544  0.93009830  0.56861839  1
  O2-  O167  1  0.68163635  0.92932953  0.90182727  1
  O2-  O168  1  0.42887018  0.31577396  0.09882785  1
  O2-  O169  1  0.42428574  0.32388170  0.42155708  1
  O2-  O170  1  0.43162176  0.32256484  0.76443258  1
  O2-  O171  1  0.42586023  0.81998251  0.08639277  1
  O2-  O172  1  0.42692188  0.81845220  0.43392730  1
  O2-  O173  1  0.42670045  0.82233187  0.75976338  1
  O2-  O174  1  0.92837800  0.32062102  0.08776114  1
  O2-  O175  1  0.93439705  0.32077531  0.43317859  1
  O2-  O176  1  0.92881137  0.32191021  0.75693529  1
  O2-  O177  1  0.93305200  0.82734333  0.09013151  1
  O2-  O178  1  0.92873252  0.82062891  0.42280618  1
  O2-  O179  1  0.92880036  0.81750567  0.76565109  1
  O2-  O180  1  0.31590382  0.08024334  0.24417335  1
  O2-  O181  1  0.31997476  0.06846833  0.56698492  1
  O2-  O182  1  0.31733677  0.07675239  0.91179138  1
  O2-  O183  1  0.32051040  0.56848125  0.24326966  1
  O2-  O184  1  0.32069196  0.57106076  0.56594080  1
  O2-  O185  1  0.32044502  0.56822838  0.90178685  1
  O2-  O186  1  0.81657223  0.07287347  0.23480557  1
  O2-  O187  1  0.82153895  0.07524833  0.57765966  1
  O2-  O188  1  0.82655489  0.07108890  0.90862799  1
  O2-  O189  1  0.82577663  0.56566377  0.23510611  1
  O2-  O190  1  0.82085983  0.56952812  0.56773000  1
  O2-  O191  1  0.82275408  0.56947105  0.90236799  1
  O2-  O192  1  0.05215459  0.07997480  0.27263946  1
  O2-  O193  1  0.04322080  0.08251607  0.59618158  1
  O2-  O194  1  0.04160855  0.08721470  0.93788880  1
  O2-  O195  1  0.04128371  0.58304092  0.26649412  1
  O2-  O196  1  0.05213813  0.58138717  0.60841084  1
  O2-  O197  1  0.04787706  0.58032336  0.92956165  1
  O2-  O198  1  0.53654503  0.08666727  0.26241074  1
  O2-  O199  1  0.54059833  0.08186701  0.60642853  1
  O2-  O200  1  0.54598026  0.08171869  0.93600229  1
  O2-  O201  1  0.54275281  0.58109854  0.26559994  1
  O2-  O202  1  0.54507608  0.58874114  0.60425970  1
  O2-  O203  1  0.53928742  0.58507370  0.93207208  1
  O2-  O204  1  0.16428818  0.20708811  0.26582511  1
  O2-  O205  1  0.16446126  0.21161833  0.59476990  1
  O2-  O206  1  0.16133432  0.20714926  0.93800222  1
  O2-  O207  1  0.16542338  0.71099053  0.26797129  1
  O2-  O208  1  0.16769892  0.70527214  0.60449856  1
  O2-  O209  1  0.16882280  0.71272592  0.93043964  1
  O2-  O210  1  0.66442382  0.21074372  0.26399028  1
  O2-  O211  1  0.66661720  0.19688742  0.60686762  1
  O2-  O212  1  0.66735910  0.19891478  0.93376060  1
  O2-  O213  1  0.67363033  0.70431597  0.26702266  1
  O2-  O214  1  0.66166493  0.71080953  0.60668213  1
  O2-  O215  1  0.67019549  0.71255390  0.93282267  1
  O2-  O216  1  0.08335851  0.44738438  0.05997424  1
  O2-  O217  1  0.08900897  0.45851855  0.39734203  1
  O2-  O218  1  0.08553776  0.44888552  0.73047480  1
  O2-  O219  1  0.08508118  0.96325297  0.06907414  1
  O2-  O220  1  0.08343922  0.95495212  0.40438497  1
  O2-  O221  1  0.08063938  0.95393445  0.72612088  1
  O2-  O222  1  0.58085254  0.45521461  0.06792177  1
  O2-  O223  1  0.58073452  0.45025451  0.39527358  1
  O2-  O224  1  0.58537460  0.45557713  0.72689180  1
  O2-  O225  1  0.58043896  0.95654476  0.06786409  1
  O2-  O226  1  0.57654069  0.96002242  0.39741886  1
  O2-  O227  1  0.58394189  0.95879167  0.73919420  1
  O2-  O228  1  0.20690035  0.33335732  0.06533078  1
  O2-  O229  1  0.20352966  0.33490927  0.39573710  1
  O2-  O230  1  0.20595068  0.33387956  0.72716491  1
  O2-  O231  1  0.21001137  0.83400595  0.06620115  1
  O2-  O232  1  0.21364086  0.83169015  0.40519550  1
  O2-  O233  1  0.20249796  0.83558493  0.73075943  1
  O2-  O234  1  0.70584163  0.32806987  0.06412534  1
  O2-  O235  1  0.70486332  0.33593678  0.39696322  1
  O2-  O236  1  0.69825524  0.33070989  0.72886877  1
  O2-  O237  1  0.71271158  0.83547686  0.07063260  1
  O2-  O238  1  0.70393819  0.83056193  0.40255405  1
  O2-  O239  1  0.71398511  0.83488946  0.73587274  1
  O2-  O240  1  0.44915451  0.41765135  0.27033792  1
  O2-  O241  1  0.46212754  0.41744572  0.59472224  1
  O2-  O242  1  0.46133608  0.41619338  0.93210917  1
  O2-  O243  1  0.44386805  0.92235561  0.26673914  1
  O2-  O244  1  0.45668545  0.91414711  0.60856488  1
  O2-  O245  1  0.44828100  0.91988966  0.93914356  1
  O2-  O246  1  0.96695666  0.41223443  0.26312046  1
  O2-  O247  1  0.95586631  0.41608518  0.60544138  1
  O2-  O248  1  0.95821302  0.41112534  0.93317495  1
  O2-  O249  1  0.95352170  0.91865914  0.27364759  1
  O2-  O250  1  0.95422574  0.91412354  0.59583153  1
  O2-  O251  1  0.95871883  0.91606959  0.93686984  1
  O2-  O252  1  0.33191703  0.29695828  0.26939122  1
  O2-  O253  1  0.33461896  0.29218383  0.59664275  1
  O2-  O254  1  0.33298603  0.28929354  0.93096414  1
  O2-  O255  1  0.33268087  0.78504424  0.26564661  1
  O2-  O256  1  0.33505997  0.79569253  0.60762295  1
  O2-  O257  1  0.33511873  0.79457130  0.93394769  1
  O2-  O258  1  0.83329898  0.29226280  0.26410398  1
  O2-  O259  1  0.83197150  0.30006041  0.60625701  1
  O2-  O260  1  0.83710171  0.29397017  0.93323991  1
  O2-  O261  1  0.83330441  0.80009114  0.27290503  1
  O2-  O262  1  0.83201225  0.78392716  0.59823107  1
  O2-  O263  1  0.83594495  0.79844862  0.93972178  1
  O2-  O264  1  0.41644189  0.05480351  0.06130731  1
  O2-  O265  1  0.41366724  0.05128805  0.39433724  1
  O2-  O266  1  0.41290619  0.04091290  0.73917177  1
  O2-  O267  1  0.41555142  0.53667472  0.06956046  1
  O2-  O268  1  0.41362566  0.54342384  0.39594583  1
  O2-  O269  1  0.41892586  0.53913602  0.73197275  1
  O2-  O270  1  0.91480143  0.04619915  0.06372151  1
  O2-  O271  1  0.92106239  0.05330982  0.39925464  1
  O2-  O272  1  0.91745796  0.04556866  0.72671334  1
  O2-  O273  1  0.92388466  0.53969544  0.06485966  1
  O2-  O274  1  0.91758723  0.53319535  0.40165604  1
  O2-  O275  1  0.91941748  0.54278028  0.73510951  1
  O2-  O276  1  0.29043078  0.16616184  0.06501917  1
  O2-  O277  1  0.29207164  0.16818092  0.39734010  1
  O2-  O278  1  0.28729548  0.16892947  0.73190054  1
  O2-  O279  1  0.29082544  0.66696553  0.06858477  1
  O2-  O280  1  0.28968157  0.65909074  0.39655206  1
  O2-  O281  1  0.29270580  0.66742348  0.73604310  1
  O2-  O282  1  0.80038268  0.16791902  0.05746202  1
  O2-  O283  1  0.78961376  0.17233536  0.40115696  1
  O2-  O284  1  0.80098181  0.16755372  0.73007334  1
  O2-  O285  1  0.79892249  0.66986097  0.06789818  1
  O2-  O286  1  0.79473700  0.66683112  0.40186079  1
  O2-  O287  1  0.78719299  0.66369112  0.73673796  1
