# generated using pymatgen
data_Ca2Al2SiO7
_symmetry_space_group_name_H-M   'P 1'
_cell_length_a   15.45681919
_cell_length_b   15.45713865
_cell_length_c   15.28277635
_cell_angle_alpha   89.99506992
_cell_angle_beta   90.01227191
_cell_angle_gamma   90.01028504
_symmetry_Int_Tables_number   1
_chemical_formula_structural   Ca2Al2SiO7
_chemical_formula_sum   'Ca48 Al48 Si24 O168'
_cell_volume   3651.33322108
_cell_formula_units_Z   24
loop_
 _symmetry_equiv_pos_site_id
 _symmetry_equiv_pos_as_xyz
  1  'x, y, z'
loop_
 _atom_type_symbol
 _atom_type_oxidation_number
  Ca2+  2.0
  Al0+  0.0
  Si0+  0.0
  O2-  -2.0
loop_
 _atom_site_type_symbol
 _atom_site_label
 _atom_site_symmetry_multiplicity
 _atom_site_fract_x
 _atom_site_fract_y
 _atom_site_fract_z
 _atom_site_occupancy
  Ca2+  Ca0  1  0.17181475  0.07738280  0.16503686  1
  Ca2+  Ca1  1  0.16890547  0.07627943  0.51218486  1
  Ca2+  Ca2  1  0.16762864  0.07289529  0.84023232  1
  Ca2+  Ca3  1  0.16693984  0.57325464  0.17599079  1
  Ca2+  Ca4  1  0.16439555  0.57965083  0.50427505  1
  Ca2+  Ca5  1  0.16249614  0.57519403  0.83440062  1
  Ca2+  Ca6  1  0.67266628  0.09225744  0.16506938  1
  Ca2+  Ca7  1  0.66569185  0.07805523  0.50954639  1
  Ca2+  Ca8  1  0.66221487  0.07989379  0.83736691  1
  Ca2+  Ca9  1  0.67554589  0.58312470  0.17380849  1
  Ca2+  Ca10  1  0.67469949  0.58008307  0.51236502  1
  Ca2+  Ca11  1  0.67453025  0.59001046  0.83753867  1
  Ca2+  Ca12  1  0.07840073  0.34147874  0.15867917  1
  Ca2+  Ca13  1  0.08960436  0.33315743  0.49894049  1
  Ca2+  Ca14  1  0.07909994  0.33522452  0.82710637  1
  Ca2+  Ca15  1  0.08488579  0.82526258  0.16363102  1
  Ca2+  Ca16  1  0.08916096  0.81898291  0.49840366  1
  Ca2+  Ca17  1  0.08499871  0.83142087  0.82369195  1
  Ca2+  Ca18  1  0.58530109  0.33157225  0.15912305  1
  Ca2+  Ca19  1  0.59551563  0.33196476  0.49976005  1
  Ca2+  Ca20  1  0.58851640  0.32178554  0.82663318  1
  Ca2+  Ca21  1  0.57689280  0.82520175  0.16071669  1
  Ca2+  Ca22  1  0.57547222  0.83063257  0.50088413  1
  Ca2+  Ca23  1  0.58130469  0.82614636  0.82323895  1
  Ca2+  Ca24  1  0.32315955  0.42248979  0.17400869  1
  Ca2+  Ca25  1  0.32528330  0.42488897  0.50296781  1
  Ca2+  Ca26  1  0.31993374  0.41132654  0.83595721  1
  Ca2+  Ca27  1  0.33497100  0.91830905  0.16569694  1
  Ca2+  Ca28  1  0.33376738  0.91193235  0.50711904  1
  Ca2+  Ca29  1  0.32560467  0.91621411  0.83594416  1
  Ca2+  Ca30  1  0.83018976  0.42463093  0.16989127  1
  Ca2+  Ca31  1  0.82490433  0.42721694  0.50318467  1
  Ca2+  Ca32  1  0.83217655  0.42641727  0.83533703  1
  Ca2+  Ca33  1  0.83318100  0.92472239  0.16548820  1
  Ca2+  Ca34  1  0.82558828  0.91673840  0.50833153  1
  Ca2+  Ca35  1  0.82716217  0.92323677  0.83653685  1
  Ca2+  Ca36  1  0.42184179  0.16825164  0.15767079  1
  Ca2+  Ca37  1  0.42281439  0.16936634  0.50071638  1
  Ca2+  Ca38  1  0.42284411  0.16187648  0.83024608  1
  Ca2+  Ca39  1  0.41747647  0.66702625  0.16353188  1
  Ca2+  Ca40  1  0.41286162  0.67662515  0.49543016  1
  Ca2+  Ca41  1  0.42953070  0.67064957  0.82452676  1
  Ca2+  Ca42  1  0.91704696  0.17690719  0.15437601  1
  Ca2+  Ca43  1  0.92630623  0.16630411  0.49918532  1
  Ca2+  Ca44  1  0.91881972  0.17247937  0.82950737  1
  Ca2+  Ca45  1  0.91918704  0.65637131  0.16491202  1
  Ca2+  Ca46  1  0.92410043  0.65424744  0.49977534  1
  Ca2+  Ca47  1  0.91945579  0.66257054  0.82731279  1
  Al0+  Al48  1  -0.00145430  -0.00114711  0.00899465  1
  Al0+  Al49  1  0.00120573  -0.00050873  0.33179523  1
  Al0+  Al50  1  0.00075881  0.00099935  0.66533792  1
  Al0+  Al51  1  -0.00215950  0.49982201  0.00193789  1
  Al0+  Al52  1  -0.00188313  0.49717625  0.33588138  1
  Al0+  Al53  1  -0.00102835  0.50002453  0.66932365  1
  Al0+  Al54  1  0.49815637  -0.00121781  0.00064131  1
  Al0+  Al55  1  0.50033606  0.00002751  0.32704624  1
  Al0+  Al56  1  0.50087431  0.00153473  0.66278934  1
  Al0+  Al57  1  0.49889440  0.49906414  -0.00707095  1
  Al0+  Al58  1  0.49843798  0.49794940  0.33975173  1
  Al0+  Al59  1  0.50055297  0.49819422  0.66718676  1
  Al0+  Al60  1  0.24871943  0.24770160  0.00875625  1
  Al0+  Al61  1  0.25279926  0.24682741  0.33535178  1
  Al0+  Al62  1  0.25072948  0.25020785  0.66599646  1
  Al0+  Al63  1  0.24928351  0.74845979  0.00226225  1
  Al0+  Al64  1  0.24909396  0.75061675  0.32448748  1
  Al0+  Al65  1  0.24947585  0.74984171  0.66495617  1
  Al0+  Al66  1  0.75062594  0.25072179  -0.00634116  1
  Al0+  Al67  1  0.75390187  0.24872632  0.33662194  1
  Al0+  Al68  1  0.75181167  0.25258424  0.66306811  1
  Al0+  Al69  1  0.75212020  0.75076377  0.00225477  1
  Al0+  Al70  1  0.75093584  0.75347136  0.33627412  1
  Al0+  Al71  1  0.75001283  0.75264966  0.67123570  1
  Al0+  Al72  1  0.32022748  0.57403392  0.34822544  1
  Al0+  Al73  1  0.57402659  0.67748975  0.65103395  1
  Al0+  Al74  1  0.32216124  0.06946195  0.01567707  1
  Al0+  Al75  1  0.81951938  0.57138227  0.68419427  1
  Al0+  Al76  1  0.17718303  0.92560905  0.01723867  1
  Al0+  Al77  1  0.07179873  0.17883268  0.65495291  1
  Al0+  Al78  1  0.17944187  0.92790602  0.67775796  1
  Al0+  Al79  1  0.42934321  0.82082080  0.31590634  1
  Al0+  Al80  1  0.57144450  0.18134568  0.65185471  1
  Al0+  Al81  1  0.67668669  0.42737049  0.68465305  1
  Al0+  Al82  1  0.93035385  0.32226813  0.98495729  1
  Al0+  Al83  1  0.06711437  0.67805493  0.31852554  1
  Al0+  Al84  1  0.56981982  0.17983988  0.98654216  1
  Al0+  Al85  1  0.81976305  0.57342656  0.34937958  1
  Al0+  Al86  1  0.81915033  0.57185047  0.01516628  1
  Al0+  Al87  1  0.67835835  0.42727887  0.34651945  1
  Al0+  Al88  1  0.17840367  0.43024928  0.01315897  1
  Al0+  Al89  1  0.18038114  0.42930826  0.68097789  1
  Al0+  Al90  1  0.81872687  0.07284059  0.01214881  1
  Al0+  Al91  1  0.57245816  0.67891820  0.98746660  1
  Al0+  Al92  1  0.67800828  0.93172813  0.67980516  1
  Al0+  Al93  1  0.06890162  0.67890105  0.65495726  1
  Al0+  Al94  1  0.42941344  0.81986323  0.65270636  1
  Al0+  Al95  1  0.17836846  0.42728660  0.34942023  1
  Si0+  Si96  1  0.32342306  0.06910620  0.35012066  1
  Si0+  Si97  1  0.67769614  0.92812892  0.01760874  1
  Si0+  Si98  1  0.92976414  0.82344970  0.98537097  1
  Si0+  Si99  1  0.93122614  0.31648911  0.31801506  1
  Si0+  Si100  1  0.67789698  0.93191086  0.34685391  1
  Si0+  Si101  1  0.07402446  0.17594541  0.31635084  1
  Si0+  Si102  1  0.32215150  0.57381364  0.68397035  1
  Si0+  Si103  1  0.82255288  0.07084094  0.34904189  1
  Si0+  Si104  1  0.92996891  0.32267546  0.64677249  1
  Si0+  Si105  1  0.92796733  0.82448169  0.65140692  1
  Si0+  Si106  1  0.17935090  0.93022427  0.34874507  1
  Si0+  Si107  1  0.82351006  0.07311001  0.68171348  1
  Si0+  Si108  1  0.42435942  0.32147996  0.98387994  1
  Si0+  Si109  1  0.57199823  0.18079764  0.31787889  1
  Si0+  Si110  1  0.57325189  0.67701651  0.31904685  1
  Si0+  Si111  1  0.42572301  0.32247815  0.64875780  1
  Si0+  Si112  1  0.07181468  0.17624863  0.98574333  1
  Si0+  Si113  1  0.06965329  0.67931564  0.98545438  1
  Si0+  Si114  1  0.32407617  0.57067603  0.01461943  1
  Si0+  Si115  1  0.42759376  0.32090146  0.31839884  1
  Si0+  Si116  1  0.32214995  0.07217718  0.68176172  1
  Si0+  Si117  1  0.67695786  0.42803592  0.01346513  1
  Si0+  Si118  1  0.42683162  0.82070186  0.98211494  1
  Si0+  Si119  1  0.92596012  0.82532890  0.31497302  1
  O2-  O120  1  0.25085091  -0.00317485  0.06655848  1
  O2-  O121  1  0.25152403  -0.00054851  0.39226382  1
  O2-  O122  1  0.25243944  0.00405725  0.72434302  1
  O2-  O123  1  0.25529876  0.50254779  0.05934266  1
  O2-  O124  1  0.24715243  0.50285934  0.39830119  1
  O2-  O125  1  0.25578743  0.50273847  0.72854108  1
  O2-  O126  1  0.74219787  0.00113671  0.06213082  1
  O2-  O127  1  0.75239262  -0.00081854  0.38986836  1
  O2-  O128  1  0.75197381  0.00774632  0.72576805  1
  O2-  O129  1  0.74015198  0.50039245  0.05958214  1
  O2-  O130  1  0.74095005  0.50731336  0.39661699  1
  O2-  O131  1  0.74327466  0.50395308  0.73471467  1
  O2-  O132  1  0.00641419  0.24989589  0.27450051  1
  O2-  O133  1  -0.00062106  0.25331869  0.60365655  1
  O2-  O134  1  0.00626102  0.24696088  0.94064364  1
  O2-  O135  1  -0.01016313  0.75157523  0.27183599  1
  O2-  O136  1  -0.00504450  0.75439606  0.60733901  1
  O2-  O137  1  0.00242167  0.75415658  0.94379470  1
  O2-  O138  1  0.50452797  0.25529521  0.27647846  1
  O2-  O139  1  0.50037573  0.25926408  0.60434961  1
  O2-  O140  1  0.49363055  0.25315214  0.94012914  1
  O2-  O141  1  0.50227546  0.74247011  0.27219797  1
  O2-  O142  1  0.49890324  0.74624085  0.60080197  1
  O2-  O143  1  0.49655260  0.75259112  0.94022688  1
  O2-  O144  1  0.06905972  0.17704948  0.09188606  1
  O2-  O145  1  0.07164962  0.17224153  0.42145403  1
  O2-  O146  1  0.06932636  0.17769053  0.76783589  1
  O2-  O147  1  0.06761774  0.67881108  0.09073459  1
  O2-  O148  1  0.06780266  0.68035875  0.43149487  1
  O2-  O149  1  0.06838418  0.68016767  0.76844748  1
  O2-  O150  1  0.57112191  0.18399159  0.10054356  1
  O2-  O151  1  0.57099963  0.17802928  0.42276281  1
  O2-  O152  1  0.56845742  0.17850858  0.76473334  1
  O2-  O153  1  0.57156053  0.68014516  0.10117948  1
  O2-  O154  1  0.57441846  0.68201021  0.42394149  1
  O2-  O155  1  0.57350605  0.68249819  0.76493480  1
  O2-  O156  1  0.17984447  0.42746774  0.23552063  1
  O2-  O157  1  0.18220022  0.42919670  0.56819215  1
  O2-  O158  1  0.17807910  0.43135145  0.90005824  1
  O2-  O159  1  0.17805923  0.93397058  0.24386934  1
  O2-  O160  1  0.18031812  0.92921507  0.56420486  1
  O2-  O161  1  0.17655281  0.92636599  0.90360169  1
  O2-  O162  1  0.68222359  0.42264417  0.23256000  1
  O2-  O163  1  0.68321163  0.42568368  0.57100111  1
  O2-  O164  1  0.67957029  0.42703703  0.90859980  1
  O2-  O165  1  0.67819342  0.93434188  0.24167660  1
  O2-  O166  1  0.67930226  0.93409230  0.56590608  1
  O2-  O167  1  0.67983930  0.92844767  0.91217889  1
  O2-  O168  1  0.42651404  0.32238552  0.08988091  1
  O2-  O169  1  0.42281265  0.31551366  0.42288222  1
  O2-  O170  1  0.42054730  0.31700102  0.75413950  1
  O2-  O171  1  0.42835755  0.81976441  0.08810569  1
  O2-  O172  1  0.43173615  0.82554688  0.42840547  1
  O2-  O173  1  0.42956650  0.81959111  0.76636339  1
  O2-  O174  1  0.93063627  0.32128479  0.09882270  1
  O2-  O175  1  0.92980061  0.31130982  0.42270709  1
  O2-  O176  1  0.93083254  0.32164656  0.75252684  1
  O2-  O177  1  0.92880990  0.82381520  0.09060059  1
  O2-  O178  1  0.92803884  0.83392820  0.41984278  1
  O2-  O179  1  0.93050783  0.82792837  0.75715368  1
  O2-  O180  1  0.32357365  0.06963524  0.24528227  1
  O2-  O181  1  0.32145566  0.07250399  0.57552678  1
  O2-  O182  1  0.32183303  0.06867823  0.90221423  1
  O2-  O183  1  0.32011436  0.57034351  0.23399503  1
  O2-  O184  1  0.31872322  0.57496100  0.57837852  1
  O2-  O185  1  0.32316154  0.57106832  0.90927021  1
  O2-  O186  1  0.82099167  0.07356527  0.24390584  1
  O2-  O187  1  0.82424322  0.06969693  0.57536178  1
  O2-  O188  1  0.81994410  0.06967943  0.89955074  1
  O2-  O189  1  0.81973373  0.56949381  0.23538415  1
  O2-  O190  1  0.82162626  0.56846251  0.57073977  1
  O2-  O191  1  0.82164072  0.57238137  0.90290860  1
  O2-  O192  1  0.04230996  0.08574499  0.26755872  1
  O2-  O193  1  0.03923210  0.08376728  0.59671938  1
  O2-  O194  1  0.04287605  0.08228613  0.94250011  1
  O2-  O195  1  0.03727172  0.57973890  0.26591083  1
  O2-  O196  1  0.03742372  0.58270002  0.60050185  1
  O2-  O197  1  0.03724129  0.58936459  0.93824719  1
  O2-  O198  1  0.54114109  0.09120447  0.26808382  1
  O2-  O199  1  0.53751865  0.08701548  0.59479700  1
  O2-  O200  1  0.54067307  0.08121230  0.93538865  1
  O2-  O201  1  0.55143454  0.58063672  0.27662983  1
  O2-  O202  1  0.55189659  0.57571454  0.60283766  1
  O2-  O203  1  0.54444433  0.58226033  0.93186085  1
  O2-  O204  1  0.16842893  0.19881800  0.27198151  1
  O2-  O205  1  0.16868138  0.20700969  0.59949348  1
  O2-  O206  1  0.16776580  0.19721087  0.94353375  1
  O2-  O207  1  0.16179520  0.71108010  0.26170368  1
  O2-  O208  1  0.16458091  0.71003950  0.59970262  1
  O2-  O209  1  0.16365802  0.70221654  0.93992062  1
  O2-  O210  1  0.66645577  0.20568063  0.27325412  1
  O2-  O211  1  0.66970920  0.20750637  0.59724190  1
  O2-  O212  1  0.66527391  0.20923425  0.93066293  1
  O2-  O213  1  0.66637306  0.70731762  0.27256681  1
  O2-  O214  1  0.67168973  0.71131068  0.59976183  1
  O2-  O215  1  0.66906114  0.71288464  0.93557408  1
  O2-  O216  1  0.08385288  0.46499807  0.06817644  1
  O2-  O217  1  0.07870316  0.45032834  0.40027687  1
  O2-  O218  1  0.08420991  0.46052080  0.73439898  1
  O2-  O219  1  0.08041272  0.95473802  0.07348732  1
  O2-  O220  1  0.08748549  0.95943000  0.39563967  1
  O2-  O221  1  0.08257176  0.95886083  0.73123334  1
  O2-  O222  1  0.58013619  0.44744742  0.05627584  1
  O2-  O223  1  0.57629550  0.44004084  0.39667358  1
  O2-  O224  1  0.57380441  0.44260866  0.73318750  1
  O2-  O225  1  0.58255085  0.94860606  0.06186656  1
  O2-  O226  1  0.58786056  0.96535950  0.39368494  1
  O2-  O227  1  0.58226601  0.96412093  0.73393063  1
  O2-  O228  1  0.20337733  0.33269094  0.06813197  1
  O2-  O229  1  0.20989998  0.32802081  0.39976961  1
  O2-  O230  1  0.21090379  0.33194266  0.73444320  1
  O2-  O231  1  0.20552371  0.82694332  0.07048700  1
  O2-  O232  1  0.20618187  0.83695071  0.39147104  1
  O2-  O233  1  0.20979065  0.83238420  0.73354796  1
  O2-  O234  1  0.70699321  0.33577930  0.05979179  1
  O2-  O235  1  0.71629415  0.33161849  0.40118602  1
  O2-  O236  1  0.71109006  0.32911200  0.73532759  1
  O2-  O237  1  0.71009844  0.83803375  0.06658050  1
  O2-  O238  1  0.70191609  0.83999846  0.39514497  1
  O2-  O239  1  0.70961853  0.83763515  0.73672665  1
  O2-  O240  1  0.44823007  0.41499327  0.27210342  1
  O2-  O241  1  0.44417758  0.41823971  0.60501832  1
  O2-  O242  1  0.44584522  0.41465046  0.93540291  1
  O2-  O243  1  0.46487039  0.91618336  0.25991733  1
  O2-  O244  1  0.45867380  0.91797251  0.59879324  1
  O2-  O245  1  0.45048411  0.91509895  0.93783929  1
  O2-  O246  1  0.95440855  0.40954978  0.27144890  1
  O2-  O247  1  0.95789478  0.41516330  0.60124655  1
  O2-  O248  1  0.96295615  0.41785979  0.93052460  1
  O2-  O249  1  0.95763386  0.91690128  0.26549506  1
  O2-  O250  1  0.95311280  0.91709928  0.60243845  1
  O2-  O251  1  0.95584221  0.91621295  0.93884602  1
  O2-  O252  1  0.33880585  0.28589725  0.26796734  1
  O2-  O253  1  0.33592452  0.29004530  0.59829016  1
  O2-  O254  1  0.33025506  0.29294836  0.94013145  1
  O2-  O255  1  0.33271757  0.79445010  0.25982921  1
  O2-  O256  1  0.33112626  0.79232938  0.59837352  1
  O2-  O257  1  0.33225504  0.79517482  0.93797922  1
  O2-  O258  1  0.84133406  0.28258699  0.26918136  1
  O2-  O259  1  0.83765858  0.29590947  0.59887421  1
  O2-  O260  1  0.83573614  0.28996491  0.92919389  1
  O2-  O261  1  0.82993384  0.80673110  0.27009905  1
  O2-  O262  1  0.83358382  0.80120676  0.60664249  1
  O2-  O263  1  0.83818499  0.79555659  0.93806119  1
  O2-  O264  1  0.42023296  0.04108110  0.07148645  1
  O2-  O265  1  0.41600154  0.04054768  0.39548703  1
  O2-  O266  1  0.41525072  0.04541333  0.72692826  1
  O2-  O267  1  0.41771247  0.54455074  0.06120941  1
  O2-  O268  1  0.41788414  0.54622144  0.40256599  1
  O2-  O269  1  0.41711499  0.55068134  0.72784453  1
  O2-  O270  1  0.91257343  0.04076656  0.07122980  1
  O2-  O271  1  0.91535212  0.04330953  0.39487069  1
  O2-  O272  1  0.91541511  0.04497276  0.72916350  1
  O2-  O273  1  0.91355858  0.53571503  0.06983927  1
  O2-  O274  1  0.91503972  0.53641542  0.40203804  1
  O2-  O275  1  0.91639896  0.53772659  0.73749345  1
  O2-  O276  1  0.29437500  0.16639557  0.07324022  1
  O2-  O277  1  0.29702887  0.16055705  0.39854513  1
  O2-  O278  1  0.29797127  0.16546225  0.72791331  1
  O2-  O279  1  0.29970504  0.66434967  0.06089486  1
  O2-  O280  1  0.29202064  0.67431972  0.39672299  1
  O2-  O281  1  0.29346173  0.66551603  0.73146508  1
  O2-  O282  1  0.78756735  0.16958218  0.06707976  1
  O2-  O283  1  0.79439090  0.16046929  0.39942916  1
  O2-  O284  1  0.80206812  0.16850626  0.72367514  1
  O2-  O285  1  0.79357127  0.66967135  0.07008795  1
  O2-  O286  1  0.80288733  0.67603835  0.39866540  1
  O2-  O287  1  0.79792422  0.67225757  0.73519400  1
