# generated using pymatgen
data_Ca2Al2SiO7
_symmetry_space_group_name_H-M   'P 1'
_cell_length_a   15.46790472
_cell_length_b   15.46555309
_cell_length_c   15.29013847
_cell_angle_alpha   89.98879237
_cell_angle_beta   89.99898878
_cell_angle_gamma   90.01695627
_symmetry_Int_Tables_number   1
_chemical_formula_structural   Ca2Al2SiO7
_chemical_formula_sum   'Ca48 Al48 Si24 O168'
_cell_volume   3657.70213294
_cell_formula_units_Z   24
loop_
 _symmetry_equiv_pos_site_id
 _symmetry_equiv_pos_as_xyz
  1  'x, y, z'
loop_
 _atom_type_symbol
 _atom_type_oxidation_number
  Ca2+  2.0
  Al0+  0.0
  Si0+  0.0
  O2-  -2.0
loop_
 _atom_site_type_symbol
 _atom_site_label
 _atom_site_symmetry_multiplicity
 _atom_site_fract_x
 _atom_site_fract_y
 _atom_site_fract_z
 _atom_site_occupancy
  Ca2+  Ca0  1  0.17073005  0.07132739  0.17893228  1
  Ca2+  Ca1  1  0.17508191  0.07802709  0.50644630  1
  Ca2+  Ca2  1  0.16633051  0.08705184  0.83191443  1
  Ca2+  Ca3  1  0.15423592  0.57505443  0.16985331  1
  Ca2+  Ca4  1  0.15492197  0.57540791  0.50334718  1
  Ca2+  Ca5  1  0.16107745  0.57790802  0.83948088  1
  Ca2+  Ca6  1  0.67523635  0.08285631  0.16673525  1
  Ca2+  Ca7  1  0.67167115  0.07661149  0.51301424  1
  Ca2+  Ca8  1  0.67648375  0.08096880  0.83005497  1
  Ca2+  Ca9  1  0.67994120  0.59111386  0.17182559  1
  Ca2+  Ca10  1  0.67544350  0.58619947  0.50670721  1
  Ca2+  Ca11  1  0.68129615  0.58291951  0.83454839  1
  Ca2+  Ca12  1  0.08293584  0.33537601  0.16120337  1
  Ca2+  Ca13  1  0.09128409  0.33028654  0.50032518  1
  Ca2+  Ca14  1  0.08083470  0.33491442  0.82813742  1
  Ca2+  Ca15  1  0.08379446  0.82230428  0.16003144  1
  Ca2+  Ca16  1  0.08028681  0.82183791  0.49526693  1
  Ca2+  Ca17  1  0.07197928  0.82055981  0.82668499  1
  Ca2+  Ca18  1  0.58035735  0.33231521  0.16072981  1
  Ca2+  Ca19  1  0.59110070  0.32722491  0.50042179  1
  Ca2+  Ca20  1  0.58281924  0.32992654  0.82223381  1
  Ca2+  Ca21  1  0.57702318  0.82994122  0.17085924  1
  Ca2+  Ca22  1  0.58100117  0.83206515  0.49347153  1
  Ca2+  Ca23  1  0.58218149  0.83725001  0.82780896  1
  Ca2+  Ca24  1  0.32085093  0.42456623  0.16799749  1
  Ca2+  Ca25  1  0.32191593  0.41821317  0.50475598  1
  Ca2+  Ca26  1  0.31963777  0.42248309  0.83806643  1
  Ca2+  Ca27  1  0.32723654  0.91876418  0.17833020  1
  Ca2+  Ca28  1  0.33252307  0.92006430  0.50071717  1
  Ca2+  Ca29  1  0.33312942  0.92439212  0.83371993  1
  Ca2+  Ca30  1  0.84333012  0.43023479  0.16729080  1
  Ca2+  Ca31  1  0.82868946  0.43101338  0.50679847  1
  Ca2+  Ca32  1  0.83791402  0.42675161  0.83578607  1
  Ca2+  Ca33  1  0.84292527  0.92099357  0.16576982  1
  Ca2+  Ca34  1  0.82707078  0.91715918  0.51375887  1
  Ca2+  Ca35  1  0.84489646  0.92406029  0.83373625  1
  Ca2+  Ca36  1  0.41459926  0.16533544  0.16569190  1
  Ca2+  Ca37  1  0.41776869  0.16020634  0.49925224  1
  Ca2+  Ca38  1  0.42242958  0.16761428  0.82091105  1
  Ca2+  Ca39  1  0.41745104  0.66653232  0.16360829  1
  Ca2+  Ca40  1  0.42714464  0.67327841  0.48901433  1
  Ca2+  Ca41  1  0.41594338  0.66362838  0.83064754  1
  Ca2+  Ca42  1  0.91701738  0.17589854  0.15466655  1
  Ca2+  Ca43  1  0.92131923  0.16449265  0.50209815  1
  Ca2+  Ca44  1  0.91525603  0.17163807  0.82596166  1
  Ca2+  Ca45  1  0.92468928  0.66675318  0.15888840  1
  Ca2+  Ca46  1  0.91898134  0.66474548  0.49896233  1
  Ca2+  Ca47  1  0.92119831  0.66689938  0.82713883  1
  Al0+  Al48  1  0.00177308  0.00034237  0.00290237  1
  Al0+  Al49  1  0.00252735  0.00118336  0.33845368  1
  Al0+  Al50  1  0.00090938  0.00005863  0.66184823  1
  Al0+  Al51  1  -0.00151023  0.49732249  -0.00020043  1
  Al0+  Al52  1  -0.00289625  0.49952423  0.33976781  1
  Al0+  Al53  1  -0.00088101  0.49853031  0.67007057  1
  Al0+  Al54  1  0.50221791  -0.00092629  0.00116011  1
  Al0+  Al55  1  0.50267876  0.00092521  0.32981518  1
  Al0+  Al56  1  0.49999188  0.00215627  0.67013516  1
  Al0+  Al57  1  0.49819465  0.49915203  0.00123812  1
  Al0+  Al58  1  0.50093699  0.49605113  0.32778568  1
  Al0+  Al59  1  0.49715918  0.50008430  0.66735515  1
  Al0+  Al60  1  0.25264595  0.25139461  0.00370443  1
  Al0+  Al61  1  0.25169280  0.25010570  0.33816540  1
  Al0+  Al62  1  0.24992800  0.25110965  0.67081946  1
  Al0+  Al63  1  0.25264336  0.75149700  -0.00305599  1
  Al0+  Al64  1  0.24951427  0.74833895  0.32950885  1
  Al0+  Al65  1  0.24956766  0.75058948  0.66162625  1
  Al0+  Al66  1  0.75000936  0.24764928  -0.00061220  1
  Al0+  Al67  1  0.75038777  0.25083437  0.33072811  1
  Al0+  Al68  1  0.74827674  0.24901526  0.66548192  1
  Al0+  Al69  1  0.74646940  0.75232828  0.00152608  1
  Al0+  Al70  1  0.75090008  0.75223904  0.33246719  1
  Al0+  Al71  1  0.74771539  0.74979661  0.67196881  1
  Al0+  Al72  1  0.82144403  0.06953605  0.01403495  1
  Al0+  Al73  1  0.07237256  0.18020448  0.65286787  1
  Al0+  Al74  1  0.67797330  0.92814258  0.68159763  1
  Al0+  Al75  1  0.82427542  0.07008109  0.68021094  1
  Al0+  Al76  1  0.67584068  0.42846284  0.67974716  1
  Al0+  Al77  1  0.57353733  0.67691863  0.31812539  1
  Al0+  Al78  1  0.92663394  0.82008811  0.65113624  1
  Al0+  Al79  1  0.57050166  0.18022529  0.65229068  1
  Al0+  Al80  1  0.92723803  0.82330984  0.98578510  1
  Al0+  Al81  1  0.31919900  0.06939559  0.68133006  1
  Al0+  Al82  1  0.81918089  0.57183817  0.01448042  1
  Al0+  Al83  1  0.32182933  0.57345143  0.01528298  1
  Al0+  Al84  1  0.07076876  0.67823353  0.98500546  1
  Al0+  Al85  1  0.17909421  0.43128450  0.34869510  1
  Al0+  Al86  1  0.32251186  0.06988133  0.34866604  1
  Al0+  Al87  1  0.17788828  0.92442924  0.35023809  1
  Al0+  Al88  1  0.17976194  0.43036381  0.68086110  1
  Al0+  Al89  1  0.06766768  0.67728465  0.31934280  1
  Al0+  Al90  1  0.92893299  0.31936288  0.98614645  1
  Al0+  Al91  1  0.17804631  0.42997213  0.01625737  1
  Al0+  Al92  1  0.81838695  0.57181702  0.34702782  1
  Al0+  Al93  1  0.42931988  0.82085056  0.31820850  1
  Al0+  Al94  1  0.82010491  0.57049745  0.68311026  1
  Al0+  Al95  1  0.07061232  0.67662304  0.65010865  1
  Si0+  Si96  1  0.82198709  0.07450053  0.34780353  1
  Si0+  Si97  1  0.56884664  0.67802926  0.65413429  1
  Si0+  Si98  1  0.07480260  0.17812264  0.98626313  1
  Si0+  Si99  1  0.92810840  0.82536476  0.31750708  1
  Si0+  Si100  1  0.32574533  0.57110552  0.34943045  1
  Si0+  Si101  1  0.07302215  0.17944584  0.31920413  1
  Si0+  Si102  1  0.67749252  0.42696535  0.01611406  1
  Si0+  Si103  1  0.92681878  0.32161560  0.64812901  1
  Si0+  Si104  1  0.42996859  0.82288236  0.98308739  1
  Si0+  Si105  1  0.68201716  0.93193205  0.34654795  1
  Si0+  Si106  1  0.56970689  0.67810565  0.98378834  1
  Si0+  Si107  1  0.42670500  0.31976219  0.31620226  1
  Si0+  Si108  1  0.32197596  0.57506885  0.68050584  1
  Si0+  Si109  1  0.42739389  0.32239191  0.64886912  1
  Si0+  Si110  1  0.57262107  0.17997550  0.31571292  1
  Si0+  Si111  1  0.42932429  0.82309197  0.65262946  1
  Si0+  Si112  1  0.42915621  0.32065757  0.98365962  1
  Si0+  Si113  1  0.92917626  0.31815608  0.31931695  1
  Si0+  Si114  1  0.18077871  0.93044339  0.01325258  1
  Si0+  Si115  1  0.57009796  0.17838672  0.98389347  1
  Si0+  Si116  1  0.67424421  0.92886801  0.02126004  1
  Si0+  Si117  1  0.17799210  0.92580626  0.68439480  1
  Si0+  Si118  1  0.32375233  0.07056336  0.01458174  1
  Si0+  Si119  1  0.67629706  0.42544737  0.34779321  1
  O2-  O120  1  0.25089694  0.00251075  0.05634086  1
  O2-  O121  1  0.25192362  -0.00360234  0.39773217  1
  O2-  O122  1  0.24427325  -0.00347574  0.73038982  1
  O2-  O123  1  0.24467370  0.50757739  0.06607661  1
  O2-  O124  1  0.25315092  0.50745294  0.39461982  1
  O2-  O125  1  0.24955548  0.51069053  0.72444419  1
  O2-  O126  1  0.74977262  -0.00777342  0.06268828  1
  O2-  O127  1  0.75602382  -0.00089885  0.38869638  1
  O2-  O128  1  0.75529773  -0.00494992  0.73039590  1
  O2-  O129  1  0.74479627  0.49581308  0.06179196  1
  O2-  O130  1  0.73752976  0.50105921  0.38992144  1
  O2-  O131  1  0.74892156  0.49659502  0.73221485  1
  O2-  O132  1  0.00039380  0.24763939  0.27578601  1
  O2-  O133  1  -0.00381728  0.25289910  0.60426943  1
  O2-  O134  1  0.00587054  0.24579879  0.94182827  1
  O2-  O135  1  -0.00254105  0.75721264  0.27390897  1
  O2-  O136  1  -0.00205939  0.74822157  0.60027214  1
  O2-  O137  1  -0.00550234  0.74677059  0.93639720  1
  O2-  O138  1  0.50013588  0.24988385  0.27414008  1
  O2-  O139  1  0.49858320  0.25677157  0.60344188  1
  O2-  O140  1  0.50016531  0.24996157  0.94144165  1
  O2-  O141  1  0.49672230  0.74417525  0.26749033  1
  O2-  O142  1  0.49919003  0.75044572  0.61204582  1
  O2-  O143  1  0.49816916  0.74908689  0.94132960  1
  O2-  O144  1  0.07408124  0.17797508  0.09243775  1
  O2-  O145  1  0.07241178  0.18049752  0.42395790  1
  O2-  O146  1  0.07325432  0.18349573  0.76617775  1
  O2-  O147  1  0.07016120  0.68015376  0.09898807  1
  O2-  O148  1  0.06350432  0.67516898  0.43185937  1
  O2-  O149  1  0.07273163  0.67783322  0.76351672  1
  O2-  O150  1  0.56846709  0.17907431  0.08970652  1
  O2-  O151  1  0.57590207  0.18025745  0.42014811  1
  O2-  O152  1  0.56704883  0.17958002  0.76566149  1
  O2-  O153  1  0.56889408  0.67884850  0.08877668  1
  O2-  O154  1  0.57318002  0.68050019  0.43210164  1
  O2-  O155  1  0.56527270  0.67663014  0.75935877  1
  O2-  O156  1  0.17915399  0.42915953  0.23589967  1
  O2-  O157  1  0.18329434  0.42905652  0.56754665  1
  O2-  O158  1  0.18220788  0.42540005  0.90323512  1
  O2-  O159  1  0.17681948  0.92939077  0.23567513  1
  O2-  O160  1  0.18245796  0.92502778  0.57914128  1
  O2-  O161  1  0.18294829  0.93243061  0.90838188  1
  O2-  O162  1  0.67945983  0.41885949  0.24240024  1
  O2-  O163  1  0.67636313  0.43263403  0.56570288  1
  O2-  O164  1  0.67620405  0.42777606  0.91098338  1
  O2-  O165  1  0.68123731  0.93451146  0.24134773  1
  O2-  O166  1  0.67551805  0.93059471  0.56733468  1
  O2-  O167  1  0.66355741  0.93400055  0.91704355  1
  O2-  O168  1  0.42953236  0.31805170  0.08907407  1
  O2-  O169  1  0.42609510  0.32017152  0.42077491  1
  O2-  O170  1  0.42827721  0.32020668  0.75475325  1
  O2-  O171  1  0.43200044  0.82750853  0.08763830  1
  O2-  O172  1  0.43540590  0.82338502  0.43194810  1
  O2-  O173  1  0.42914086  0.82295837  0.75818721  1
  O2-  O174  1  0.92886839  0.31790085  0.10008843  1
  O2-  O175  1  0.92584930  0.31464819  0.42384890  1
  O2-  O176  1  0.92732074  0.32100867  0.75381668  1
  O2-  O177  1  0.93320493  0.82477857  0.09984753  1
  O2-  O178  1  0.92548386  0.82554396  0.42256912  1
  O2-  O179  1  0.93000419  0.81970113  0.76458294  1
  O2-  O180  1  0.31965396  0.07059169  0.23410052  1
  O2-  O181  1  0.32072320  0.06641347  0.56874225  1
  O2-  O182  1  0.32606466  0.06967034  0.90976120  1
  O2-  O183  1  0.32824277  0.56638010  0.24415596  1
  O2-  O184  1  0.32763817  0.57314299  0.57519275  1
  O2-  O185  1  0.32555317  0.56836628  0.90179830  1
  O2-  O186  1  0.81974027  0.07705794  0.24243923  1
  O2-  O187  1  0.81998564  0.07045360  0.56588654  1
  O2-  O188  1  0.81960494  0.07194895  0.90197800  1
  O2-  O189  1  0.82031195  0.56947689  0.23372399  1
  O2-  O190  1  0.81750625  0.57100580  0.56931709  1
  O2-  O191  1  0.81747996  0.57133414  0.90213998  1
  O2-  O192  1  0.04752245  0.08615243  0.27283588  1
  O2-  O193  1  0.04588842  0.08333144  0.59707518  1
  O2-  O194  1  0.05107436  0.08421711  0.94128143  1
  O2-  O195  1  0.03084731  0.58106572  0.26708220  1
  O2-  O196  1  0.04105204  0.57721474  0.60000998  1
  O2-  O197  1  0.04524121  0.57823195  0.93562146  1
  O2-  O198  1  0.54610525  0.08908833  0.26590512  1
  O2-  O199  1  0.53568199  0.08435895  0.59863007  1
  O2-  O200  1  0.53981949  0.08689189  0.93828267  1
  O2-  O201  1  0.55293939  0.57565368  0.26690741  1
  O2-  O202  1  0.53974488  0.58754840  0.60451060  1
  O2-  O203  1  0.54143831  0.58594380  0.93735061  1
  O2-  O204  1  0.16475835  0.20832237  0.27223349  1
  O2-  O205  1  0.16858654  0.21416109  0.59920113  1
  O2-  O206  1  0.16965702  0.20282093  0.94184265  1
  O2-  O207  1  0.16713963  0.70008646  0.26719077  1
  O2-  O208  1  0.16990366  0.70451018  0.59694451  1
  O2-  O209  1  0.16984929  0.70869989  0.93352744  1
  O2-  O210  1  0.66320355  0.21060531  0.26574569  1
  O2-  O211  1  0.66681275  0.20780167  0.59516951  1
  O2-  O212  1  0.66207085  0.20415799  0.93749947  1
  O2-  O213  1  0.66898583  0.71370756  0.26335832  1
  O2-  O214  1  0.66070721  0.70459919  0.60757909  1
  O2-  O215  1  0.66050817  0.70742542  0.93613152  1
  O2-  O216  1  0.07823525  0.45226221  0.06853154  1
  O2-  O217  1  0.08253618  0.45902575  0.40340952  1
  O2-  O218  1  0.08196375  0.45430452  0.73395059  1
  O2-  O219  1  0.09053629  0.95707377  0.06392218  1
  O2-  O220  1  0.08105790  0.95633292  0.40464940  1
  O2-  O221  1  0.08414602  0.95173033  0.72778946  1
  O2-  O222  1  0.58320658  0.45114632  0.06198016  1
  O2-  O223  1  0.57949984  0.44042210  0.39059100  1
  O2-  O224  1  0.57673526  0.45543108  0.73275893  1
  O2-  O225  1  0.58476254  0.96344552  0.07231227  1
  O2-  O226  1  0.59147729  0.96328143  0.39343780  1
  O2-  O227  1  0.58264075  0.96295051  0.73703951  1
  O2-  O228  1  0.21313150  0.33272227  0.07066357  1
  O2-  O229  1  0.21308389  0.33532182  0.40178554  1
  O2-  O230  1  0.21534868  0.33684907  0.73696521  1
  O2-  O231  1  0.21136484  0.83954918  0.06024505  1
  O2-  O232  1  0.20492886  0.82515728  0.40097868  1
  O2-  O233  1  0.20746036  0.83328394  0.73068048  1
  O2-  O234  1  0.70138937  0.33238353  0.06130953  1
  O2-  O235  1  0.70970641  0.33460280  0.39623125  1
  O2-  O236  1  0.69876218  0.32796203  0.72955253  1
  O2-  O237  1  0.69221892  0.83325565  0.06516256  1
  O2-  O238  1  0.70507431  0.83935074  0.39387776  1
  O2-  O239  1  0.69651938  0.82868902  0.73513261  1
  O2-  O240  1  0.45339977  0.41019823  0.26521868  1
  O2-  O241  1  0.44869164  0.41733098  0.60327626  1
  O2-  O242  1  0.45626978  0.41235519  0.93633330  1
  O2-  O243  1  0.46421122  0.91763699  0.26311502  1
  O2-  O244  1  0.45976763  0.91375271  0.60578255  1
  O2-  O245  1  0.46230821  0.91374929  0.93491223  1
  O2-  O246  1  0.95844629  0.41024144  0.27426997  1
  O2-  O247  1  0.95367566  0.41480534  0.60273033  1
  O2-  O248  1  0.95778764  0.41508451  0.93114331  1
  O2-  O249  1  0.95318648  0.92080705  0.27324215  1
  O2-  O250  1  0.95271760  0.91930247  0.59854156  1
  O2-  O251  1  0.96140202  0.92099887  0.93414741  1
  O2-  O252  1  0.33676015  0.28781779  0.26700837  1
  O2-  O253  1  0.33559907  0.29203809  0.60306140  1
  O2-  O254  1  0.33775476  0.29153057  0.93640064  1
  O2-  O255  1  0.32993288  0.79799046  0.26512934  1
  O2-  O256  1  0.33789146  0.79802143  0.60374391  1
  O2-  O257  1  0.33838049  0.80005656  0.93334683  1
  O2-  O258  1  0.83842351  0.29010243  0.26878161  1
  O2-  O259  1  0.83348302  0.29604191  0.60167603  1
  O2-  O260  1  0.83260705  0.28666124  0.93275438  1
  O2-  O261  1  0.83446487  0.80182215  0.27055818  1
  O2-  O262  1  0.82570112  0.79314094  0.60153575  1
  O2-  O263  1  0.82357941  0.80617282  0.93988896  1
  O2-  O264  1  0.41446711  0.04035856  0.06309910  1
  O2-  O265  1  0.42351241  0.04420019  0.39736280  1
  O2-  O266  1  0.41416833  0.03722052  0.73742429  1
  O2-  O267  1  0.41805582  0.53816589  0.06996290  1
  O2-  O268  1  0.41872731  0.54061055  0.39541081  1
  O2-  O269  1  0.41290604  0.54564547  0.73027963  1
  O2-  O270  1  0.91912227  0.04319996  0.06994541  1
  O2-  O271  1  0.91585278  0.05375567  0.39294712  1
  O2-  O272  1  0.92421628  0.04686150  0.73233317  1
  O2-  O273  1  0.91496006  0.53819939  0.06787031  1
  O2-  O274  1  0.90982149  0.53336363  0.40442983  1
  O2-  O275  1  0.91730952  0.54034054  0.73609960  1
  O2-  O276  1  0.30054027  0.16355775  0.06160140  1
  O2-  O277  1  0.29470231  0.16763820  0.40163723  1
  O2-  O278  1  0.29058341  0.16606832  0.73577243  1
  O2-  O279  1  0.30503928  0.67642795  0.06294767  1
  O2-  O280  1  0.30718781  0.66756526  0.39059967  1
  O2-  O281  1  0.30173742  0.67044493  0.72532764  1
  O2-  O282  1  0.78527905  0.16449770  0.07010119  1
  O2-  O283  1  0.78849339  0.16422072  0.39508483  1
  O2-  O284  1  0.79150686  0.16763471  0.73158884  1
  O2-  O285  1  0.78678642  0.66873219  0.06775668  1
  O2-  O286  1  0.79091040  0.66998221  0.39926768  1
  O2-  O287  1  0.78843071  0.66667924  0.73736494  1
