# generated using pymatgen
data_Ca2Al2SiO7
_symmetry_space_group_name_H-M   'P 1'
_cell_length_a   15.46350031
_cell_length_b   15.46353605
_cell_length_c   15.28778184
_cell_angle_alpha   89.99971759
_cell_angle_beta   89.99196965
_cell_angle_gamma   89.99586124
_symmetry_Int_Tables_number   1
_chemical_formula_structural   Ca2Al2SiO7
_chemical_formula_sum   'Ca48 Al48 Si24 O168'
_cell_volume   3655.62037940
_cell_formula_units_Z   24
loop_
 _symmetry_equiv_pos_site_id
 _symmetry_equiv_pos_as_xyz
  1  'x, y, z'
loop_
 _atom_type_symbol
 _atom_type_oxidation_number
  Ca2+  2.0
  Al0+  0.0
  Si0+  0.0
  O2-  -2.0
loop_
 _atom_site_type_symbol
 _atom_site_label
 _atom_site_symmetry_multiplicity
 _atom_site_fract_x
 _atom_site_fract_y
 _atom_site_fract_z
 _atom_site_occupancy
  Ca2+  Ca0  1  0.17660704  0.07970273  0.17703273  1
  Ca2+  Ca1  1  0.16513898  0.08766452  0.49489731  1
  Ca2+  Ca2  1  0.17066693  0.08696051  0.83817530  1
  Ca2+  Ca3  1  0.16620830  0.57705091  0.17741564  1
  Ca2+  Ca4  1  0.15991430  0.56985972  0.49986314  1
  Ca2+  Ca5  1  0.16747629  0.57313826  0.83547755  1
  Ca2+  Ca6  1  0.67679744  0.07916187  0.17945095  1
  Ca2+  Ca7  1  0.66555526  0.08353221  0.49495442  1
  Ca2+  Ca8  1  0.67645413  0.08417426  0.84353147  1
  Ca2+  Ca9  1  0.67104070  0.58907056  0.17084591  1
  Ca2+  Ca10  1  0.67222497  0.58789261  0.49689424  1
  Ca2+  Ca11  1  0.67065405  0.57553405  0.84657939  1
  Ca2+  Ca12  1  0.08457324  0.32904007  0.16960910  1
  Ca2+  Ca13  1  0.08683305  0.32649159  0.49521083  1
  Ca2+  Ca14  1  0.07641717  0.32694610  0.82128180  1
  Ca2+  Ca15  1  0.07313753  0.84011474  0.16822830  1
  Ca2+  Ca16  1  0.07947883  0.82705757  0.48487352  1
  Ca2+  Ca17  1  0.07661446  0.83266572  0.83335891  1
  Ca2+  Ca18  1  0.57322514  0.33246214  0.16227476  1
  Ca2+  Ca19  1  0.56980678  0.32879329  0.48946153  1
  Ca2+  Ca20  1  0.57334725  0.33993843  0.83191421  1
  Ca2+  Ca21  1  0.58836415  0.82608275  0.16368330  1
  Ca2+  Ca22  1  0.58630296  0.82916430  0.48871810  1
  Ca2+  Ca23  1  0.58146926  0.82958845  0.83764918  1
  Ca2+  Ca24  1  0.33072639  0.41172570  0.17407998  1
  Ca2+  Ca25  1  0.32429746  0.40567186  0.49963963  1
  Ca2+  Ca26  1  0.32873157  0.40580904  0.83523585  1
  Ca2+  Ca27  1  0.33395833  0.92527461  0.17526017  1
  Ca2+  Ca28  1  0.32867689  0.92230751  0.49852802  1
  Ca2+  Ca29  1  0.33136630  0.92390577  0.84549469  1
  Ca2+  Ca30  1  0.82561918  0.42902726  0.17082166  1
  Ca2+  Ca31  1  0.84040654  0.42330602  0.50233262  1
  Ca2+  Ca32  1  0.82680183  0.41865574  0.84600074  1
  Ca2+  Ca33  1  0.83394327  0.92052196  0.17554662  1
  Ca2+  Ca34  1  0.83444359  0.92072859  0.49121575  1
  Ca2+  Ca35  1  0.83506971  0.92343625  0.84288347  1
  Ca2+  Ca36  1  0.41253313  0.17194970  0.16509676  1
  Ca2+  Ca37  1  0.41676423  0.17510306  0.48902030  1
  Ca2+  Ca38  1  0.41338367  0.17543236  0.83211321  1
  Ca2+  Ca39  1  0.42915826  0.67315940  0.15958522  1
  Ca2+  Ca40  1  0.42517579  0.66753126  0.48981793  1
  Ca2+  Ca41  1  0.42163980  0.66889917  0.83615392  1
  Ca2+  Ca42  1  0.92282852  0.15251322  0.16566571  1
  Ca2+  Ca43  1  0.92594919  0.17065568  0.49245529  1
  Ca2+  Ca44  1  0.92041375  0.17201165  0.82506887  1
  Ca2+  Ca45  1  0.91376092  0.67425949  0.16647287  1
  Ca2+  Ca46  1  0.92074514  0.67225744  0.48467461  1
  Ca2+  Ca47  1  0.90948998  0.67044834  0.83674402  1
  Al0+  Al48  1  0.00192530  -0.00206825  -0.00370971  1
  Al0+  Al49  1  0.00025912  0.00077668  0.33428690  1
  Al0+  Al50  1  -0.00009258  -0.00113599  0.66429430  1
  Al0+  Al51  1  -0.00069247  0.49880722  0.00290835  1
  Al0+  Al52  1  0.00024531  0.49976281  0.33752924  1
  Al0+  Al53  1  0.00091708  0.50203865  0.67194205  1
  Al0+  Al54  1  0.50050774  0.00141742  -0.00035737  1
  Al0+  Al55  1  0.50114670  0.00174849  0.34008307  1
  Al0+  Al56  1  0.49982764  -0.00181627  0.66988293  1
  Al0+  Al57  1  0.49687066  0.49825435  -0.00620250  1
  Al0+  Al58  1  0.49993190  0.50092463  0.32571216  1
  Al0+  Al59  1  0.50096066  0.50225601  0.66230689  1
  Al0+  Al60  1  0.24997319  0.24746007  -0.00009384  1
  Al0+  Al61  1  0.24752367  0.25046741  0.33230169  1
  Al0+  Al62  1  0.25003558  0.24932209  0.66487007  1
  Al0+  Al63  1  0.24774441  0.74765954  -0.00472803  1
  Al0+  Al64  1  0.25095053  0.74855299  0.33407525  1
  Al0+  Al65  1  0.25066675  0.75082106  0.66902021  1
  Al0+  Al66  1  0.75107215  0.25049304  0.01009077  1
  Al0+  Al67  1  0.74899430  0.25232737  0.33549351  1
  Al0+  Al68  1  0.74944063  0.25084463  0.66378184  1
  Al0+  Al69  1  0.75200127  0.75015259  -0.00785796  1
  Al0+  Al70  1  0.75097255  0.75078809  0.33468256  1
  Al0+  Al71  1  0.74915874  0.75112207  0.66891890  1
  Al0+  Al72  1  0.81889710  0.56980685  0.34768471  1
  Al0+  Al73  1  0.07030682  0.17848088  0.65079158  1
  Al0+  Al74  1  0.17915523  0.92737157  0.34765576  1
  Al0+  Al75  1  0.57314053  0.17714897  0.31785514  1
  Al0+  Al76  1  0.82317420  0.07063434  0.01238771  1
  Al0+  Al77  1  0.93131477  0.82034107  0.98476933  1
  Al0+  Al78  1  0.42818566  0.31848909  0.98449863  1
  Al0+  Al79  1  0.57143357  0.68102906  0.32011433  1
  Al0+  Al80  1  0.18113617  0.42880689  0.68176334  1
  Al0+  Al81  1  0.67979555  0.92933548  0.34748260  1
  Al0+  Al82  1  0.82281815  0.07482246  0.35046335  1
  Al0+  Al83  1  0.93087533  0.82050715  0.31860674  1
  Al0+  Al84  1  0.92663025  0.32396012  0.65300028  1
  Al0+  Al85  1  0.42700717  0.82355508  0.98590539  1
  Al0+  Al86  1  0.42844015  0.31903699  0.31646833  1
  Al0+  Al87  1  0.82072035  0.57216702  0.01604759  1
  Al0+  Al88  1  0.43059668  0.32060532  0.65213693  1
  Al0+  Al89  1  0.67483862  0.42857148  0.01610534  1
  Al0+  Al90  1  0.17976590  0.43007560  0.34635905  1
  Al0+  Al91  1  0.06791467  0.18049730  0.31741197  1
  Al0+  Al92  1  0.32091149  0.07021629  0.01323462  1
  Al0+  Al93  1  0.32097756  0.07187826  0.34972260  1
  Al0+  Al94  1  0.57140328  0.67908099  0.98319864  1
  Al0+  Al95  1  0.07338931  0.67583311  0.31898412  1
  Si0+  Si96  1  0.17829382  0.92660250  0.68353455  1
  Si0+  Si97  1  0.17836758  0.92567206  0.01481347  1
  Si0+  Si98  1  0.67851981  0.92777988  0.68486325  1
  Si0+  Si99  1  0.17960542  0.42790013  0.01450973  1
  Si0+  Si100  1  0.57087654  0.68169193  0.65075637  1
  Si0+  Si101  1  0.67815805  0.42992552  0.67981668  1
  Si0+  Si102  1  0.42722043  0.82356433  0.31967842  1
  Si0+  Si103  1  0.92826286  0.81952312  0.65086937  1
  Si0+  Si104  1  0.67870145  0.92874827  0.01427612  1
  Si0+  Si105  1  0.07196903  0.67299354  0.98080457  1
  Si0+  Si106  1  0.42821284  0.82222374  0.65140136  1
  Si0+  Si107  1  0.32480070  0.57192976  0.34816049  1
  Si0+  Si108  1  0.82043852  0.57247020  0.68280218  1
  Si0+  Si109  1  0.07256635  0.68032994  0.65306757  1
  Si0+  Si110  1  0.32422762  0.57385144  0.68423915  1
  Si0+  Si111  1  0.82059882  0.07028651  0.68117921  1
  Si0+  Si112  1  0.32074767  0.06922036  0.68287198  1
  Si0+  Si113  1  0.31941872  0.57176879  0.01372536  1
  Si0+  Si114  1  0.92643164  0.32450700  0.31587269  1
  Si0+  Si115  1  0.57262223  0.17502503  0.65153962  1
  Si0+  Si116  1  0.92916144  0.32172494  0.98793683  1
  Si0+  Si117  1  0.57531850  0.17893044  0.98443761  1
  Si0+  Si118  1  0.67481083  0.42937336  0.35144120  1
  Si0+  Si119  1  0.06993734  0.17962869  0.98536450  1
  O2-  O120  1  0.25326660  -0.01203559  0.05666545  1
  O2-  O121  1  0.25000773  -0.00113958  0.40069850  1
  O2-  O122  1  0.24840847  -0.00110853  0.72525660  1
  O2-  O123  1  0.24909660  0.50042432  0.05582597  1
  O2-  O124  1  0.25438268  0.50544548  0.39296781  1
  O2-  O125  1  0.25767108  0.50254257  0.72858259  1
  O2-  O126  1  0.74620437  -0.00172079  0.05732591  1
  O2-  O127  1  0.74809014  0.00445449  0.39946518  1
  O2-  O128  1  0.74793438  0.00132432  0.72531246  1
  O2-  O129  1  0.74355809  0.50484508  0.06434861  1
  O2-  O130  1  0.74627263  0.49450316  0.39753740  1
  O2-  O131  1  0.75379402  0.49627479  0.72285366  1
  O2-  O132  1  -0.01135330  0.25040457  0.27016159  1
  O2-  O133  1  -0.00093038  0.25265019  0.60306077  1
  O2-  O134  1  -0.00278645  0.24884330  0.94369182  1
  O2-  O135  1  0.00495279  0.75043043  0.26876112  1
  O2-  O136  1  -0.00000701  0.74903370  0.61041727  1
  O2-  O137  1  0.00359143  0.74293377  0.93720723  1
  O2-  O138  1  0.50052982  0.24732416  0.26652040  1
  O2-  O139  1  0.50487258  0.24471447  0.60821224  1
  O2-  O140  1  0.50651859  0.24673117  0.93790812  1
  O2-  O141  1  0.49702843  0.75652792  0.27545058  1
  O2-  O142  1  0.49868254  0.75136150  0.60877574  1
  O2-  O143  1  0.49882012  0.75182990  0.93357044  1
  O2-  O144  1  0.07089198  0.18006614  0.08990507  1
  O2-  O145  1  0.06903335  0.18354524  0.43035066  1
  O2-  O146  1  0.06824754  0.17800456  0.76551507  1
  O2-  O147  1  0.07421677  0.66995581  0.08528393  1
  O2-  O148  1  0.06911600  0.67579827  0.43358066  1
  O2-  O149  1  0.07276756  0.68189508  0.75839049  1
  O2-  O150  1  0.57477952  0.17931233  0.08902782  1
  O2-  O151  1  0.57018009  0.18108828  0.43239268  1
  O2-  O152  1  0.57350377  0.17373821  0.75737643  1
  O2-  O153  1  0.57095225  0.68160357  0.09627780  1
  O2-  O154  1  0.56967042  0.68154206  0.43421072  1
  O2-  O155  1  0.57139487  0.68218749  0.75549143  1
  O2-  O156  1  0.18070586  0.43046379  0.23274488  1
  O2-  O157  1  0.18094452  0.43063678  0.56942639  1
  O2-  O158  1  0.17998568  0.42774913  0.90901317  1
  O2-  O159  1  0.18136024  0.92903798  0.23387752  1
  O2-  O160  1  0.17988958  0.92133652  0.57945080  1
  O2-  O161  1  0.17600795  0.92942543  0.90827698  1
  O2-  O162  1  0.67441548  0.43247807  0.24624774  1
  O2-  O163  1  0.67579983  0.43374654  0.57528281  1
  O2-  O164  1  0.67888664  0.42780558  0.90101849  1
  O2-  O165  1  0.68212744  0.92662765  0.23399531  1
  O2-  O166  1  0.67777626  0.92389554  0.58066666  1
  O2-  O167  1  0.68031769  0.93143639  0.90750861  1
  O2-  O168  1  0.42319353  0.31676375  0.09635000  1
  O2-  O169  1  0.42936602  0.31974749  0.43051690  1
  O2-  O170  1  0.43121345  0.31845313  0.76549317  1
  O2-  O171  1  0.42626991  0.82101323  0.09889921  1
  O2-  O172  1  0.42735816  0.81950690  0.42615222  1
  O2-  O173  1  0.42896455  0.82258720  0.75629982  1
  O2-  O174  1  0.93317092  0.32525740  0.09220131  1
  O2-  O175  1  0.93096910  0.32590017  0.42168990  1
  O2-  O176  1  0.92561870  0.32046007  0.76752583  1
  O2-  O177  1  0.93333647  0.82389608  0.09648634  1
  O2-  O178  1  0.93044538  0.81741840  0.43310995  1
  O2-  O179  1  0.92850582  0.81971441  0.75625053  1
  O2-  O180  1  0.31915248  0.07058386  0.23606947  1
  O2-  O181  1  0.32325394  0.06666591  0.57858457  1
  O2-  O182  1  0.31526571  0.07264579  0.89916714  1
  O2-  O183  1  0.32519720  0.57096787  0.24251539  1
  O2-  O184  1  0.32400325  0.57849324  0.57928532  1
  O2-  O185  1  0.31711577  0.57200285  0.90812915  1
  O2-  O186  1  0.82334674  0.06899768  0.23692277  1
  O2-  O187  1  0.82096228  0.06846138  0.57703196  1
  O2-  O188  1  0.82285968  0.07019512  0.89796198  1
  O2-  O189  1  0.81768724  0.57050691  0.23521557  1
  O2-  O190  1  0.81857482  0.57641143  0.57801323  1
  O2-  O191  1  0.82155951  0.56708722  0.90124367  1
  O2-  O192  1  0.04148841  0.08273225  0.26429532  1
  O2-  O193  1  0.04207906  0.07943863  0.59929960  1
  O2-  O194  1  0.04492517  0.08777124  0.93632953  1
  O2-  O195  1  0.04218353  0.57831065  0.26698593  1
  O2-  O196  1  0.04658964  0.58724557  0.60871911  1
  O2-  O197  1  0.04354911  0.58009997  0.93298748  1
  O2-  O198  1  0.54914436  0.07618177  0.26934023  1
  O2-  O199  1  0.54607462  0.08077366  0.60717848  1
  O2-  O200  1  0.55171905  0.08496650  0.93725203  1
  O2-  O201  1  0.54103575  0.58635125  0.26396986  1
  O2-  O202  1  0.54533042  0.59029388  0.60205476  1
  O2-  O203  1  0.53973429  0.58188173  0.92857581  1
  O2-  O204  1  0.16253778  0.21535470  0.26285421  1
  O2-  O205  1  0.16902220  0.20545064  0.59980588  1
  O2-  O206  1  0.15987915  0.21080257  0.93612056  1
  O2-  O207  1  0.17419766  0.69788805  0.26870361  1
  O2-  O208  1  0.16449237  0.70862467  0.60671698  1
  O2-  O209  1  0.16454682  0.69824280  0.93147028  1
  O2-  O210  1  0.67308614  0.20379454  0.26756701  1
  O2-  O211  1  0.66625413  0.19872588  0.60554988  1
  O2-  O212  1  0.67005796  0.20516369  0.93912150  1
  O2-  O213  1  0.66692669  0.71293048  0.26697242  1
  O2-  O214  1  0.66259223  0.71249768  0.60441019  1
  O2-  O215  1  0.66868703  0.70709700  0.92687109  1
  O2-  O216  1  0.08762248  0.45376538  0.06134498  1
  O2-  O217  1  0.08470746  0.46035617  0.40368985  1
  O2-  O218  1  0.08514779  0.46177468  0.73826972  1
  O2-  O219  1  0.08798274  0.95897784  0.06111212  1
  O2-  O220  1  0.08140524  0.95569275  0.40123581  1
  O2-  O221  1  0.08530107  0.95415559  0.72987588  1
  O2-  O222  1  0.57321352  0.45196669  0.06302488  1
  O2-  O223  1  0.58218675  0.46020023  0.39719891  1
  O2-  O224  1  0.58800059  0.46325583  0.72851349  1
  O2-  O225  1  0.58425330  0.94984739  0.05887698  1
  O2-  O226  1  0.58161043  0.95292058  0.40458682  1
  O2-  O227  1  0.58564291  0.95261085  0.73256449  1
  O2-  O228  1  0.20913563  0.33668955  0.06087771  1
  O2-  O229  1  0.21167176  0.33492049  0.40133864  1
  O2-  O230  1  0.21089128  0.33127876  0.73586496  1
  O2-  O231  1  0.19422916  0.82853994  0.05589418  1
  O2-  O232  1  0.20688466  0.82825826  0.40183980  1
  O2-  O233  1  0.20725818  0.83607465  0.73422180  1
  O2-  O234  1  0.70621959  0.33315510  0.07167562  1
  O2-  O235  1  0.69560356  0.33485231  0.39708959  1
  O2-  O236  1  0.69957296  0.33555898  0.72597120  1
  O2-  O237  1  0.70576992  0.83441738  0.05550672  1
  O2-  O238  1  0.71272348  0.83340423  0.40432839  1
  O2-  O239  1  0.70985802  0.83742145  0.73425293  1
  O2-  O240  1  0.45594185  0.41771191  0.26383063  1
  O2-  O241  1  0.45987204  0.41825970  0.59962140  1
  O2-  O242  1  0.45290660  0.41554217  0.92777906  1
  O2-  O243  1  0.45057775  0.91842511  0.27768724  1
  O2-  O244  1  0.45650658  0.91399800  0.60478829  1
  O2-  O245  1  0.45590294  0.92194932  0.93076053  1
  O2-  O246  1  0.95969009  0.41510894  0.26920469  1
  O2-  O247  1  0.95389264  0.42480166  0.60501200  1
  O2-  O248  1  0.95866403  0.41203255  0.93750655  1
  O2-  O249  1  0.95776722  0.91914374  0.26678417  1
  O2-  O250  1  0.95478518  0.91151141  0.60475724  1
  O2-  O251  1  0.96676910  0.91473462  0.92594062  1
  O2-  O252  1  0.33002161  0.29062755  0.26479853  1
  O2-  O253  1  0.33414717  0.28937511  0.60007341  1
  O2-  O254  1  0.33253232  0.28213402  0.92932949  1
  O2-  O255  1  0.33475853  0.79782171  0.27270636  1
  O2-  O256  1  0.33555123  0.79529927  0.60558891  1
  O2-  O257  1  0.32845740  0.79421781  0.93090343  1
  O2-  O258  1  0.82944994  0.30862347  0.27472181  1
  O2-  O259  1  0.82791076  0.29877999  0.59941785  1
  O2-  O260  1  0.83580807  0.29534010  0.94263139  1
  O2-  O261  1  0.83383744  0.78894813  0.26678850  1
  O2-  O262  1  0.83594888  0.79045031  0.60586279  1
  O2-  O263  1  0.83575522  0.79287886  0.92596361  1
  O2-  O264  1  0.42015234  0.04746937  0.06444176  1
  O2-  O265  1  0.41882084  0.04646430  0.40514818  1
  O2-  O266  1  0.41223929  0.04047457  0.73182386  1
  O2-  O267  1  0.41188031  0.54512304  0.05827446  1
  O2-  O268  1  0.41779569  0.54462801  0.39524189  1
  O2-  O269  1  0.41928087  0.54998892  0.72866580  1
  O2-  O270  1  0.91969412  0.03617894  0.06309556  1
  O2-  O271  1  0.91929667  0.04199859  0.40444730  1
  O2-  O272  1  0.91203114  0.03964222  0.72900583  1
  O2-  O273  1  0.91826816  0.54050857  0.06806302  1
  O2-  O274  1  0.91488857  0.53906418  0.40350095  1
  O2-  O275  1  0.91394123  0.55261269  0.73018722  1
  O2-  O276  1  0.28256567  0.16353625  0.06782716  1
  O2-  O277  1  0.28731242  0.16883053  0.40182119  1
  O2-  O278  1  0.29247337  0.16114898  0.72962199  1
  O2-  O279  1  0.29208177  0.66362899  0.06081062  1
  O2-  O280  1  0.30366353  0.66594340  0.39554457  1
  O2-  O281  1  0.29516593  0.66627817  0.73282870  1
  O2-  O282  1  0.79954010  0.16694496  0.06824873  1
  O2-  O283  1  0.79802709  0.17481934  0.40276985  1
  O2-  O284  1  0.79470883  0.16379045  0.72771088  1
  O2-  O285  1  0.79679004  0.67372600  0.06263566  1
  O2-  O286  1  0.78652501  0.66490979  0.40380919  1
  O2-  O287  1  0.78677938  0.66257272  0.73157372  1
