# generated using pymatgen
data_Ca2Al2SiO7
_symmetry_space_group_name_H-M   'P 1'
_cell_length_a   15.46076583
_cell_length_b   15.46085908
_cell_length_c   15.28592220
_cell_angle_alpha   89.99497177
_cell_angle_beta   89.98269781
_cell_angle_gamma   89.99343452
_symmetry_Int_Tables_number   1
_chemical_formula_structural   Ca2Al2SiO7
_chemical_formula_sum   'Ca48 Al48 Si24 O168'
_cell_volume   3653.89652855
_cell_formula_units_Z   24
loop_
 _symmetry_equiv_pos_site_id
 _symmetry_equiv_pos_as_xyz
  1  'x, y, z'
loop_
 _atom_type_symbol
 _atom_type_oxidation_number
  Ca2+  2.0
  Al0+  0.0
  Si0+  0.0
  O2-  -2.0
loop_
 _atom_site_type_symbol
 _atom_site_label
 _atom_site_symmetry_multiplicity
 _atom_site_fract_x
 _atom_site_fract_y
 _atom_site_fract_z
 _atom_site_occupancy
  Ca2+  Ca0  1  0.16402171  0.08527992  0.16647082  1
  Ca2+  Ca1  1  0.16906216  0.07514316  0.51270078  1
  Ca2+  Ca2  1  0.16092451  0.08529011  0.83241087  1
  Ca2+  Ca3  1  0.17773841  0.57320540  0.16861641  1
  Ca2+  Ca4  1  0.17854217  0.58099682  0.51116767  1
  Ca2+  Ca5  1  0.17302188  0.57239355  0.83705311  1
  Ca2+  Ca6  1  0.67195835  0.09292524  0.16546251  1
  Ca2+  Ca7  1  0.67317538  0.08059273  0.50957405  1
  Ca2+  Ca8  1  0.67687746  0.09141090  0.83973215  1
  Ca2+  Ca9  1  0.67134625  0.59084511  0.16903363  1
  Ca2+  Ca10  1  0.67014671  0.58818853  0.49765511  1
  Ca2+  Ca11  1  0.67295323  0.58106567  0.84255831  1
  Ca2+  Ca12  1  0.08015366  0.32978956  0.15468777  1
  Ca2+  Ca13  1  0.08682999  0.33142810  0.50614339  1
  Ca2+  Ca14  1  0.07675690  0.33445187  0.82628998  1
  Ca2+  Ca15  1  0.07686388  0.83047527  0.16558752  1
  Ca2+  Ca16  1  0.08516533  0.82809777  0.49927866  1
  Ca2+  Ca17  1  0.08739683  0.82553370  0.82548290  1
  Ca2+  Ca18  1  0.57162916  0.33506198  0.15984769  1
  Ca2+  Ca19  1  0.56994936  0.33245318  0.49750974  1
  Ca2+  Ca20  1  0.57118146  0.33306787  0.83353135  1
  Ca2+  Ca21  1  0.57854788  0.82184303  0.16544264  1
  Ca2+  Ca22  1  0.57410312  0.82722881  0.48999556  1
  Ca2+  Ca23  1  0.58394510  0.82574379  0.83379940  1
  Ca2+  Ca24  1  0.33664645  0.41868844  0.16864707  1
  Ca2+  Ca25  1  0.33438607  0.42492199  0.50855479  1
  Ca2+  Ca26  1  0.32519139  0.41614641  0.83856229  1
  Ca2+  Ca27  1  0.33589522  0.91804262  0.17131521  1
  Ca2+  Ca28  1  0.33088312  0.92097164  0.51145318  1
  Ca2+  Ca29  1  0.32699771  0.92254937  0.83214390  1
  Ca2+  Ca30  1  0.83694849  0.42827646  0.16837334  1
  Ca2+  Ca31  1  0.83239824  0.41887225  0.50462608  1
  Ca2+  Ca32  1  0.83816095  0.41770066  0.84244108  1
  Ca2+  Ca33  1  0.83346179  0.92113200  0.17028718  1
  Ca2+  Ca34  1  0.83509242  0.91968770  0.50499144  1
  Ca2+  Ca35  1  0.83764069  0.93259447  0.83787726  1
  Ca2+  Ca36  1  0.42189932  0.17977951  0.15678907  1
  Ca2+  Ca37  1  0.39972865  0.18060757  0.50092868  1
  Ca2+  Ca38  1  0.41257435  0.17790904  0.82829601  1
  Ca2+  Ca39  1  0.42282227  0.65951875  0.16292983  1
  Ca2+  Ca40  1  0.41715646  0.66771583  0.48964085  1
  Ca2+  Ca41  1  0.41773593  0.65568749  0.83113152  1
  Ca2+  Ca42  1  0.92131232  0.17494714  0.15247075  1
  Ca2+  Ca43  1  0.92003378  0.16785758  0.50374218  1
  Ca2+  Ca44  1  0.92227322  0.17398434  0.82812606  1
  Ca2+  Ca45  1  0.90736483  0.67061366  0.16267643  1
  Ca2+  Ca46  1  0.92582236  0.66851690  0.49393863  1
  Ca2+  Ca47  1  0.92545650  0.66266270  0.82653243  1
  Al0+  Al48  1  -0.00198579  0.00007798  0.00306442  1
  Al0+  Al49  1  0.00098445  -0.00093221  0.33028789  1
  Al0+  Al50  1  -0.00208844  -0.00000638  0.67135468  1
  Al0+  Al51  1  0.00175667  0.50222694  0.00697767  1
  Al0+  Al52  1  0.00078183  0.49862333  0.33837102  1
  Al0+  Al53  1  0.00088422  0.50201995  0.65838618  1
  Al0+  Al54  1  0.50007023  -0.00283344  -0.00274445  1
  Al0+  Al55  1  0.50204184  0.00064621  0.33141624  1
  Al0+  Al56  1  0.50119102  -0.00217337  0.67212471  1
  Al0+  Al57  1  0.50171317  0.50134379  -0.00594174  1
  Al0+  Al58  1  0.50125030  0.49812838  0.33003446  1
  Al0+  Al59  1  0.50406889  0.49924111  0.66440665  1
  Al0+  Al60  1  0.24887886  0.24697431  -0.00178547  1
  Al0+  Al61  1  0.24881324  0.24828149  0.32836109  1
  Al0+  Al62  1  0.24801302  0.25071686  0.66436657  1
  Al0+  Al63  1  0.24919554  0.75116488  0.00559961  1
  Al0+  Al64  1  0.24817780  0.74988445  0.33172611  1
  Al0+  Al65  1  0.25207297  0.75059077  0.66996810  1
  Al0+  Al66  1  0.74955854  0.25170881  0.00022330  1
  Al0+  Al67  1  0.75231213  0.25150772  0.33607590  1
  Al0+  Al68  1  0.74859408  0.25073305  0.66581249  1
  Al0+  Al69  1  0.74747225  0.75261711  -0.00230812  1
  Al0+  Al70  1  0.75087893  0.75218865  0.33229939  1
  Al0+  Al71  1  0.74938770  0.74947616  0.66651858  1
  Al0+  Al72  1  0.06985320  0.17757211  0.65026508  1
  Al0+  Al73  1  0.42571896  0.82327724  0.31918807  1
  Al0+  Al74  1  0.57002520  0.67916766  0.31843195  1
  Al0+  Al75  1  0.42894203  0.31875502  0.31947111  1
  Al0+  Al76  1  0.82077648  0.57304558  0.34877172  1
  Al0+  Al77  1  0.81888893  0.07153827  0.01560935  1
  Al0+  Al78  1  0.92653423  0.32268662  0.64935623  1
  Al0+  Al79  1  0.81923206  0.07126878  0.68067215  1
  Al0+  Al80  1  0.17775103  0.43014846  0.68038228  1
  Al0+  Al81  1  0.32135651  0.56907573  0.34669432  1
  Al0+  Al82  1  0.82156712  0.57269634  0.01174734  1
  Al0+  Al83  1  0.57170747  0.17690237  0.98520669  1
  Al0+  Al84  1  0.42870903  0.32041275  0.65250569  1
  Al0+  Al85  1  0.32243232  0.57037315  0.01599354  1
  Al0+  Al86  1  0.93078202  0.32477053  0.98744568  1
  Al0+  Al87  1  0.42830475  0.32130356  0.98316857  1
  Al0+  Al88  1  0.07008039  0.17643011  0.98435391  1
  Al0+  Al89  1  0.07325033  0.68003939  0.65362529  1
  Al0+  Al90  1  0.17948287  0.42578995  0.01549372  1
  Al0+  Al91  1  0.17796982  0.92840751  0.68164823  1
  Al0+  Al92  1  0.93112021  0.82026065  0.31989206  1
  Al0+  Al93  1  0.32142150  0.07242428  0.68175799  1
  Al0+  Al94  1  0.56986220  0.68077761  0.98407897  1
  Al0+  Al95  1  0.32485176  0.57108813  0.68077499  1
  Si0+  Si96  1  0.67967060  0.93039854  0.34859538  1
  Si0+  Si97  1  0.17836910  0.42446419  0.35164436  1
  Si0+  Si98  1  0.32245261  0.06939172  0.01568610  1
  Si0+  Si99  1  0.07123819  0.68144287  0.98727708  1
  Si0+  Si100  1  0.17790862  0.93000204  0.34702740  1
  Si0+  Si101  1  0.32161609  0.07017583  0.34542230  1
  Si0+  Si102  1  0.67784330  0.92559075  0.68491137  1
  Si0+  Si103  1  0.67827785  0.42936588  0.01651851  1
  Si0+  Si104  1  0.67665612  0.92739454  0.01910585  1
  Si0+  Si105  1  0.92776702  0.32180928  0.31783782  1
  Si0+  Si106  1  0.57093911  0.17610525  0.65040238  1
  Si0+  Si107  1  0.67924214  0.42701201  0.35143437  1
  Si0+  Si108  1  0.92786477  0.82096150  0.98466979  1
  Si0+  Si109  1  0.07226395  0.67524609  0.31491687  1
  Si0+  Si110  1  0.57629678  0.17801272  0.31876499  1
  Si0+  Si111  1  0.17793795  0.92879378  0.01796984  1
  Si0+  Si112  1  0.42449533  0.82187057  0.98083833  1
  Si0+  Si113  1  0.43102774  0.82078146  0.65330914  1
  Si0+  Si114  1  0.67987264  0.42926599  0.68163863  1
  Si0+  Si115  1  0.92691877  0.82083988  0.65204662  1
  Si0+  Si116  1  0.82051588  0.57125970  0.67963426  1
  Si0+  Si117  1  0.82262166  0.07143882  0.34871565  1
  Si0+  Si118  1  0.06849650  0.17893113  0.31795809  1
  Si0+  Si119  1  0.57312865  0.67852740  0.65013021  1
  O2-  O120  1  0.24944017  0.00011535  0.05903333  1
  O2-  O121  1  0.25593936  -0.00601038  0.38746106  1
  O2-  O122  1  0.24599210  0.00392805  0.73220330  1
  O2-  O123  1  0.25525502  0.49387911  0.06612185  1
  O2-  O124  1  0.24635680  0.49491422  0.39376142  1
  O2-  O125  1  0.25321786  0.49869754  0.72981303  1
  O2-  O126  1  0.74126081  0.00006634  0.06373101  1
  O2-  O127  1  0.74904923  0.00321305  0.39112650  1
  O2-  O128  1  0.74462688  -0.00376473  0.72773452  1
  O2-  O129  1  0.74879069  0.49689925  0.05996574  1
  O2-  O130  1  0.74664022  0.49766951  0.39560455  1
  O2-  O131  1  0.75449533  0.49701849  0.72305052  1
  O2-  O132  1  -0.00046608  0.25174051  0.27647451  1
  O2-  O133  1  -0.00112194  0.25044736  0.59902814  1
  O2-  O134  1  0.00208322  0.25299734  0.93659220  1
  O2-  O135  1  0.00018952  0.74128316  0.27096902  1
  O2-  O136  1  -0.00204365  0.75527783  0.60735152  1
  O2-  O137  1  -0.00273647  0.74883133  0.94321479  1
  O2-  O138  1  0.50539221  0.24426885  0.27561047  1
  O2-  O139  1  0.49813548  0.23953925  0.60507707  1
  O2-  O140  1  0.49788281  0.24576770  0.93445461  1
  O2-  O141  1  0.49295867  0.74679574  0.26929438  1
  O2-  O142  1  0.49961996  0.74779237  0.61027948  1
  O2-  O143  1  0.49086702  0.75079674  0.93676739  1
  O2-  O144  1  0.06616469  0.17463155  0.09911385  1
  O2-  O145  1  0.06812326  0.17588250  0.42251334  1
  O2-  O146  1  0.06581928  0.17659285  0.76290702  1
  O2-  O147  1  0.07082955  0.68544791  0.09246092  1
  O2-  O148  1  0.07301485  0.67899260  0.42052659  1
  O2-  O149  1  0.06957482  0.68028886  0.76710014  1
  O2-  O150  1  0.56880188  0.17873959  0.09961293  1
  O2-  O151  1  0.58007360  0.17771102  0.42419271  1
  O2-  O152  1  0.57291650  0.17916932  0.75539414  1
  O2-  O153  1  0.57282679  0.68417852  0.09675320  1
  O2-  O154  1  0.57093972  0.68350709  0.43258657  1
  O2-  O155  1  0.57756041  0.68032498  0.75487396  1
  O2-  O156  1  0.17757741  0.42302346  0.24620917  1
  O2-  O157  1  0.18003290  0.43343543  0.56623986  1
  O2-  O158  1  0.17568254  0.42989079  0.90251769  1
  O2-  O159  1  0.17357796  0.93434110  0.24186072  1
  O2-  O160  1  0.18155321  0.92714925  0.56728169  1
  O2-  O161  1  0.17770711  0.92557641  0.91347495  1
  O2-  O162  1  0.68209869  0.42212261  0.24637675  1
  O2-  O163  1  0.67821929  0.43168293  0.57628969  1
  O2-  O164  1  0.67847031  0.43157891  0.91059882  1
  O2-  O165  1  0.68039393  0.93066838  0.24395221  1
  O2-  O166  1  0.67804168  0.92459039  0.57885210  1
  O2-  O167  1  0.68057454  0.92407089  0.91360804  1
  O2-  O168  1  0.43094846  0.32019350  0.09732641  1
  O2-  O169  1  0.42807748  0.31700622  0.43261053  1
  O2-  O170  1  0.43248713  0.32254523  0.76469988  1
  O2-  O171  1  0.42576205  0.82385847  0.08644323  1
  O2-  O172  1  0.42931903  0.82653118  0.43306269  1
  O2-  O173  1  0.43328181  0.82243961  0.75808385  1
  O2-  O174  1  0.93146236  0.32308975  0.10193464  1
  O2-  O175  1  0.92454722  0.31945450  0.42251611  1
  O2-  O176  1  0.92481565  0.32390925  0.76236114  1
  O2-  O177  1  0.92894719  0.82126557  0.09018875  1
  O2-  O178  1  0.93497162  0.82384228  0.43284580  1
  O2-  O179  1  0.92346817  0.81666914  0.75756416  1
  O2-  O180  1  0.31883551  0.07095337  0.24021285  1
  O2-  O181  1  0.32209963  0.06726090  0.56711140  1
  O2-  O182  1  0.32382415  0.06666828  0.91118984  1
  O2-  O183  1  0.32046634  0.56704986  0.23401038  1
  O2-  O184  1  0.32517595  0.57186366  0.56659223  1
  O2-  O185  1  0.31808105  0.57222295  0.90290165  1
  O2-  O186  1  0.82226669  0.07137358  0.24389780  1
  O2-  O187  1  0.81735833  0.06773585  0.56650156  1
  O2-  O188  1  0.81993682  0.06847744  0.90295142  1
  O2-  O189  1  0.81904998  0.57192448  0.23571031  1
  O2-  O190  1  0.81626177  0.57435693  0.57452946  1
  O2-  O191  1  0.82072955  0.57355706  0.89824503  1
  O2-  O192  1  0.03927803  0.08833719  0.26890171  1
  O2-  O193  1  0.03877810  0.07800126  0.59830747  1
  O2-  O194  1  0.03749952  0.07843778  0.93338323  1
  O2-  O195  1  0.04944203  0.57957420  0.27267813  1
  O2-  O196  1  0.04071972  0.58757798  0.59375173  1
  O2-  O197  1  0.04498309  0.58913460  0.94193318  1
  O2-  O198  1  0.55419071  0.08387740  0.27278380  1
  O2-  O199  1  0.55253936  0.07885838  0.60805735  1
  O2-  O200  1  0.55008561  0.07577319  0.93494079  1
  O2-  O201  1  0.54970686  0.57895250  0.26682271  1
  O2-  O202  1  0.54972543  0.58646168  0.60201443  1
  O2-  O203  1  0.54591699  0.58398322  0.92814776  1
  O2-  O204  1  0.16031807  0.20441087  0.26907761  1
  O2-  O205  1  0.16859461  0.20325265  0.59569610  1
  O2-  O206  1  0.17149670  0.19386670  0.93591471  1
  O2-  O207  1  0.16340532  0.70514553  0.26679549  1
  O2-  O208  1  0.16959381  0.71293585  0.59952785  1
  O2-  O209  1  0.16140289  0.71413340  0.94018658  1
  O2-  O210  1  0.66958392  0.20585513  0.27228704  1
  O2-  O211  1  0.66213744  0.20653215  0.60164168  1
  O2-  O212  1  0.66931752  0.20774876  0.93324157  1
  O2-  O213  1  0.66682720  0.71428520  0.26641524  1
  O2-  O214  1  0.66366027  0.71005364  0.60100357  1
  O2-  O215  1  0.66461810  0.71714654  0.92810376  1
  O2-  O216  1  0.08437405  0.46050187  0.07286948  1
  O2-  O217  1  0.08399585  0.44728121  0.39739615  1
  O2-  O218  1  0.07897473  0.46274498  0.73023788  1
  O2-  O219  1  0.08649441  0.95729515  0.06652959  1
  O2-  O220  1  0.08909798  0.96470490  0.39653201  1
  O2-  O221  1  0.07803591  0.94962259  0.73396409  1
  O2-  O222  1  0.58595769  0.45881385  0.06250344  1
  O2-  O223  1  0.58539779  0.45199776  0.39701633  1
  O2-  O224  1  0.59122149  0.46211900  0.73121791  1
  O2-  O225  1  0.58061326  0.94659427  0.06295703  1
  O2-  O226  1  0.58755166  0.95702293  0.39759950  1
  O2-  O227  1  0.58462635  0.94721168  0.73261481  1
  O2-  O228  1  0.20239374  0.32475607  0.06704228  1
  O2-  O229  1  0.20525571  0.32998732  0.39580151  1
  O2-  O230  1  0.19997713  0.32983907  0.72975162  1
  O2-  O231  1  0.20575569  0.83871115  0.06915120  1
  O2-  O232  1  0.19689222  0.83535455  0.39187105  1
  O2-  O233  1  0.21179950  0.83309983  0.73732879  1
  O2-  O234  1  0.70000120  0.33563121  0.06359374  1
  O2-  O235  1  0.70785192  0.33492141  0.40094029  1
  O2-  O236  1  0.70236244  0.33641131  0.72811545  1
  O2-  O237  1  0.70891708  0.83675463  0.06730765  1
  O2-  O238  1  0.70983750  0.84046396  0.39803693  1
  O2-  O239  1  0.70611885  0.83256614  0.73144861  1
  O2-  O240  1  0.46133523  0.41375857  0.26474724  1
  O2-  O241  1  0.46809387  0.41450087  0.59735829  1
  O2-  O242  1  0.46026181  0.41778664  0.92983071  1
  O2-  O243  1  0.45923000  0.92041207  0.26477650  1
  O2-  O244  1  0.46106184  0.91204637  0.60474057  1
  O2-  O245  1  0.45308812  0.91374924  0.93316448  1
  O2-  O246  1  0.95445401  0.41507960  0.27320995  1
  O2-  O247  1  0.95407482  0.42056316  0.59427320  1
  O2-  O248  1  0.95746689  0.42476998  0.93682546  1
  O2-  O249  1  0.96598988  0.91494373  0.26297734  1
  O2-  O250  1  0.94837992  0.91568406  0.60798066  1
  O2-  O251  1  0.95909793  0.91176958  0.93854806  1
  O2-  O252  1  0.33358238  0.28573445  0.26415942  1
  O2-  O253  1  0.33174998  0.29388530  0.59704281  1
  O2-  O254  1  0.32961087  0.29218579  0.93300193  1
  O2-  O255  1  0.32474258  0.80341173  0.26817408  1
  O2-  O256  1  0.33864170  0.79648899  0.60604370  1
  O2-  O257  1  0.32894168  0.79943482  0.93792463  1
  O2-  O258  1  0.83640054  0.29321284  0.27014338  1
  O2-  O259  1  0.82775467  0.29250025  0.59590129  1
  O2-  O260  1  0.83098579  0.29889790  0.93767985  1
  O2-  O261  1  0.83353351  0.79498194  0.26583372  1
  O2-  O262  1  0.83428426  0.79269123  0.60361026  1
  O2-  O263  1  0.83578385  0.79734782  0.93734337  1
  O2-  O264  1  0.41363473  0.03879386  0.06383839  1
  O2-  O265  1  0.41594112  0.04998472  0.39109093  1
  O2-  O266  1  0.41887607  0.04071889  0.73530578  1
  O2-  O267  1  0.42402685  0.54598111  0.06381946  1
  O2-  O268  1  0.41988711  0.54027601  0.39831806  1
  O2-  O269  1  0.42518612  0.54440999  0.73015237  1
  O2-  O270  1  0.91361170  0.03552513  0.07142729  1
  O2-  O271  1  0.91341699  0.03842430  0.39498478  1
  O2-  O272  1  0.91368263  0.03981875  0.73687442  1
  O2-  O273  1  0.91716393  0.54694042  0.07001225  1
  O2-  O274  1  0.91817307  0.54293730  0.40222375  1
  O2-  O275  1  0.91457029  0.54830942  0.72299864  1
  O2-  O276  1  0.29630492  0.16096455  0.06419380  1
  O2-  O277  1  0.28670271  0.15978026  0.39307697  1
  O2-  O278  1  0.29644619  0.17196594  0.73123683  1
  O2-  O279  1  0.29080628  0.66856450  0.06937997  1
  O2-  O280  1  0.29162834  0.66837398  0.39770742  1
  O2-  O281  1  0.29865233  0.66957858  0.73302337  1
  O2-  O282  1  0.79001289  0.16896851  0.07019371  1
  O2-  O283  1  0.79779380  0.16394794  0.39630257  1
  O2-  O284  1  0.78731876  0.16793881  0.73288177  1
  O2-  O285  1  0.78729740  0.66960182  0.06411165  1
  O2-  O286  1  0.79043408  0.67034023  0.40226822  1
  O2-  O287  1  0.78974734  0.66186816  0.72824445  1
