# generated using pymatgen
data_Ca2Al2SiO7
_symmetry_space_group_name_H-M   'P 1'
_cell_length_a   15.45837820
_cell_length_b   15.45773167
_cell_length_c   15.28369637
_cell_angle_alpha   90.00833399
_cell_angle_beta   89.98694239
_cell_angle_gamma   90.01660509
_symmetry_Int_Tables_number   1
_chemical_formula_structural   Ca2Al2SiO7
_chemical_formula_sum   'Ca48 Al48 Si24 O168'
_cell_volume   3652.06130856
_cell_formula_units_Z   24
loop_
 _symmetry_equiv_pos_site_id
 _symmetry_equiv_pos_as_xyz
  1  'x, y, z'
loop_
 _atom_type_symbol
 _atom_type_oxidation_number
  Ca2+  2.0
  Al0+  0.0
  Si0+  0.0
  O2-  -2.0
loop_
 _atom_site_type_symbol
 _atom_site_label
 _atom_site_symmetry_multiplicity
 _atom_site_fract_x
 _atom_site_fract_y
 _atom_site_fract_z
 _atom_site_occupancy
  Ca2+  Ca0  1  0.17558914  0.08488579  0.17181057  1
  Ca2+  Ca1  1  0.16612092  0.08017256  0.50565379  1
  Ca2+  Ca2  1  0.16078148  0.07925839  0.83090406  1
  Ca2+  Ca3  1  0.17801100  0.57828678  0.16499587  1
  Ca2+  Ca4  1  0.17591208  0.58069861  0.50726891  1
  Ca2+  Ca5  1  0.17520655  0.57253678  0.83694801  1
  Ca2+  Ca6  1  0.66367757  0.07451629  0.17306727  1
  Ca2+  Ca7  1  0.67402041  0.07878847  0.49724108  1
  Ca2+  Ca8  1  0.66168432  0.07814195  0.84108953  1
  Ca2+  Ca9  1  0.67554009  0.57502851  0.17361025  1
  Ca2+  Ca10  1  0.67563546  0.58129085  0.50251327  1
  Ca2+  Ca11  1  0.67653223  0.59039463  0.83484517  1
  Ca2+  Ca12  1  0.07356963  0.33933984  0.16107196  1
  Ca2+  Ca13  1  0.07423143  0.33979919  0.49964107  1
  Ca2+  Ca14  1  0.07910321  0.33888547  0.82702101  1
  Ca2+  Ca15  1  0.07451256  0.83180072  0.16604649  1
  Ca2+  Ca16  1  0.07956407  0.83289758  0.49400087  1
  Ca2+  Ca17  1  0.08362429  0.83087598  0.82540100  1
  Ca2+  Ca18  1  0.58177573  0.32807724  0.15969147  1
  Ca2+  Ca19  1  0.58479636  0.33583977  0.49387823  1
  Ca2+  Ca20  1  0.57923497  0.33193115  0.83424752  1
  Ca2+  Ca21  1  0.58110334  0.83591846  0.15901578  1
  Ca2+  Ca22  1  0.58335770  0.82569328  0.49954110  1
  Ca2+  Ca23  1  0.57286675  0.82853927  0.82779057  1
  Ca2+  Ca24  1  0.33630818  0.42340648  0.17054350  1
  Ca2+  Ca25  1  0.32826243  0.42870444  0.50916747  1
  Ca2+  Ca26  1  0.32572748  0.42127953  0.84253280  1
  Ca2+  Ca27  1  0.33644603  0.92220058  0.17091339  1
  Ca2+  Ca28  1  0.32961657  0.92134669  0.50674139  1
  Ca2+  Ca29  1  0.33280198  0.90958943  0.83438944  1
  Ca2+  Ca30  1  0.83386305  0.42158235  0.17319367  1
  Ca2+  Ca31  1  0.83581627  0.42064587  0.50298055  1
  Ca2+  Ca32  1  0.84293498  0.42577504  0.83754399  1
  Ca2+  Ca33  1  0.81993937  0.92115269  0.17774809  1
  Ca2+  Ca34  1  0.83379417  0.91687397  0.49918543  1
  Ca2+  Ca35  1  0.82313114  0.92052111  0.84182619  1
  Ca2+  Ca36  1  0.42175418  0.17141482  0.15723902  1
  Ca2+  Ca37  1  0.41480459  0.16697761  0.49485913  1
  Ca2+  Ca38  1  0.42059968  0.17118729  0.83609093  1
  Ca2+  Ca39  1  0.41541684  0.66936156  0.15855443  1
  Ca2+  Ca40  1  0.41488156  0.66652673  0.49805312  1
  Ca2+  Ca41  1  0.41465160  0.67153712  0.82484232  1
  Ca2+  Ca42  1  0.90786923  0.17879396  0.16472400  1
  Ca2+  Ca43  1  0.92160702  0.17485430  0.49321710  1
  Ca2+  Ca44  1  0.92209249  0.18318804  0.82415587  1
  Ca2+  Ca45  1  0.90808974  0.66722859  0.16521819  1
  Ca2+  Ca46  1  0.91348307  0.66741385  0.49281931  1
  Ca2+  Ca47  1  0.91464083  0.66305858  0.82815181  1
  Al0+  Al48  1  -0.00127380  -0.00015035  0.00130078  1
  Al0+  Al49  1  0.00002817  -0.00089017  0.32861404  1
  Al0+  Al50  1  -0.00017928  0.00253172  0.66869350  1
  Al0+  Al51  1  0.00232502  0.50223930  0.00507301  1
  Al0+  Al52  1  0.00224115  0.50025354  0.33005315  1
  Al0+  Al53  1  0.00006738  0.50197439  0.66832988  1
  Al0+  Al54  1  0.49855901  -0.00218957  -0.00495135  1
  Al0+  Al55  1  0.49900427  -0.00094678  0.34294510  1
  Al0+  Al56  1  0.49934674  -0.00023790  0.66237356  1
  Al0+  Al57  1  0.50266840  0.50092592  -0.00164862  1
  Al0+  Al58  1  0.50039280  0.50091411  0.33946848  1
  Al0+  Al59  1  0.50380014  0.50027248  0.66632272  1
  Al0+  Al60  1  0.24800610  0.24815916  -0.00020523  1
  Al0+  Al61  1  0.24988171  0.25008774  0.33692957  1
  Al0+  Al62  1  0.25075198  0.24749703  0.66718455  1
  Al0+  Al63  1  0.24776631  0.74939212  0.00087851  1
  Al0+  Al64  1  0.24999393  0.74981464  0.33376867  1
  Al0+  Al65  1  0.24891450  0.75302405  0.66823516  1
  Al0+  Al66  1  0.75211725  0.25041333  -0.01156097  1
  Al0+  Al67  1  0.74932943  0.24737936  0.33556711  1
  Al0+  Al68  1  0.74985919  0.25079677  0.66320401  1
  Al0+  Al69  1  0.74916976  0.75223810  0.00731058  1
  Al0+  Al70  1  0.74827923  0.74878717  0.33455698  1
  Al0+  Al71  1  0.74742016  0.75023968  0.66751279  1
  Al0+  Al72  1  0.17806151  0.93129207  0.67971395  1
  Al0+  Al73  1  0.82077968  0.57055535  0.01469351  1
  Al0+  Al74  1  0.92771207  0.82006370  0.31887658  1
  Al0+  Al75  1  0.67924791  0.42708640  0.34685521  1
  Al0+  Al76  1  0.93168861  0.32289789  0.98585961  1
  Al0+  Al77  1  0.32362032  0.57203584  0.68215555  1
  Al0+  Al78  1  0.57241141  0.67779741  0.64989668  1
  Al0+  Al79  1  0.67766200  0.93215634  0.01253825  1
  Al0+  Al80  1  0.82268287  0.56948888  0.34821230  1
  Al0+  Al81  1  0.42756061  0.32340878  0.98646630  1
  Al0+  Al82  1  0.57109706  0.17811880  0.98596036  1
  Al0+  Al83  1  0.18004565  0.42814435  0.68102155  1
  Al0+  Al84  1  0.32036455  0.07176378  0.34602625  1
  Al0+  Al85  1  0.32374497  0.57124836  0.01434421  1
  Al0+  Al86  1  0.18001749  0.42648772  0.01680466  1
  Al0+  Al87  1  0.82248587  0.07068080  0.34782232  1
  Al0+  Al88  1  0.32109790  0.57172360  0.34762081  1
  Al0+  Al89  1  0.67727473  0.92712658  0.35130858  1
  Al0+  Al90  1  0.07193898  0.17773352  0.65040539  1
  Al0+  Al91  1  0.93032262  0.32382808  0.64919303  1
  Al0+  Al92  1  0.42711371  0.82015514  0.64833888  1
  Al0+  Al93  1  0.42760544  0.81874145  0.98740679  1
  Al0+  Al94  1  0.81916810  0.57092405  0.68027701  1
  Al0+  Al95  1  0.92914290  0.32027667  0.31785248  1
  Si0+  Si96  1  0.67926495  0.93064352  0.68262681  1
  Si0+  Si97  1  0.57115339  0.17801794  0.64874104  1
  Si0+  Si98  1  0.67885836  0.42510836  0.01408440  1
  Si0+  Si99  1  0.06989667  0.68094232  0.65278145  1
  Si0+  Si100  1  0.07445914  0.67829525  0.31437122  1
  Si0+  Si101  1  0.57455268  0.67881610  0.98536754  1
  Si0+  Si102  1  0.82046204  0.07239592  0.68256172  1
  Si0+  Si103  1  0.17580884  0.92720992  0.01634437  1
  Si0+  Si104  1  0.82245590  0.07336833  0.01457853  1
  Si0+  Si105  1  0.92756657  0.82204312  0.65463276  1
  Si0+  Si106  1  0.56975419  0.67789588  0.31666200  1
  Si0+  Si107  1  0.07261961  0.17479455  0.98338911  1
  Si0+  Si108  1  0.67841540  0.42472394  0.68575824  1
  Si0+  Si109  1  0.31962889  0.06847331  0.01305132  1
  Si0+  Si110  1  0.17827558  0.92837214  0.34756239  1
  Si0+  Si111  1  0.17872560  0.42775937  0.35039389  1
  Si0+  Si112  1  0.06954597  0.68163532  0.98422565  1
  Si0+  Si113  1  0.07370811  0.17736159  0.31483950  1
  Si0+  Si114  1  0.56879840  0.17745360  0.32050803  1
  Si0+  Si115  1  0.42972158  0.32049834  0.65166406  1
  Si0+  Si116  1  0.42874360  0.32186584  0.32107253  1
  Si0+  Si117  1  0.32473516  0.07152133  0.68641018  1
  Si0+  Si118  1  0.42890377  0.82090531  0.31848281  1
  Si0+  Si119  1  0.92730987  0.82147733  0.98503054  1
  O2-  O120  1  0.24709663  -0.00107756  0.05631496  1
  O2-  O121  1  0.24416725  -0.00113006  0.39204622  1
  O2-  O122  1  0.25429952  0.00346794  0.72884188  1
  O2-  O123  1  0.25853054  0.49304830  0.06518222  1
  O2-  O124  1  0.24706752  0.49687362  0.39376865  1
  O2-  O125  1  0.25558931  0.49617495  0.73135163  1
  O2-  O126  1  0.75084904  0.00820845  0.05895570  1
  O2-  O127  1  0.75443373  -0.00474694  0.39937646  1
  O2-  O128  1  0.74839139  0.00286999  0.72583357  1
  O2-  O129  1  0.74769110  0.49324400  0.05873452  1
  O2-  O130  1  0.75399010  0.49501627  0.39849142  1
  O2-  O131  1  0.74714563  0.49418292  0.72841285  1
  O2-  O132  1  0.00375397  0.24454802  0.27066038  1
  O2-  O133  1  0.00324922  0.25210976  0.59979801  1
  O2-  O134  1  0.00634180  0.24657674  0.94132589  1
  O2-  O135  1  0.00074984  0.74326417  0.27141550  1
  O2-  O136  1  -0.00174899  0.75172843  0.61121085  1
  O2-  O137  1  -0.00274622  0.75131581  0.94063334  1
  O2-  O138  1  0.49898516  0.24992552  0.27854793  1
  O2-  O139  1  0.50096795  0.25016025  0.60743756  1
  O2-  O140  1  0.50147160  0.25284909  0.93598477  1
  O2-  O141  1  0.49928659  0.75029985  0.27478246  1
  O2-  O142  1  0.49602004  0.74509502  0.59859198  1
  O2-  O143  1  0.49922808  0.74068180  0.94191758  1
  O2-  O144  1  0.07256424  0.17036764  0.08894142  1
  O2-  O145  1  0.07467317  0.17736993  0.42002392  1
  O2-  O146  1  0.06584776  0.17426947  0.76396816  1
  O2-  O147  1  0.07082065  0.68524506  0.08923005  1
  O2-  O148  1  0.07786044  0.68132545  0.42019303  1
  O2-  O149  1  0.06858607  0.68245053  0.75812852  1
  O2-  O150  1  0.56824096  0.17642714  0.09993164  1
  O2-  O151  1  0.56661285  0.17775099  0.42587204  1
  O2-  O152  1  0.57033788  0.17603642  0.75368252  1
  O2-  O153  1  0.57616091  0.68195230  0.09115627  1
  O2-  O154  1  0.56870219  0.67792967  0.42142635  1
  O2-  O155  1  0.57750903  0.68478830  0.76354970  1
  O2-  O156  1  0.18113746  0.42643593  0.24492867  1
  O2-  O157  1  0.18050778  0.43249808  0.56709236  1
  O2-  O158  1  0.17869832  0.43007388  0.90348998  1
  O2-  O159  1  0.18077154  0.92770159  0.24151701  1
  O2-  O160  1  0.17697709  0.93247241  0.56660732  1
  O2-  O161  1  0.17320216  0.92727816  0.91150012  1
  O2-  O162  1  0.67646353  0.42841856  0.23299122  1
  O2-  O163  1  0.67898620  0.42241708  0.58026632  1
  O2-  O164  1  0.67901756  0.42593046  0.90859277  1
  O2-  O165  1  0.67330714  0.93115463  0.23751979  1
  O2-  O166  1  0.68172391  0.93084911  0.57787949  1
  O2-  O167  1  0.68020502  0.93177169  0.89899557  1
  O2-  O168  1  0.42889530  0.31994215  0.10076399  1
  O2-  O169  1  0.42908290  0.32017449  0.42633482  1
  O2-  O170  1  0.43088346  0.31834757  0.75654689  1
  O2-  O171  1  0.42932210  0.82180741  0.10107937  1
  O2-  O172  1  0.42735915  0.81984152  0.42304373  1
  O2-  O173  1  0.42989199  0.82166727  0.76222347  1
  O2-  O174  1  0.93002958  0.32078793  0.09912328  1
  O2-  O175  1  0.93157735  0.32094728  0.43045581  1
  O2-  O176  1  0.93123441  0.32369986  0.76298495  1
  O2-  O177  1  0.92903098  0.82197713  0.08981316  1
  O2-  O178  1  0.93211923  0.82046744  0.43256984  1
  O2-  O179  1  0.92803592  0.82137148  0.76025596  1
  O2-  O180  1  0.32174003  0.07001914  0.23232997  1
  O2-  O181  1  0.32629666  0.07083081  0.58070282  1
  O2-  O182  1  0.31976839  0.06754139  0.90820314  1
  O2-  O183  1  0.32182622  0.57179677  0.23464577  1
  O2-  O184  1  0.31936533  0.57072070  0.56816787  1
  O2-  O185  1  0.31863563  0.57463981  0.90152726  1
  O2-  O186  1  0.81689603  0.07167912  0.23397087  1
  O2-  O187  1  0.82005461  0.07004209  0.57775418  1
  O2-  O188  1  0.82459072  0.06827783  0.90872945  1
  O2-  O189  1  0.81876852  0.56891483  0.23450723  1
  O2-  O190  1  0.81926786  0.57303272  0.56777627  1
  O2-  O191  1  0.82008409  0.57319942  0.90145679  1
  O2-  O192  1  0.05312643  0.08256014  0.26850259  1
  O2-  O193  1  0.03896980  0.08024582  0.59668660  1
  O2-  O194  1  0.04421686  0.08148680  0.93635910  1
  O2-  O195  1  0.05434690  0.58368844  0.26880113  1
  O2-  O196  1  0.04251490  0.59023451  0.60407577  1
  O2-  O197  1  0.04229449  0.58971756  0.93799888  1
  O2-  O198  1  0.53752620  0.08552095  0.27490069  1
  O2-  O199  1  0.54228562  0.08721976  0.60007744  1
  O2-  O200  1  0.53657107  0.08276188  0.92971855  1
  O2-  O201  1  0.53998183  0.58605604  0.26984929  1
  O2-  O202  1  0.55362239  0.57632215  0.59898108  1
  O2-  O203  1  0.55961351  0.58293420  0.94066394  1
  O2-  O204  1  0.16792871  0.20524825  0.26927587  1
  O2-  O205  1  0.17412664  0.19698643  0.60107678  1
  O2-  O206  1  0.16709870  0.19489094  0.93725562  1
  O2-  O207  1  0.16538940  0.71097388  0.26545680  1
  O2-  O208  1  0.16040722  0.71075453  0.60432828  1
  O2-  O209  1  0.15947352  0.71245227  0.93521039  1
  O2-  O210  1  0.66086544  0.20171456  0.27282482  1
  O2-  O211  1  0.66325902  0.20457113  0.60144567  1
  O2-  O212  1  0.66903351  0.20127845  0.92915312  1
  O2-  O213  1  0.66167651  0.70446623  0.26922143  1
  O2-  O214  1  0.66825911  0.71465287  0.59516322  1
  O2-  O215  1  0.66540198  0.71355897  0.93838372  1
  O2-  O216  1  0.08611310  0.46485160  0.07232929  1
  O2-  O217  1  0.08556585  0.45513631  0.39513482  1
  O2-  O218  1  0.08340747  0.46195349  0.73389297  1
  O2-  O219  1  0.08405844  0.95515066  0.06489355  1
  O2-  O220  1  0.08376857  0.95092061  0.39194244  1
  O2-  O221  1  0.08205438  0.96218052  0.73702482  1
  O2-  O222  1  0.58519167  0.44911685  0.06083577  1
  O2-  O223  1  0.58303719  0.45832114  0.40292071  1
  O2-  O224  1  0.58454474  0.44930357  0.73129480  1
  O2-  O225  1  0.58030597  0.96154080  0.06585421  1
  O2-  O226  1  0.58238788  0.96001657  0.40789790  1
  O2-  O227  1  0.58639362  0.95944391  0.72732900  1
  O2-  O228  1  0.19873424  0.32459654  0.06711404  1
  O2-  O229  1  0.20319953  0.33465956  0.39741309  1
  O2-  O230  1  0.20354687  0.32732015  0.73130042  1
  O2-  O231  1  0.20376942  0.83671912  0.06511674  1
  O2-  O232  1  0.20536875  0.83599519  0.39465859  1
  O2-  O233  1  0.20600226  0.83502865  0.73572540  1
  O2-  O234  1  0.70386576  0.32989367  0.05720290  1
  O2-  O235  1  0.70079344  0.32732299  0.39917458  1
  O2-  O236  1  0.70242387  0.33019091  0.73134976  1
  O2-  O237  1  0.71038213  0.83822908  0.06975481  1
  O2-  O238  1  0.70336571  0.82812584  0.40214656  1
  O2-  O239  1  0.70867753  0.84019565  0.73098589  1
  O2-  O240  1  0.45758941  0.41372863  0.27449520  1
  O2-  O241  1  0.45712579  0.41250998  0.60451186  1
  O2-  O242  1  0.45467313  0.42178888  0.93251392  1
  O2-  O243  1  0.45763249  0.91423803  0.27400022  1
  O2-  O244  1  0.45830266  0.91870093  0.59626232  1
  O2-  O245  1  0.45967670  0.91298117  0.93020006  1
  O2-  O246  1  0.96117231  0.41709914  0.26386082  1
  O2-  O247  1  0.95945351  0.42284739  0.59737496  1
  O2-  O248  1  0.96470204  0.42040502  0.93487189  1
  O2-  O249  1  0.95996256  0.91548080  0.26162438  1
  O2-  O250  1  0.95555062  0.91384698  0.60824208  1
  O2-  O251  1  0.95510010  0.91377938  0.93771847  1
  O2-  O252  1  0.33653717  0.29441012  0.27419981  1
  O2-  O253  1  0.33845371  0.29177336  0.60377066  1
  O2-  O254  1  0.33010150  0.29029195  0.93390766  1
  O2-  O255  1  0.33627568  0.79506541  0.27078228  1
  O2-  O256  1  0.32629094  0.79734966  0.59744361  1
  O2-  O257  1  0.32886453  0.79273260  0.93486709  1
  O2-  O258  1  0.83134954  0.28769706  0.26603897  1
  O2-  O259  1  0.83103849  0.29379421  0.59879353  1
  O2-  O260  1  0.83660757  0.29473357  0.92738989  1
  O2-  O261  1  0.82978818  0.79125789  0.26559774  1
  O2-  O262  1  0.83620326  0.79462112  0.60730157  1
  O2-  O263  1  0.83473965  0.79414829  0.93893684  1
  O2-  O264  1  0.41023281  0.03777196  0.06074721  1
  O2-  O265  1  0.41342300  0.03994647  0.40493251  1
  O2-  O266  1  0.41820023  0.04356067  0.73188292  1
  O2-  O267  1  0.42546951  0.55097683  0.06474085  1
  O2-  O268  1  0.41605216  0.54117097  0.40323239  1
  O2-  O269  1  0.42513226  0.54950969  0.73032054  1
  O2-  O270  1  0.91458699  0.04560086  0.06257295  1
  O2-  O271  1  0.92294995  0.04475296  0.39745424  1
  O2-  O272  1  0.91077183  0.04338458  0.73134965  1
  O2-  O273  1  0.91782681  0.54414366  0.06876022  1
  O2-  O274  1  0.92429145  0.54732138  0.39686578  1
  O2-  O275  1  0.91666537  0.54371954  0.73435123  1
  O2-  O276  1  0.29362070  0.15997117  0.06200077  1
  O2-  O277  1  0.29231120  0.16806930  0.40219404  1
  O2-  O278  1  0.30081019  0.16518860  0.73240914  1
  O2-  O279  1  0.28649802  0.66748325  0.06865459  1
  O2-  O280  1  0.28929469  0.66843593  0.40072517  1
  O2-  O281  1  0.29130672  0.67012440  0.73220625  1
  O2-  O282  1  0.79963611  0.16929484  0.05570046  1
  O2-  O283  1  0.78971936  0.16569933  0.40394650  1
  O2-  O284  1  0.79219404  0.16476624  0.72849338  1
  O2-  O285  1  0.78898239  0.66665416  0.06926734  1
  O2-  O286  1  0.79237304  0.66739135  0.39977380  1
  O2-  O287  1  0.78736574  0.66788501  0.73520878  1
