# generated using pymatgen
data_Ca2Al2SiO7
_symmetry_space_group_name_H-M   'P 1'
_cell_length_a   15.45669603
_cell_length_b   15.45671828
_cell_length_c   15.28233536
_cell_angle_alpha   90.01026376
_cell_angle_beta   89.99390492
_cell_angle_gamma   89.98777927
_symmetry_Int_Tables_number   1
_chemical_formula_structural   Ca2Al2SiO7
_chemical_formula_sum   'Ca48 Al48 Si24 O168'
_cell_volume   3651.09946255
_cell_formula_units_Z   24
loop_
 _symmetry_equiv_pos_site_id
 _symmetry_equiv_pos_as_xyz
  1  'x, y, z'
loop_
 _atom_type_symbol
 _atom_type_oxidation_number
  Ca2+  2.0
  Al0+  0.0
  Si0+  0.0
  O2-  -2.0
loop_
 _atom_site_type_symbol
 _atom_site_label
 _atom_site_symmetry_multiplicity
 _atom_site_fract_x
 _atom_site_fract_y
 _atom_site_fract_z
 _atom_site_occupancy
  Ca2+  Ca0  1  0.16455310  0.07390604  0.17268463  1
  Ca2+  Ca1  1  0.17446155  0.07991565  0.50096722  1
  Ca2+  Ca2  1  0.16617862  0.08352327  0.83557225  1
  Ca2+  Ca3  1  0.16060666  0.57709431  0.17308963  1
  Ca2+  Ca4  1  0.17000207  0.57486296  0.50617225  1
  Ca2+  Ca5  1  0.17183668  0.58807783  0.83603006  1
  Ca2+  Ca6  1  0.67493941  0.07532790  0.17300075  1
  Ca2+  Ca7  1  0.67402878  0.07827402  0.50515369  1
  Ca2+  Ca8  1  0.66654847  0.06657958  0.83736185  1
  Ca2+  Ca9  1  0.66350335  0.58885260  0.16968620  1
  Ca2+  Ca10  1  0.66980356  0.58565987  0.50524801  1
  Ca2+  Ca11  1  0.67302700  0.58700087  0.83577818  1
  Ca2+  Ca12  1  0.08212106  0.32741669  0.16512233  1
  Ca2+  Ca13  1  0.07799033  0.32949137  0.49630143  1
  Ca2+  Ca14  1  0.08275354  0.31932316  0.82485945  1
  Ca2+  Ca15  1  0.07643661  0.84233592  0.16022622  1
  Ca2+  Ca16  1  0.07421667  0.83679179  0.49386735  1
  Ca2+  Ca17  1  0.07344044  0.83820953  0.83153286  1
  Ca2+  Ca18  1  0.57570619  0.33045548  0.16701375  1
  Ca2+  Ca19  1  0.56996162  0.33507815  0.49504839  1
  Ca2+  Ca20  1  0.57770232  0.32765647  0.82659638  1
  Ca2+  Ca21  1  0.58151333  0.82659784  0.16390369  1
  Ca2+  Ca22  1  0.57357065  0.83378787  0.49604249  1
  Ca2+  Ca23  1  0.58450830  0.83255496  0.82699228  1
  Ca2+  Ca24  1  0.32547162  0.41840775  0.17766898  1
  Ca2+  Ca25  1  0.33218060  0.41722748  0.50538028  1
  Ca2+  Ca26  1  0.33885479  0.42300727  0.83167207  1
  Ca2+  Ca27  1  0.32063575  0.91869195  0.17763595  1
  Ca2+  Ca28  1  0.33625807  0.92194818  0.50632305  1
  Ca2+  Ca29  1  0.32917064  0.92115410  0.83706613  1
  Ca2+  Ca30  1  0.83303104  0.41836017  0.17617914  1
  Ca2+  Ca31  1  0.83836332  0.42176118  0.50862816  1
  Ca2+  Ca32  1  0.84370658  0.42290965  0.83127467  1
  Ca2+  Ca33  1  0.83435662  0.91550155  0.17210014  1
  Ca2+  Ca34  1  0.83159553  0.91568294  0.50419980  1
  Ca2+  Ca35  1  0.82542101  0.90460990  0.83650940  1
  Ca2+  Ca36  1  0.40299105  0.17151999  0.17095738  1
  Ca2+  Ca37  1  0.40807069  0.17150591  0.49632411  1
  Ca2+  Ca38  1  0.41401083  0.17043495  0.82189419  1
  Ca2+  Ca39  1  0.42563341  0.67127860  0.16616081  1
  Ca2+  Ca40  1  0.41738266  0.67704452  0.49487516  1
  Ca2+  Ca41  1  0.42061956  0.67395644  0.82554661  1
  Ca2+  Ca42  1  0.91909058  0.16781274  0.16416731  1
  Ca2+  Ca43  1  0.91925039  0.17253175  0.49395227  1
  Ca2+  Ca44  1  0.93103027  0.16703073  0.82494960  1
  Ca2+  Ca45  1  0.92550831  0.67979031  0.16059241  1
  Ca2+  Ca46  1  0.91072623  0.67676439  0.49750919  1
  Ca2+  Ca47  1  0.92079970  0.67446489  0.83006263  1
  Al0+  Al48  1  -0.00024886  0.00328650  -0.00622330  1
  Al0+  Al49  1  -0.00063963  0.00133742  0.33827831  1
  Al0+  Al50  1  0.00079508  -0.00063504  0.65721703  1
  Al0+  Al51  1  0.00070194  0.50238993  -0.00109744  1
  Al0+  Al52  1  -0.00156609  0.49920516  0.33516988  1
  Al0+  Al53  1  0.00110926  0.49893356  0.67094513  1
  Al0+  Al54  1  0.50139484  0.00250715  0.00829572  1
  Al0+  Al55  1  0.50039613  -0.00008617  0.33171969  1
  Al0+  Al56  1  0.50036042  -0.00089276  0.67217495  1
  Al0+  Al57  1  0.50110564  0.50130642  -0.00274772  1
  Al0+  Al58  1  0.50018654  0.49836274  0.32530142  1
  Al0+  Al59  1  0.50078628  0.49869605  0.66849351  1
  Al0+  Al60  1  0.24879508  0.25364261  -0.00460258  1
  Al0+  Al61  1  0.24802986  0.25005157  0.33613248  1
  Al0+  Al62  1  0.25029422  0.24862652  0.66310671  1
  Al0+  Al63  1  0.25155952  0.75087695  0.00319018  1
  Al0+  Al64  1  0.24950609  0.74794046  0.33369688  1
  Al0+  Al65  1  0.25033256  0.74929355  0.66771914  1
  Al0+  Al66  1  0.74679301  0.25208717  -0.00090117  1
  Al0+  Al67  1  0.74871080  0.25081021  0.33399260  1
  Al0+  Al68  1  0.75077302  0.24886836  0.66628493  1
  Al0+  Al69  1  0.74861116  0.74838621  -0.00065552  1
  Al0+  Al70  1  0.75153235  0.74946336  0.32571637  1
  Al0+  Al71  1  0.75163486  0.74741543  0.67093992  1
  Al0+  Al72  1  0.92835368  0.81787028  0.65159814  1
  Al0+  Al73  1  0.67960298  0.92692857  0.01681879  1
  Al0+  Al74  1  0.07269065  0.17705324  0.64657092  1
  Al0+  Al75  1  0.07022518  0.18110959  0.98690326  1
  Al0+  Al76  1  0.93009092  0.82180143  0.98445844  1
  Al0+  Al77  1  0.56908965  0.67991584  0.98295855  1
  Al0+  Al78  1  0.82170305  0.56947985  0.68142475  1
  Al0+  Al79  1  0.92749257  0.32210709  0.31947595  1
  Al0+  Al80  1  0.32211185  0.57167767  0.68000623  1
  Al0+  Al81  1  0.32176490  0.06926154  0.34836901  1
  Al0+  Al82  1  0.57074768  0.67980782  0.31941301  1
  Al0+  Al83  1  0.68115581  0.92976900  0.67882250  1
  Al0+  Al84  1  0.92920302  0.32137124  0.65204966  1
  Al0+  Al85  1  0.93169049  0.82236151  0.31953099  1
  Al0+  Al86  1  0.82020832  0.07230500  0.34693488  1
  Al0+  Al87  1  0.17732566  0.42990156  0.34748258  1
  Al0+  Al88  1  0.17765356  0.92545952  0.34980605  1
  Al0+  Al89  1  0.42867801  0.82168328  0.65565287  1
  Al0+  Al90  1  0.31951789  0.07019493  0.68114297  1
  Al0+  Al91  1  0.42587220  0.82415734  0.31762411  1
  Al0+  Al92  1  0.07433049  0.67734189  0.98488210  1
  Al0+  Al93  1  0.17883935  0.93105290  0.01151587  1
  Al0+  Al94  1  0.43139519  0.32074463  0.65306079  1
  Al0+  Al95  1  0.42734740  0.31858016  0.31886063  1
  Si0+  Si96  1  0.57342277  0.17783006  0.31639958  1
  Si0+  Si97  1  0.17960971  0.42801587  0.68543375  1
  Si0+  Si98  1  0.07024921  0.17992743  0.31589228  1
  Si0+  Si99  1  0.67999087  0.92558826  0.34926217  1
  Si0+  Si100  1  0.67710508  0.42898074  0.34769691  1
  Si0+  Si101  1  0.32450403  0.56971011  0.34883641  1
  Si0+  Si102  1  0.82430609  0.07274271  0.68332602  1
  Si0+  Si103  1  0.92519312  0.32343800  0.98455714  1
  Si0+  Si104  1  0.57206913  0.67829242  0.65200631  1
  Si0+  Si105  1  0.42936310  0.32007432  0.98447092  1
  Si0+  Si106  1  0.81920503  0.57042978  0.34685237  1
  Si0+  Si107  1  0.07344503  0.67721832  0.65016413  1
  Si0+  Si108  1  0.17631650  0.92696171  0.68346364  1
  Si0+  Si109  1  0.67739702  0.42617767  0.68376738  1
  Si0+  Si110  1  0.32186166  0.07589616  0.01621299  1
  Si0+  Si111  1  0.82057206  0.07407866  0.01427053  1
  Si0+  Si112  1  0.57207033  0.17885667  0.98518565  1
  Si0+  Si113  1  0.07148072  0.67632360  0.31995980  1
  Si0+  Si114  1  0.57215272  0.17555028  0.65107821  1
  Si0+  Si115  1  0.42874168  0.82481723  0.98458312  1
  Si0+  Si116  1  0.32352050  0.57090138  0.01610977  1
  Si0+  Si117  1  0.67733844  0.42879331  0.01682192  1
  Si0+  Si118  1  0.82100622  0.56932511  0.01736763  1
  Si0+  Si119  1  0.18011733  0.42992809  0.01416110  1
  O2-  O120  1  0.25540050  0.00467942  0.05824363  1
  O2-  O121  1  0.25590542  -0.00820473  0.39851609  1
  O2-  O122  1  0.24461784  -0.00378953  0.72817865  1
  O2-  O123  1  0.24787487  0.50383579  0.05728702  1
  O2-  O124  1  0.25308114  0.50402847  0.39317835  1
  O2-  O125  1  0.24782893  0.49753820  0.72975121  1
  O2-  O126  1  0.75630436  0.00180482  0.05995637  1
  O2-  O127  1  0.74648072  -0.00369049  0.39334474  1
  O2-  O128  1  0.75706964  0.00305564  0.72792602  1
  O2-  O129  1  0.75138060  0.49624633  0.05947808  1
  O2-  O130  1  0.74779277  0.49988754  0.38946334  1
  O2-  O131  1  0.74949728  0.49127093  0.72827908  1
  O2-  O132  1  -0.00006242  0.24717939  0.27086830  1
  O2-  O133  1  -0.00225237  0.24824716  0.59986596  1
  O2-  O134  1  -0.00696077  0.25436229  0.94142289  1
  O2-  O135  1  0.01160033  0.75212458  0.27467771  1
  O2-  O136  1  0.00465419  0.74463567  0.60482853  1
  O2-  O137  1  0.00491933  0.75169058  0.93522133  1
  O2-  O138  1  0.49915597  0.24110425  0.27139164  1
  O2-  O139  1  0.50602118  0.24625569  0.60626165  1
  O2-  O140  1  0.49671116  0.24540388  0.94302897  1
  O2-  O141  1  0.49925864  0.75227137  0.26902064  1
  O2-  O142  1  0.50188347  0.74507942  0.60888047  1
  O2-  O143  1  0.49811027  0.75817418  0.93756250  1
  O2-  O144  1  0.07131300  0.18381340  0.09990932  1
  O2-  O145  1  0.07002476  0.18253132  0.42093966  1
  O2-  O146  1  0.07233226  0.17892024  0.76099574  1
  O2-  O147  1  0.06885055  0.67069113  0.09823507  1
  O2-  O148  1  0.06634658  0.67242409  0.42531778  1
  O2-  O149  1  0.07311429  0.67881733  0.75578274  1
  O2-  O150  1  0.57630696  0.18265344  0.08983286  1
  O2-  O151  1  0.57688962  0.18256289  0.42171209  1
  O2-  O152  1  0.57005269  0.17718123  0.75740047  1
  O2-  O153  1  0.56622264  0.67675731  0.09567778  1
  O2-  O154  1  0.57160873  0.67862113  0.43303782  1
  O2-  O155  1  0.57131038  0.67929526  0.75783399  1
  O2-  O156  1  0.17806816  0.43119045  0.23334478  1
  O2-  O157  1  0.17907941  0.43022200  0.57983929  1
  O2-  O158  1  0.18336242  0.42687213  0.90943863  1
  O2-  O159  1  0.17493500  0.93061140  0.23568560  1
  O2-  O160  1  0.17787619  0.92570203  0.57825990  1
  O2-  O161  1  0.18019295  0.93311544  0.89843197  1
  O2-  O162  1  0.67782316  0.42849543  0.24216447  1
  O2-  O163  1  0.67403190  0.42877282  0.57827057  1
  O2-  O164  1  0.67530477  0.42755509  0.91203749  1
  O2-  O165  1  0.68274241  0.92621641  0.24343596  1
  O2-  O166  1  0.68103411  0.93123608  0.56572955  1
  O2-  O167  1  0.67796417  0.92866972  0.90357564  1
  O2-  O168  1  0.42876358  0.32004983  0.08953723  1
  O2-  O169  1  0.43038974  0.32157405  0.43141455  1
  O2-  O170  1  0.43388190  0.32042329  0.76700162  1
  O2-  O171  1  0.42947297  0.82142143  0.08988305  1
  O2-  O172  1  0.42907502  0.82290587  0.43155956  1
  O2-  O173  1  0.43023718  0.82130011  0.76902197  1
  O2-  O174  1  0.92424058  0.32333744  0.09027360  1
  O2-  O175  1  0.92846400  0.32356417  0.43180503  1
  O2-  O176  1  0.93261104  0.32048966  0.76631083  1
  O2-  O177  1  0.93145218  0.82139544  0.09825781  1
  O2-  O178  1  0.92681900  0.81769979  0.43246007  1
  O2-  O179  1  0.92776239  0.81635231  0.76451506  1
  O2-  O180  1  0.31495858  0.07254869  0.23419950  1
  O2-  O181  1  0.32105826  0.06953756  0.56879176  1
  O2-  O182  1  0.32296661  0.07765180  0.91064780  1
  O2-  O183  1  0.32476140  0.56613013  0.24268158  1
  O2-  O184  1  0.32102757  0.56997199  0.56704956  1
  O2-  O185  1  0.32591016  0.56738181  0.91100691  1
  O2-  O186  1  0.81871991  0.07281108  0.23322797  1
  O2-  O187  1  0.82016168  0.07426813  0.57780589  1
  O2-  O188  1  0.81592805  0.07769453  0.90903225  1
  O2-  O189  1  0.81935134  0.56815419  0.24156253  1
  O2-  O190  1  0.81751548  0.57092094  0.56798234  1
  O2-  O191  1  0.82067329  0.56719424  0.91229833  1
  O2-  O192  1  0.04350894  0.08615603  0.27157960  1
  O2-  O193  1  0.04717399  0.07919974  0.59281990  1
  O2-  O194  1  0.04087530  0.08710441  0.92817494  1
  O2-  O195  1  0.03705704  0.58648187  0.27067153  1
  O2-  O196  1  0.04889854  0.58211006  0.60740696  1
  O2-  O197  1  0.04407294  0.57969425  0.92979723  1
  O2-  O198  1  0.55517621  0.08246507  0.27156306  1
  O2-  O199  1  0.54533954  0.08308441  0.60552228  1
  O2-  O200  1  0.54793424  0.08503909  0.94038680  1
  O2-  O201  1  0.54299475  0.58201321  0.26309519  1
  O2-  O202  1  0.54935111  0.58332835  0.60806656  1
  O2-  O203  1  0.53764163  0.58310401  0.92875171  1
  O2-  O204  1  0.16235989  0.20883552  0.26906963  1
  O2-  O205  1  0.16970674  0.20879636  0.59459263  1
  O2-  O206  1  0.16510437  0.21580278  0.93047643  1
  O2-  O207  1  0.16846511  0.68909944  0.27662475  1
  O2-  O208  1  0.16713310  0.70075649  0.60387332  1
  O2-  O209  1  0.17571482  0.70047137  0.93607018  1
  O2-  O210  1  0.66301448  0.21126989  0.26631656  1
  O2-  O211  1  0.66706112  0.19807543  0.60664376  1
  O2-  O212  1  0.66061598  0.21179452  0.93388082  1
  O2-  O213  1  0.66799383  0.70723929  0.26277253  1
  O2-  O214  1  0.66529792  0.70439156  0.60683876  1
  O2-  O215  1  0.66728855  0.70626336  0.93108242  1
  O2-  O216  1  0.08657898  0.45434291  0.06058147  1
  O2-  O217  1  0.08173948  0.46198191  0.40288611  1
  O2-  O218  1  0.08667481  0.45232346  0.73349343  1
  O2-  O219  1  0.08178014  0.96505744  0.06380182  1
  O2-  O220  1  0.08171956  0.95932038  0.40391047  1
  O2-  O221  1  0.08173585  0.95430150  0.72697875  1
  O2-  O222  1  0.58629832  0.45989871  0.06465432  1
  O2-  O223  1  0.58513451  0.45793995  0.39416823  1
  O2-  O224  1  0.58615826  0.45474107  0.73370889  1
  O2-  O225  1  0.58453921  0.96086881  0.07295369  1
  O2-  O226  1  0.58488718  0.94915590  0.39252607  1
  O2-  O227  1  0.58677455  0.96181218  0.73722866  1
  O2-  O228  1  0.21179008  0.33980443  0.06343852  1
  O2-  O229  1  0.20792136  0.33433610  0.40143784  1
  O2-  O230  1  0.20816306  0.33473684  0.72998564  1
  O2-  O231  1  0.20604965  0.83345098  0.06651971  1
  O2-  O232  1  0.19664944  0.82321284  0.39911819  1
  O2-  O233  1  0.20129166  0.83342455  0.72991374  1
  O2-  O234  1  0.70180210  0.33601554  0.06512481  1
  O2-  O235  1  0.70260313  0.33771500  0.39596746  1
  O2-  O236  1  0.69848737  0.33063638  0.72911886  1
  O2-  O237  1  0.70838537  0.82924546  0.06931057  1
  O2-  O238  1  0.70871675  0.83239633  0.39393502  1
  O2-  O239  1  0.71131507  0.83331490  0.73380449  1
  O2-  O240  1  0.46185712  0.41215009  0.26080764  1
  O2-  O241  1  0.46331526  0.41703965  0.59896187  1
  O2-  O242  1  0.46255239  0.41020125  0.93741275  1
  O2-  O243  1  0.45234725  0.92287283  0.26404357  1
  O2-  O244  1  0.46304081  0.91716978  0.60245876  1
  O2-  O245  1  0.45218778  0.92136541  0.94349237  1
  O2-  O246  1  0.95900748  0.41844655  0.26471048  1
  O2-  O247  1  0.95821325  0.42082117  0.60149411  1
  O2-  O248  1  0.95261101  0.41682119  0.93994467  1
  O2-  O249  1  0.95771161  0.92115122  0.26764734  1
  O2-  O250  1  0.95471235  0.91490006  0.59744527  1
  O2-  O251  1  0.95341049  0.92092239  0.93088392  1
  O2-  O252  1  0.32999149  0.28955473  0.26446731  1
  O2-  O253  1  0.33477323  0.29225172  0.60033517  1
  O2-  O254  1  0.33736198  0.29725963  0.93551442  1
  O2-  O255  1  0.32737535  0.79362776  0.26497311  1
  O2-  O256  1  0.33211657  0.79176687  0.60176682  1
  O2-  O257  1  0.33553971  0.79782689  0.93908328  1
  O2-  O258  1  0.82956789  0.29396435  0.26606448  1
  O2-  O259  1  0.82778123  0.29915924  0.60199689  1
  O2-  O260  1  0.83020925  0.30165889  0.93907570  1
  O2-  O261  1  0.83796361  0.78707744  0.26284876  1
  O2-  O262  1  0.83250126  0.78268385  0.59849190  1
  O2-  O263  1  0.83255202  0.78730191  0.93409434  1
  O2-  O264  1  0.41658534  0.05701799  0.06311108  1
  O2-  O265  1  0.42431914  0.05097091  0.39794186  1
  O2-  O266  1  0.41589588  0.04082663  0.73732616  1
  O2-  O267  1  0.41329309  0.53624744  0.06382754  1
  O2-  O268  1  0.41719120  0.53946078  0.39362662  1
  O2-  O269  1  0.41800826  0.53871059  0.73580338  1
  O2-  O270  1  0.91615752  0.05356170  0.05746657  1
  O2-  O271  1  0.91588958  0.04480712  0.40243505  1
  O2-  O272  1  0.91964674  0.04756468  0.72503585  1
  O2-  O273  1  0.91362569  0.54316557  0.06470899  1
  O2-  O274  1  0.90946819  0.54201813  0.39600468  1
  O2-  O275  1  0.91827752  0.54024679  0.73781575  1
  O2-  O276  1  0.29270152  0.17005574  0.06034557  1
  O2-  O277  1  0.28904977  0.16679311  0.40078108  1
  O2-  O278  1  0.28996885  0.16811960  0.73458491  1
  O2-  O279  1  0.30236909  0.66408336  0.06302602  1
  O2-  O280  1  0.30346730  0.66467042  0.39301503  1
  O2-  O281  1  0.29185573  0.66756786  0.73667126  1
  O2-  O282  1  0.79045756  0.16699716  0.06158287  1
  O2-  O283  1  0.78669655  0.16821808  0.40160839  1
  O2-  O284  1  0.79951833  0.16650260  0.73057207  1
  O2-  O285  1  0.79014021  0.65983601  0.06451536  1
  O2-  O286  1  0.79026341  0.66246022  0.39307758  1
  O2-  O287  1  0.78756251  0.66275682  0.73933720  1
