# generated using pymatgen
data_Ca2Al2SiO7
_symmetry_space_group_name_H-M   'P 1'
_cell_length_a   15.45673021
_cell_length_b   15.45692709
_cell_length_c   15.28339391
_cell_angle_alpha   90.00243721
_cell_angle_beta   90.01032631
_cell_angle_gamma   89.99419985
_symmetry_Int_Tables_number   1
_chemical_formula_structural   Ca2Al2SiO7
_chemical_formula_sum   'Ca48 Al48 Si24 O168'
_cell_volume   3651.40984176
_cell_formula_units_Z   24
loop_
 _symmetry_equiv_pos_site_id
 _symmetry_equiv_pos_as_xyz
  1  'x, y, z'
loop_
 _atom_type_symbol
 _atom_type_oxidation_number
  Ca2+  2.0
  Al0+  0.0
  Si0+  0.0
  O2-  -2.0
loop_
 _atom_site_type_symbol
 _atom_site_label
 _atom_site_symmetry_multiplicity
 _atom_site_fract_x
 _atom_site_fract_y
 _atom_site_fract_z
 _atom_site_occupancy
  Ca2+  Ca0  1  0.16599774  0.08567168  0.17168697  1
  Ca2+  Ca1  1  0.15782705  0.08034483  0.51002790  1
  Ca2+  Ca2  1  0.16062407  0.07988417  0.83018889  1
  Ca2+  Ca3  1  0.16765440  0.57198586  0.17207050  1
  Ca2+  Ca4  1  0.16653080  0.57399021  0.50775189  1
  Ca2+  Ca5  1  0.16101370  0.57588335  0.84069551  1
  Ca2+  Ca6  1  0.66172191  0.07904432  0.16660352  1
  Ca2+  Ca7  1  0.67803600  0.07818301  0.50986368  1
  Ca2+  Ca8  1  0.66861842  0.07807780  0.84167000  1
  Ca2+  Ca9  1  0.67040056  0.57793239  0.17250023  1
  Ca2+  Ca10  1  0.66725211  0.58642148  0.49751262  1
  Ca2+  Ca11  1  0.67271404  0.58409157  0.84325639  1
  Ca2+  Ca12  1  0.08355901  0.33601706  0.16015670  1
  Ca2+  Ca13  1  0.09366273  0.32522310  0.49777573  1
  Ca2+  Ca14  1  0.07798227  0.33638582  0.82890148  1
  Ca2+  Ca15  1  0.07441637  0.82290449  0.16176965  1
  Ca2+  Ca16  1  0.07447014  0.83407692  0.49833963  1
  Ca2+  Ca17  1  0.08118129  0.82030814  0.82317763  1
  Ca2+  Ca18  1  0.58206226  0.33553314  0.15463578  1
  Ca2+  Ca19  1  0.57778770  0.33917266  0.49582814  1
  Ca2+  Ca20  1  0.57191255  0.34324483  0.83205564  1
  Ca2+  Ca21  1  0.58625214  0.82131146  0.15967590  1
  Ca2+  Ca22  1  0.58558508  0.81945479  0.49535265  1
  Ca2+  Ca23  1  0.59124884  0.82325988  0.83260690  1
  Ca2+  Ca24  1  0.32608554  0.41859480  0.17114645  1
  Ca2+  Ca25  1  0.32630386  0.42025615  0.50219167  1
  Ca2+  Ca26  1  0.32431131  0.40790367  0.83500960  1
  Ca2+  Ca27  1  0.33298331  0.92023744  0.16969345  1
  Ca2+  Ca28  1  0.32450207  0.92102702  0.50886318  1
  Ca2+  Ca29  1  0.32647154  0.91460862  0.83614216  1
  Ca2+  Ca30  1  0.82771057  0.42639036  0.16804155  1
  Ca2+  Ca31  1  0.82770181  0.42202208  0.50028488  1
  Ca2+  Ca32  1  0.83004299  0.42387758  0.84776769  1
  Ca2+  Ca33  1  0.82875041  0.91261906  0.16828394  1
  Ca2+  Ca34  1  0.84329015  0.91907508  0.50797902  1
  Ca2+  Ca35  1  0.83577893  0.92182623  0.83410969  1
  Ca2+  Ca36  1  0.42404404  0.17709153  0.15527463  1
  Ca2+  Ca37  1  0.41220236  0.17613822  0.49850904  1
  Ca2+  Ca38  1  0.42295353  0.17738326  0.83364409  1
  Ca2+  Ca39  1  0.42680317  0.65574638  0.16586565  1
  Ca2+  Ca40  1  0.42581346  0.65756762  0.49565696  1
  Ca2+  Ca41  1  0.43180495  0.65995689  0.83014000  1
  Ca2+  Ca42  1  0.92248360  0.17821817  0.16316641  1
  Ca2+  Ca43  1  0.92701315  0.16394323  0.49730859  1
  Ca2+  Ca44  1  0.91545801  0.17463301  0.82837726  1
  Ca2+  Ca45  1  0.91423474  0.66297234  0.16221243  1
  Ca2+  Ca46  1  0.91784210  0.67515240  0.49700627  1
  Ca2+  Ca47  1  0.92631954  0.66532164  0.82958311  1
  Al0+  Al48  1  0.00012580  -0.00036824  0.00328933  1
  Al0+  Al49  1  -0.00045460  0.00003503  0.32173724  1
  Al0+  Al50  1  0.00009030  0.00112198  0.67214049  1
  Al0+  Al51  1  0.00030373  0.49923046  0.00116159  1
  Al0+  Al52  1  -0.00173807  0.49885767  0.34372681  1
  Al0+  Al53  1  -0.00170042  0.49988215  0.66538709  1
  Al0+  Al54  1  0.49910661  0.00053481  0.00040468  1
  Al0+  Al55  1  0.49955143  -0.00042240  0.33656735  1
  Al0+  Al56  1  0.50094747  0.00006511  0.66796740  1
  Al0+  Al57  1  0.49843836  0.50065047  -0.00695506  1
  Al0+  Al58  1  0.49846020  0.49870569  0.33498146  1
  Al0+  Al59  1  0.49888291  0.49937723  0.65771074  1
  Al0+  Al60  1  0.25098350  0.24769609  0.00010216  1
  Al0+  Al61  1  0.25178953  0.24862540  0.33099897  1
  Al0+  Al62  1  0.25042934  0.25111887  0.66388153  1
  Al0+  Al63  1  0.24935555  0.74972110  -0.00102040  1
  Al0+  Al64  1  0.25022647  0.75179784  0.33682488  1
  Al0+  Al65  1  0.25277044  0.74850404  0.66811598  1
  Al0+  Al66  1  0.75231585  0.24864257  -0.00310686  1
  Al0+  Al67  1  0.75098304  0.24812767  0.33751614  1
  Al0+  Al68  1  0.74854127  0.25012938  0.67077202  1
  Al0+  Al69  1  0.75072663  0.75388472  0.00288481  1
  Al0+  Al70  1  0.74878202  0.74994304  0.32867069  1
  Al0+  Al71  1  0.75040554  0.74974244  0.65965739  1
  Al0+  Al72  1  0.82031465  0.57388486  0.35093972  1
  Al0+  Al73  1  0.56772636  0.67917231  0.31738122  1
  Al0+  Al74  1  0.57280494  0.17742786  0.98560171  1
  Al0+  Al75  1  0.67675152  0.42892904  0.01145253  1
  Al0+  Al76  1  0.07137814  0.18119593  0.31871371  1
  Al0+  Al77  1  0.17971392  0.92820865  0.68051248  1
  Al0+  Al78  1  0.82149851  0.57236201  0.01357583  1
  Al0+  Al79  1  0.06749370  0.18227513  0.65600733  1
  Al0+  Al80  1  0.17845708  0.42710578  0.34940077  1
  Al0+  Al81  1  0.32058701  0.57219414  0.34805933  1
  Al0+  Al82  1  0.93077342  0.32092707  0.98800025  1
  Al0+  Al83  1  0.57134205  0.68041647  0.98705139  1
  Al0+  Al84  1  0.92996359  0.81989797  0.31702569  1
  Al0+  Al85  1  0.67856262  0.42681952  0.34825515  1
  Al0+  Al86  1  0.82164258  0.07145728  0.68110502  1
  Al0+  Al87  1  0.07410707  0.67550267  0.65070741  1
  Al0+  Al88  1  0.42975541  0.31852773  0.64956702  1
  Al0+  Al89  1  0.93220696  0.82028951  0.65383235  1
  Al0+  Al90  1  0.42857901  0.32226749  0.98451376  1
  Al0+  Al91  1  0.57058130  0.68046462  0.65144455  1
  Al0+  Al92  1  0.67877175  0.93159968  0.01420513  1
  Al0+  Al93  1  0.18004167  0.42804097  0.01222893  1
  Al0+  Al94  1  0.07054041  0.67873077  0.98870158  1
  Al0+  Al95  1  0.17899881  0.42955013  0.68223711  1
  Si0+  Si96  1  0.32180297  0.57412380  0.01482611  1
  Si0+  Si97  1  0.07284117  0.17653088  0.98271072  1
  Si0+  Si98  1  0.82451984  0.07311747  0.01993901  1
  Si0+  Si99  1  0.31962293  0.06900709  0.01545266  1
  Si0+  Si100  1  0.92374941  0.32380032  0.64915880  1
  Si0+  Si101  1  0.81894842  0.57190381  0.68152903  1
  Si0+  Si102  1  0.92571332  0.32269284  0.31833836  1
  Si0+  Si103  1  0.32319978  0.07298381  0.68439260  1
  Si0+  Si104  1  0.32176774  0.07001964  0.34835477  1
  Si0+  Si105  1  0.92835273  0.82361754  0.98271407  1
  Si0+  Si106  1  0.67816278  0.92947592  0.34895855  1
  Si0+  Si107  1  0.17729633  0.93168169  0.34659363  1
  Si0+  Si108  1  0.42639036  0.82527991  0.31719248  1
  Si0+  Si109  1  0.42728493  0.82339641  0.98362324  1
  Si0+  Si110  1  0.32404900  0.57078930  0.68470937  1
  Si0+  Si111  1  0.82189685  0.06881660  0.34740903  1
  Si0+  Si112  1  0.67832589  0.92695258  0.68258843  1
  Si0+  Si113  1  0.67724364  0.43019058  0.68151141  1
  Si0+  Si114  1  0.43124207  0.31868394  0.31684613  1
  Si0+  Si115  1  0.07349821  0.67602569  0.31877328  1
  Si0+  Si116  1  0.57328505  0.17612445  0.64891767  1
  Si0+  Si117  1  0.57283290  0.17669063  0.32050977  1
  Si0+  Si118  1  0.42762659  0.82478777  0.65010840  1
  Si0+  Si119  1  0.17816788  0.92687013  0.01694321  1
  O2-  O120  1  0.24811981  -0.00108548  0.05930375  1
  O2-  O121  1  0.24955230  0.00070390  0.39033120  1
  O2-  O122  1  0.25726291  0.00093069  0.72777841  1
  O2-  O123  1  0.25470609  0.50326718  0.05787841  1
  O2-  O124  1  0.24475185  0.50476122  0.39898461  1
  O2-  O125  1  0.25001754  0.50822230  0.72906237  1
  O2-  O126  1  0.75270478  0.00665682  0.06302955  1
  O2-  O127  1  0.75097168  -0.00164386  0.39116693  1
  O2-  O128  1  0.74428397  -0.00166256  0.72607808  1
  O2-  O129  1  0.74598964  0.50284293  0.06217877  1
  O2-  O130  1  0.74883024  0.49995541  0.39978546  1
  O2-  O131  1  0.75062440  0.49822547  0.72360642  1
  O2-  O132  1  0.00103752  0.26046003  0.27420213  1
  O2-  O133  1  -0.00566035  0.25642084  0.60571094  1
  O2-  O134  1  0.00447201  0.24532657  0.94000473  1
  O2-  O135  1  0.00145813  0.74073541  0.27284837  1
  O2-  O136  1  0.00454573  0.75017865  0.60133991  1
  O2-  O137  1  -0.00360221  0.75377509  0.94097101  1
  O2-  O138  1  0.50638039  0.25079773  0.27687228  1
  O2-  O139  1  0.50467606  0.24330876  0.60252324  1
  O2-  O140  1  0.50717408  0.25547146  0.93596069  1
  O2-  O141  1  0.49091433  0.75351631  0.27252439  1
  O2-  O142  1  0.49574468  0.75622684  0.60572408  1
  O2-  O143  1  0.49557450  0.75455212  0.93972944  1
  O2-  O144  1  0.07262649  0.17595802  0.08866398  1
  O2-  O145  1  0.06936921  0.17637091  0.43168983  1
  O2-  O146  1  0.06612209  0.18229855  0.76889903  1
  O2-  O147  1  0.07170826  0.68121051  0.10200367  1
  O2-  O148  1  0.07498755  0.68184106  0.42394844  1
  O2-  O149  1  0.07060273  0.67597885  0.76457289  1
  O2-  O150  1  0.56681155  0.17523380  0.09986676  1
  O2-  O151  1  0.56965902  0.17382113  0.42552958  1
  O2-  O152  1  0.57233993  0.17506089  0.75397718  1
  O2-  O153  1  0.56857204  0.68120443  0.09989524  1
  O2-  O154  1  0.56682675  0.68275015  0.43062029  1
  O2-  O155  1  0.57171784  0.68165335  0.76465298  1
  O2-  O156  1  0.18197834  0.42547147  0.23554696  1
  O2-  O157  1  0.18338510  0.42710445  0.56939146  1
  O2-  O158  1  0.18049641  0.42800363  0.89915731  1
  O2-  O159  1  0.18002758  0.93308956  0.24122343  1
  O2-  O160  1  0.17999148  0.93288882  0.56681644  1
  O2-  O161  1  0.17901534  0.92703107  0.91206880  1
  O2-  O162  1  0.67870286  0.42455066  0.23503783  1
  O2-  O163  1  0.67840291  0.42995676  0.57635362  1
  O2-  O164  1  0.67821582  0.43273318  0.89736353  1
  O2-  O165  1  0.67539789  0.93320895  0.24405977  1
  O2-  O166  1  0.67740474  0.92852984  0.57662499  1
  O2-  O167  1  0.68039222  0.93151235  0.90105318  1
  O2-  O168  1  0.42551148  0.31824157  0.09839834  1
  O2-  O169  1  0.42962162  0.31508304  0.42206054  1
  O2-  O170  1  0.43066274  0.31776841  0.76224520  1
  O2-  O171  1  0.42665644  0.82561157  0.08928972  1
  O2-  O172  1  0.42946301  0.83232787  0.42232541  1
  O2-  O173  1  0.42816147  0.82684278  0.75563960  1
  O2-  O174  1  0.93300953  0.31980152  0.10130091  1
  O2-  O175  1  0.92092221  0.31605690  0.42370906  1
  O2-  O176  1  0.92351354  0.32331743  0.75481400  1
  O2-  O177  1  0.93089016  0.82578086  0.08854989  1
  O2-  O178  1  0.93386565  0.82634042  0.42966465  1
  O2-  O179  1  0.93100044  0.81859265  0.76728206  1
  O2-  O180  1  0.32359055  0.06836735  0.24317796  1
  O2-  O181  1  0.32324282  0.07179642  0.57822105  1
  O2-  O182  1  0.31942432  0.06755169  0.91063281  1
  O2-  O183  1  0.32141804  0.56849766  0.23420304  1
  O2-  O184  1  0.32594440  0.56758789  0.57917901  1
  O2-  O185  1  0.32060999  0.57780533  0.90943726  1
  O2-  O186  1  0.81987145  0.06969951  0.24257810  1
  O2-  O187  1  0.82122572  0.06938845  0.56717789  1
  O2-  O188  1  0.82830817  0.07005014  0.91454399  1
  O2-  O189  1  0.81873565  0.57310521  0.23751620  1
  O2-  O190  1  0.81687503  0.57257854  0.57659594  1
  O2-  O191  1  0.82148579  0.57167098  0.89931802  1
  O2-  O192  1  0.03770019  0.08759685  0.26023409  1
  O2-  O193  1  0.03597435  0.08552543  0.60266266  1
  O2-  O194  1  0.04669522  0.08166465  0.93924505  1
  O2-  O195  1  0.05140460  0.57920855  0.27815631  1
  O2-  O196  1  0.04192109  0.57863150  0.59731831  1
  O2-  O197  1  0.03960449  0.58330207  0.93396533  1
  O2-  O198  1  0.54044808  0.08587033  0.27284972  1
  O2-  O199  1  0.54994760  0.08118047  0.60321902  1
  O2-  O200  1  0.53557243  0.08208379  0.93099307  1
  O2-  O201  1  0.53659911  0.58152032  0.26582139  1
  O2-  O202  1  0.53843070  0.58552076  0.59554377  1
  O2-  O203  1  0.54128286  0.58562634  0.92955771  1
  O2-  O204  1  0.17019358  0.20552683  0.26487012  1
  O2-  O205  1  0.16500473  0.20873260  0.60115742  1
  O2-  O206  1  0.16721827  0.19844434  0.93808724  1
  O2-  O207  1  0.16634693  0.70578231  0.27239290  1
  O2-  O208  1  0.17543889  0.69944843  0.60236064  1
  O2-  O209  1  0.16663117  0.71039740  0.93356945  1
  O2-  O210  1  0.66689651  0.19806712  0.27516040  1
  O2-  O211  1  0.66724018  0.20261233  0.60358980  1
  O2-  O212  1  0.67458340  0.19267710  0.93650623  1
  O2-  O213  1  0.66295910  0.71262003  0.26364917  1
  O2-  O214  1  0.66509654  0.71247316  0.59443918  1
  O2-  O215  1  0.66767499  0.71500582  0.93421425  1
  O2-  O216  1  0.08505234  0.45981940  0.06776598  1
  O2-  O217  1  0.07819905  0.44466153  0.40235080  1
  O2-  O218  1  0.07892715  0.45564380  0.73236206  1
  O2-  O219  1  0.08664955  0.95481165  0.06527973  1
  O2-  O220  1  0.08576568  0.96390151  0.39126222  1
  O2-  O221  1  0.08651279  0.96294621  0.73772856  1
  O2-  O222  1  0.57608359  0.45433743  0.06150639  1
  O2-  O223  1  0.58001558  0.45487752  0.40062705  1
  O2-  O224  1  0.58517877  0.46164703  0.72553599  1
  O2-  O225  1  0.58144011  0.96120097  0.06879767  1
  O2-  O226  1  0.58740895  0.95872368  0.39863846  1
  O2-  O227  1  0.58371767  0.94936721  0.72866893  1
  O2-  O228  1  0.20932157  0.33018247  0.06554451  1
  O2-  O229  1  0.21491775  0.32930536  0.40030860  1
  O2-  O230  1  0.21380785  0.33305511  0.73448926  1
  O2-  O231  1  0.20776986  0.83622363  0.06584411  1
  O2-  O232  1  0.20145833  0.83973702  0.39480398  1
  O2-  O233  1  0.21010993  0.83122477  0.73501349  1
  O2-  O234  1  0.70468193  0.32887520  0.06141521  1
  O2-  O235  1  0.70597933  0.32781521  0.40342316  1
  O2-  O236  1  0.69888300  0.33658871  0.72783062  1
  O2-  O237  1  0.71089047  0.83699864  0.07128204  1
  O2-  O238  1  0.70428082  0.83700003  0.39392502  1
  O2-  O239  1  0.70765080  0.83387559  0.72729148  1
  O2-  O240  1  0.45482773  0.41133065  0.27088980  1
  O2-  O241  1  0.46161212  0.41337957  0.59337960  1
  O2-  O242  1  0.44989590  0.42061212  0.92844018  1
  O2-  O243  1  0.45599724  0.91790487  0.26906555  1
  O2-  O244  1  0.45192500  0.91919408  0.60345660  1
  O2-  O245  1  0.45200263  0.91649407  0.93679683  1
  O2-  O246  1  0.94497458  0.41956942  0.27749551  1
  O2-  O247  1  0.94674652  0.41748179  0.60340170  1
  O2-  O248  1  0.96215697  0.41585540  0.93184388  1
  O2-  O249  1  0.96377750  0.91341198  0.25803998  1
  O2-  O250  1  0.96168270  0.91929663  0.60244808  1
  O2-  O251  1  0.95657241  0.91735371  0.93793358  1
  O2-  O252  1  0.34174977  0.28550674  0.26828773  1
  O2-  O253  1  0.33483400  0.28523335  0.59405655  1
  O2-  O254  1  0.33317859  0.28338862  0.93111421  1
  O2-  O255  1  0.33046826  0.80576479  0.27279358  1
  O2-  O256  1  0.33393858  0.80069678  0.60390068  1
  O2-  O257  1  0.33329349  0.79872907  0.93780019  1
  O2-  O258  1  0.83523782  0.28839877  0.27012203  1
  O2-  O259  1  0.83008733  0.29616505  0.60400184  1
  O2-  O260  1  0.83531703  0.29110350  0.93107317  1
  O2-  O261  1  0.83171088  0.79434926  0.26428718  1
  O2-  O262  1  0.83445083  0.79334177  0.59837032  1
  O2-  O263  1  0.83376907  0.80267714  0.93833852  1
  O2-  O264  1  0.41004175  0.04016761  0.06535063  1
  O2-  O265  1  0.41229803  0.04187013  0.39891549  1
  O2-  O266  1  0.41809590  0.05004529  0.72964954  1
  O2-  O267  1  0.41575990  0.54776180  0.05895179  1
  O2-  O268  1  0.41610254  0.53756138  0.40280834  1
  O2-  O269  1  0.41642150  0.53760935  0.72969027  1
  O2-  O270  1  0.91692335  0.04395818  0.06828197  1
  O2-  O271  1  0.91456048  0.03823156  0.39165798  1
  O2-  O272  1  0.91500850  0.03894709  0.73905264  1
  O2-  O273  1  0.91743430  0.53931180  0.06830203  1
  O2-  O274  1  0.91849740  0.54914315  0.40618562  1
  O2-  O275  1  0.91172648  0.54612018  0.72768076  1
  O2-  O276  1  0.29166323  0.15960581  0.06535663  1
  O2-  O277  1  0.29535912  0.16194655  0.39515763  1
  O2-  O278  1  0.29313393  0.16466021  0.73009925  1
  O2-  O279  1  0.29673868  0.66731871  0.06296350  1
  O2-  O280  1  0.30263502  0.67438905  0.39926908  1
  O2-  O281  1  0.30909659  0.66744622  0.72830071  1
  O2-  O282  1  0.80226053  0.16746615  0.06515698  1
  O2-  O283  1  0.79576872  0.15948404  0.39757577  1
  O2-  O284  1  0.79183391  0.16831441  0.73563845  1
  O2-  O285  1  0.79810799  0.67238863  0.06468534  1
  O2-  O286  1  0.78802659  0.67256691  0.40217188  1
  O2-  O287  1  0.78828370  0.66345887  0.72763018  1
