# generated using pymatgen
data_Ca2Al2SiO7
_symmetry_space_group_name_H-M   'P 1'
_cell_length_a   15.46174541
_cell_length_b   15.46056899
_cell_length_c   15.28621409
_cell_angle_alpha   89.99340107
_cell_angle_beta   90.01544690
_cell_angle_gamma   89.99969217
_symmetry_Int_Tables_number   1
_chemical_formula_structural   Ca2Al2SiO7
_chemical_formula_sum   'Ca48 Al48 Si24 O168'
_cell_volume   3654.12929616
_cell_formula_units_Z   24
loop_
 _symmetry_equiv_pos_site_id
 _symmetry_equiv_pos_as_xyz
  1  'x, y, z'
loop_
 _atom_type_symbol
 _atom_type_oxidation_number
  Ca2+  2.0
  Al0+  0.0
  Si0+  0.0
  O2-  -2.0
loop_
 _atom_site_type_symbol
 _atom_site_label
 _atom_site_symmetry_multiplicity
 _atom_site_fract_x
 _atom_site_fract_y
 _atom_site_fract_z
 _atom_site_occupancy
  Ca2+  Ca0  1  0.16191312  0.08280333  0.17233245  1
  Ca2+  Ca1  1  0.17132194  0.09640822  0.49940284  1
  Ca2+  Ca2  1  0.16133185  0.08307849  0.84020002  1
  Ca2+  Ca3  1  0.16844984  0.57780853  0.17767269  1
  Ca2+  Ca4  1  0.17675211  0.56756556  0.50506641  1
  Ca2+  Ca5  1  0.16880116  0.58154602  0.83684048  1
  Ca2+  Ca6  1  0.67187899  0.07190658  0.17930721  1
  Ca2+  Ca7  1  0.66109616  0.07840601  0.50364429  1
  Ca2+  Ca8  1  0.66277998  0.07285114  0.83938731  1
  Ca2+  Ca9  1  0.67074868  0.58635614  0.17529875  1
  Ca2+  Ca10  1  0.67488719  0.58433837  0.49987458  1
  Ca2+  Ca11  1  0.67258898  0.58594858  0.83736004  1
  Ca2+  Ca12  1  0.07586125  0.32748728  0.16575412  1
  Ca2+  Ca13  1  0.08542901  0.33022545  0.49187430  1
  Ca2+  Ca14  1  0.08215481  0.32617389  0.82965295  1
  Ca2+  Ca15  1  0.07688038  0.82856941  0.15385453  1
  Ca2+  Ca16  1  0.08016187  0.82791450  0.49509394  1
  Ca2+  Ca17  1  0.08021877  0.83353877  0.83477015  1
  Ca2+  Ca18  1  0.57792417  0.32987722  0.16812584  1
  Ca2+  Ca19  1  0.57839503  0.32206152  0.48921894  1
  Ca2+  Ca20  1  0.58134964  0.32426969  0.82568715  1
  Ca2+  Ca21  1  0.59156807  0.82510115  0.16432488  1
  Ca2+  Ca22  1  0.58812689  0.83052791  0.49331883  1
  Ca2+  Ca23  1  0.59062608  0.83143567  0.83186568  1
  Ca2+  Ca24  1  0.32635969  0.41987459  0.18037218  1
  Ca2+  Ca25  1  0.32858271  0.41670288  0.50080558  1
  Ca2+  Ca26  1  0.32736741  0.41839000  0.83231657  1
  Ca2+  Ca27  1  0.32424613  0.92216584  0.17083011  1
  Ca2+  Ca28  1  0.33460340  0.92408233  0.49845172  1
  Ca2+  Ca29  1  0.32478959  0.92049760  0.84071013  1
  Ca2+  Ca30  1  0.84114025  0.42110991  0.17403197  1
  Ca2+  Ca31  1  0.84259961  0.42713766  0.50034367  1
  Ca2+  Ca32  1  0.83828259  0.42024696  0.83556650  1
  Ca2+  Ca33  1  0.82756613  0.91809985  0.17297778  1
  Ca2+  Ca34  1  0.82252178  0.92625971  0.49856136  1
  Ca2+  Ca35  1  0.82524781  0.91583330  0.84037437  1
  Ca2+  Ca36  1  0.41507644  0.16663508  0.17370386  1
  Ca2+  Ca37  1  0.42443837  0.16883244  0.48885553  1
  Ca2+  Ca38  1  0.42187918  0.16638640  0.82641116  1
  Ca2+  Ca39  1  0.42881900  0.65979542  0.16496962  1
  Ca2+  Ca40  1  0.41906341  0.66319368  0.49084829  1
  Ca2+  Ca41  1  0.42075057  0.66671990  0.82997604  1
  Ca2+  Ca42  1  0.92039858  0.17278704  0.16395226  1
  Ca2+  Ca43  1  0.92691858  0.17204102  0.48744601  1
  Ca2+  Ca44  1  0.92671291  0.16888767  0.83007096  1
  Ca2+  Ca45  1  0.92061493  0.67098713  0.15926415  1
  Ca2+  Ca46  1  0.90952051  0.66525529  0.49480536  1
  Ca2+  Ca47  1  0.91806950  0.67103494  0.83453384  1
  Al0+  Al48  1  -0.00108397  0.00023395  -0.00324235  1
  Al0+  Al49  1  -0.00347279  -0.00227212  0.33483482  1
  Al0+  Al50  1  -0.00140174  -0.00010978  0.66009335  1
  Al0+  Al51  1  0.00120352  0.49988810  -0.00643148  1
  Al0+  Al52  1  0.00131505  0.50035720  0.33901420  1
  Al0+  Al53  1  0.00155359  0.50149914  0.67665063  1
  Al0+  Al54  1  0.49933125  -0.00116131  0.00636010  1
  Al0+  Al55  1  0.49608339  -0.00320688  0.33543811  1
  Al0+  Al56  1  0.49887049  -0.00247308  0.66826552  1
  Al0+  Al57  1  0.50141389  0.49976786  -0.00596892  1
  Al0+  Al58  1  0.50184287  0.50066480  0.32890935  1
  Al0+  Al59  1  0.50105595  0.50088649  0.66965911  1
  Al0+  Al60  1  0.25134949  0.25282251  -0.00294430  1
  Al0+  Al61  1  0.24988446  0.24770549  0.33248887  1
  Al0+  Al62  1  0.25074557  0.25105882  0.66906978  1
  Al0+  Al63  1  0.25295365  0.75131081  0.00177069  1
  Al0+  Al64  1  0.25045271  0.74981480  0.33651126  1
  Al0+  Al65  1  0.25019714  0.75106110  0.66880402  1
  Al0+  Al66  1  0.74817789  0.25124117  -0.00449343  1
  Al0+  Al67  1  0.75128221  0.24994963  0.32836759  1
  Al0+  Al68  1  0.75215895  0.24979166  0.66194681  1
  Al0+  Al69  1  0.75024314  0.74858157  -0.00394836  1
  Al0+  Al70  1  0.74915378  0.74991780  0.33732040  1
  Al0+  Al71  1  0.74983533  0.75092018  0.67371171  1
  Al0+  Al72  1  0.57216128  0.17471992  0.31730412  1
  Al0+  Al73  1  0.31764778  0.06905118  0.34675675  1
  Al0+  Al74  1  0.82181199  0.07401167  0.34782020  1
  Al0+  Al75  1  0.32304404  0.57330903  0.68393858  1
  Al0+  Al76  1  0.17764203  0.93033263  0.01245188  1
  Al0+  Al77  1  0.92647503  0.32202603  0.98276063  1
  Al0+  Al78  1  0.92916683  0.32431687  0.32005925  1
  Al0+  Al79  1  0.07075317  0.17917311  0.65086982  1
  Al0+  Al80  1  0.32420613  0.57167402  0.34640952  1
  Al0+  Al81  1  0.07072087  0.17705191  0.31792698  1
  Al0+  Al82  1  0.81981162  0.57106340  0.68350906  1
  Al0+  Al83  1  0.57045636  0.67949506  0.98433368  1
  Al0+  Al84  1  0.07479545  0.67891538  0.98560487  1
  Al0+  Al85  1  0.92852041  0.82099422  0.98496560  1
  Al0+  Al86  1  0.67897240  0.93223951  0.68243769  1
  Al0+  Al87  1  0.82069488  0.56986826  0.34401186  1
  Al0+  Al88  1  0.42945197  0.32070374  0.31888175  1
  Al0+  Al89  1  0.57085494  0.17702197  0.65415978  1
  Al0+  Al90  1  0.07154045  0.18013567  0.98503449  1
  Al0+  Al91  1  0.17942099  0.42818976  0.34676756  1
  Al0+  Al92  1  0.67839070  0.92946586  0.34850149  1
  Al0+  Al93  1  0.18064047  0.42786328  0.68571786  1
  Al0+  Al94  1  0.67995454  0.92794493  0.01589391  1
  Al0+  Al95  1  0.57064730  0.68107887  0.32160711  1
  Si0+  Si96  1  0.32181733  0.07472490  0.01685544  1
  Si0+  Si97  1  0.17992520  0.43029896  0.01607623  1
  Si0+  Si98  1  0.17478881  0.92615575  0.35075024  1
  Si0+  Si99  1  0.67831228  0.42593537  0.68251460  1
  Si0+  Si100  1  0.07173981  0.67991242  0.32216225  1
  Si0+  Si101  1  0.67701404  0.42787452  0.01447028  1
  Si0+  Si102  1  0.67700192  0.42695079  0.34745857  1
  Si0+  Si103  1  0.92827893  0.81857011  0.32026459  1
  Si0+  Si104  1  0.42983842  0.32193935  0.98280405  1
  Si0+  Si105  1  0.42417953  0.82164102  0.31520876  1
  Si0+  Si106  1  0.42710824  0.82007553  0.65157228  1
  Si0+  Si107  1  0.42910300  0.82373303  0.98315954  1
  Si0+  Si108  1  0.42970501  0.32236390  0.65067472  1
  Si0+  Si109  1  0.57167841  0.68014511  0.65175900  1
  Si0+  Si110  1  0.82076498  0.07433042  0.01497577  1
  Si0+  Si111  1  0.17647333  0.92884563  0.68045107  1
  Si0+  Si112  1  0.92957319  0.32498330  0.64926883  1
  Si0+  Si113  1  0.32376658  0.57049547  0.01519504  1
  Si0+  Si114  1  0.92736389  0.81913857  0.64937982  1
  Si0+  Si115  1  0.82349322  0.07294230  0.68328839  1
  Si0+  Si116  1  0.56910329  0.17750901  0.98623762  1
  Si0+  Si117  1  0.82048712  0.56821344  0.01462483  1
  Si0+  Si118  1  0.31983345  0.06939955  0.68110784  1
  Si0+  Si119  1  0.07206501  0.67959397  0.65116344  1
  O2-  O120  1  0.24864324  0.00905966  0.05798953  1
  O2-  O121  1  0.24034341  -0.00245765  0.39540236  1
  O2-  O122  1  0.24426937  0.00315393  0.72260765  1
  O2-  O123  1  0.24846956  0.50442326  0.05732086  1
  O2-  O124  1  0.25485974  0.49764374  0.39581915  1
  O2-  O125  1  0.25129579  0.50221722  0.73554059  1
  O2-  O126  1  0.75417243  0.00376243  0.05979523  1
  O2-  O127  1  0.74278085  0.00890137  0.39791666  1
  O2-  O128  1  0.75099126  0.00938695  0.72945910  1
  O2-  O129  1  0.75146500  0.49530643  0.05655085  1
  O2-  O130  1  0.74974592  0.49172376  0.39128008  1
  O2-  O131  1  0.74670068  0.49384999  0.72898357  1
  O2-  O132  1  -0.00268852  0.24864164  0.27008253  1
  O2-  O133  1  -0.00289712  0.25536908  0.60582263  1
  O2-  O134  1  -0.00137314  0.25008785  0.93318719  1
  O2-  O135  1  0.00284690  0.75155892  0.27841256  1
  O2-  O136  1  -0.00152944  0.74753576  0.60725896  1
  O2-  O137  1  0.00416083  0.75225731  0.93457417  1
  O2-  O138  1  0.50170880  0.24894701  0.26747237  1
  O2-  O139  1  0.50017853  0.25531289  0.60791386  1
  O2-  O140  1  0.49815106  0.24764085  0.94182509  1
  O2-  O141  1  0.49386535  0.75298291  0.27319143  1
  O2-  O142  1  0.49615188  0.74655890  0.61046092  1
  O2-  O143  1  0.49805461  0.75635265  0.93710451  1
  O2-  O144  1  0.07294836  0.18198925  0.09786249  1
  O2-  O145  1  0.07046775  0.17951851  0.43174440  1
  O2-  O146  1  0.06906230  0.17697697  0.76389763  1
  O2-  O147  1  0.07208493  0.67776977  0.09978280  1
  O2-  O148  1  0.07086882  0.68246877  0.42752670  1
  O2-  O149  1  0.07341646  0.68406922  0.75609553  1
  O2-  O150  1  0.56882958  0.17909956  0.09052270  1
  O2-  O151  1  0.56809783  0.17610396  0.43125953  1
  O2-  O152  1  0.56637932  0.17703918  0.76815258  1
  O2-  O153  1  0.57028094  0.67745150  0.09711411  1
  O2-  O154  1  0.57247449  0.68332415  0.43507038  1
  O2-  O155  1  0.57197747  0.68230558  0.75704994  1
  O2-  O156  1  0.17778265  0.43279303  0.23264710  1
  O2-  O157  1  0.18252389  0.42747285  0.57253557  1
  O2-  O158  1  0.18327316  0.42902617  0.91109232  1
  O2-  O159  1  0.17631992  0.92314629  0.24525947  1
  O2-  O160  1  0.17860214  0.92468867  0.57570662  1
  O2-  O161  1  0.18159266  0.93070181  0.89867217  1
  O2-  O162  1  0.67441853  0.43123714  0.24159676  1
  O2-  O163  1  0.67640672  0.42770427  0.57734561  1
  O2-  O164  1  0.67477556  0.42911630  0.90919141  1
  O2-  O165  1  0.68422306  0.92512291  0.23506850  1
  O2-  O166  1  0.67915832  0.93046709  0.56995876  1
  O2-  O167  1  0.67896092  0.93111592  0.90237297  1
  O2-  O168  1  0.42987147  0.32486694  0.08723143  1
  O2-  O169  1  0.43201803  0.31988453  0.43272913  1
  O2-  O170  1  0.43058840  0.31974112  0.75715097  1
  O2-  O171  1  0.42814142  0.82318112  0.08822668  1
  O2-  O172  1  0.42215754  0.82094568  0.42117472  1
  O2-  O173  1  0.42668367  0.82203746  0.75670481  1
  O2-  O174  1  0.92779699  0.32392155  0.09573307  1
  O2-  O175  1  0.93368858  0.32793337  0.43363714  1
  O2-  O176  1  0.92906779  0.32256031  0.75491289  1
  O2-  O177  1  0.92788381  0.81673535  0.09889571  1
  O2-  O178  1  0.92849249  0.81657870  0.42584420  1
  O2-  O179  1  0.92895240  0.81988692  0.75427014  1
  O2-  O180  1  0.31719845  0.06587511  0.23365036  1
  O2-  O181  1  0.32146274  0.06730292  0.57644107  1
  O2-  O182  1  0.32552980  0.07280943  0.91065465  1
  O2-  O183  1  0.32065196  0.57237527  0.23225948  1
  O2-  O184  1  0.32245053  0.57386960  0.57095353  1
  O2-  O185  1  0.32508260  0.56751065  0.91011761  1
  O2-  O186  1  0.82445492  0.06722706  0.23414096  1
  O2-  O187  1  0.82429092  0.06950341  0.57824529  1
  O2-  O188  1  0.81667604  0.07464564  0.90889228  1
  O2-  O189  1  0.82039618  0.57268835  0.23084343  1
  O2-  O190  1  0.81753668  0.57287737  0.57034829  1
  O2-  O191  1  0.81768228  0.56826094  0.90934482  1
  O2-  O192  1  0.04276141  0.07642830  0.26863840  1
  O2-  O193  1  0.04239872  0.08189499  0.59642602  1
  O2-  O194  1  0.04528318  0.08112603  0.93190951  1
  O2-  O195  1  0.04283839  0.58902019  0.27533537  1
  O2-  O196  1  0.04604366  0.58563965  0.60855186  1
  O2-  O197  1  0.04455808  0.58273946  0.93009851  1
  O2-  O198  1  0.53899921  0.07661771  0.26639552  1
  O2-  O199  1  0.53488986  0.08153447  0.60184791  1
  O2-  O200  1  0.53983113  0.08516868  0.93994172  1
  O2-  O201  1  0.54439267  0.58492792  0.26435597  1
  O2-  O202  1  0.54955653  0.58571745  0.60711834  1
  O2-  O203  1  0.53848923  0.58392666  0.92799696  1
  O2-  O204  1  0.16928298  0.20272662  0.26559548  1
  O2-  O205  1  0.17012700  0.20880403  0.60193225  1
  O2-  O206  1  0.17077967  0.20932018  0.93178474  1
  O2-  O207  1  0.16393895  0.70577544  0.27454412  1
  O2-  O208  1  0.16273176  0.71131856  0.60356889  1
  O2-  O209  1  0.17436714  0.70595897  0.93405068  1
  O2-  O210  1  0.67109035  0.19963251  0.26468566  1
  O2-  O211  1  0.66931454  0.20233742  0.60154437  1
  O2-  O212  1  0.65958104  0.20524794  0.93627353  1
  O2-  O213  1  0.66657565  0.71466336  0.26690779  1
  O2-  O214  1  0.66262856  0.71309558  0.60625892  1
  O2-  O215  1  0.66644404  0.70897343  0.92919217  1
  O2-  O216  1  0.08640222  0.45641493  0.06002220  1
  O2-  O217  1  0.08526763  0.46203034  0.40435895  1
  O2-  O218  1  0.08306468  0.45593594  0.73989888  1
  O2-  O219  1  0.07901201  0.95494472  0.06521513  1
  O2-  O220  1  0.08007690  0.94577175  0.39620551  1
  O2-  O221  1  0.08309272  0.95441855  0.72559341  1
  O2-  O222  1  0.58621069  0.45969847  0.06149483  1
  O2-  O223  1  0.58630666  0.45759903  0.39606946  1
  O2-  O224  1  0.58508590  0.45095600  0.73050624  1
  O2-  O225  1  0.58240439  0.95607634  0.06909341  1
  O2-  O226  1  0.57677841  0.94766171  0.39826613  1
  O2-  O227  1  0.58096920  0.95941627  0.73698078  1
  O2-  O228  1  0.21183178  0.33936540  0.06242184  1
  O2-  O229  1  0.20620752  0.32955883  0.39832170  1
  O2-  O230  1  0.21325878  0.33066035  0.74062778  1
  O2-  O231  1  0.21190876  0.83482387  0.06782360  1
  O2-  O232  1  0.20468485  0.83455135  0.39958257  1
  O2-  O233  1  0.20771241  0.83935736  0.73035768  1
  O2-  O234  1  0.69947467  0.33412563  0.06019123  1
  O2-  O235  1  0.69626309  0.33131109  0.39082173  1
  O2-  O236  1  0.70339162  0.33143459  0.72847339  1
  O2-  O237  1  0.71166145  0.82982707  0.06584233  1
  O2-  O238  1  0.71541514  0.83501914  0.40436162  1
  O2-  O239  1  0.71303238  0.83711838  0.73724496  1
  O2-  O240  1  0.45802461  0.41828155  0.26374059  1
  O2-  O241  1  0.45289469  0.41752067  0.60729222  1
  O2-  O242  1  0.46171892  0.41072389  0.93187195  1
  O2-  O243  1  0.44771694  0.91487456  0.26883058  1
  O2-  O244  1  0.45769773  0.91058367  0.60340190  1
  O2-  O245  1  0.45313383  0.91846031  0.93747439  1
  O2-  O246  1  0.96198193  0.42231661  0.26668199  1
  O2-  O247  1  0.95604228  0.42058311  0.60802726  1
  O2-  O248  1  0.95604302  0.41946956  0.92886566  1
  O2-  O249  1  0.95220005  0.91055945  0.27250268  1
  O2-  O250  1  0.95549775  0.91000046  0.60043348  1
  O2-  O251  1  0.95209088  0.91984787  0.93085016  1
  O2-  O252  1  0.33230585  0.29027323  0.26485273  1
  O2-  O253  1  0.33680303  0.29454996  0.60633629  1
  O2-  O254  1  0.33844467  0.29586601  0.93360768  1
  O2-  O255  1  0.33042815  0.79614015  0.26841299  1
  O2-  O256  1  0.33447231  0.79618838  0.60343311  1
  O2-  O257  1  0.33637460  0.79721194  0.93538227  1
  O2-  O258  1  0.82922105  0.30421045  0.26658262  1
  O2-  O259  1  0.83475741  0.30379412  0.60368028  1
  O2-  O260  1  0.82680547  0.29663569  0.92874713  1
  O2-  O261  1  0.83873895  0.78612205  0.27263932  1
  O2-  O262  1  0.83561975  0.78814792  0.60412718  1
  O2-  O263  1  0.83333944  0.78688586  0.92880721  1
  O2-  O264  1  0.41273521  0.04484001  0.06560714  1
  O2-  O265  1  0.41212255  0.03509986  0.40368380  1
  O2-  O266  1  0.40846897  0.03575992  0.73170348  1
  O2-  O267  1  0.41477751  0.53671452  0.06074127  1
  O2-  O268  1  0.42391883  0.54627961  0.39750750  1
  O2-  O269  1  0.42254157  0.54621953  0.73684677  1
  O2-  O270  1  0.91559566  0.05132845  0.05811635  1
  O2-  O271  1  0.91616962  0.03642634  0.40457395  1
  O2-  O272  1  0.91558040  0.04032523  0.72923040  1
  O2-  O273  1  0.91436826  0.54325708  0.05923932  1
  O2-  O274  1  0.91645529  0.54353244  0.40226661  1
  O2-  O275  1  0.91676161  0.54512190  0.73868951  1
  O2-  O276  1  0.30070378  0.17041535  0.06000114  1
  O2-  O277  1  0.29148009  0.16565300  0.40243539  1
  O2-  O278  1  0.29834590  0.16247928  0.72871955  1
  O2-  O279  1  0.30429786  0.66497328  0.05989285  1
  O2-  O280  1  0.29501262  0.66948404  0.40053769  1
  O2-  O281  1  0.29388011  0.67238812  0.73660700  1
  O2-  O282  1  0.79281721  0.16788866  0.05986924  1
  O2-  O283  1  0.80381120  0.17601553  0.39698760  1
  O2-  O284  1  0.80424156  0.16933983  0.72623556  1
  O2-  O285  1  0.79058512  0.65974928  0.06038307  1
  O2-  O286  1  0.78576118  0.66329670  0.40199438  1
  O2-  O287  1  0.78559100  0.66552268  0.73947563  1
