# generated using pymatgen
data_Ca2Al2SiO7
_symmetry_space_group_name_H-M   'P 1'
_cell_length_a   15.45601579
_cell_length_b   15.45649030
_cell_length_c   15.28163833
_cell_angle_alpha   90.01575026
_cell_angle_beta   90.00768614
_cell_angle_gamma   89.99848294
_symmetry_Int_Tables_number   1
_chemical_formula_structural   Ca2Al2SiO7
_chemical_formula_sum   'Ca48 Al48 Si24 O168'
_cell_volume   3650.71840230
_cell_formula_units_Z   24
loop_
 _symmetry_equiv_pos_site_id
 _symmetry_equiv_pos_as_xyz
  1  'x, y, z'
loop_
 _atom_type_symbol
 _atom_type_oxidation_number
  Ca2+  2.0
  Al0+  0.0
  Si0+  0.0
  O2-  -2.0
loop_
 _atom_site_type_symbol
 _atom_site_label
 _atom_site_symmetry_multiplicity
 _atom_site_fract_x
 _atom_site_fract_y
 _atom_site_fract_z
 _atom_site_occupancy
  Ca2+  Ca0  1  0.16837778  0.08517189  0.16818349  1
  Ca2+  Ca1  1  0.17550944  0.08573439  0.50346619  1
  Ca2+  Ca2  1  0.15886696  0.07436957  0.84134595  1
  Ca2+  Ca3  1  0.16864092  0.57199846  0.17120274  1
  Ca2+  Ca4  1  0.17155249  0.57705956  0.49628381  1
  Ca2+  Ca5  1  0.16785861  0.57807534  0.84319600  1
  Ca2+  Ca6  1  0.65501662  0.07369617  0.16711376  1
  Ca2+  Ca7  1  0.66165409  0.07434898  0.50732612  1
  Ca2+  Ca8  1  0.65824473  0.07797735  0.83786350  1
  Ca2+  Ca9  1  0.67236972  0.57788559  0.17530546  1
  Ca2+  Ca10  1  0.66986898  0.56696617  0.49878139  1
  Ca2+  Ca11  1  0.66716125  0.57717849  0.83651754  1
  Ca2+  Ca12  1  0.07728656  0.33748527  0.15775278  1
  Ca2+  Ca13  1  0.07250120  0.34088766  0.49298876  1
  Ca2+  Ca14  1  0.07514265  0.33379535  0.83401541  1
  Ca2+  Ca15  1  0.08529429  0.82416196  0.15650575  1
  Ca2+  Ca16  1  0.07903518  0.83742109  0.49987016  1
  Ca2+  Ca17  1  0.08549568  0.83118594  0.82546019  1
  Ca2+  Ca18  1  0.57125973  0.33512774  0.15873011  1
  Ca2+  Ca19  1  0.57921029  0.33384931  0.49519936  1
  Ca2+  Ca20  1  0.57605727  0.32437108  0.82328304  1
  Ca2+  Ca21  1  0.58687675  0.82885214  0.15957008  1
  Ca2+  Ca22  1  0.58925203  0.83468545  0.49531638  1
  Ca2+  Ca23  1  0.59376088  0.82846772  0.83167173  1
  Ca2+  Ca24  1  0.32469804  0.41137970  0.17402159  1
  Ca2+  Ca25  1  0.33644210  0.41494534  0.49938954  1
  Ca2+  Ca26  1  0.33100406  0.41052347  0.83955754  1
  Ca2+  Ca27  1  0.32892623  0.92591518  0.17072111  1
  Ca2+  Ca28  1  0.32948965  0.92713554  0.50495231  1
  Ca2+  Ca29  1  0.32214646  0.92003850  0.83975237  1
  Ca2+  Ca30  1  0.83255979  0.41986012  0.17663491  1
  Ca2+  Ca31  1  0.82673847  0.41095129  0.50360985  1
  Ca2+  Ca32  1  0.83040134  0.40629954  0.83434465  1
  Ca2+  Ca33  1  0.82142439  0.91891515  0.17049249  1
  Ca2+  Ca34  1  0.82502333  0.91705075  0.50799786  1
  Ca2+  Ca35  1  0.82758086  0.91654097  0.83687178  1
  Ca2+  Ca36  1  0.41732046  0.17509851  0.16226966  1
  Ca2+  Ca37  1  0.41997493  0.17378320  0.49554476  1
  Ca2+  Ca38  1  0.42398445  0.17557303  0.83067290  1
  Ca2+  Ca39  1  0.42181504  0.66416451  0.16230269  1
  Ca2+  Ca40  1  0.41633672  0.66769904  0.49377046  1
  Ca2+  Ca41  1  0.42438454  0.66650067  0.83340775  1
  Ca2+  Ca42  1  0.92165117  0.18102479  0.15994494  1
  Ca2+  Ca43  1  0.91663416  0.17793127  0.49716343  1
  Ca2+  Ca44  1  0.91944048  0.17457011  0.83301620  1
  Ca2+  Ca45  1  0.92092264  0.66352492  0.16143088  1
  Ca2+  Ca46  1  0.91055652  0.67131266  0.49753534  1
  Ca2+  Ca47  1  0.92489524  0.67309492  0.83087641  1
  Al0+  Al48  1  -0.00356742  0.00096745  0.00545087  1
  Al0+  Al49  1  -0.00306811  -0.00110104  0.33049713  1
  Al0+  Al50  1  -0.00024877  -0.00126556  0.66489740  1
  Al0+  Al51  1  0.00011017  0.50333403  -0.00612034  1
  Al0+  Al52  1  0.00076635  0.50383282  0.33744631  1
  Al0+  Al53  1  0.00231098  0.50185038  0.66245465  1
  Al0+  Al54  1  0.49730711  -0.00055294  0.00177423  1
  Al0+  Al55  1  0.49674645  -0.00109816  0.34127077  1
  Al0+  Al56  1  0.49873920  -0.00131955  0.66987872  1
  Al0+  Al57  1  0.50081277  0.50275841  -0.00897340  1
  Al0+  Al58  1  0.50080005  0.50106399  0.33512893  1
  Al0+  Al59  1  0.50178182  0.50118303  0.66779791  1
  Al0+  Al60  1  0.24769345  0.24937416  -0.00400702  1
  Al0+  Al61  1  0.24995679  0.24810658  0.33977869  1
  Al0+  Al62  1  0.25163744  0.25152816  0.66562726  1
  Al0+  Al63  1  0.25072434  0.74982474  0.00029542  1
  Al0+  Al64  1  0.24961710  0.74973163  0.33533829  1
  Al0+  Al65  1  0.25200795  0.74882357  0.66913093  1
  Al0+  Al66  1  0.74850025  0.24876814  -0.00456772  1
  Al0+  Al67  1  0.75046508  0.24603482  0.32936238  1
  Al0+  Al68  1  0.75060044  0.24779841  0.66306152  1
  Al0+  Al69  1  0.74994266  0.74955790  0.00011260  1
  Al0+  Al70  1  0.74964204  0.74976226  0.33977301  1
  Al0+  Al71  1  0.75247558  0.74888320  0.66615448  1
  Al0+  Al72  1  0.07230719  0.68123109  0.98699538  1
  Al0+  Al73  1  0.43057999  0.32153452  0.31923783  1
  Al0+  Al74  1  0.07057222  0.17737193  0.98631039  1
  Al0+  Al75  1  0.17603243  0.92784861  0.01460433  1
  Al0+  Al76  1  0.17966129  0.93068745  0.67931526  1
  Al0+  Al77  1  0.42766878  0.32245583  0.98542017  1
  Al0+  Al78  1  0.56992266  0.17680817  0.98611919  1
  Al0+  Al79  1  0.67939109  0.42525067  0.34474318  1
  Al0+  Al80  1  0.42929393  0.32304567  0.64852216  1
  Al0+  Al81  1  0.82245637  0.57107545  0.34833605  1
  Al0+  Al82  1  0.17947429  0.42992742  0.01103238  1
  Al0+  Al83  1  0.68069667  0.42794520  0.68190561  1
  Al0+  Al84  1  0.92844578  0.32421714  0.98519408  1
  Al0+  Al85  1  0.17904714  0.42782668  0.34862936  1
  Al0+  Al86  1  0.92936256  0.32239456  0.31968857  1
  Al0+  Al87  1  0.93089024  0.32093352  0.65134801  1
  Al0+  Al88  1  0.31891666  0.07053459  0.34754131  1
  Al0+  Al89  1  0.57270219  0.68095412  0.98658635  1
  Al0+  Al90  1  0.67926481  0.92850556  0.68247701  1
  Al0+  Al91  1  0.57034715  0.17639682  0.64975821  1
  Al0+  Al92  1  0.93045550  0.82029943  0.65299597  1
  Al0+  Al93  1  0.67994629  0.93105613  0.34752364  1
  Al0+  Al94  1  0.67945735  0.92951209  0.01376641  1
  Al0+  Al95  1  0.32234389  0.57174224  0.34708272  1
  Si0+  Si96  1  0.17582836  0.92663865  0.34887914  1
  Si0+  Si97  1  0.42755224  0.82194930  0.31928792  1
  Si0+  Si98  1  0.07236924  0.17661396  0.64986628  1
  Si0+  Si99  1  0.92753830  0.82186086  0.98594449  1
  Si0+  Si100  1  0.32476982  0.57189607  0.01544445  1
  Si0+  Si101  1  0.31998707  0.07144592  0.01670243  1
  Si0+  Si102  1  0.42752854  0.82234416  0.98371488  1
  Si0+  Si103  1  0.32152511  0.07356787  0.68655869  1
  Si0+  Si104  1  0.07208059  0.68192775  0.31790072  1
  Si0+  Si105  1  0.17865479  0.43019623  0.68233255  1
  Si0+  Si106  1  0.82274348  0.07160929  0.68389383  1
  Si0+  Si107  1  0.82451620  0.07110817  0.35092868  1
  Si0+  Si108  1  0.57070196  0.17413308  0.31690364  1
  Si0+  Si109  1  0.07207967  0.17684007  0.31802837  1
  Si0+  Si110  1  0.82372257  0.57111643  0.68511589  1
  Si0+  Si111  1  0.32202666  0.57154496  0.68351471  1
  Si0+  Si112  1  0.81988532  0.57033707  0.01272093  1
  Si0+  Si113  1  0.07546156  0.67887422  0.64679462  1
  Si0+  Si114  1  0.57086940  0.68131154  0.31995535  1
  Si0+  Si115  1  0.57248810  0.68020864  0.64948673  1
  Si0+  Si116  1  0.82126332  0.07512239  0.01930120  1
  Si0+  Si117  1  0.92636255  0.82063793  0.31697904  1
  Si0+  Si118  1  0.42801765  0.81884981  0.65219055  1
  Si0+  Si119  1  0.67811373  0.42815601  0.01220392  1
  O2-  O120  1  0.24863007  0.00448983  0.06080294  1
  O2-  O121  1  0.24082574  -0.00180925  0.39309884  1
  O2-  O122  1  0.24915246  0.00793710  0.72961093  1
  O2-  O123  1  0.25814277  0.50080137  0.05812687  1
  O2-  O124  1  0.25537744  0.49601914  0.39867902  1
  O2-  O125  1  0.25310260  0.49808578  0.72425083  1
  O2-  O126  1  0.74973539  0.00744974  0.06191132  1
  O2-  O127  1  0.75247361  0.00624766  0.39561611  1
  O2-  O128  1  0.75126898  0.00557983  0.72865842  1
  O2-  O129  1  0.75167920  0.49651134  0.05474350  1
  O2-  O130  1  0.75681781  0.49184016  0.39559966  1
  O2-  O131  1  0.75889245  0.49931293  0.73008295  1
  O2-  O132  1  0.00676764  0.24930090  0.27472876  1
  O2-  O133  1  0.00747436  0.24811459  0.60449746  1
  O2-  O134  1  0.00043579  0.25105372  0.93644867  1
  O2-  O135  1  -0.00034396  0.75194540  0.27532623  1
  O2-  O136  1  0.00587179  0.74729685  0.60372767  1
  O2-  O137  1  0.00347901  0.76173163  0.94108673  1
  O2-  O138  1  0.50844074  0.24914825  0.27326635  1
  O2-  O139  1  0.50157562  0.25103380  0.59902960  1
  O2-  O140  1  0.50250344  0.25291979  0.93655273  1
  O2-  O141  1  0.49851422  0.75098000  0.27716749  1
  O2-  O142  1  0.50278214  0.75291771  0.60778361  1
  O2-  O143  1  0.49887488  0.75640855  0.93915880  1
  O2-  O144  1  0.06952067  0.17871431  0.10010736  1
  O2-  O145  1  0.06873861  0.17297728  0.42376744  1
  O2-  O146  1  0.06973398  0.17513309  0.75520128  1
  O2-  O147  1  0.06925404  0.67932344  0.10028338  1
  O2-  O148  1  0.07468812  0.68555023  0.42298579  1
  O2-  O149  1  0.07621654  0.67920663  0.75255972  1
  O2-  O150  1  0.56650046  0.17605402  0.09999576  1
  O2-  O151  1  0.56766495  0.17037547  0.42219264  1
  O2-  O152  1  0.56661855  0.17610569  0.76328638  1
  O2-  O153  1  0.57303121  0.68099924  0.09997036  1
  O2-  O154  1  0.57066467  0.68372950  0.42522058  1
  O2-  O155  1  0.57159397  0.68057356  0.75482141  1
  O2-  O156  1  0.17759098  0.43062142  0.23481923  1
  O2-  O157  1  0.17689553  0.43282186  0.57750623  1
  O2-  O158  1  0.17894585  0.43396511  0.89754790  1
  O2-  O159  1  0.17810834  0.92456023  0.24337407  1
  O2-  O160  1  0.18288695  0.93096249  0.56598314  1
  O2-  O161  1  0.17897094  0.92713066  0.90133705  1
  O2-  O162  1  0.67745791  0.43151611  0.23062978  1
  O2-  O163  1  0.68016035  0.43073293  0.56891942  1
  O2-  O164  1  0.67900967  0.43091121  0.90706154  1
  O2-  O165  1  0.68025657  0.92892699  0.23429407  1
  O2-  O166  1  0.68135922  0.92772347  0.56922739  1
  O2-  O167  1  0.68382519  0.92703276  0.90099886  1
  O2-  O168  1  0.42768704  0.32231421  0.09940008  1
  O2-  O169  1  0.43244085  0.31977483  0.43197191  1
  O2-  O170  1  0.42863811  0.32211781  0.76200947  1
  O2-  O171  1  0.42724465  0.82110829  0.08965662  1
  O2-  O172  1  0.42731916  0.82123054  0.42466793  1
  O2-  O173  1  0.42531227  0.81486099  0.75702351  1
  O2-  O174  1  0.92967303  0.32602248  0.09899100  1
  O2-  O175  1  0.93014488  0.31952741  0.43291284  1
  O2-  O176  1  0.93327754  0.32062525  0.76411564  1
  O2-  O177  1  0.92492707  0.81616996  0.09177734  1
  O2-  O178  1  0.92711005  0.82102208  0.42209193  1
  O2-  O179  1  0.93134456  0.81771974  0.76616571  1
  O2-  O180  1  0.32002622  0.06774386  0.23446083  1
  O2-  O181  1  0.32120438  0.07069152  0.58070212  1
  O2-  O182  1  0.32146948  0.06777001  0.91124425  1
  O2-  O183  1  0.31946593  0.57608098  0.23385292  1
  O2-  O184  1  0.32052725  0.57538471  0.57866316  1
  O2-  O185  1  0.32335988  0.57394264  0.90945317  1
  O2-  O186  1  0.82782622  0.06742252  0.24567642  1
  O2-  O187  1  0.82404096  0.06832175  0.57809361  1
  O2-  O188  1  0.82437684  0.07309391  0.91386571  1
  O2-  O189  1  0.81979413  0.57447978  0.23409089  1
  O2-  O190  1  0.82080661  0.57237608  0.57975351  1
  O2-  O191  1  0.81844930  0.57378104  0.90773673  1
  O2-  O192  1  0.04409783  0.08372562  0.27038637  1
  O2-  O193  1  0.04539000  0.08432888  0.60173344  1
  O2-  O194  1  0.03909120  0.07840349  0.93479693  1
  O2-  O195  1  0.04480243  0.58998654  0.27122636  1
  O2-  O196  1  0.04954014  0.58614298  0.59976981  1
  O2-  O197  1  0.03601819  0.58971591  0.92760164  1
  O2-  O198  1  0.53575996  0.08227950  0.27145972  1
  O2-  O199  1  0.53895554  0.07697632  0.59897143  1
  O2-  O200  1  0.53856841  0.07878686  0.93351895  1
  O2-  O201  1  0.54495282  0.58975157  0.27175612  1
  O2-  O202  1  0.54169034  0.58955672  0.60250917  1
  O2-  O203  1  0.54164855  0.58748738  0.92665759  1
  O2-  O204  1  0.16760743  0.19763634  0.27515620  1
  O2-  O205  1  0.16771525  0.19994103  0.60668785  1
  O2-  O206  1  0.16837954  0.20061769  0.93093329  1
  O2-  O207  1  0.16303894  0.71123652  0.26901169  1
  O2-  O208  1  0.16894635  0.70630438  0.60156174  1
  O2-  O209  1  0.17019415  0.70670833  0.93276966  1
  O2-  O210  1  0.66734519  0.18848362  0.27307611  1
  O2-  O211  1  0.67086230  0.19851303  0.59908973  1
  O2-  O212  1  0.66943560  0.19848256  0.93339421  1
  O2-  O213  1  0.66222112  0.71212874  0.27303822  1
  O2-  O214  1  0.66429582  0.70737475  0.60284509  1
  O2-  O215  1  0.66808093  0.71250752  0.93024354  1
  O2-  O216  1  0.08351871  0.46696953  0.06321725  1
  O2-  O217  1  0.08445247  0.46499175  0.40386256  1
  O2-  O218  1  0.08798878  0.46234143  0.72978084  1
  O2-  O219  1  0.07831695  0.95339234  0.06914973  1
  O2-  O220  1  0.07981827  0.94865932  0.39151164  1
  O2-  O221  1  0.08126860  0.95629316  0.73210815  1
  O2-  O222  1  0.58656785  0.46088478  0.05728222  1
  O2-  O223  1  0.58502280  0.46199833  0.40042858  1
  O2-  O224  1  0.58545603  0.46455165  0.73577733  1
  O2-  O225  1  0.58032822  0.95507628  0.06667851  1
  O2-  O226  1  0.58275364  0.95738361  0.40222500  1
  O2-  O227  1  0.58018315  0.95280626  0.73488859  1
  O2-  O228  1  0.20431565  0.33121716  0.06352642  1
  O2-  O229  1  0.20018308  0.32873519  0.40222328  1
  O2-  O230  1  0.20276609  0.33646439  0.72764893  1
  O2-  O231  1  0.21033446  0.83171041  0.06835858  1
  O2-  O232  1  0.20463995  0.83541493  0.39723322  1
  O2-  O233  1  0.21353487  0.83405287  0.73237242  1
  O2-  O234  1  0.70033407  0.33459921  0.05793178  1
  O2-  O235  1  0.70106495  0.32405643  0.39457353  1
  O2-  O236  1  0.70961323  0.32949111  0.73284795  1
  O2-  O237  1  0.71365223  0.83345599  0.06826191  1
  O2-  O238  1  0.71223136  0.83587530  0.40292071  1
  O2-  O239  1  0.71393942  0.83150483  0.73400044  1
  O2-  O240  1  0.45777740  0.42022475  0.26669674  1
  O2-  O241  1  0.45730718  0.42346894  0.59928508  1
  O2-  O242  1  0.45282717  0.42106929  0.93136479  1
  O2-  O243  1  0.45656293  0.91333206  0.27221066  1
  O2-  O244  1  0.45091967  0.91264154  0.60704495  1
  O2-  O245  1  0.44909363  0.91627180  0.93803135  1
  O2-  O246  1  0.95764741  0.42212677  0.27034330  1
  O2-  O247  1  0.96066395  0.41879860  0.59849089  1
  O2-  O248  1  0.95691513  0.42094958  0.92924426  1
  O2-  O249  1  0.95010176  0.91310946  0.26865277  1
  O2-  O250  1  0.95981598  0.91629931  0.59656066  1
  O2-  O251  1  0.94330605  0.91853959  0.94462875  1
  O2-  O252  1  0.33217375  0.28743764  0.27010310  1
  O2-  O253  1  0.32925644  0.29585631  0.59739887  1
  O2-  O254  1  0.33061507  0.29216056  0.93160996  1
  O2-  O255  1  0.33554792  0.79480971  0.27160546  1
  O2-  O256  1  0.33872298  0.78633183  0.60207582  1
  O2-  O257  1  0.33576846  0.79349500  0.93557247  1
  O2-  O258  1  0.83315243  0.29068526  0.26423281  1
  O2-  O259  1  0.83519121  0.28838311  0.59730951  1
  O2-  O260  1  0.83059871  0.29388783  0.93241375  1
  O2-  O261  1  0.83500768  0.78932243  0.27066563  1
  O2-  O262  1  0.83493763  0.78661602  0.59736346  1
  O2-  O263  1  0.83821003  0.78765786  0.93676980  1
  O2-  O264  1  0.41114735  0.04191631  0.06609693  1
  O2-  O265  1  0.41112495  0.03433887  0.40661339  1
  O2-  O266  1  0.41255225  0.04197917  0.73348164  1
  O2-  O267  1  0.42042523  0.55011422  0.05911363  1
  O2-  O268  1  0.42152582  0.54963632  0.40073911  1
  O2-  O269  1  0.41509121  0.54765417  0.73027982  1
  O2-  O270  1  0.91237681  0.04745685  0.06972537  1
  O2-  O271  1  0.91620174  0.04145275  0.39947949  1
  O2-  O272  1  0.91508827  0.04199954  0.73035458  1
  O2-  O273  1  0.91266350  0.54525177  0.05932952  1
  O2-  O274  1  0.92242603  0.55448707  0.40148760  1
  O2-  O275  1  0.92054618  0.55098766  0.72723331  1
  O2-  O276  1  0.29510870  0.16543271  0.06165133  1
  O2-  O277  1  0.28997329  0.16447794  0.40689349  1
  O2-  O278  1  0.29956170  0.16884476  0.73014103  1
  O2-  O279  1  0.29899822  0.66531727  0.06163248  1
  O2-  O280  1  0.28955462  0.66881142  0.40284502  1
  O2-  O281  1  0.29207583  0.66165331  0.73352153  1
  O2-  O282  1  0.79656469  0.16939963  0.06490596  1
  O2-  O283  1  0.80265938  0.16612491  0.39463694  1
  O2-  O284  1  0.80082680  0.16603610  0.72885038  1
  O2-  O285  1  0.78975633  0.66043254  0.06251250  1
  O2-  O286  1  0.78668231  0.66576042  0.40480669  1
  O2-  O287  1  0.79366988  0.66313201  0.73198869  1
