# generated using pymatgen
data_Ca2Al2SiO7
_symmetry_space_group_name_H-M   'P 1'
_cell_length_a   15.46978311
_cell_length_b   15.47053132
_cell_length_c   15.29267643
_cell_angle_alpha   89.99706022
_cell_angle_beta   89.99643603
_cell_angle_gamma   90.01181781
_symmetry_Int_Tables_number   1
_chemical_formula_structural   Ca2Al2SiO7
_chemical_formula_sum   'Ca48 Al48 Si24 O168'
_cell_volume   3659.93138122
_cell_formula_units_Z   24
loop_
 _symmetry_equiv_pos_site_id
 _symmetry_equiv_pos_as_xyz
  1  'x, y, z'
loop_
 _atom_type_symbol
 _atom_type_oxidation_number
  Ca2+  2.0
  Al0+  0.0
  Si0+  0.0
  O2-  -2.0
loop_
 _atom_site_type_symbol
 _atom_site_label
 _atom_site_symmetry_multiplicity
 _atom_site_fract_x
 _atom_site_fract_y
 _atom_site_fract_z
 _atom_site_occupancy
  Ca2+  Ca0  1  0.16671748  0.07634996  0.16761476  1
  Ca2+  Ca1  1  0.16395036  0.07130151  0.50210403  1
  Ca2+  Ca2  1  0.17190078  0.07607972  0.84505121  1
  Ca2+  Ca3  1  0.17541775  0.58217900  0.16931490  1
  Ca2+  Ca4  1  0.17235078  0.59375079  0.49720748  1
  Ca2+  Ca5  1  0.17257294  0.57272651  0.84618778  1
  Ca2+  Ca6  1  0.67590518  0.08581475  0.17191929  1
  Ca2+  Ca7  1  0.66951541  0.07640666  0.49631748  1
  Ca2+  Ca8  1  0.67499580  0.08958249  0.84339525  1
  Ca2+  Ca9  1  0.67101257  0.58554772  0.16623016  1
  Ca2+  Ca10  1  0.67629635  0.58754930  0.49877016  1
  Ca2+  Ca11  1  0.67215626  0.57788928  0.84953530  1
  Ca2+  Ca12  1  0.08693915  0.32050613  0.15885909  1
  Ca2+  Ca13  1  0.07824613  0.32415857  0.49303953  1
  Ca2+  Ca14  1  0.08374539  0.32773780  0.83387413  1
  Ca2+  Ca15  1  0.08281310  0.83439941  0.16659618  1
  Ca2+  Ca16  1  0.08257078  0.83331889  0.48593086  1
  Ca2+  Ca17  1  0.08988619  0.83577290  0.83479403  1
  Ca2+  Ca18  1  0.57945467  0.33001807  0.15429635  1
  Ca2+  Ca19  1  0.57995209  0.32987027  0.49606823  1
  Ca2+  Ca20  1  0.58136886  0.33251535  0.84100663  1
  Ca2+  Ca21  1  0.57213714  0.83373316  0.15892489  1
  Ca2+  Ca22  1  0.57459315  0.83741653  0.48862479  1
  Ca2+  Ca23  1  0.57628692  0.83064053  0.83806402  1
  Ca2+  Ca24  1  0.33623354  0.42409289  0.16541863  1
  Ca2+  Ca25  1  0.33124585  0.42449220  0.49897980  1
  Ca2+  Ca26  1  0.32961374  0.41990972  0.84959514  1
  Ca2+  Ca27  1  0.32664202  0.91121944  0.16970494  1
  Ca2+  Ca28  1  0.32092712  0.91642919  0.50340322  1
  Ca2+  Ca29  1  0.32408479  0.92461136  0.84083944  1
  Ca2+  Ca30  1  0.82899938  0.42680408  0.16674669  1
  Ca2+  Ca31  1  0.84018161  0.42090628  0.50130941  1
  Ca2+  Ca32  1  0.83005852  0.41921874  0.84458122  1
  Ca2+  Ca33  1  0.82751752  0.92445782  0.17479272  1
  Ca2+  Ca34  1  0.83516818  0.91780597  0.49366688  1
  Ca2+  Ca35  1  0.83056600  0.92403236  0.84366324  1
  Ca2+  Ca36  1  0.42263530  0.17007241  0.15076339  1
  Ca2+  Ca37  1  0.41295958  0.16342762  0.49717962  1
  Ca2+  Ca38  1  0.41297895  0.16459622  0.83695940  1
  Ca2+  Ca39  1  0.41329346  0.67475912  0.15814708  1
  Ca2+  Ca40  1  0.41621109  0.67489836  0.48700489  1
  Ca2+  Ca41  1  0.41583365  0.66763821  0.83977359  1
  Ca2+  Ca42  1  0.92588143  0.15416135  0.16214554  1
  Ca2+  Ca43  1  0.92024520  0.16970927  0.49043263  1
  Ca2+  Ca44  1  0.92273538  0.16902757  0.83462722  1
  Ca2+  Ca45  1  0.91354842  0.66932926  0.16485398  1
  Ca2+  Ca46  1  0.92610110  0.67424451  0.48494183  1
  Ca2+  Ca47  1  0.91689045  0.66557174  0.83219384  1
  Al0+  Al48  1  -0.00088315  -0.00061500  0.00064039  1
  Al0+  Al49  1  -0.00034171  0.00053340  0.33412606  1
  Al0+  Al50  1  -0.00235458  -0.00113354  0.66979107  1
  Al0+  Al51  1  0.00043714  0.50011227  0.00731494  1
  Al0+  Al52  1  0.00015184  0.49800832  0.33393455  1
  Al0+  Al53  1  0.00106117  0.50135409  0.66167777  1
  Al0+  Al54  1  0.49988623  -0.00073492  -0.00943070  1
  Al0+  Al55  1  0.50049091  0.00162420  0.33178027  1
  Al0+  Al56  1  0.50054973  -0.00110063  0.66850749  1
  Al0+  Al57  1  0.50118715  0.50000507  -0.00053734  1
  Al0+  Al58  1  0.49883622  0.49988158  0.33993430  1
  Al0+  Al59  1  0.50305844  0.49891360  0.66426057  1
  Al0+  Al60  1  0.24934588  0.24704493  -0.00255053  1
  Al0+  Al61  1  0.24942564  0.25222230  0.33053383  1
  Al0+  Al62  1  0.25116395  0.25118797  0.66541879  1
  Al0+  Al63  1  0.24730619  0.74941759  -0.00016441  1
  Al0+  Al64  1  0.25059396  0.75006238  0.33383348  1
  Al0+  Al65  1  0.25189788  0.74982569  0.67113345  1
  Al0+  Al66  1  0.75163455  0.25219408  0.00542363  1
  Al0+  Al67  1  0.74893839  0.25128677  0.33867405  1
  Al0+  Al68  1  0.74867469  0.25125604  0.66051996  1
  Al0+  Al69  1  0.75053685  0.75219668  -0.00205268  1
  Al0+  Al70  1  0.74916512  0.74879025  0.33914535  1
  Al0+  Al71  1  0.75111018  0.74911202  0.66649412  1
  Al0+  Al72  1  0.92736762  0.82068839  0.31724027  1
  Al0+  Al73  1  0.57225613  0.68006810  0.98624606  1
  Al0+  Al74  1  0.42987045  0.82207040  0.32063833  1
  Al0+  Al75  1  0.82148360  0.07135064  0.34991462  1
  Al0+  Al76  1  0.42878315  0.32003589  0.98571826  1
  Al0+  Al77  1  0.82227653  0.57474467  0.01458157  1
  Al0+  Al78  1  0.32180398  0.07220534  0.68141994  1
  Al0+  Al79  1  0.17668999  0.92825120  0.68237597  1
  Al0+  Al80  1  0.06998384  0.17944639  0.31936021  1
  Al0+  Al81  1  0.17791440  0.42553167  0.01499742  1
  Al0+  Al82  1  0.07241806  0.67761539  0.31656094  1
  Al0+  Al83  1  0.57439607  0.17816589  0.98565384  1
  Al0+  Al84  1  0.31924066  0.57031119  0.34750800  1
  Al0+  Al85  1  0.32295988  0.06978318  0.01530475  1
  Al0+  Al86  1  0.67897099  0.42946101  0.01514911  1
  Al0+  Al87  1  0.42439952  0.82158912  0.98207736  1
  Al0+  Al88  1  0.81982921  0.07187829  0.01201210  1
  Al0+  Al89  1  0.67652290  0.92871306  0.34646335  1
  Al0+  Al90  1  0.82211523  0.57039588  0.34914895  1
  Al0+  Al91  1  0.32146333  0.57059828  0.01411179  1
  Al0+  Al92  1  0.17835290  0.92861603  0.01766753  1
  Al0+  Al93  1  0.07016768  0.17705707  0.98566234  1
  Al0+  Al94  1  0.18097889  0.93055554  0.34579850  1
  Al0+  Al95  1  0.92921939  0.32081570  0.65340080  1
  Si0+  Si96  1  0.92520339  0.32193305  0.31484207  1
  Si0+  Si97  1  0.92689166  0.82113039  0.65194312  1
  Si0+  Si98  1  0.67950686  0.92761748  0.68239745  1
  Si0+  Si99  1  0.17896121  0.43100326  0.67923527  1
  Si0+  Si100  1  0.92973749  0.82042251  0.98411710  1
  Si0+  Si101  1  0.57139329  0.67610641  0.31894361  1
  Si0+  Si102  1  0.42836255  0.32310730  0.64935166  1
  Si0+  Si103  1  0.32358455  0.56985945  0.68149984  1
  Si0+  Si104  1  0.82143733  0.56954480  0.68125262  1
  Si0+  Si105  1  0.43104187  0.81868445  0.65053014  1
  Si0+  Si106  1  0.07128789  0.68084923  0.65326479  1
  Si0+  Si107  1  0.42951066  0.32254328  0.31955402  1
  Si0+  Si108  1  0.17808851  0.42561843  0.35166998  1
  Si0+  Si109  1  0.32266411  0.07518715  0.34744613  1
  Si0+  Si110  1  0.06962629  0.67671079  0.98453304  1
  Si0+  Si111  1  0.07191220  0.17717153  0.65019130  1
  Si0+  Si112  1  0.57039464  0.18056552  0.31956633  1
  Si0+  Si113  1  0.57278262  0.67755488  0.65004266  1
  Si0+  Si114  1  0.67749639  0.42888248  0.35379939  1
  Si0+  Si115  1  0.67923242  0.42822564  0.68224797  1
  Si0+  Si116  1  0.67778987  0.92813736  0.01332460  1
  Si0+  Si117  1  0.93002843  0.32388585  0.98609224  1
  Si0+  Si118  1  0.81836732  0.07260996  0.68129091  1
  Si0+  Si119  1  0.57078342  0.17884790  0.64955062  1
  O2-  O120  1  0.25447986  -0.00375003  0.06705634  1
  O2-  O121  1  0.25481908  0.00632736  0.39253664  1
  O2-  O122  1  0.24477673  0.00490778  0.72993189  1
  O2-  O123  1  0.25212146  0.49588174  0.06334158  1
  O2-  O124  1  0.24196868  0.49892132  0.39670517  1
  O2-  O125  1  0.25358898  0.49761264  0.72221271  1
  O2-  O126  1  0.73857440  0.00372722  0.05629441  1
  O2-  O127  1  0.75070421  -0.00258212  0.39957920  1
  O2-  O128  1  0.74976641  -0.00047236  0.72404670  1
  O2-  O129  1  0.74778720  0.50505599  0.06312794  1
  O2-  O130  1  0.74805063  0.49561879  0.39851198  1
  O2-  O131  1  0.75130673  0.49842049  0.72352965  1
  O2-  O132  1  -0.00717606  0.25216354  0.27236940  1
  O2-  O133  1  0.00222778  0.24491948  0.60567199  1
  O2-  O134  1  -0.00191052  0.25542211  0.94026668  1
  O2-  O135  1  -0.00232913  0.74713998  0.26689487  1
  O2-  O136  1  0.00453701  0.75627805  0.61205409  1
  O2-  O137  1  -0.00118686  0.74763429  0.94088434  1
  O2-  O138  1  0.49807375  0.24972174  0.27864722  1
  O2-  O139  1  0.49566623  0.24718742  0.60827313  1
  O2-  O140  1  0.49953906  0.24687934  0.93402118  1
  O2-  O141  1  0.50649697  0.74826164  0.27643936  1
  O2-  O142  1  0.50131155  0.74723320  0.60675569  1
  O2-  O143  1  0.49786707  0.74860008  0.93377033  1
  O2-  O144  1  0.06700858  0.17558161  0.09834181  1
  O2-  O145  1  0.07016219  0.18215610  0.43352845  1
  O2-  O146  1  0.07061905  0.17855808  0.75544647  1
  O2-  O147  1  0.06940516  0.67599320  0.08874303  1
  O2-  O148  1  0.07220449  0.68188922  0.43171933  1
  O2-  O149  1  0.06820152  0.67648846  0.75817707  1
  O2-  O150  1  0.57555881  0.18132035  0.09937574  1
  O2-  O151  1  0.56926753  0.18151728  0.42556340  1
  O2-  O152  1  0.57637558  0.18114738  0.75365643  1
  O2-  O153  1  0.57585954  0.68488311  0.09939322  1
  O2-  O154  1  0.56776227  0.67507423  0.42568811  1
  O2-  O155  1  0.57400978  0.67694660  0.75437128  1
  O2-  O156  1  0.18251527  0.42153048  0.24716906  1
  O2-  O157  1  0.17955445  0.43258667  0.57418512  1
  O2-  O158  1  0.17616351  0.42996769  0.89987236  1
  O2-  O159  1  0.18163620  0.92975226  0.23396617  1
  O2-  O160  1  0.17779970  0.92558928  0.56863462  1
  O2-  O161  1  0.17712526  0.93082646  0.90360730  1
  O2-  O162  1  0.67541725  0.42833014  0.24921761  1
  O2-  O163  1  0.67693310  0.42941963  0.57718275  1
  O2-  O164  1  0.68331098  0.42862859  0.90050741  1
  O2-  O165  1  0.67373006  0.93363844  0.23359719  1
  O2-  O166  1  0.67869936  0.92788863  0.57757124  1
  O2-  O167  1  0.68455370  0.92520421  0.90687903  1
  O2-  O168  1  0.43159096  0.31998283  0.09955658  1
  O2-  O169  1  0.43090709  0.32245058  0.42560819  1
  O2-  O170  1  0.42972243  0.32953356  0.75318719  1
  O2-  O171  1  0.42592223  0.82018446  0.09564077  1
  O2-  O172  1  0.43009945  0.82038992  0.43497117  1
  O2-  O173  1  0.43181356  0.81637997  0.75487197  1
  O2-  O174  1  0.93057157  0.32493636  0.09110951  1
  O2-  O175  1  0.92729583  0.32077814  0.42148507  1
  O2-  O176  1  0.92949320  0.32135050  0.76610658  1
  O2-  O177  1  0.92858517  0.82090920  0.08838375  1
  O2-  O178  1  0.93084104  0.81959261  0.43207653  1
  O2-  O179  1  0.92071317  0.81800453  0.75679212  1
  O2-  O180  1  0.32370605  0.07664796  0.24285068  1
  O2-  O181  1  0.32302761  0.06911514  0.56723638  1
  O2-  O182  1  0.31828468  0.06949201  0.90147635  1
  O2-  O183  1  0.32308431  0.56686491  0.23583442  1
  O2-  O184  1  0.32245925  0.57102762  0.57626562  1
  O2-  O185  1  0.31739270  0.56911946  0.89925414  1
  O2-  O186  1  0.81823078  0.07251151  0.23694821  1
  O2-  O187  1  0.81774283  0.07218471  0.57658840  1
  O2-  O188  1  0.82063630  0.06941071  0.89769392  1
  O2-  O189  1  0.81922630  0.56967910  0.23700622  1
  O2-  O190  1  0.82000619  0.56961101  0.57646022  1
  O2-  O191  1  0.82319138  0.57177462  0.89975405  1
  O2-  O192  1  0.04016787  0.08318221  0.26649985  1
  O2-  O193  1  0.04507726  0.08251938  0.60640017  1
  O2-  O194  1  0.03281787  0.08308561  0.92951561  1
  O2-  O195  1  0.04955306  0.57585568  0.26965835  1
  O2-  O196  1  0.04086559  0.59164567  0.60217891  1
  O2-  O197  1  0.04074568  0.58498730  0.93606236  1
  O2-  O198  1  0.54615673  0.08910850  0.27185795  1
  O2-  O199  1  0.54523169  0.08534921  0.60349374  1
  O2-  O200  1  0.55332780  0.07949993  0.92956991  1
  O2-  O201  1  0.54272174  0.58273606  0.27530174  1
  O2-  O202  1  0.54749490  0.58501609  0.60203368  1
  O2-  O203  1  0.54764447  0.58088991  0.93246602  1
  O2-  O204  1  0.16613061  0.21260466  0.26633016  1
  O2-  O205  1  0.16546202  0.20388518  0.60413133  1
  O2-  O206  1  0.16557658  0.20601556  0.92923167  1
  O2-  O207  1  0.17024378  0.70731062  0.26581217  1
  O2-  O208  1  0.16585171  0.70434054  0.60861012  1
  O2-  O209  1  0.16005549  0.70437825  0.93418554  1
  O2-  O210  1  0.66241103  0.21054848  0.27490853  1
  O2-  O211  1  0.65938996  0.21119542  0.59781590  1
  O2-  O212  1  0.67228907  0.21267791  0.93257345  1
  O2-  O213  1  0.66717826  0.69579596  0.27781770  1
  O2-  O214  1  0.66513041  0.70649538  0.60310640  1
  O2-  O215  1  0.66948293  0.71180478  0.92929797  1
  O2-  O216  1  0.08202197  0.45526969  0.06992806  1
  O2-  O217  1  0.08246553  0.44466823  0.39609054  1
  O2-  O218  1  0.08852723  0.46349073  0.72638638  1
  O2-  O219  1  0.08068537  0.96042905  0.06823549  1
  O2-  O220  1  0.08470708  0.96118203  0.40095078  1
  O2-  O221  1  0.07524055  0.94908262  0.73335986  1
  O2-  O222  1  0.58033281  0.45400316  0.06725244  1
  O2-  O223  1  0.58520638  0.45604433  0.40317652  1
  O2-  O224  1  0.58757098  0.45703546  0.72916224  1
  O2-  O225  1  0.58061276  0.94424255  0.05227407  1
  O2-  O226  1  0.58060541  0.96395173  0.40384418  1
  O2-  O227  1  0.58764211  0.95355726  0.72935754  1
  O2-  O228  1  0.20328110  0.32637513  0.06466878  1
  O2-  O229  1  0.21068580  0.33526351  0.40216473  1
  O2-  O230  1  0.20183635  0.33719495  0.72413840  1
  O2-  O231  1  0.20029886  0.82776361  0.06617952  1
  O2-  O232  1  0.21300016  0.83496136  0.40172920  1
  O2-  O233  1  0.20916385  0.83068122  0.73563899  1
  O2-  O234  1  0.71033350  0.33431518  0.07167677  1
  O2-  O235  1  0.70206261  0.33560526  0.40209597  1
  O2-  O236  1  0.70644662  0.33552945  0.72715949  1
  O2-  O237  1  0.71088179  0.83884324  0.06160027  1
  O2-  O238  1  0.69916164  0.82980807  0.40194914  1
  O2-  O239  1  0.70963900  0.83594852  0.72888526  1
  O2-  O240  1  0.46082134  0.41369450  0.27424936  1
  O2-  O241  1  0.46247777  0.41242993  0.59858004  1
  O2-  O242  1  0.45827865  0.41794406  0.93115668  1
  O2-  O243  1  0.45864277  0.91906890  0.26723886  1
  O2-  O244  1  0.46038398  0.91067212  0.60425344  1
  O2-  O245  1  0.45450715  0.91763434  0.92487962  1
  O2-  O246  1  0.94997360  0.41577188  0.27101793  1
  O2-  O247  1  0.96217274  0.41681368  0.59735938  1
  O2-  O248  1  0.95560717  0.41754197  0.93873639  1
  O2-  O249  1  0.95454967  0.91976662  0.26738103  1
  O2-  O250  1  0.94736555  0.91583037  0.60699585  1
  O2-  O251  1  0.95984335  0.91043600  0.93398391  1
  O2-  O252  1  0.33692438  0.29990385  0.27353821  1
  O2-  O253  1  0.33557299  0.30005190  0.60042489  1
  O2-  O254  1  0.33067767  0.29326039  0.93086442  1
  O2-  O255  1  0.33530308  0.78783471  0.26790376  1
  O2-  O256  1  0.33820713  0.78991561  0.60482131  1
  O2-  O257  1  0.32685341  0.78966480  0.92830276  1
  O2-  O258  1  0.82941419  0.29914585  0.27340452  1
  O2-  O259  1  0.83237797  0.29285452  0.59708955  1
  O2-  O260  1  0.83675311  0.29746179  0.93983500  1
  O2-  O261  1  0.82650737  0.79380052  0.26930383  1
  O2-  O262  1  0.83765655  0.78789317  0.60203559  1
  O2-  O263  1  0.83863453  0.79452910  0.93347752  1
  O2-  O264  1  0.42586534  0.04801816  0.06118025  1
  O2-  O265  1  0.41653619  0.05092496  0.39381804  1
  O2-  O266  1  0.42006483  0.04141226  0.73319752  1
  O2-  O267  1  0.42099715  0.54750477  0.06460559  1
  O2-  O268  1  0.41382723  0.53635761  0.40626886  1
  O2-  O269  1  0.41689580  0.54251833  0.72532792  1
  O2-  O270  1  0.91230620  0.03298996  0.06589099  1
  O2-  O271  1  0.91900768  0.04345459  0.40451699  1
  O2-  O272  1  0.91087691  0.04757615  0.72839208  1
  O2-  O273  1  0.91826213  0.54545408  0.06923514  1
  O2-  O274  1  0.91903117  0.53905659  0.40411191  1
  O2-  O275  1  0.91459146  0.54308107  0.72641181  1
  O2-  O276  1  0.29451473  0.16821925  0.06599102  1
  O2-  O277  1  0.29699241  0.16903014  0.39445816  1
  O2-  O278  1  0.30199478  0.17497718  0.72914406  1
  O2-  O279  1  0.28874294  0.66718107  0.06568733  1
  O2-  O280  1  0.28912639  0.66606951  0.40434162  1
  O2-  O281  1  0.29605451  0.66091479  0.72927217  1
  O2-  O282  1  0.79711947  0.16869622  0.06711794  1
  O2-  O283  1  0.78975698  0.16903505  0.40450361  1
  O2-  O284  1  0.78660488  0.16421228  0.72645525  1
  O2-  O285  1  0.79506866  0.67379009  0.06529854  1
  O2-  O286  1  0.79116258  0.66549914  0.40713614  1
  O2-  O287  1  0.79343924  0.66169884  0.72800651  1
