# generated using pymatgen
data_Ca2Al2SiO7
_symmetry_space_group_name_H-M   'P 1'
_cell_length_a   15.46559279
_cell_length_b   15.46614694
_cell_length_c   15.28915012
_cell_angle_alpha   90.02099910
_cell_angle_beta   90.00728331
_cell_angle_gamma   89.97367006
_symmetry_Int_Tables_number   1
_chemical_formula_structural   Ca2Al2SiO7
_chemical_formula_sum   'Ca48 Al48 Si24 O168'
_cell_volume   3657.05901997
_cell_formula_units_Z   24
loop_
 _symmetry_equiv_pos_site_id
 _symmetry_equiv_pos_as_xyz
  1  'x, y, z'
loop_
 _atom_type_symbol
 _atom_type_oxidation_number
  Ca2+  2.0
  Al0+  0.0
  Si0+  0.0
  O2-  -2.0
loop_
 _atom_site_type_symbol
 _atom_site_label
 _atom_site_symmetry_multiplicity
 _atom_site_fract_x
 _atom_site_fract_y
 _atom_site_fract_z
 _atom_site_occupancy
  Ca2+  Ca0  1  0.17942005  0.09033680  0.16625071  1
  Ca2+  Ca1  1  0.17724249  0.07972982  0.50723986  1
  Ca2+  Ca2  1  0.17239009  0.08147616  0.84018920  1
  Ca2+  Ca3  1  0.16671410  0.57535782  0.16634446  1
  Ca2+  Ca4  1  0.17033072  0.57975544  0.51327973  1
  Ca2+  Ca5  1  0.16328312  0.57501767  0.83397980  1
  Ca2+  Ca6  1  0.65983234  0.07649219  0.16781494  1
  Ca2+  Ca7  1  0.66148841  0.08321739  0.50961573  1
  Ca2+  Ca8  1  0.65994098  0.07297206  0.83516363  1
  Ca2+  Ca9  1  0.65910663  0.57668776  0.16098968  1
  Ca2+  Ca10  1  0.66640984  0.57765738  0.51104608  1
  Ca2+  Ca11  1  0.65765206  0.57578236  0.83775977  1
  Ca2+  Ca12  1  0.07990845  0.32724976  0.15143159  1
  Ca2+  Ca13  1  0.07864844  0.34072472  0.50380792  1
  Ca2+  Ca14  1  0.07878404  0.33516725  0.83044062  1
  Ca2+  Ca15  1  0.07633063  0.83190296  0.15678342  1
  Ca2+  Ca16  1  0.08654355  0.83302925  0.50526246  1
  Ca2+  Ca17  1  0.07463125  0.83341236  0.82152542  1
  Ca2+  Ca18  1  0.57272542  0.32793456  0.15874376  1
  Ca2+  Ca19  1  0.57650693  0.32649741  0.49713851  1
  Ca2+  Ca20  1  0.57515129  0.33380318  0.82289996  1
  Ca2+  Ca21  1  0.58054174  0.82709063  0.15153275  1
  Ca2+  Ca22  1  0.58299969  0.83409069  0.50623337  1
  Ca2+  Ca23  1  0.58052259  0.82882792  0.82709104  1
  Ca2+  Ca24  1  0.33069749  0.40661587  0.16573909  1
  Ca2+  Ca25  1  0.33120812  0.41170306  0.50890703  1
  Ca2+  Ca26  1  0.32644026  0.40879772  0.83993267  1
  Ca2+  Ca27  1  0.34289376  0.93127569  0.16716684  1
  Ca2+  Ca28  1  0.33418211  0.92290250  0.51058662  1
  Ca2+  Ca29  1  0.33559163  0.91904290  0.83871128  1
  Ca2+  Ca30  1  0.82647771  0.40915789  0.16245268  1
  Ca2+  Ca31  1  0.82617277  0.41697989  0.51361588  1
  Ca2+  Ca32  1  0.82330683  0.41054040  0.83807909  1
  Ca2+  Ca33  1  0.82846287  0.91259141  0.16407637  1
  Ca2+  Ca34  1  0.82775599  0.92145511  0.51246629  1
  Ca2+  Ca35  1  0.82542211  0.90798088  0.83771130  1
  Ca2+  Ca36  1  0.41383294  0.17064445  0.16375361  1
  Ca2+  Ca37  1  0.42515825  0.17224354  0.49752964  1
  Ca2+  Ca38  1  0.41865500  0.17401901  0.83067438  1
  Ca2+  Ca39  1  0.42280434  0.67568241  0.15538878  1
  Ca2+  Ca40  1  0.41973988  0.67097257  0.50569868  1
  Ca2+  Ca41  1  0.42588686  0.67627761  0.82897893  1
  Ca2+  Ca42  1  0.92805030  0.17035026  0.15507692  1
  Ca2+  Ca43  1  0.91506152  0.17385380  0.50225003  1
  Ca2+  Ca44  1  0.92103744  0.17552037  0.83206241  1
  Ca2+  Ca45  1  0.91744402  0.67206914  0.15822039  1
  Ca2+  Ca46  1  0.92086588  0.67085585  0.50697114  1
  Ca2+  Ca47  1  0.92089981  0.67614462  0.82756117  1
  Al0+  Al48  1  -0.00003917  -0.00013335  -0.00668309  1
  Al0+  Al49  1  -0.00253270  -0.00056810  0.33336823  1
  Al0+  Al50  1  0.00133864  0.00239827  0.66575282  1
  Al0+  Al51  1  -0.00177522  0.49993904  0.00293284  1
  Al0+  Al52  1  -0.00130458  0.50225881  0.33312008  1
  Al0+  Al53  1  0.00074801  0.50139364  0.66315467  1
  Al0+  Al54  1  0.49946891  0.00023783  0.00649364  1
  Al0+  Al55  1  0.49954291  -0.00012382  0.33665146  1
  Al0+  Al56  1  0.50155328  0.00127793  0.66496763  1
  Al0+  Al57  1  0.49850331  0.49961273  -0.00043205  1
  Al0+  Al58  1  0.49815126  0.50084599  0.33078134  1
  Al0+  Al59  1  0.49869285  0.50230100  0.66285947  1
  Al0+  Al60  1  0.25041172  0.24805076  0.00096815  1
  Al0+  Al61  1  0.24832318  0.24871756  0.33814160  1
  Al0+  Al62  1  0.24940598  0.25012553  0.66742562  1
  Al0+  Al63  1  0.25017235  0.74866417  -0.00136510  1
  Al0+  Al64  1  0.24834231  0.74731865  0.33138862  1
  Al0+  Al65  1  0.25005960  0.75087486  0.66448180  1
  Al0+  Al66  1  0.75084165  0.24782495  0.00360601  1
  Al0+  Al67  1  0.74905615  0.24828889  0.32979619  1
  Al0+  Al68  1  0.75163069  0.25063623  0.66414063  1
  Al0+  Al69  1  0.75120281  0.74716540  -0.00129115  1
  Al0+  Al70  1  0.75058011  0.74868148  0.33463977  1
  Al0+  Al71  1  0.75177524  0.75077629  0.66193708  1
  Al0+  Al72  1  0.07319536  0.17907644  0.98416715  1
  Al0+  Al73  1  0.67820220  0.42961772  0.67862071  1
  Al0+  Al74  1  0.57251557  0.67874664  0.65081457  1
  Al0+  Al75  1  0.42739591  0.32117308  0.31694177  1
  Al0+  Al76  1  0.93005320  0.82024297  0.98682344  1
  Al0+  Al77  1  0.92750619  0.32206065  0.98511899  1
  Al0+  Al78  1  0.32055359  0.07033905  0.35036999  1
  Al0+  Al79  1  0.93034446  0.32117153  0.65336922  1
  Al0+  Al80  1  0.17966224  0.42948364  0.68100798  1
  Al0+  Al81  1  0.67624186  0.42624612  0.01376638  1
  Al0+  Al82  1  0.68135311  0.92832765  0.01323603  1
  Al0+  Al83  1  0.07139477  0.67986416  0.65223799  1
  Al0+  Al84  1  0.43007365  0.31932823  0.98653507  1
  Al0+  Al85  1  0.57160603  0.17710810  0.31563952  1
  Al0+  Al86  1  0.92899485  0.82435361  0.64999820  1
  Al0+  Al87  1  0.42665504  0.32203370  0.65292380  1
  Al0+  Al88  1  0.68070481  0.93014697  0.68056681  1
  Al0+  Al89  1  0.32015007  0.06945488  0.01328488  1
  Al0+  Al90  1  0.42940835  0.82257681  0.65183361  1
  Al0+  Al91  1  0.17973840  0.92914254  0.68027635  1
  Al0+  Al92  1  0.17912410  0.43018628  0.01368430  1
  Al0+  Al93  1  0.57175365  0.18012514  0.65442750  1
  Al0+  Al94  1  0.57126319  0.67841594  0.98515013  1
  Al0+  Al95  1  0.42845597  0.82417038  0.98621681  1
  Si0+  Si96  1  0.17794038  0.43015122  0.34856676  1
  Si0+  Si97  1  0.82404338  0.07432298  0.68431451  1
  Si0+  Si98  1  0.68032934  0.92805322  0.34869133  1
  Si0+  Si99  1  0.07090814  0.67827466  0.31606628  1
  Si0+  Si100  1  0.32200644  0.57276783  0.01791532  1
  Si0+  Si101  1  0.92866775  0.82021867  0.31779186  1
  Si0+  Si102  1  0.17596688  0.92651962  0.34846404  1
  Si0+  Si103  1  0.57238602  0.67982361  0.31749081  1
  Si0+  Si104  1  0.17612136  0.92598647  0.01535512  1
  Si0+  Si105  1  0.07311689  0.17839170  0.64793393  1
  Si0+  Si106  1  0.07282256  0.67670087  0.98449641  1
  Si0+  Si107  1  0.92878222  0.32318246  0.31829305  1
  Si0+  Si108  1  0.67935726  0.42944698  0.34722822  1
  Si0+  Si109  1  0.32244277  0.57365523  0.68453433  1
  Si0+  Si110  1  0.32027370  0.57277658  0.34880701  1
  Si0+  Si111  1  0.82078813  0.57016791  0.01751920  1
  Si0+  Si112  1  0.82218818  0.57177369  0.68320937  1
  Si0+  Si113  1  0.32259931  0.07151672  0.68469749  1
  Si0+  Si114  1  0.82160428  0.57177140  0.35027359  1
  Si0+  Si115  1  0.06845966  0.17878217  0.32032293  1
  Si0+  Si116  1  0.42797894  0.81970969  0.31939908  1
  Si0+  Si117  1  0.57316791  0.17689346  0.98471492  1
  Si0+  Si118  1  0.82237215  0.07074831  0.34827065  1
  Si0+  Si119  1  0.82430595  0.07116576  0.01763512  1
  O2-  O120  1  0.24637048  -0.00772237  0.06086029  1
  O2-  O121  1  0.24657959  -0.00747222  0.39314416  1
  O2-  O122  1  0.25497956  0.00157407  0.72812179  1
  O2-  O123  1  0.25355905  0.50383747  0.06343718  1
  O2-  O124  1  0.25222727  0.49810194  0.38994337  1
  O2-  O125  1  0.25703527  0.50114336  0.72756165  1
  O2-  O126  1  0.75513288  0.00299166  0.06293363  1
  O2-  O127  1  0.74803422  0.00294216  0.38972211  1
  O2-  O128  1  0.75713806  0.00340361  0.72708917  1
  O2-  O129  1  0.75241939  0.50032450  0.06143228  1
  O2-  O130  1  0.75183086  0.49889181  0.39054044  1
  O2-  O131  1  0.75090262  0.50597727  0.72658978  1
  O2-  O132  1  0.00007751  0.25219336  0.27720810  1
  O2-  O133  1  0.00502275  0.24790979  0.60338695  1
  O2-  O134  1  0.00164358  0.25236460  0.93619813  1
  O2-  O135  1  0.00152171  0.75129556  0.27483088  1
  O2-  O136  1  0.00290413  0.75429072  0.59968529  1
  O2-  O137  1  0.00985866  0.75080488  0.94218287  1
  O2-  O138  1  0.49931747  0.24918659  0.26652572  1
  O2-  O139  1  0.50136934  0.25307362  0.60332705  1
  O2-  O140  1  0.51007552  0.25032573  0.94108801  1
  O2-  O141  1  0.50132453  0.75129337  0.27653118  1
  O2-  O142  1  0.50180814  0.75171014  0.59976443  1
  O2-  O143  1  0.50177126  0.75347884  0.93769991  1
  O2-  O144  1  0.07167380  0.18011336  0.09923821  1
  O2-  O145  1  0.06580313  0.17792160  0.42506832  1
  O2-  O146  1  0.07305727  0.17804652  0.75288610  1
  O2-  O147  1  0.07051871  0.67675222  0.09125222  1
  O2-  O148  1  0.07166608  0.67598432  0.42020648  1
  O2-  O149  1  0.06785446  0.67847565  0.76549630  1
  O2-  O150  1  0.57090749  0.17665487  0.09066533  1
  O2-  O151  1  0.57421101  0.17952344  0.42867482  1
  O2-  O152  1  0.57059763  0.17908708  0.76786124  1
  O2-  O153  1  0.56940003  0.68006044  0.10018189  1
  O2-  O154  1  0.57426212  0.67941095  0.42197215  1
  O2-  O155  1  0.57092056  0.67862850  0.76359981  1
  O2-  O156  1  0.17511964  0.43200358  0.24356669  1
  O2-  O157  1  0.17945524  0.43232481  0.56680597  1
  O2-  O158  1  0.17844903  0.43245837  0.90125887  1
  O2-  O159  1  0.17304084  0.92663686  0.24295001  1
  O2-  O160  1  0.18156976  0.93301018  0.56624503  1
  O2-  O161  1  0.17561085  0.92715140  0.91038150  1
  O2-  O162  1  0.68086532  0.43126309  0.24220952  1
  O2-  O163  1  0.68186835  0.43034248  0.56440709  1
  O2-  O164  1  0.67656733  0.42721652  0.90125247  1
  O2-  O165  1  0.68327643  0.92483504  0.24360817  1
  O2-  O166  1  0.68217268  0.93269956  0.56643893  1
  O2-  O167  1  0.68176060  0.92911323  0.90086828  1
  O2-  O168  1  0.42917820  0.31657561  0.09990959  1
  O2-  O169  1  0.42935746  0.32283038  0.43003694  1
  O2-  O170  1  0.42564890  0.31889753  0.76632078  1
  O2-  O171  1  0.43085556  0.82233814  0.10117957  1
  O2-  O172  1  0.42718465  0.81760095  0.42398826  1
  O2-  O173  1  0.43025845  0.82205280  0.76477660  1
  O2-  O174  1  0.92987756  0.31935742  0.10006618  1
  O2-  O175  1  0.92917931  0.32402668  0.42329660  1
  O2-  O176  1  0.92988147  0.31986888  0.76551612  1
  O2-  O177  1  0.93078533  0.81747665  0.10127617  1
  O2-  O178  1  0.92816443  0.81998764  0.42197894  1
  O2-  O179  1  0.92904263  0.82077646  0.76319894  1
  O2-  O180  1  0.31832381  0.07020847  0.23724138  1
  O2-  O181  1  0.32038985  0.07102992  0.57854343  1
  O2-  O182  1  0.31962631  0.06966112  0.90079924  1
  O2-  O183  1  0.31706700  0.57794771  0.24416610  1
  O2-  O184  1  0.31997813  0.57405260  0.57796715  1
  O2-  O185  1  0.32105938  0.57420236  0.91303965  1
  O2-  O186  1  0.82809410  0.06762758  0.24379182  1
  O2-  O187  1  0.82342876  0.07402862  0.57769797  1
  O2-  O188  1  0.82463488  0.07226760  0.91270708  1
  O2-  O189  1  0.82385208  0.57473388  0.24561221  1
  O2-  O190  1  0.82217445  0.56859973  0.57647114  1
  O2-  O191  1  0.82314410  0.57160002  0.91278456  1
  O2-  O192  1  0.03837092  0.08772998  0.27209135  1
  O2-  O193  1  0.04650981  0.08629184  0.59939408  1
  O2-  O194  1  0.04493144  0.08170778  0.93095623  1
  O2-  O195  1  0.03933536  0.58765815  0.26732392  1
  O2-  O196  1  0.03898437  0.58435405  0.59462055  1
  O2-  O197  1  0.04096101  0.58553108  0.93928402  1
  O2-  O198  1  0.54346699  0.07662732  0.26617493  1
  O2-  O199  1  0.54174707  0.08369210  0.59836346  1
  O2-  O200  1  0.54191072  0.08483268  0.94042225  1
  O2-  O201  1  0.54350804  0.58844354  0.26997214  1
  O2-  O202  1  0.54128524  0.58269128  0.59383692  1
  O2-  O203  1  0.54034746  0.58125014  0.93381376  1
  O2-  O204  1  0.16091733  0.20554582  0.27466740  1
  O2-  O205  1  0.16592719  0.20473387  0.60091868  1
  O2-  O206  1  0.17031138  0.20710585  0.93165431  1
  O2-  O207  1  0.16269690  0.70351339  0.26675280  1
  O2-  O208  1  0.16923914  0.70617558  0.59696258  1
  O2-  O209  1  0.16818617  0.69407421  0.94081361  1
  O2-  O210  1  0.67144375  0.20264473  0.26266473  1
  O2-  O211  1  0.67038844  0.20529515  0.59989415  1
  O2-  O212  1  0.66958065  0.19414903  0.94325076  1
  O2-  O213  1  0.66473845  0.70760387  0.27048377  1
  O2-  O214  1  0.67074191  0.70523127  0.59619667  1
  O2-  O215  1  0.67063887  0.70171035  0.93486814  1
  O2-  O216  1  0.08281922  0.46159597  0.07034283  1
  O2-  O217  1  0.08633114  0.46213822  0.39521355  1
  O2-  O218  1  0.08306547  0.46380278  0.73250647  1
  O2-  O219  1  0.08229919  0.95312785  0.06151781  1
  O2-  O220  1  0.08240990  0.95386040  0.39453802  1
  O2-  O221  1  0.08246162  0.96005760  0.73239235  1
  O2-  O222  1  0.58121458  0.46058213  0.07030430  1
  O2-  O223  1  0.58717473  0.45928985  0.39241638  1
  O2-  O224  1  0.58024903  0.45905560  0.72973925  1
  O2-  O225  1  0.58584918  0.95894058  0.07049032  1
  O2-  O226  1  0.58733991  0.95143427  0.39498380  1
  O2-  O227  1  0.58411661  0.96175763  0.73355020  1
  O2-  O228  1  0.21011754  0.33364294  0.06812448  1
  O2-  O229  1  0.20013395  0.33742303  0.39610909  1
  O2-  O230  1  0.20538696  0.33117017  0.73338882  1
  O2-  O231  1  0.19724382  0.83047637  0.06110701  1
  O2-  O232  1  0.19944931  0.83087948  0.39183326  1
  O2-  O233  1  0.20530238  0.83086115  0.73222943  1
  O2-  O234  1  0.70826177  0.33047906  0.07070969  1
  O2-  O235  1  0.70670347  0.33631448  0.39216623  1
  O2-  O236  1  0.71183567  0.33365444  0.73102392  1
  O2-  O237  1  0.71422524  0.83173083  0.06826900  1
  O2-  O238  1  0.71205718  0.83720911  0.39629350  1
  O2-  O239  1  0.71120213  0.83198836  0.73087890  1
  O2-  O240  1  0.45343081  0.42138860  0.26504037  1
  O2-  O241  1  0.44979761  0.42150165  0.60056156  1
  O2-  O242  1  0.45327445  0.41806527  0.93559532  1
  O2-  O243  1  0.45436192  0.91270567  0.27480340  1
  O2-  O244  1  0.45928760  0.91973182  0.59733721  1
  O2-  O245  1  0.45563908  0.92317388  0.93645962  1
  O2-  O246  1  0.95551290  0.41577970  0.27184023  1
  O2-  O247  1  0.96119453  0.41650320  0.59653079  1
  O2-  O248  1  0.95276875  0.42190595  0.93602374  1
  O2-  O249  1  0.95392620  0.91282372  0.27026745  1
  O2-  O250  1  0.95575796  0.92365590  0.59750602  1
  O2-  O251  1  0.95323901  0.91726519  0.93259827  1
  O2-  O252  1  0.32638922  0.29207825  0.26878455  1
  O2-  O253  1  0.32902934  0.29132774  0.59887264  1
  O2-  O254  1  0.33493319  0.28501221  0.93412419  1
  O2-  O255  1  0.33655388  0.79015923  0.27174538  1
  O2-  O256  1  0.33198754  0.79325179  0.59723706  1
  O2-  O257  1  0.32937724  0.79610464  0.93553001  1
  O2-  O258  1  0.83711247  0.29521256  0.27147310  1
  O2-  O259  1  0.83608440  0.28850789  0.59534061  1
  O2-  O260  1  0.82908851  0.29134912  0.93469201  1
  O2-  O261  1  0.83770370  0.78828837  0.27026407  1
  O2-  O262  1  0.83332840  0.79272108  0.59358941  1
  O2-  O263  1  0.83615582  0.78441590  0.93336049  1
  O2-  O264  1  0.41519600  0.04029489  0.07281031  1
  O2-  O265  1  0.41742019  0.04004823  0.40410827  1
  O2-  O266  1  0.41640763  0.04689355  0.72892653  1
  O2-  O267  1  0.41474491  0.54714418  0.06580274  1
  O2-  O268  1  0.41407192  0.54922208  0.39442244  1
  O2-  O269  1  0.41745277  0.55283429  0.72790516  1
  O2-  O270  1  0.91790915  0.04302714  0.06428008  1
  O2-  O271  1  0.91201140  0.03998573  0.39930311  1
  O2-  O272  1  0.91885295  0.05232057  0.72824776  1
  O2-  O273  1  0.91339845  0.54545771  0.06796743  1
  O2-  O274  1  0.91411867  0.54523276  0.39774513  1
  O2-  O275  1  0.91507603  0.54432317  0.72797174  1
  O2-  O276  1  0.28568909  0.16363964  0.07087057  1
  O2-  O277  1  0.28605347  0.16528241  0.40567141  1
  O2-  O278  1  0.29381237  0.16428026  0.72966750  1
  O2-  O279  1  0.29527661  0.66620812  0.06662257  1
  O2-  O280  1  0.28814739  0.66260139  0.39854573  1
  O2-  O281  1  0.29299044  0.66564686  0.73057081  1
  O2-  O282  1  0.80079346  0.16412185  0.06676543  1
  O2-  O283  1  0.79822459  0.16480275  0.39379172  1
  O2-  O284  1  0.79771147  0.16725737  0.72997304  1
  O2-  O285  1  0.79337346  0.66225122  0.06734347  1
  O2-  O286  1  0.79208148  0.66279262  0.39881830  1
  O2-  O287  1  0.80083577  0.66730467  0.72550081  1
