# generated using pymatgen
data_Ca2Al2SiO7
_symmetry_space_group_name_H-M   'P 1'
_cell_length_a   15.46996022
_cell_length_b   15.46883169
_cell_length_c   15.29095055
_cell_angle_alpha   90.01678895
_cell_angle_beta   89.97553203
_cell_angle_gamma   89.97285818
_symmetry_Int_Tables_number   1
_chemical_formula_structural   Ca2Al2SiO7
_chemical_formula_sum   'Ca48 Al48 Si24 O168'
_cell_volume   3659.15737151
_cell_formula_units_Z   24
loop_
 _symmetry_equiv_pos_site_id
 _symmetry_equiv_pos_as_xyz
  1  'x, y, z'
loop_
 _atom_type_symbol
 _atom_type_oxidation_number
  Ca2+  2.0
  Al0+  0.0
  Si0+  0.0
  O2-  -2.0
loop_
 _atom_site_type_symbol
 _atom_site_label
 _atom_site_symmetry_multiplicity
 _atom_site_fract_x
 _atom_site_fract_y
 _atom_site_fract_z
 _atom_site_occupancy
  Ca2+  Ca0  1  0.17198837  0.08333704  0.16939957  1
  Ca2+  Ca1  1  0.16952954  0.07585809  0.50837163  1
  Ca2+  Ca2  1  0.16594890  0.07645118  0.83320558  1
  Ca2+  Ca3  1  0.17453699  0.58176914  0.16688183  1
  Ca2+  Ca4  1  0.17396151  0.57606788  0.51164058  1
  Ca2+  Ca5  1  0.17959807  0.57672377  0.83142704  1
  Ca2+  Ca6  1  0.66778285  0.09379010  0.16759050  1
  Ca2+  Ca7  1  0.66722810  0.08164035  0.50905073  1
  Ca2+  Ca8  1  0.67020090  0.08803451  0.83364560  1
  Ca2+  Ca9  1  0.66117535  0.57547337  0.17119348  1
  Ca2+  Ca10  1  0.67149600  0.57443409  0.50537311  1
  Ca2+  Ca11  1  0.66987010  0.58597830  0.83607053  1
  Ca2+  Ca12  1  0.06942949  0.33748831  0.16383871  1
  Ca2+  Ca13  1  0.07296919  0.34267031  0.50153233  1
  Ca2+  Ca14  1  0.07397401  0.33855615  0.82676115  1
  Ca2+  Ca15  1  0.07671727  0.83441823  0.16613502  1
  Ca2+  Ca16  1  0.07178294  0.83730727  0.50052222  1
  Ca2+  Ca17  1  0.07799879  0.83316590  0.82319640  1
  Ca2+  Ca18  1  0.58086541  0.32841034  0.16382325  1
  Ca2+  Ca19  1  0.58179807  0.32357240  0.49532498  1
  Ca2+  Ca20  1  0.57568029  0.32286460  0.82974945  1
  Ca2+  Ca21  1  0.57287094  0.82588852  0.15911986  1
  Ca2+  Ca22  1  0.57539321  0.83586824  0.49975450  1
  Ca2+  Ca23  1  0.57598481  0.83094548  0.82677983  1
  Ca2+  Ca24  1  0.34753301  0.42096224  0.16934282  1
  Ca2+  Ca25  1  0.33166381  0.41699895  0.51312457  1
  Ca2+  Ca26  1  0.34251697  0.42152289  0.83733014  1
  Ca2+  Ca27  1  0.33909990  0.91367716  0.17039049  1
  Ca2+  Ca28  1  0.32993694  0.91246543  0.51015117  1
  Ca2+  Ca29  1  0.33010942  0.90629853  0.83459889  1
  Ca2+  Ca30  1  0.82652246  0.41141885  0.17478930  1
  Ca2+  Ca31  1  0.83015877  0.41448907  0.50681222  1
  Ca2+  Ca32  1  0.83669919  0.41716386  0.83574935  1
  Ca2+  Ca33  1  0.83079974  0.92401554  0.17171150  1
  Ca2+  Ca34  1  0.82683988  0.92101675  0.51524463  1
  Ca2+  Ca35  1  0.82793661  0.92707285  0.83340162  1
  Ca2+  Ca36  1  0.43002216  0.17724535  0.15920609  1
  Ca2+  Ca37  1  0.42726227  0.17471433  0.49526903  1
  Ca2+  Ca38  1  0.42755567  0.17117876  0.82359437  1
  Ca2+  Ca39  1  0.41970601  0.67324740  0.15573074  1
  Ca2+  Ca40  1  0.40753305  0.67601286  0.50068318  1
  Ca2+  Ca41  1  0.41592098  0.66896975  0.83180992  1
  Ca2+  Ca42  1  0.91059068  0.17814678  0.16114607  1
  Ca2+  Ca43  1  0.91271418  0.17440321  0.50195246  1
  Ca2+  Ca44  1  0.90904517  0.17341609  0.82855697  1
  Ca2+  Ca45  1  0.91585273  0.67363224  0.16470957  1
  Ca2+  Ca46  1  0.90681391  0.67865006  0.50074696  1
  Ca2+  Ca47  1  0.91753210  0.67051771  0.82045904  1
  Al0+  Al48  1  -0.00108153  0.00121923  0.00733582  1
  Al0+  Al49  1  0.00113794  -0.00014555  0.32923102  1
  Al0+  Al50  1  -0.00042431  0.00044049  0.67060883  1
  Al0+  Al51  1  0.00101544  0.50203188  -0.00110807  1
  Al0+  Al52  1  0.00220446  0.50276698  0.32949551  1
  Al0+  Al53  1  0.00194135  0.50074657  0.66964605  1
  Al0+  Al54  1  0.49887223  -0.00149183  -0.00573174  1
  Al0+  Al55  1  0.50123718  0.00038755  0.32632739  1
  Al0+  Al56  1  0.49972999  -0.00207392  0.66214482  1
  Al0+  Al57  1  0.50231906  0.50142711  -0.00159555  1
  Al0+  Al58  1  0.50223661  0.50083660  0.34041897  1
  Al0+  Al59  1  0.50195835  0.50051848  0.66787709  1
  Al0+  Al60  1  0.24598772  0.24914866  0.00004018  1
  Al0+  Al61  1  0.25002896  0.25044961  0.33170482  1
  Al0+  Al62  1  0.24737906  0.24785860  0.66817905  1
  Al0+  Al63  1  0.24720391  0.74730754  0.00369047  1
  Al0+  Al64  1  0.24797254  0.74993306  0.33008217  1
  Al0+  Al65  1  0.24899550  0.74744501  0.67074837  1
  Al0+  Al66  1  0.75066988  0.25142078  -0.00304223  1
  Al0+  Al67  1  0.75157179  0.25043487  0.33297844  1
  Al0+  Al68  1  0.75061979  0.25032926  0.66278428  1
  Al0+  Al69  1  0.74987986  0.75227181  -0.00050085  1
  Al0+  Al70  1  0.75002478  0.75216157  0.32783071  1
  Al0+  Al71  1  0.74850681  0.74996985  0.67009520  1
  Al0+  Al72  1  0.42796409  0.81715067  0.65301641  1
  Al0+  Al73  1  0.42779350  0.81917418  0.32031207  1
  Al0+  Al74  1  0.42638194  0.81968646  0.98375596  1
  Al0+  Al75  1  0.17928368  0.92865267  0.67931840  1
  Al0+  Al76  1  0.17910602  0.42554624  0.68196741  1
  Al0+  Al77  1  0.57297268  0.67885051  0.98446364  1
  Al0+  Al78  1  0.57199300  0.17932129  0.31737065  1
  Al0+  Al79  1  0.82019645  0.57022952  0.67868621  1
  Al0+  Al80  1  0.68083564  0.42865030  0.34834188  1
  Al0+  Al81  1  0.57139996  0.17851148  0.65000582  1
  Al0+  Al82  1  0.42712297  0.32211498  0.65244061  1
  Al0+  Al83  1  0.57166415  0.17862572  0.98335614  1
  Al0+  Al84  1  0.93121634  0.32226339  0.65326134  1
  Al0+  Al85  1  0.93080106  0.32109385  0.98593814  1
  Al0+  Al86  1  0.82016928  0.07237464  0.68096104  1
  Al0+  Al87  1  0.81815394  0.07126055  0.01630823  1
  Al0+  Al88  1  0.42755143  0.32341505  0.31977122  1
  Al0+  Al89  1  0.32362283  0.56929679  0.68213717  1
  Al0+  Al90  1  0.92793487  0.82248747  0.31899868  1
  Al0+  Al91  1  0.32083861  0.56735148  0.01584081  1
  Al0+  Al92  1  0.93152713  0.32095981  0.32112132  1
  Al0+  Al93  1  0.67546920  0.92812829  0.68163836  1
  Al0+  Al94  1  0.92805232  0.82159652  0.65571773  1
  Al0+  Al95  1  0.42725318  0.32169522  0.98573728  1
  Si0+  Si96  1  0.07103031  0.67908646  0.64997586  1
  Si0+  Si97  1  0.57441298  0.67718202  0.64808729  1
  Si0+  Si98  1  0.57285670  0.67843698  0.31855073  1
  Si0+  Si99  1  0.67628275  0.92704714  0.01901368  1
  Si0+  Si100  1  0.32160131  0.07174118  0.01482850  1
  Si0+  Si101  1  0.68286082  0.43183828  0.01418200  1
  Si0+  Si102  1  0.17930718  0.92891152  0.34840511  1
  Si0+  Si103  1  0.67930411  0.42704113  0.68527122  1
  Si0+  Si104  1  0.17542388  0.42704976  0.01926867  1
  Si0+  Si105  1  0.32198660  0.07069086  0.34679941  1
  Si0+  Si106  1  0.06917902  0.67998377  0.98385562  1
  Si0+  Si107  1  0.07223091  0.67941148  0.31464227  1
  Si0+  Si108  1  0.17764594  0.42907555  0.34756970  1
  Si0+  Si109  1  0.93007692  0.82307313  0.98516455  1
  Si0+  Si110  1  0.07325069  0.17630808  0.31634492  1
  Si0+  Si111  1  0.07138988  0.17531304  0.98332636  1
  Si0+  Si112  1  0.82219702  0.07021895  0.34851107  1
  Si0+  Si113  1  0.67897564  0.92857489  0.34691387  1
  Si0+  Si114  1  0.17903290  0.92863036  0.01769465  1
  Si0+  Si115  1  0.07157769  0.17539132  0.65045837  1
  Si0+  Si116  1  0.82429692  0.57451269  0.01596676  1
  Si0+  Si117  1  0.82394985  0.57409052  0.34826659  1
  Si0+  Si118  1  0.32196173  0.07062197  0.68218146  1
  Si0+  Si119  1  0.32049715  0.57142719  0.34790446  1
  O2-  O120  1  0.25258598  -0.00213234  0.05849573  1
  O2-  O121  1  0.25187067  -0.00168797  0.38990181  1
  O2-  O122  1  0.25523286  0.00046288  0.72793602  1
  O2-  O123  1  0.25077667  0.48818881  0.06440715  1
  O2-  O124  1  0.25437132  0.49487327  0.38840345  1
  O2-  O125  1  0.25859396  0.48975296  0.73083626  1
  O2-  O126  1  0.74190542  -0.00151090  0.06474529  1
  O2-  O127  1  0.75122199  -0.00140403  0.38911983  1
  O2-  O128  1  0.74597138  0.00226387  0.73036482  1
  O2-  O129  1  0.75342990  0.50385161  0.05798495  1
  O2-  O130  1  0.75786011  0.50334644  0.39213739  1
  O2-  O131  1  0.74785481  0.49605384  0.72950189  1
  O2-  O132  1  0.00540926  0.24615135  0.27305578  1
  O2-  O133  1  0.00660935  0.24784892  0.60674415  1
  O2-  O134  1  0.00556017  0.24645016  0.94004401  1
  O2-  O135  1  0.00094583  0.74635289  0.27144721  1
  O2-  O136  1  0.00055137  0.74600041  0.60594086  1
  O2-  O137  1  -0.00326072  0.74918627  0.94193096  1
  O2-  O138  1  0.49996386  0.25240234  0.26963336  1
  O2-  O139  1  0.49934047  0.25135428  0.60143028  1
  O2-  O140  1  0.49322046  0.24469281  0.93593293  1
  O2-  O141  1  0.50128847  0.74381923  0.27419408  1
  O2-  O142  1  0.50241289  0.74305759  0.60442179  1
  O2-  O143  1  0.50095575  0.75052282  0.93473729  1
  O2-  O144  1  0.07104595  0.17395533  0.08928309  1
  O2-  O145  1  0.07344762  0.17197839  0.42139469  1
  O2-  O146  1  0.07025671  0.17202363  0.75581810  1
  O2-  O147  1  0.06826469  0.68108790  0.08945919  1
  O2-  O148  1  0.07603275  0.67984679  0.41949310  1
  O2-  O149  1  0.07027125  0.68109928  0.75583685  1
  O2-  O150  1  0.57244304  0.18313133  0.09703263  1
  O2-  O151  1  0.57057501  0.17725815  0.43031982  1
  O2-  O152  1  0.57087179  0.18000158  0.76337382  1
  O2-  O153  1  0.57132452  0.67893816  0.09887541  1
  O2-  O154  1  0.57584684  0.68092107  0.42368562  1
  O2-  O155  1  0.57650709  0.67902266  0.75334201  1
  O2-  O156  1  0.17287231  0.43240793  0.24274863  1
  O2-  O157  1  0.17663088  0.43139658  0.56761857  1
  O2-  O158  1  0.16988730  0.43188856  0.91470124  1
  O2-  O159  1  0.17822923  0.92965851  0.24302254  1
  O2-  O160  1  0.17884030  0.93037938  0.56563405  1
  O2-  O161  1  0.17563080  0.92861150  0.91295873  1
  O2-  O162  1  0.68159168  0.43059742  0.23465192  1
  O2-  O163  1  0.68143412  0.42811162  0.57936123  1
  O2-  O164  1  0.68584608  0.43260286  0.90943325  1
  O2-  O165  1  0.68074298  0.92687505  0.24192307  1
  O2-  O166  1  0.67798996  0.92745458  0.56699071  1
  O2-  O167  1  0.68061001  0.92341102  0.91423538  1
  O2-  O168  1  0.43240646  0.32171111  0.09952322  1
  O2-  O169  1  0.42480150  0.32049585  0.43267616  1
  O2-  O170  1  0.42961365  0.31911673  0.76585123  1
  O2-  O171  1  0.42708710  0.81728294  0.09801772  1
  O2-  O172  1  0.42495575  0.81829969  0.43305591  1
  O2-  O173  1  0.42622157  0.81461263  0.76537096  1
  O2-  O174  1  0.93108340  0.32110897  0.09962252  1
  O2-  O175  1  0.93313065  0.32136607  0.43372232  1
  O2-  O176  1  0.93231503  0.32215165  0.76619286  1
  O2-  O177  1  0.93294115  0.82168425  0.09082727  1
  O2-  O178  1  0.92864410  0.82306019  0.43167082  1
  O2-  O179  1  0.93157537  0.82014535  0.76894603  1
  O2-  O180  1  0.31846049  0.06916037  0.24150649  1
  O2-  O181  1  0.31872176  0.06915373  0.57607938  1
  O2-  O182  1  0.31784425  0.07258203  0.91025172  1
  O2-  O183  1  0.31818942  0.57296554  0.24275762  1
  O2-  O184  1  0.31729017  0.57342322  0.56784157  1
  O2-  O185  1  0.31725115  0.56974677  0.90374861  1
  O2-  O186  1  0.82207597  0.06976891  0.24314874  1
  O2-  O187  1  0.82211731  0.06974189  0.56665895  1
  O2-  O188  1  0.82128759  0.06890936  0.90415689  1
  O2-  O189  1  0.82315419  0.57458786  0.24227785  1
  O2-  O190  1  0.81807165  0.57072430  0.56521611  1
  O2-  O191  1  0.82650313  0.57456659  0.91124018  1
  O2-  O192  1  0.04795336  0.08389827  0.26712854  1
  O2-  O193  1  0.04199460  0.08404760  0.60147754  1
  O2-  O194  1  0.04332510  0.08165925  0.93897437  1
  O2-  O195  1  0.04834104  0.58673249  0.26558517  1
  O2-  O196  1  0.04704560  0.58554648  0.60417880  1
  O2-  O197  1  0.04303963  0.58860803  0.93627617  1
  O2-  O198  1  0.54401583  0.08202943  0.26177834  1
  O2-  O199  1  0.54332014  0.08001611  0.59719177  1
  O2-  O200  1  0.54960236  0.07806562  0.93361117  1
  O2-  O201  1  0.54899694  0.58363104  0.27515754  1
  O2-  O202  1  0.55285777  0.58213623  0.60353955  1
  O2-  O203  1  0.54691108  0.58108079  0.93133748  1
  O2-  O204  1  0.16650603  0.20154288  0.26920844  1
  O2-  O205  1  0.16620657  0.19536656  0.60412916  1
  O2-  O206  1  0.16566877  0.19588739  0.93730564  1
  O2-  O207  1  0.16271609  0.70971416  0.26416836  1
  O2-  O208  1  0.16291206  0.70764845  0.60300659  1
  O2-  O209  1  0.15978543  0.71035080  0.93757801  1
  O2-  O210  1  0.67059424  0.20887428  0.26603793  1
  O2-  O211  1  0.66925564  0.20770997  0.59661927  1
  O2-  O212  1  0.66754952  0.21338801  0.93085825  1
  O2-  O213  1  0.66449934  0.70498523  0.26849337  1
  O2-  O214  1  0.66617305  0.70602458  0.60026514  1
  O2-  O215  1  0.67275598  0.70582163  0.93313690  1
  O2-  O216  1  0.08525154  0.46364784  0.06831450  1
  O2-  O217  1  0.08806993  0.46355996  0.39641572  1
  O2-  O218  1  0.08481840  0.46317377  0.73749697  1
  O2-  O219  1  0.08922237  0.95984426  0.06846602  1
  O2-  O220  1  0.08734366  0.95859187  0.39486804  1
  O2-  O221  1  0.08505702  0.96151929  0.73630429  1
  O2-  O222  1  0.59156824  0.45989482  0.06259719  1
  O2-  O223  1  0.58604462  0.46033407  0.40601463  1
  O2-  O224  1  0.58607438  0.45263876  0.73100806  1
  O2-  O225  1  0.57983725  0.94815853  0.06153627  1
  O2-  O226  1  0.58642158  0.95678737  0.39268257  1
  O2-  O227  1  0.57591123  0.95288657  0.73301226  1
  O2-  O228  1  0.18904918  0.32950200  0.06200109  1
  O2-  O229  1  0.19784826  0.33441543  0.39247208  1
  O2-  O230  1  0.19351725  0.32356941  0.73239908  1
  O2-  O231  1  0.20360669  0.83644428  0.06641223  1
  O2-  O232  1  0.20470667  0.83591799  0.39414849  1
  O2-  O233  1  0.20725618  0.83247070  0.73479054  1
  O2-  O234  1  0.71306751  0.34111180  0.06224736  1
  O2-  O235  1  0.71392979  0.33281817  0.40232680  1
  O2-  O236  1  0.70694149  0.33423024  0.73007258  1
  O2-  O237  1  0.70638954  0.83477198  0.06759798  1
  O2-  O238  1  0.70612443  0.83608693  0.39346794  1
  O2-  O239  1  0.70602330  0.83144184  0.73578406  1
  O2-  O240  1  0.45753068  0.42358097  0.27133114  1
  O2-  O241  1  0.45286620  0.42263272  0.60264915  1
  O2-  O242  1  0.46126196  0.41804438  0.93426656  1
  O2-  O243  1  0.45853566  0.91480870  0.26522404  1
  O2-  O244  1  0.45539152  0.91399854  0.59785052  1
  O2-  O245  1  0.44777818  0.91939428  0.93244600  1
  O2-  O246  1  0.96143097  0.41806185  0.26655207  1
  O2-  O247  1  0.96313828  0.41893940  0.59942966  1
  O2-  O248  1  0.96048871  0.41917900  0.93454421  1
  O2-  O249  1  0.96319379  0.91662818  0.26222710  1
  O2-  O250  1  0.96227322  0.91686348  0.60158114  1
  O2-  O251  1  0.96319379  0.91397938  0.94104129  1
  O2-  O252  1  0.32836700  0.29731181  0.26622782  1
  O2-  O253  1  0.32671255  0.29440789  0.60268011  1
  O2-  O254  1  0.32388195  0.30221254  0.94004756  1
  O2-  O255  1  0.33075648  0.79059686  0.26564419  1
  O2-  O256  1  0.33046665  0.78532440  0.59960240  1
  O2-  O257  1  0.32655950  0.78886118  0.93583997  1
  O2-  O258  1  0.83623890  0.28895994  0.26628486  1
  O2-  O259  1  0.83568035  0.29146193  0.59804091  1
  O2-  O260  1  0.83534750  0.29099589  0.93202795  1
  O2-  O261  1  0.83265232  0.79305131  0.26141012  1
  O2-  O262  1  0.83177504  0.78998443  0.60164128  1
  O2-  O263  1  0.83662022  0.80020203  0.94122268  1
  O2-  O264  1  0.41416384  0.04511404  0.06162651  1
  O2-  O265  1  0.41462639  0.04337643  0.39175063  1
  O2-  O266  1  0.41578707  0.04598721  0.72590510  1
  O2-  O267  1  0.41978763  0.54165687  0.06896845  1
  O2-  O268  1  0.41390400  0.55289976  0.39515475  1
  O2-  O269  1  0.42460346  0.55051702  0.73344769  1
  O2-  O270  1  0.91440095  0.03902449  0.07264359  1
  O2-  O271  1  0.91553041  0.04260438  0.39264456  1
  O2-  O272  1  0.91710849  0.04237432  0.73534264  1
  O2-  O273  1  0.91633077  0.54751281  0.06407916  1
  O2-  O274  1  0.91963089  0.55293392  0.39143479  1
  O2-  O275  1  0.91732124  0.54296734  0.73312755  1
  O2-  O276  1  0.29025134  0.16200832  0.06501258  1
  O2-  O277  1  0.29249958  0.16202272  0.39449278  1
  O2-  O278  1  0.29440052  0.16242917  0.73016368  1
  O2-  O279  1  0.28267489  0.66232432  0.07139081  1
  O2-  O280  1  0.28512300  0.66175509  0.39441731  1
  O2-  O281  1  0.28528846  0.66337444  0.73725630  1
  O2-  O282  1  0.78854833  0.16964491  0.06887162  1
  O2-  O283  1  0.79564901  0.16215644  0.39512755  1
  O2-  O284  1  0.79322901  0.17164890  0.73255752  1
  O2-  O285  1  0.79797762  0.66735787  0.06319795  1
  O2-  O286  1  0.79507998  0.66805612  0.39247962  1
  O2-  O287  1  0.79046000  0.66582636  0.73492265  1
