# generated using pymatgen
data_Ca2Al2SiO7
_symmetry_space_group_name_H-M   'P 1'
_cell_length_a   15.46320038
_cell_length_b   15.46432061
_cell_length_c   15.28849519
_cell_angle_alpha   89.98976643
_cell_angle_beta   90.01135282
_cell_angle_gamma   89.99324974
_symmetry_Int_Tables_number   1
_chemical_formula_structural   Ca2Al2SiO7
_chemical_formula_sum   'Ca48 Al48 Si24 O168'
_cell_volume   3655.90541659
_cell_formula_units_Z   24
loop_
 _symmetry_equiv_pos_site_id
 _symmetry_equiv_pos_as_xyz
  1  'x, y, z'
loop_
 _atom_type_symbol
 _atom_type_oxidation_number
  Ca2+  2.0
  Al0+  0.0
  Si0+  0.0
  O2-  -2.0
loop_
 _atom_site_type_symbol
 _atom_site_label
 _atom_site_symmetry_multiplicity
 _atom_site_fract_x
 _atom_site_fract_y
 _atom_site_fract_z
 _atom_site_occupancy
  Ca2+  Ca0  1  0.16044694  0.07958192  0.17245112  1
  Ca2+  Ca1  1  0.17210539  0.09406589  0.50929003  1
  Ca2+  Ca2  1  0.17244085  0.08444688  0.83521578  1
  Ca2+  Ca3  1  0.16928841  0.57729286  0.16840948  1
  Ca2+  Ca4  1  0.16099141  0.57719508  0.50682303  1
  Ca2+  Ca5  1  0.16566165  0.57343496  0.83676840  1
  Ca2+  Ca6  1  0.66844504  0.08346142  0.17814855  1
  Ca2+  Ca7  1  0.67236671  0.08550031  0.50730729  1
  Ca2+  Ca8  1  0.66721530  0.08726056  0.83056546  1
  Ca2+  Ca9  1  0.67674538  0.57299617  0.18109487  1
  Ca2+  Ca10  1  0.67017726  0.57768765  0.50241116  1
  Ca2+  Ca11  1  0.66512073  0.58282106  0.83480888  1
  Ca2+  Ca12  1  0.07228469  0.33081688  0.16528400  1
  Ca2+  Ca13  1  0.07580067  0.32425339  0.49817401  1
  Ca2+  Ca14  1  0.07713611  0.33797513  0.82505673  1
  Ca2+  Ca15  1  0.08497041  0.82925882  0.16360314  1
  Ca2+  Ca16  1  0.08703833  0.81894013  0.49470345  1
  Ca2+  Ca17  1  0.09071004  0.82693711  0.82783102  1
  Ca2+  Ca18  1  0.59181177  0.32314886  0.16685422  1
  Ca2+  Ca19  1  0.58028579  0.32289622  0.49082764  1
  Ca2+  Ca20  1  0.58034978  0.32105671  0.82786731  1
  Ca2+  Ca21  1  0.58554302  0.83429601  0.16484190  1
  Ca2+  Ca22  1  0.58510547  0.83948542  0.50134437  1
  Ca2+  Ca23  1  0.57699024  0.82733770  0.81769079  1
  Ca2+  Ca24  1  0.33174749  0.41594770  0.17017502  1
  Ca2+  Ca25  1  0.32530615  0.40921598  0.50711118  1
  Ca2+  Ca26  1  0.31762651  0.42044469  0.84045122  1
  Ca2+  Ca27  1  0.32574999  0.91780829  0.16720769  1
  Ca2+  Ca28  1  0.33410076  0.92407049  0.50833218  1
  Ca2+  Ca29  1  0.33276676  0.92007450  0.83106511  1
  Ca2+  Ca30  1  0.83321816  0.41527493  0.17662487  1
  Ca2+  Ca31  1  0.83696400  0.41333335  0.49899791  1
  Ca2+  Ca32  1  0.83780572  0.41179552  0.83367254  1
  Ca2+  Ca33  1  0.82461969  0.92671657  0.18096739  1
  Ca2+  Ca34  1  0.82384483  0.93108908  0.50520863  1
  Ca2+  Ca35  1  0.83084892  0.92505251  0.83163979  1
  Ca2+  Ca36  1  0.42886326  0.17352740  0.16849561  1
  Ca2+  Ca37  1  0.42548467  0.16595193  0.49544802  1
  Ca2+  Ca38  1  0.42569607  0.15873523  0.82627283  1
  Ca2+  Ca39  1  0.41628018  0.66499162  0.16190442  1
  Ca2+  Ca40  1  0.42159113  0.67373975  0.50113751  1
  Ca2+  Ca41  1  0.41630469  0.67162606  0.82423829  1
  Ca2+  Ca42  1  0.90942794  0.17696045  0.16623500  1
  Ca2+  Ca43  1  0.91793643  0.17091938  0.49493578  1
  Ca2+  Ca44  1  0.92370205  0.17790872  0.82287024  1
  Ca2+  Ca45  1  0.92047798  0.66085934  0.16924953  1
  Ca2+  Ca46  1  0.92588315  0.66266514  0.49408524  1
  Ca2+  Ca47  1  0.92412964  0.67174178  0.82330003  1
  Al0+  Al48  1  -0.00142597  0.00090952  0.00428666  1
  Al0+  Al49  1  -0.00065432  -0.00476919  0.33629249  1
  Al0+  Al50  1  -0.00034024  -0.00026252  0.66917592  1
  Al0+  Al51  1  0.00074732  0.50156934  -0.00010136  1
  Al0+  Al52  1  0.00328020  0.49953320  0.32832581  1
  Al0+  Al53  1  -0.00109383  0.50089762  0.66422920  1
  Al0+  Al54  1  0.49998016  -0.00225422  -0.00350104  1
  Al0+  Al55  1  0.49545473  -0.00105038  0.33002205  1
  Al0+  Al56  1  0.49847549  -0.00085642  0.66719820  1
  Al0+  Al57  1  0.50152018  0.49843285  0.00316366  1
  Al0+  Al58  1  0.49842571  0.50335494  0.33466466  1
  Al0+  Al59  1  0.50043836  0.50162583  0.66468963  1
  Al0+  Al60  1  0.25110566  0.24948598  0.00720641  1
  Al0+  Al61  1  0.25009889  0.24941278  0.32422452  1
  Al0+  Al62  1  0.24871517  0.25093436  0.67798364  1
  Al0+  Al63  1  0.25091612  0.75120332  0.00656466  1
  Al0+  Al64  1  0.25053791  0.74860064  0.32839324  1
  Al0+  Al65  1  0.25196057  0.74996098  0.65722235  1
  Al0+  Al66  1  0.75117127  0.25012033  -0.00980946  1
  Al0+  Al67  1  0.74991968  0.25006837  0.33407887  1
  Al0+  Al68  1  0.74931875  0.25192977  0.66505301  1
  Al0+  Al69  1  0.75080952  0.75106308  -0.00081511  1
  Al0+  Al70  1  0.75074306  0.74939145  0.34076292  1
  Al0+  Al71  1  0.75021464  0.74910290  0.66699693  1
  Al0+  Al72  1  0.31957275  0.07121266  0.67956123  1
  Al0+  Al73  1  0.17638227  0.42770780  0.01889074  1
  Al0+  Al74  1  0.92906124  0.32129578  0.65031605  1
  Al0+  Al75  1  0.67450971  0.92917174  0.34826705  1
  Al0+  Al76  1  0.82438349  0.56893804  0.34953404  1
  Al0+  Al77  1  0.07331044  0.17768874  0.65594851  1
  Al0+  Al78  1  0.07193540  0.67878380  0.31589360  1
  Al0+  Al79  1  0.82151574  0.07221446  0.34834584  1
  Al0+  Al80  1  0.17805830  0.43067428  0.67902305  1
  Al0+  Al81  1  0.57383330  0.67652501  0.65016459  1
  Al0+  Al82  1  0.56933622  0.17887743  0.98436848  1
  Al0+  Al83  1  0.17885778  0.93159402  0.01340555  1
  Al0+  Al84  1  0.56883085  0.17985421  0.65289042  1
  Al0+  Al85  1  0.67914747  0.92964266  0.68374856  1
  Al0+  Al86  1  0.92972459  0.31892945  0.31830605  1
  Al0+  Al87  1  0.42988381  0.82108610  0.65026356  1
  Al0+  Al88  1  0.67723437  0.42825735  0.34915628  1
  Al0+  Al89  1  0.57062579  0.17891453  0.31996918  1
  Al0+  Al90  1  0.32188146  0.56995348  0.01463935  1
  Al0+  Al91  1  0.07005193  0.68111958  0.65437218  1
  Al0+  Al92  1  0.82233029  0.07481558  0.68473696  1
  Al0+  Al93  1  0.07174498  0.17487273  0.31853560  1
  Al0+  Al94  1  0.93206242  0.32170573  0.98455299  1
  Al0+  Al95  1  0.42781038  0.32456016  0.31937137  1
  Si0+  Si96  1  0.32583928  0.07115896  0.01917869  1
  Si0+  Si97  1  0.67669640  0.42977766  0.68329066  1
  Si0+  Si98  1  0.81827330  0.07154358  0.01445642  1
  Si0+  Si99  1  0.07092570  0.68270157  0.98496583  1
  Si0+  Si100  1  0.17802652  0.92447708  0.67968329  1
  Si0+  Si101  1  0.82031106  0.57420126  0.01317065  1
  Si0+  Si102  1  0.57279529  0.67849353  0.98751429  1
  Si0+  Si103  1  0.67916012  0.92768998  0.01389437  1
  Si0+  Si104  1  0.68182424  0.42843870  0.01248889  1
  Si0+  Si105  1  0.92733017  0.81931456  0.31663587  1
  Si0+  Si106  1  0.42723731  0.32353768  0.98272030  1
  Si0+  Si107  1  0.17915705  0.92590050  0.34864478  1
  Si0+  Si108  1  0.32255959  0.57299373  0.68054713  1
  Si0+  Si109  1  0.07285160  0.17547560  0.98471715  1
  Si0+  Si110  1  0.32106699  0.57412191  0.35078116  1
  Si0+  Si111  1  0.42681610  0.32288479  0.65496810  1
  Si0+  Si112  1  0.42879683  0.81855694  0.98474081  1
  Si0+  Si113  1  0.92630009  0.82377902  0.64986085  1
  Si0+  Si114  1  0.92740444  0.82310061  0.98538950  1
  Si0+  Si115  1  0.57240891  0.68034120  0.31760589  1
  Si0+  Si116  1  0.82108557  0.57012152  0.68276784  1
  Si0+  Si117  1  0.31668368  0.07042079  0.34646124  1
  Si0+  Si118  1  0.42846053  0.82028957  0.31453961  1
  Si0+  Si119  1  0.18247878  0.42883523  0.34808454  1
  O2-  O120  1  0.24995296  0.00915973  0.06217093  1
  O2-  O121  1  0.24249693  0.00326105  0.39007727  1
  O2-  O122  1  0.24126962  -0.00189833  0.72396856  1
  O2-  O123  1  0.25288757  0.49663438  0.06738042  1
  O2-  O124  1  0.25528296  0.49805327  0.39141204  1
  O2-  O125  1  0.25402296  0.50512220  0.72510862  1
  O2-  O126  1  0.74706275  0.00052833  0.05681750  1
  O2-  O127  1  0.74355164  0.00473617  0.39597103  1
  O2-  O128  1  0.74980182  0.00232543  0.73540080  1
  O2-  O129  1  0.75112330  0.50134344  0.05418750  1
  O2-  O130  1  0.75230684  0.49725523  0.39965927  1
  O2-  O131  1  0.74836399  0.50098541  0.72580773  1
  O2-  O132  1  -0.00320145  0.24273218  0.26712903  1
  O2-  O133  1  -0.00264120  0.24387765  0.60444596  1
  O2-  O134  1  0.01162165  0.25060909  0.94061336  1
  O2-  O135  1  -0.00441598  0.75179406  0.26892165  1
  O2-  O136  1  -0.00120968  0.75839935  0.60679250  1
  O2-  O137  1  0.00018132  0.75396380  0.94233490  1
  O2-  O138  1  0.50518161  0.25753075  0.26979999  1
  O2-  O139  1  0.49412508  0.25507934  0.60848439  1
  O2-  O140  1  0.49084771  0.25054937  0.93807921  1
  O2-  O141  1  0.50337500  0.75265339  0.27308704  1
  O2-  O142  1  0.50498769  0.75180771  0.60086001  1
  O2-  O143  1  0.49928751  0.74615433  0.94448088  1
  O2-  O144  1  0.06614670  0.17136815  0.08984425  1
  O2-  O145  1  0.07693702  0.17983987  0.43148419  1
  O2-  O146  1  0.07491936  0.18094732  0.76990038  1
  O2-  O147  1  0.06919335  0.68351353  0.08987587  1
  O2-  O148  1  0.07403908  0.68033446  0.42884986  1
  O2-  O149  1  0.06932753  0.68191115  0.76830573  1
  O2-  O150  1  0.57154884  0.17941500  0.09714929  1
  O2-  O151  1  0.56582900  0.17590183  0.43298851  1
  O2-  O152  1  0.56718464  0.18173547  0.76650122  1
  O2-  O153  1  0.57535518  0.68200602  0.09247791  1
  O2-  O154  1  0.56982088  0.67942249  0.42193365  1
  O2-  O155  1  0.57018268  0.67544409  0.76500301  1
  O2-  O156  1  0.18317693  0.43158253  0.24305550  1
  O2-  O157  1  0.17964653  0.43086451  0.56579557  1
  O2-  O158  1  0.17459152  0.43307502  0.90513576  1
  O2-  O159  1  0.18302611  0.92405477  0.24317999  1
  O2-  O160  1  0.18186351  0.92043079  0.57432040  1
  O2-  O161  1  0.18164016  0.92844731  0.90049752  1
  O2-  O162  1  0.67811913  0.43176326  0.23436087  1
  O2-  O163  1  0.67412205  0.43095412  0.57895127  1
  O2-  O164  1  0.68091612  0.43089045  0.90729646  1
  O2-  O165  1  0.67691005  0.92860104  0.23322024  1
  O2-  O166  1  0.68105546  0.93140648  0.57074521  1
  O2-  O167  1  0.68116836  0.92344752  0.90965080  1
  O2-  O168  1  0.43197845  0.32535134  0.08793220  1
  O2-  O169  1  0.42345856  0.31874276  0.43298002  1
  O2-  O170  1  0.43019727  0.32369547  0.76075451  1
  O2-  O171  1  0.43040957  0.81979315  0.09005659  1
  O2-  O172  1  0.42430235  0.81934913  0.41879179  1
  O2-  O173  1  0.42691903  0.81693863  0.76458563  1
  O2-  O174  1  0.92693978  0.32009320  0.09700919  1
  O2-  O175  1  0.93429694  0.32149523  0.43101021  1
  O2-  O176  1  0.93284690  0.32376481  0.76446271  1
  O2-  O177  1  0.92472043  0.82065014  0.09003094  1
  O2-  O178  1  0.93124239  0.81830285  0.42169265  1
  O2-  O179  1  0.92622942  0.81972921  0.75647064  1
  O2-  O180  1  0.31806850  0.06597926  0.24120550  1
  O2-  O181  1  0.31940735  0.07157457  0.56622489  1
  O2-  O182  1  0.32813679  0.06729116  0.91371481  1
  O2-  O183  1  0.31905253  0.57731930  0.24562907  1
  O2-  O184  1  0.32221426  0.57214064  0.57499920  1
  O2-  O185  1  0.31961110  0.57214786  0.90102352  1
  O2-  O186  1  0.82039375  0.06899063  0.23343905  1
  O2-  O187  1  0.82145489  0.07415422  0.57179792  1
  O2-  O188  1  0.81886378  0.06947744  0.90984729  1
  O2-  O189  1  0.82082988  0.56972026  0.23476002  1
  O2-  O190  1  0.82323360  0.56905733  0.57836459  1
  O2-  O191  1  0.81823476  0.57885661  0.90820904  1
  O2-  O192  1  0.04984731  0.07213821  0.27092868  1
  O2-  O193  1  0.05564507  0.07526907  0.60713293  1
  O2-  O194  1  0.04235188  0.08347552  0.93750477  1
  O2-  O195  1  0.04227564  0.58343159  0.25999278  1
  O2-  O196  1  0.03497098  0.58731453  0.59928535  1
  O2-  O197  1  0.04233214  0.59132029  0.93793457  1
  O2-  O198  1  0.53452277  0.08286062  0.26461436  1
  O2-  O199  1  0.53741261  0.08367398  0.60142464  1
  O2-  O200  1  0.54050635  0.08059892  0.93172316  1
  O2-  O201  1  0.54230163  0.58991000  0.26843483  1
  O2-  O202  1  0.54232598  0.57993716  0.59555739  1
  O2-  O203  1  0.54967529  0.58462764  0.94207056  1
  O2-  O204  1  0.16755547  0.20522198  0.26102576  1
  O2-  O205  1  0.17121480  0.21159354  0.60496761  1
  O2-  O206  1  0.17181791  0.19212104  0.94675272  1
  O2-  O207  1  0.16694924  0.71366048  0.26052450  1
  O2-  O208  1  0.16591854  0.70736083  0.59741007  1
  O2-  O209  1  0.16324551  0.71260115  0.94017336  1
  O2-  O210  1  0.66984210  0.20284740  0.26687498  1
  O2-  O211  1  0.66475954  0.21180432  0.60087615  1
  O2-  O212  1  0.66345854  0.21360270  0.92821021  1
  O2-  O213  1  0.66556582  0.70626153  0.27130085  1
  O2-  O214  1  0.67392294  0.69982730  0.60011382  1
  O2-  O215  1  0.66332725  0.70855179  0.93813653  1
  O2-  O216  1  0.07966807  0.46343750  0.07135977  1
  O2-  O217  1  0.09180850  0.46051767  0.39369163  1
  O2-  O218  1  0.08314897  0.46718832  0.73362262  1
  O2-  O219  1  0.08080058  0.95653056  0.06898867  1
  O2-  O220  1  0.08467905  0.94103944  0.39406465  1
  O2-  O221  1  0.08246525  0.94017311  0.72518596  1
  O2-  O222  1  0.59000991  0.45283922  0.06102269  1
  O2-  O223  1  0.57914597  0.46053101  0.40091959  1
  O2-  O224  1  0.58543137  0.45926651  0.73253605  1
  O2-  O225  1  0.58531817  0.95153644  0.05917561  1
  O2-  O226  1  0.57252743  0.95084073  0.39590613  1
  O2-  O227  1  0.57944057  0.95517357  0.73540188  1
  O2-  O228  1  0.19949531  0.32736785  0.07034015  1
  O2-  O229  1  0.21029672  0.33570897  0.39235570  1
  O2-  O230  1  0.20820474  0.33768748  0.74000380  1
  O2-  O231  1  0.21341719  0.83735977  0.07072913  1
  O2-  O232  1  0.21563596  0.83628226  0.39487569  1
  O2-  O233  1  0.21131987  0.83297336  0.72741880  1
  O2-  O234  1  0.71316058  0.33686847  0.05779808  1
  O2-  O235  1  0.70066634  0.32887360  0.39999892  1
  O2-  O236  1  0.70499268  0.33893213  0.73197336  1
  O2-  O237  1  0.70911874  0.83669109  0.06318023  1
  O2-  O238  1  0.70424226  0.83180528  0.40117491  1
  O2-  O239  1  0.70747057  0.82923092  0.73532278  1
  O2-  O240  1  0.44769834  0.42657003  0.26944783  1
  O2-  O241  1  0.44974841  0.41650923  0.60818921  1
  O2-  O242  1  0.45697552  0.41605630  0.93596725  1
  O2-  O243  1  0.45130470  0.91210543  0.26453229  1
  O2-  O244  1  0.45577665  0.91933758  0.59747570  1
  O2-  O245  1  0.45697720  0.90930446  0.93609138  1
  O2-  O246  1  0.96278142  0.41569518  0.26366554  1
  O2-  O247  1  0.96078369  0.41826210  0.59796063  1
  O2-  O248  1  0.95800685  0.42120053  0.93242653  1
  O2-  O249  1  0.95320857  0.91227897  0.26907623  1
  O2-  O250  1  0.94702967  0.91866443  0.60624786  1
  O2-  O251  1  0.95340615  0.91579577  0.93931527  1
  O2-  O252  1  0.33434955  0.28975075  0.26017771  1
  O2-  O253  1  0.33225507  0.29728116  0.61281107  1
  O2-  O254  1  0.33012778  0.30296543  0.94171859  1
  O2-  O255  1  0.33937084  0.78675915  0.26444728  1
  O2-  O256  1  0.33454427  0.79079502  0.59211517  1
  O2-  O257  1  0.33649316  0.79099385  0.93865394  1
  O2-  O258  1  0.82944096  0.29606871  0.26578693  1
  O2-  O259  1  0.82872489  0.29949976  0.60060409  1
  O2-  O260  1  0.83749195  0.28859791  0.92786399  1
  O2-  O261  1  0.83304965  0.79360186  0.27104223  1
  O2-  O262  1  0.83501922  0.79370314  0.60383907  1
  O2-  O263  1  0.83721972  0.79230800  0.93555918  1
  O2-  O264  1  0.41603547  0.03511585  0.06628628  1
  O2-  O265  1  0.40672339  0.03772563  0.39383866  1
  O2-  O266  1  0.41297338  0.03487921  0.73643668  1
  O2-  O267  1  0.42214521  0.54528177  0.06803796  1
  O2-  O268  1  0.41488558  0.55487880  0.39673169  1
  O2-  O269  1  0.41652146  0.54956953  0.72749019  1
  O2-  O270  1  0.90938962  0.04423763  0.06294484  1
  O2-  O271  1  0.91819895  0.03766136  0.40182536  1
  O2-  O272  1  0.92101287  0.04444186  0.73874579  1
  O2-  O273  1  0.91310799  0.54909121  0.05886311  1
  O2-  O274  1  0.92467388  0.54197969  0.39890585  1
  O2-  O275  1  0.91157925  0.54069491  0.73262714  1
  O2-  O276  1  0.31007363  0.16736390  0.06286896  1
  O2-  O277  1  0.29258125  0.16385992  0.39145497  1
  O2-  O278  1  0.29250226  0.16555124  0.74056903  1
  O2-  O279  1  0.29268062  0.66757345  0.06968684  1
  O2-  O280  1  0.28721736  0.66423509  0.39777478  1
  O2-  O281  1  0.29617925  0.66732399  0.72474388  1
  O2-  O282  1  0.78813393  0.16398172  0.05879767  1
  O2-  O283  1  0.79917574  0.17160909  0.39928953  1
  O2-  O284  1  0.79169998  0.17351130  0.73689517  1
  O2-  O285  1  0.79103916  0.66476052  0.06314311  1
  O2-  O286  1  0.79703267  0.66711152  0.40242343  1
  O2-  O287  1  0.79611655  0.66240616  0.73140517  1
