# generated using pymatgen
data_Ca2Al2SiO7
_symmetry_space_group_name_H-M   'P 1'
_cell_length_a   15.46018537
_cell_length_b   15.46131947
_cell_length_c   15.28514871
_cell_angle_alpha   90.01213433
_cell_angle_beta   90.00489756
_cell_angle_gamma   90.00876247
_symmetry_Int_Tables_number   1
_chemical_formula_structural   Ca2Al2SiO7
_chemical_formula_sum   'Ca48 Al48 Si24 O168'
_cell_volume   3653.68332276
_cell_formula_units_Z   24
loop_
 _symmetry_equiv_pos_site_id
 _symmetry_equiv_pos_as_xyz
  1  'x, y, z'
loop_
 _atom_type_symbol
 _atom_type_oxidation_number
  Ca2+  2.0
  Al0+  0.0
  Si0+  0.0
  O2-  -2.0
loop_
 _atom_site_type_symbol
 _atom_site_label
 _atom_site_symmetry_multiplicity
 _atom_site_fract_x
 _atom_site_fract_y
 _atom_site_fract_z
 _atom_site_occupancy
  Ca2+  Ca0  1  0.17178181  0.08885325  0.17331339  1
  Ca2+  Ca1  1  0.16533337  0.07966558  0.49912164  1
  Ca2+  Ca2  1  0.16745723  0.08443845  0.83569938  1
  Ca2+  Ca3  1  0.16949203  0.56953418  0.17457199  1
  Ca2+  Ca4  1  0.16426801  0.57036218  0.50335210  1
  Ca2+  Ca5  1  0.16155980  0.57087412  0.83775177  1
  Ca2+  Ca6  1  0.67216370  0.08473105  0.16288775  1
  Ca2+  Ca7  1  0.67913830  0.08377445  0.50742358  1
  Ca2+  Ca8  1  0.67938737  0.08055861  0.84618173  1
  Ca2+  Ca9  1  0.66596170  0.57356048  0.17418645  1
  Ca2+  Ca10  1  0.66007752  0.58087567  0.49517774  1
  Ca2+  Ca11  1  0.66950511  0.57627492  0.84069021  1
  Ca2+  Ca12  1  0.08676589  0.32609804  0.15828316  1
  Ca2+  Ca13  1  0.09395235  0.32316755  0.49522465  1
  Ca2+  Ca14  1  0.08771499  0.32302579  0.83129054  1
  Ca2+  Ca15  1  0.07482259  0.83947146  0.16534446  1
  Ca2+  Ca16  1  0.07497058  0.84797432  0.49527927  1
  Ca2+  Ca17  1  0.07211251  0.84275974  0.82766139  1
  Ca2+  Ca18  1  0.57866454  0.33259862  0.16198887  1
  Ca2+  Ca19  1  0.57577596  0.33366875  0.48854952  1
  Ca2+  Ca20  1  0.58919449  0.32587637  0.83629416  1
  Ca2+  Ca21  1  0.58673499  0.82806243  0.16122702  1
  Ca2+  Ca22  1  0.57348891  0.82772153  0.49386161  1
  Ca2+  Ca23  1  0.57767254  0.84041170  0.83066870  1
  Ca2+  Ca24  1  0.32358464  0.41493711  0.17584067  1
  Ca2+  Ca25  1  0.32563143  0.41638025  0.49508357  1
  Ca2+  Ca26  1  0.32053478  0.41380121  0.83662384  1
  Ca2+  Ca27  1  0.32603608  0.93229060  0.17497174  1
  Ca2+  Ca28  1  0.32162942  0.91654985  0.50535825  1
  Ca2+  Ca29  1  0.32710431  0.91837663  0.83929255  1
  Ca2+  Ca30  1  0.82194233  0.40273125  0.16660317  1
  Ca2+  Ca31  1  0.82495434  0.41439622  0.50202243  1
  Ca2+  Ca32  1  0.83146902  0.41590074  0.84486200  1
  Ca2+  Ca33  1  0.83646074  0.91822632  0.16631820  1
  Ca2+  Ca34  1  0.83828443  0.91908705  0.50629413  1
  Ca2+  Ca35  1  0.83540539  0.92528682  0.84013248  1
  Ca2+  Ca36  1  0.41421587  0.16874201  0.16129535  1
  Ca2+  Ca37  1  0.41338485  0.17341458  0.49081053  1
  Ca2+  Ca38  1  0.42267946  0.15876833  0.83647656  1
  Ca2+  Ca39  1  0.42061697  0.65878549  0.16835326  1
  Ca2+  Ca40  1  0.41655425  0.66796967  0.49231199  1
  Ca2+  Ca41  1  0.41883187  0.67495033  0.82670177  1
  Ca2+  Ca42  1  0.93064977  0.16946510  0.15678716  1
  Ca2+  Ca43  1  0.92999244  0.16074628  0.49745483  1
  Ca2+  Ca44  1  0.92440773  0.16320746  0.83160329  1
  Ca2+  Ca45  1  0.91331981  0.67972743  0.16325711  1
  Ca2+  Ca46  1  0.91960491  0.67991418  0.49397550  1
  Ca2+  Ca47  1  0.91605297  0.67925754  0.83099717  1
  Al0+  Al48  1  0.00020714  0.00009033  -0.00459040  1
  Al0+  Al49  1  -0.00046858  0.00316456  0.32618707  1
  Al0+  Al50  1  0.00143954  0.00226641  0.66689375  1
  Al0+  Al51  1  -0.00067186  0.50202069  0.00268555  1
  Al0+  Al52  1  -0.00396623  0.50102321  0.33747427  1
  Al0+  Al53  1  -0.00267412  0.49977048  0.67102543  1
  Al0+  Al54  1  0.49997096  -0.00012951  0.00430785  1
  Al0+  Al55  1  0.50228473  0.00011964  0.33733457  1
  Al0+  Al56  1  0.50083414  -0.00052949  0.65859760  1
  Al0+  Al57  1  0.50053745  0.50030688  -0.00088823  1
  Al0+  Al58  1  0.49954269  0.49898019  0.33253875  1
  Al0+  Al59  1  0.49962412  0.49895315  0.66861727  1
  Al0+  Al60  1  0.25091990  0.25107315  0.00118162  1
  Al0+  Al61  1  0.25204017  0.24995198  0.33241269  1
  Al0+  Al62  1  0.25165362  0.24979256  0.66689014  1
  Al0+  Al63  1  0.25089825  0.74897423  0.00007681  1
  Al0+  Al64  1  0.24774704  0.75100889  0.33782626  1
  Al0+  Al65  1  0.24932130  0.74897768  0.66752267  1
  Al0+  Al66  1  0.74956036  0.24922542  0.00142550  1
  Al0+  Al67  1  0.75011534  0.24918303  0.34034302  1
  Al0+  Al68  1  0.75116768  0.24987766  0.67013735  1
  Al0+  Al69  1  0.74929043  0.74910377  -0.00338020  1
  Al0+  Al70  1  0.74872695  0.75017451  0.32654590  1
  Al0+  Al71  1  0.74906090  0.74822112  0.66258342  1
  Al0+  Al72  1  0.67897483  0.92780458  0.01482237  1
  Al0+  Al73  1  0.07143486  0.18153646  0.65089864  1
  Al0+  Al74  1  0.93087311  0.82058564  0.65304439  1
  Al0+  Al75  1  0.93065730  0.82119382  0.31854210  1
  Al0+  Al76  1  0.82342051  0.07061538  0.01704882  1
  Al0+  Al77  1  0.32116865  0.57119781  0.34747895  1
  Al0+  Al78  1  0.43129309  0.31861475  0.31932080  1
  Al0+  Al79  1  0.17901279  0.42808920  0.68186763  1
  Al0+  Al80  1  0.32348850  0.07191997  0.34963277  1
  Al0+  Al81  1  0.56735576  0.68078293  0.31828626  1
  Al0+  Al82  1  0.56971985  0.17842385  0.98779726  1
  Al0+  Al83  1  0.07387978  0.18010807  0.98280095  1
  Al0+  Al84  1  0.18036000  0.92921370  0.68125452  1
  Al0+  Al85  1  0.42716781  0.82119410  0.65260514  1
  Al0+  Al86  1  0.92851991  0.32193037  0.98639018  1
  Al0+  Al87  1  0.67947474  0.42865675  0.01376305  1
  Al0+  Al88  1  0.32030905  0.06958460  0.01214862  1
  Al0+  Al89  1  0.17579632  0.42822837  0.34819540  1
  Al0+  Al90  1  0.68047810  0.42927546  0.34750311  1
  Al0+  Al91  1  0.17670674  0.93147319  0.34681216  1
  Al0+  Al92  1  0.17883646  0.43053217  0.01359954  1
  Al0+  Al93  1  0.82118914  0.06987454  0.68075443  1
  Al0+  Al94  1  0.06987582  0.18340340  0.31942929  1
  Al0+  Al95  1  0.92946862  0.81994584  0.98414109  1
  Si0+  Si96  1  0.67801971  0.42950635  0.68284668  1
  Si0+  Si97  1  0.07235283  0.67440999  0.31745177  1
  Si0+  Si98  1  0.67976279  0.92504296  0.34953925  1
  Si0+  Si99  1  0.17767648  0.92586914  0.01551331  1
  Si0+  Si100  1  0.07086473  0.67473333  0.65054873  1
  Si0+  Si101  1  0.42509994  0.82446280  0.31570353  1
  Si0+  Si102  1  0.32503312  0.07190810  0.68312453  1
  Si0+  Si103  1  0.42929437  0.82102390  0.98699619  1
  Si0+  Si104  1  0.43107118  0.32055556  0.65204794  1
  Si0+  Si105  1  0.57601239  0.17602861  0.31766206  1
  Si0+  Si106  1  0.81975136  0.57217346  0.68217837  1
  Si0+  Si107  1  0.92613768  0.32400827  0.64954230  1
  Si0+  Si108  1  0.81956641  0.06912495  0.34866528  1
  Si0+  Si109  1  0.81965392  0.57647583  0.35126157  1
  Si0+  Si110  1  0.57382417  0.17956994  0.65154605  1
  Si0+  Si111  1  0.07421611  0.67843649  0.98361039  1
  Si0+  Si112  1  0.57040225  0.67772908  0.98329262  1
  Si0+  Si113  1  0.92449458  0.32399618  0.31963266  1
  Si0+  Si114  1  0.42883873  0.32362362  0.98121106  1
  Si0+  Si115  1  0.82128782  0.57316905  0.01733527  1
  Si0+  Si116  1  0.32287040  0.57376886  0.01532273  1
  Si0+  Si117  1  0.57049107  0.67562437  0.64954938  1
  Si0+  Si118  1  0.32298047  0.57141478  0.68461452  1
  Si0+  Si119  1  0.67729647  0.92686350  0.68034796  1
  O2-  O120  1  0.24259143  -0.00188966  0.05831823  1
  O2-  O121  1  0.25367442  -0.00262905  0.39858710  1
  O2-  O122  1  0.25890947  0.00075583  0.72702664  1
  O2-  O123  1  0.25388072  0.50569456  0.05815864  1
  O2-  O124  1  0.24482813  0.50399627  0.39784456  1
  O2-  O125  1  0.25198177  0.50528105  0.72857844  1
  O2-  O126  1  0.75240935  -0.00311893  0.06685340  1
  O2-  O127  1  0.74847158  -0.00190109  0.39164478  1
  O2-  O128  1  0.74565626  -0.00547617  0.72521876  1
  O2-  O129  1  0.75733627  0.49987653  0.06077444  1
  O2-  O130  1  0.75544448  0.50323033  0.39578026  1
  O2-  O131  1  0.75031150  0.49926073  0.72413628  1
  O2-  O132  1  -0.00016020  0.26387062  0.27569781  1
  O2-  O133  1  -0.00289149  0.25838656  0.60531570  1
  O2-  O134  1  0.00021733  0.25160303  0.93345611  1
  O2-  O135  1  0.00606233  0.74587391  0.27352477  1
  O2-  O136  1  0.00749304  0.74797204  0.60560595  1
  O2-  O137  1  0.00797875  0.74867366  0.93798398  1
  O2-  O138  1  0.50360687  0.24066803  0.27454562  1
  O2-  O139  1  0.50189819  0.24924204  0.60945472  1
  O2-  O140  1  0.49701902  0.25387801  0.93740988  1
  O2-  O141  1  0.49195104  0.75429382  0.27003029  1
  O2-  O142  1  0.50176871  0.74501688  0.60747896  1
  O2-  O143  1  0.49997953  0.74985244  0.94269234  1
  O2-  O144  1  0.07510282  0.18183723  0.09632515  1
  O2-  O145  1  0.06695658  0.18072561  0.43282197  1
  O2-  O146  1  0.07233059  0.18215675  0.76349471  1
  O2-  O147  1  0.07487197  0.67956017  0.08900889  1
  O2-  O148  1  0.06832540  0.67103101  0.42297399  1
  O2-  O149  1  0.06647722  0.67174856  0.75610959  1
  O2-  O150  1  0.56741594  0.17974084  0.10056896  1
  O2-  O151  1  0.57932176  0.17961600  0.42387779  1
  O2-  O152  1  0.57427795  0.17977034  0.75651054  1
  O2-  O153  1  0.56969878  0.67546111  0.08806436  1
  O2-  O154  1  0.56794867  0.68320968  0.43182452  1
  O2-  O155  1  0.57055089  0.67267611  0.75525545  1
  O2-  O156  1  0.17756636  0.42892982  0.23477115  1
  O2-  O157  1  0.18145934  0.42848279  0.56923854  1
  O2-  O158  1  0.18147984  0.43159066  0.90000966  1
  O2-  O159  1  0.17616185  0.93413787  0.23303509  1
  O2-  O160  1  0.17923812  0.93199089  0.56860151  1
  O2-  O161  1  0.18149869  0.92235075  0.90976238  1
  O2-  O162  1  0.68167980  0.42874589  0.23480715  1
  O2-  O163  1  0.67645458  0.42995119  0.57778908  1
  O2-  O164  1  0.67817399  0.43327940  0.89989639  1
  O2-  O165  1  0.68033652  0.92335776  0.24484947  1
  O2-  O166  1  0.67745010  0.92813159  0.57451859  1
  O2-  O167  1  0.67788838  0.92915743  0.90068060  1
  O2-  O168  1  0.42990722  0.32566270  0.08647918  1
  O2-  O169  1  0.43357030  0.31869115  0.43335643  1
  O2-  O170  1  0.43274918  0.32197565  0.75705501  1
  O2-  O171  1  0.42896065  0.81851446  0.09163332  1
  O2-  O172  1  0.42949846  0.82341208  0.42146718  1
  O2-  O173  1  0.43084570  0.82100835  0.76643139  1
  O2-  O174  1  0.92972848  0.31991806  0.10013807  1
  O2-  O175  1  0.91950990  0.31952150  0.42525847  1
  O2-  O176  1  0.92320469  0.32421482  0.75466096  1
  O2-  O177  1  0.92898874  0.81744508  0.09726092  1
  O2-  O178  1  0.92993087  0.82107711  0.43193248  1
  O2-  O179  1  0.92923833  0.81787917  0.76585688  1
  O2-  O180  1  0.32291438  0.07151900  0.23599799  1
  O2-  O181  1  0.32543031  0.07318191  0.57796927  1
  O2-  O182  1  0.32302040  0.06469669  0.89862129  1
  O2-  O183  1  0.32117791  0.56698753  0.23361389  1
  O2-  O184  1  0.32678517  0.56919674  0.57968089  1
  O2-  O185  1  0.32357477  0.57539856  0.90952769  1
  O2-  O186  1  0.81836554  0.07026569  0.24416280  1
  O2-  O187  1  0.81914246  0.06924373  0.56697081  1
  O2-  O188  1  0.82155741  0.06888152  0.90321231  1
  O2-  O189  1  0.81668501  0.58003776  0.24604793  1
  O2-  O190  1  0.81889698  0.57287273  0.57728530  1
  O2-  O191  1  0.81728134  0.57507378  0.91117264  1
  O2-  O192  1  0.03424030  0.09032899  0.26256662  1
  O2-  O193  1  0.03713770  0.08612757  0.59720841  1
  O2-  O194  1  0.04746450  0.08063123  0.93109287  1
  O2-  O195  1  0.04342926  0.58183148  0.26976532  1
  O2-  O196  1  0.03871024  0.58324188  0.60292526  1
  O2-  O197  1  0.04499215  0.58605580  0.93678474  1
  O2-  O198  1  0.55700125  0.07965081  0.27509241  1
  O2-  O199  1  0.55074121  0.08739378  0.60253466  1
  O2-  O200  1  0.53742774  0.08205212  0.93285826  1
  O2-  O201  1  0.53797699  0.58386478  0.26447234  1
  O2-  O202  1  0.54347806  0.58204770  0.60319787  1
  O2-  O203  1  0.54114796  0.58721326  0.93296891  1
  O2-  O204  1  0.16773789  0.20975843  0.26720755  1
  O2-  O205  1  0.16940473  0.21176987  0.59844337  1
  O2-  O206  1  0.17206995  0.21090552  0.92956521  1
  O2-  O207  1  0.16749812  0.69663239  0.27349064  1
  O2-  O208  1  0.16744118  0.69266137  0.60891470  1
  O2-  O209  1  0.16907230  0.69964520  0.93680240  1
  O2-  O210  1  0.66815600  0.20691721  0.27200875  1
  O2-  O211  1  0.66492243  0.21022680  0.60360681  1
  O2-  O212  1  0.66544427  0.20995065  0.93238488  1
  O2-  O213  1  0.66304902  0.71136761  0.26279713  1
  O2-  O214  1  0.66369899  0.69999419  0.60227088  1
  O2-  O215  1  0.66143663  0.70412437  0.93385338  1
  O2-  O216  1  0.08253095  0.46100220  0.06780866  1
  O2-  O217  1  0.07540473  0.45170030  0.40112882  1
  O2-  O218  1  0.08095002  0.45728285  0.73436539  1
  O2-  O219  1  0.08231822  0.94751943  0.05739980  1
  O2-  O220  1  0.07948442  0.96735464  0.39878795  1
  O2-  O221  1  0.08551055  0.96424660  0.73527264  1
  O2-  O222  1  0.58312257  0.46279692  0.06603741  1
  O2-  O223  1  0.58527312  0.46299524  0.40194275  1
  O2-  O224  1  0.58717570  0.45858179  0.73156237  1
  O2-  O225  1  0.58184289  0.95600054  0.06962333  1
  O2-  O226  1  0.58723082  0.94943691  0.39754061  1
  O2-  O227  1  0.58291356  0.95323815  0.72470575  1
  O2-  O228  1  0.21195357  0.33523042  0.06685395  1
  O2-  O229  1  0.21264673  0.33288586  0.40096085  1
  O2-  O230  1  0.21587912  0.33332916  0.73576461  1
  O2-  O231  1  0.20589905  0.83307119  0.06243318  1
  O2-  O232  1  0.19547395  0.83043591  0.39889634  1
  O2-  O233  1  0.20574635  0.83017548  0.73439448  1
  O2-  O234  1  0.70566152  0.33201145  0.06838855  1
  O2-  O235  1  0.71021288  0.33360061  0.40566291  1
  O2-  O236  1  0.70493993  0.33741411  0.72971156  1
  O2-  O237  1  0.70495145  0.82726603  0.06475473  1
  O2-  O238  1  0.71006507  0.83445326  0.39753706  1
  O2-  O239  1  0.69922664  0.83123181  0.72424296  1
  O2-  O240  1  0.46440029  0.41359552  0.26483645  1
  O2-  O241  1  0.46050639  0.41225727  0.60487316  1
  O2-  O242  1  0.45579449  0.41675613  0.93362957  1
  O2-  O243  1  0.45453213  0.91817986  0.27179420  1
  O2-  O244  1  0.45842696  0.91613718  0.59493203  1
  O2-  O245  1  0.45848570  0.91147168  0.93852485  1
  O2-  O246  1  0.93749250  0.42188562  0.27818355  1
  O2-  O247  1  0.94668011  0.41979047  0.60538752  1
  O2-  O248  1  0.95154835  0.42384856  0.93656590  1
  O2-  O249  1  0.96105044  0.91650430  0.26274208  1
  O2-  O250  1  0.96125639  0.91735932  0.60004588  1
  O2-  O251  1  0.95798043  0.91648826  0.92959912  1
  O2-  O252  1  0.33526574  0.28989089  0.26438849  1
  O2-  O253  1  0.34000139  0.29250079  0.60431028  1
  O2-  O254  1  0.33620325  0.29615672  0.93500036  1
  O2-  O255  1  0.32947392  0.80335485  0.27255956  1
  O2-  O256  1  0.33040009  0.79049192  0.59911156  1
  O2-  O257  1  0.33780841  0.79281282  0.93761465  1
  O2-  O258  1  0.83330790  0.28975075  0.27311047  1
  O2-  O259  1  0.83227805  0.29609221  0.60341042  1
  O2-  O260  1  0.82882522  0.29611856  0.93429254  1
  O2-  O261  1  0.83492577  0.78885661  0.26398065  1
  O2-  O262  1  0.83357094  0.78878115  0.59934026  1
  O2-  O263  1  0.83364631  0.78542134  0.92969828  1
  O2-  O264  1  0.41434041  0.03691787  0.06891741  1
  O2-  O265  1  0.42462688  0.04964947  0.40167959  1
  O2-  O266  1  0.42110036  0.04782510  0.72583982  1
  O2-  O267  1  0.41667635  0.54761297  0.06004425  1
  O2-  O268  1  0.41769317  0.53838748  0.40184044  1
  O2-  O269  1  0.41577802  0.54286426  0.73284363  1
  O2-  O270  1  0.92271335  0.04185899  0.06769454  1
  O2-  O271  1  0.91106215  0.03920205  0.39444148  1
  O2-  O272  1  0.91683336  0.03907913  0.73434575  1
  O2-  O273  1  0.91663831  0.55638297  0.06224517  1
  O2-  O274  1  0.91412794  0.55633893  0.39754287  1
  O2-  O275  1  0.91076652  0.54719364  0.73210727  1
  O2-  O276  1  0.29465354  0.16781218  0.06433398  1
  O2-  O277  1  0.29289052  0.16925429  0.40231272  1
  O2-  O278  1  0.29843410  0.16478298  0.72982139  1
  O2-  O279  1  0.29987365  0.66737561  0.06291372  1
  O2-  O280  1  0.30084418  0.67206364  0.39882346  1
  O2-  O281  1  0.30061543  0.66581497  0.73040938  1
  O2-  O282  1  0.79163523  0.16773545  0.06945223  1
  O2-  O283  1  0.79154347  0.15934871  0.39987313  1
  O2-  O284  1  0.79011545  0.16666247  0.73449389  1
  O2-  O285  1  0.78850813  0.66396535  0.06403310  1
  O2-  O286  1  0.78724154  0.66757768  0.39905265  1
  O2-  O287  1  0.78831845  0.66285395  0.73082117  1
