# generated using pymatgen
data_Ca2Al2SiO7
_symmetry_space_group_name_H-M   'P 1'
_cell_length_a   15.46484105
_cell_length_b   15.46410172
_cell_length_c   15.28823974
_cell_angle_alpha   89.99335525
_cell_angle_beta   90.00379977
_cell_angle_gamma   90.00754592
_symmetry_Int_Tables_number   1
_chemical_formula_structural   Ca2Al2SiO7
_chemical_formula_sum   'Ca48 Al48 Si24 O168'
_cell_volume   3656.18055937
_cell_formula_units_Z   24
loop_
 _symmetry_equiv_pos_site_id
 _symmetry_equiv_pos_as_xyz
  1  'x, y, z'
loop_
 _atom_type_symbol
 _atom_type_oxidation_number
  Ca2+  2.0
  Al0+  0.0
  Si0+  0.0
  O2-  -2.0
loop_
 _atom_site_type_symbol
 _atom_site_label
 _atom_site_symmetry_multiplicity
 _atom_site_fract_x
 _atom_site_fract_y
 _atom_site_fract_z
 _atom_site_occupancy
  Ca2+  Ca0  1  0.17438332  0.08192687  0.17850301  1
  Ca2+  Ca1  1  0.17145895  0.08483427  0.50630396  1
  Ca2+  Ca2  1  0.17644536  0.09467971  0.83181254  1
  Ca2+  Ca3  1  0.15792177  0.57931892  0.17514711  1
  Ca2+  Ca4  1  0.15949769  0.56995650  0.50166281  1
  Ca2+  Ca5  1  0.16194293  0.57742259  0.83567123  1
  Ca2+  Ca6  1  0.66728540  0.08086540  0.17006919  1
  Ca2+  Ca7  1  0.66321467  0.08127337  0.50251593  1
  Ca2+  Ca8  1  0.66433325  0.07187598  0.83860240  1
  Ca2+  Ca9  1  0.67765639  0.57971827  0.17128695  1
  Ca2+  Ca10  1  0.67777500  0.58815786  0.50368374  1
  Ca2+  Ca11  1  0.68081526  0.57402524  0.84156721  1
  Ca2+  Ca12  1  0.08254411  0.33044605  0.16667883  1
  Ca2+  Ca13  1  0.08910258  0.32544552  0.49900248  1
  Ca2+  Ca14  1  0.07405948  0.33232069  0.82510310  1
  Ca2+  Ca15  1  0.08281889  0.82222659  0.15977775  1
  Ca2+  Ca16  1  0.08909045  0.82951271  0.49146648  1
  Ca2+  Ca17  1  0.08265099  0.82831796  0.83048409  1
  Ca2+  Ca18  1  0.58050062  0.33108181  0.16489191  1
  Ca2+  Ca19  1  0.56804405  0.32852590  0.49006959  1
  Ca2+  Ca20  1  0.57688132  0.33704017  0.82691508  1
  Ca2+  Ca21  1  0.58640847  0.82870962  0.16369751  1
  Ca2+  Ca22  1  0.58367889  0.83083476  0.49393978  1
  Ca2+  Ca23  1  0.58845610  0.83633003  0.82881814  1
  Ca2+  Ca24  1  0.32638572  0.41718907  0.17598763  1
  Ca2+  Ca25  1  0.32483803  0.40512289  0.50152949  1
  Ca2+  Ca26  1  0.32588693  0.40853401  0.83130111  1
  Ca2+  Ca27  1  0.32612585  0.92737184  0.17427962  1
  Ca2+  Ca28  1  0.32090975  0.92724492  0.50427159  1
  Ca2+  Ca29  1  0.32540029  0.92920456  0.83603861  1
  Ca2+  Ca30  1  0.83874110  0.42515685  0.16928825  1
  Ca2+  Ca31  1  0.84056144  0.42940315  0.50598510  1
  Ca2+  Ca32  1  0.83973122  0.42226558  0.84145310  1
  Ca2+  Ca33  1  0.82970211  0.90536025  0.16476074  1
  Ca2+  Ca34  1  0.82655630  0.91891759  0.50554382  1
  Ca2+  Ca35  1  0.82437361  0.91262998  0.83881104  1
  Ca2+  Ca36  1  0.41345456  0.16584181  0.16922132  1
  Ca2+  Ca37  1  0.41190582  0.17135181  0.49379135  1
  Ca2+  Ca38  1  0.41416824  0.16623660  0.82685040  1
  Ca2+  Ca39  1  0.42442907  0.66522673  0.16432453  1
  Ca2+  Ca40  1  0.42520739  0.66947911  0.49086146  1
  Ca2+  Ca41  1  0.42093561  0.67029408  0.82760627  1
  Ca2+  Ca42  1  0.92577704  0.17102415  0.15966059  1
  Ca2+  Ca43  1  0.92979118  0.17002334  0.49560453  1
  Ca2+  Ca44  1  0.91939682  0.18050312  0.82345389  1
  Ca2+  Ca45  1  0.92297749  0.66493674  0.16151715  1
  Ca2+  Ca46  1  0.91804265  0.66589531  0.49422895  1
  Ca2+  Ca47  1  0.91350387  0.66630194  0.83613091  1
  Al0+  Al48  1  0.00191405  -0.00214583  -0.00653419  1
  Al0+  Al49  1  -0.00350568  0.00014192  0.33105513  1
  Al0+  Al50  1  -0.00174566  -0.00153346  0.66706419  1
  Al0+  Al51  1  0.00158820  0.49825122  -0.00264643  1
  Al0+  Al52  1  -0.00066915  0.50244925  0.33908512  1
  Al0+  Al53  1  0.00104329  0.50277632  0.67279456  1
  Al0+  Al54  1  0.49958025  -0.00002602  0.00895452  1
  Al0+  Al55  1  0.49929951  0.00075392  0.33342832  1
  Al0+  Al56  1  0.49838659  -0.00159456  0.67293253  1
  Al0+  Al57  1  0.49975361  0.49886857  0.00100370  1
  Al0+  Al58  1  0.50065514  0.50002524  0.32437164  1
  Al0+  Al59  1  0.50158475  0.50145914  0.66045479  1
  Al0+  Al60  1  0.25225180  0.25130296  0.00507456  1
  Al0+  Al61  1  0.24871295  0.25107727  0.33121057  1
  Al0+  Al62  1  0.24981398  0.25157773  0.66885180  1
  Al0+  Al63  1  0.25272424  0.74982602  -0.00549759  1
  Al0+  Al64  1  0.25097037  0.74958166  0.33124207  1
  Al0+  Al65  1  0.25150663  0.75108658  0.66817478  1
  Al0+  Al66  1  0.74767988  0.24774657  -0.00187859  1
  Al0+  Al67  1  0.74752071  0.25127909  0.33126983  1
  Al0+  Al68  1  0.74860047  0.25214950  0.66020690  1
  Al0+  Al69  1  0.75096431  0.74755219  0.00420441  1
  Al0+  Al70  1  0.74943672  0.74890428  0.33369000  1
  Al0+  Al71  1  0.75192488  0.74884536  0.67423960  1
  Al0+  Al72  1  0.17963780  0.43128397  0.34679506  1
  Al0+  Al73  1  0.57280440  0.67988814  0.31859193  1
  Al0+  Al74  1  0.06940545  0.17818971  0.31919807  1
  Al0+  Al75  1  0.68105443  0.92916145  0.01609872  1
  Al0+  Al76  1  0.17504873  0.92579633  0.68344193  1
  Al0+  Al77  1  0.17537892  0.92704218  0.34574647  1
  Al0+  Al78  1  0.31956848  0.07094862  0.35015442  1
  Al0+  Al79  1  0.31856242  0.07130074  0.01685389  1
  Al0+  Al80  1  0.42708361  0.31984981  0.31524515  1
  Al0+  Al81  1  0.92885399  0.31782104  0.98837139  1
  Al0+  Al82  1  0.06956174  0.17906472  0.65255094  1
  Al0+  Al83  1  0.18173184  0.43106016  0.68149976  1
  Al0+  Al84  1  0.82102869  0.56927350  0.68295433  1
  Al0+  Al85  1  0.57191171  0.17740678  0.31655732  1
  Al0+  Al86  1  0.31796079  0.07144114  0.68226935  1
  Al0+  Al87  1  0.81848160  0.56978979  0.34854159  1
  Al0+  Al88  1  0.92750621  0.32580434  0.65019087  1
  Al0+  Al89  1  0.43031281  0.32111677  0.65366815  1
  Al0+  Al90  1  0.82246552  0.56707349  0.01820925  1
  Al0+  Al91  1  0.92793753  0.82063315  0.98319664  1
  Al0+  Al92  1  0.67599745  0.42542571  0.01580338  1
  Al0+  Al93  1  0.68058959  0.93108487  0.67868747  1
  Al0+  Al94  1  0.07050030  0.67997371  0.32281788  1
  Al0+  Al95  1  0.07298140  0.67796851  0.98284586  1
  Si0+  Si96  1  0.92818985  0.32342161  0.31860809  1
  Si0+  Si97  1  0.82407706  0.07230187  0.01426261  1
  Si0+  Si98  1  0.07270010  0.68120880  0.65124930  1
  Si0+  Si99  1  0.42892900  0.82197965  0.65149895  1
  Si0+  Si100  1  0.42880031  0.82165129  0.31571742  1
  Si0+  Si101  1  0.57108376  0.17457121  0.65199716  1
  Si0+  Si102  1  0.43166665  0.82242624  0.98404891  1
  Si0+  Si103  1  0.82209385  0.07519774  0.68139254  1
  Si0+  Si104  1  0.92597152  0.82244975  0.31872326  1
  Si0+  Si105  1  0.42918641  0.32093686  0.98363534  1
  Si0+  Si106  1  0.32553660  0.57270245  0.34822297  1
  Si0+  Si107  1  0.32599822  0.57357924  0.68171289  1
  Si0+  Si108  1  0.07526861  0.17814103  0.98449501  1
  Si0+  Si109  1  0.57257311  0.68202115  0.65291186  1
  Si0+  Si110  1  0.18125343  0.43146113  0.01549581  1
  Si0+  Si111  1  0.67571147  0.42693856  0.35118006  1
  Si0+  Si112  1  0.67584827  0.42828580  0.67982547  1
  Si0+  Si113  1  0.32269182  0.57350696  0.01377280  1
  Si0+  Si114  1  0.68060798  0.92990445  0.34735934  1
  Si0+  Si115  1  0.17814895  0.92497210  0.01612675  1
  Si0+  Si116  1  0.92670180  0.81937929  0.65184432  1
  Si0+  Si117  1  0.82088374  0.07523317  0.34744742  1
  Si0+  Si118  1  0.57028719  0.67825749  0.98374423  1
  Si0+  Si119  1  0.56916644  0.17637740  0.98427049  1
  O2-  O120  1  0.24015820  -0.00087202  0.06059166  1
  O2-  O121  1  0.24364132  0.00153223  0.39755634  1
  O2-  O122  1  0.24274758  0.00249528  0.73270188  1
  O2-  O123  1  0.24828630  0.50690947  0.05618785  1
  O2-  O124  1  0.25692515  0.50477845  0.39272666  1
  O2-  O125  1  0.25839016  0.50499846  0.72752168  1
  O2-  O126  1  0.76019573  -0.00000245  0.06128023  1
  O2-  O127  1  0.74900206  0.00355920  0.38883812  1
  O2-  O128  1  0.75130821  0.00877344  0.72617382  1
  O2-  O129  1  0.75119535  0.49336174  0.06676447  1
  O2-  O130  1  0.74431637  0.49497039  0.39638228  1
  O2-  O131  1  0.75077762  0.48843507  0.72590622  1
  O2-  O132  1  -0.00686255  0.25192837  0.27321576  1
  O2-  O133  1  -0.00334105  0.25033943  0.60166650  1
  O2-  O134  1  0.00026616  0.23996904  0.94136351  1
  O2-  O135  1  0.00105415  0.75973512  0.27719059  1
  O2-  O136  1  0.00367864  0.75488588  0.60981812  1
  O2-  O137  1  0.00134166  0.75032722  0.93246090  1
  O2-  O138  1  0.49991292  0.24849673  0.26517921  1
  O2-  O139  1  0.50495742  0.24564917  0.60864769  1
  O2-  O140  1  0.50118985  0.25054119  0.94200888  1
  O2-  O141  1  0.49639167  0.75215268  0.27048549  1
  O2-  O142  1  0.50039351  0.75113565  0.60938084  1
  O2-  O143  1  0.50220932  0.75136796  0.93986090  1
  O2-  O144  1  0.07615445  0.18093988  0.09022052  1
  O2-  O145  1  0.06892274  0.17777398  0.43185627  1
  O2-  O146  1  0.06874407  0.18298291  0.76663666  1
  O2-  O147  1  0.07415793  0.67863400  0.09657670  1
  O2-  O148  1  0.06732807  0.67849814  0.43612886  1
  O2-  O149  1  0.07314467  0.68095257  0.75612341  1
  O2-  O150  1  0.56784154  0.17465180  0.08880142  1
  O2-  O151  1  0.57273134  0.17767901  0.43038460  1
  O2-  O152  1  0.57027937  0.17341613  0.75790990  1
  O2-  O153  1  0.56718408  0.67889143  0.08869577  1
  O2-  O154  1  0.57348394  0.68492157  0.43234585  1
  O2-  O155  1  0.57045498  0.68273911  0.75814063  1
  O2-  O156  1  0.17816405  0.43406886  0.23314902  1
  O2-  O157  1  0.18216181  0.43190480  0.56863560  1
  O2-  O158  1  0.18402466  0.42909583  0.91040365  1
  O2-  O159  1  0.17843097  0.92670718  0.23193092  1
  O2-  O160  1  0.18023564  0.92095648  0.57034933  1
  O2-  O161  1  0.18291772  0.92216124  0.91091962  1
  O2-  O162  1  0.67759226  0.42787391  0.24573573  1
  O2-  O163  1  0.67151553  0.43451346  0.57478127  1
  O2-  O164  1  0.67132055  0.43035745  0.90192751  1
  O2-  O165  1  0.68298238  0.92757182  0.24250150  1
  O2-  O166  1  0.68144244  0.92892816  0.56526062  1
  O2-  O167  1  0.67834506  0.93138294  0.90289009  1
  O2-  O168  1  0.42712827  0.32164692  0.08797623  1
  O2-  O169  1  0.42859462  0.31931498  0.42899514  1
  O2-  O170  1  0.43259374  0.32208900  0.76744228  1
  O2-  O171  1  0.43216962  0.81930924  0.08898739  1
  O2-  O172  1  0.43150807  0.82060223  0.42162043  1
  O2-  O173  1  0.43025061  0.82049820  0.75684340  1
  O2-  O174  1  0.93301587  0.31777544  0.10172280  1
  O2-  O175  1  0.92970765  0.32228249  0.42398782  1
  O2-  O176  1  0.92918858  0.32396227  0.76420286  1
  O2-  O177  1  0.92891826  0.81885250  0.09700265  1
  O2-  O178  1  0.92046913  0.82052181  0.42452067  1
  O2-  O179  1  0.92200314  0.81522569  0.75625888  1
  O2-  O180  1  0.31913762  0.06750996  0.23633557  1
  O2-  O181  1  0.32018940  0.06952228  0.56938737  1
  O2-  O182  1  0.31944679  0.07235829  0.90383146  1
  O2-  O183  1  0.32497463  0.57237458  0.24222825  1
  O2-  O184  1  0.32732424  0.57629658  0.57652844  1
  O2-  O185  1  0.32618754  0.57207960  0.90864424  1
  O2-  O186  1  0.82153526  0.07581794  0.24249957  1
  O2-  O187  1  0.82135297  0.07159382  0.57548199  1
  O2-  O188  1  0.81805039  0.07381098  0.90882270  1
  O2-  O189  1  0.81992202  0.56956498  0.23605208  1
  O2-  O190  1  0.81802976  0.57438771  0.56977431  1
  O2-  O191  1  0.81974938  0.56646437  0.90452264  1
  O2-  O192  1  0.03795243  0.08204974  0.26349154  1
  O2-  O193  1  0.04359321  0.07870226  0.60119165  1
  O2-  O194  1  0.06064991  0.08163425  0.94096034  1
  O2-  O195  1  0.03430186  0.58514803  0.26838738  1
  O2-  O196  1  0.04126443  0.59001094  0.60588475  1
  O2-  O197  1  0.04479153  0.57939402  0.93063702  1
  O2-  O198  1  0.54573532  0.07766441  0.26467593  1
  O2-  O199  1  0.54367899  0.08097161  0.60657759  1
  O2-  O200  1  0.53670784  0.08508783  0.93779390  1
  O2-  O201  1  0.54494956  0.58430384  0.26221940  1
  O2-  O202  1  0.54710310  0.59105938  0.60316087  1
  O2-  O203  1  0.53840153  0.58768463  0.93590666  1
  O2-  O204  1  0.16401312  0.21158155  0.26426871  1
  O2-  O205  1  0.16755228  0.21092072  0.60155455  1
  O2-  O206  1  0.16633705  0.21377215  0.93898865  1
  O2-  O207  1  0.16915997  0.70266957  0.26819132  1
  O2-  O208  1  0.16613716  0.70504172  0.60486838  1
  O2-  O209  1  0.17285582  0.70410801  0.92954045  1
  O2-  O210  1  0.67057630  0.20540499  0.26238009  1
  O2-  O211  1  0.66552549  0.19511412  0.60529954  1
  O2-  O212  1  0.66192450  0.19787773  0.93597795  1
  O2-  O213  1  0.66697098  0.71517975  0.26314792  1
  O2-  O214  1  0.66367488  0.71368040  0.60671776  1
  O2-  O215  1  0.66304074  0.70450424  0.93884004  1
  O2-  O216  1  0.08894884  0.45560975  0.06220517  1
  O2-  O217  1  0.08547780  0.46468040  0.40321663  1
  O2-  O218  1  0.08734291  0.46500745  0.73753108  1
  O2-  O219  1  0.08085976  0.94247585  0.05691923  1
  O2-  O220  1  0.07359346  0.94817642  0.39483328  1
  O2-  O221  1  0.07330905  0.94542072  0.73267282  1
  O2-  O222  1  0.57875141  0.45834337  0.06932537  1
  O2-  O223  1  0.58102138  0.45425888  0.39375569  1
  O2-  O224  1  0.58502370  0.46109924  0.72864756  1
  O2-  O225  1  0.58631386  0.96172112  0.07181144  1
  O2-  O226  1  0.58785105  0.95422387  0.39422666  1
  O2-  O227  1  0.58377728  0.95651103  0.73523414  1
  O2-  O228  1  0.21364286  0.34202188  0.06465957  1
  O2-  O229  1  0.20997658  0.33466297  0.39967158  1
  O2-  O230  1  0.21253367  0.33613157  0.73806768  1
  O2-  O231  1  0.21096105  0.83292728  0.06191979  1
  O2-  O232  1  0.20812396  0.82916838  0.39859547  1
  O2-  O233  1  0.21089740  0.82959108  0.73770660  1
  O2-  O234  1  0.69722344  0.32381519  0.06440646  1
  O2-  O235  1  0.69824654  0.33236087  0.39655352  1
  O2-  O236  1  0.69104146  0.33066398  0.72159185  1
  O2-  O237  1  0.70855880  0.83154106  0.06962364  1
  O2-  O238  1  0.71121293  0.83966134  0.39635207  1
  O2-  O239  1  0.71408358  0.83661168  0.73522925  1
  O2-  O240  1  0.45361581  0.41885289  0.26178375  1
  O2-  O241  1  0.45939380  0.41772346  0.59780867  1
  O2-  O242  1  0.45543104  0.41339055  0.93597699  1
  O2-  O243  1  0.45705708  0.91402015  0.26962164  1
  O2-  O244  1  0.45862909  0.91300696  0.60450735  1
  O2-  O245  1  0.46180403  0.91435299  0.93878999  1
  O2-  O246  1  0.95908505  0.41570122  0.27354586  1
  O2-  O247  1  0.96022861  0.42461145  0.60118138  1
  O2-  O248  1  0.96360604  0.41227270  0.93338461  1
  O2-  O249  1  0.94102585  0.91777334  0.27252129  1
  O2-  O250  1  0.94475934  0.91400617  0.60601685  1
  O2-  O251  1  0.95045958  0.92062366  0.92894239  1
  O2-  O252  1  0.32927915  0.29233544  0.26117836  1
  O2-  O253  1  0.33369256  0.29061937  0.60153869  1
  O2-  O254  1  0.33735643  0.29093218  0.93684912  1
  O2-  O255  1  0.33601329  0.79647895  0.26812705  1
  O2-  O256  1  0.33818216  0.79313992  0.60306552  1
  O2-  O257  1  0.34117975  0.79451253  0.93418238  1
  O2-  O258  1  0.83283876  0.30277746  0.27449923  1
  O2-  O259  1  0.82660328  0.30453891  0.59821420  1
  O2-  O260  1  0.83071422  0.29147393  0.93399100  1
  O2-  O261  1  0.83589007  0.78901729  0.27014407  1
  O2-  O262  1  0.83699495  0.78496184  0.60305134  1
  O2-  O263  1  0.82848364  0.78950340  0.93217963  1
  O2-  O264  1  0.41311148  0.03666915  0.07156491  1
  O2-  O265  1  0.41862477  0.04085603  0.40138764  1
  O2-  O266  1  0.41494967  0.03898023  0.73700502  1
  O2-  O267  1  0.41234552  0.54202176  0.06298533  1
  O2-  O268  1  0.42044189  0.54867396  0.39262806  1
  O2-  O269  1  0.42043681  0.54896811  0.72755747  1
  O2-  O270  1  0.92106188  0.05219263  0.05598591  1
  O2-  O271  1  0.91109197  0.04571040  0.39671830  1
  O2-  O272  1  0.91413945  0.04879202  0.72877092  1
  O2-  O273  1  0.92229444  0.53840862  0.06835990  1
  O2-  O274  1  0.91386380  0.53978671  0.40493245  1
  O2-  O275  1  0.91800572  0.54474316  0.73797955  1
  O2-  O276  1  0.29079821  0.16873208  0.07085421  1
  O2-  O277  1  0.29282311  0.17075244  0.39874610  1
  O2-  O278  1  0.29170257  0.16977409  0.73694997  1
  O2-  O279  1  0.30108932  0.66732233  0.05989669  1
  O2-  O280  1  0.30301225  0.66721045  0.39330028  1
  O2-  O281  1  0.30074464  0.66663793  0.72927147  1
  O2-  O282  1  0.79437341  0.16339555  0.06270897  1
  O2-  O283  1  0.79301570  0.16627789  0.39629920  1
  O2-  O284  1  0.79875534  0.17076484  0.72484266  1
  O2-  O285  1  0.79199767  0.66501677  0.06987158  1
  O2-  O286  1  0.78514329  0.66624018  0.40276837  1
  O2-  O287  1  0.78353765  0.66224139  0.73945304  1
