# generated using pymatgen
data_Ca2Al2SiO7
_symmetry_space_group_name_H-M   'P 1'
_cell_length_a   15.46058931
_cell_length_b   15.46039837
_cell_length_c   15.28621067
_cell_angle_alpha   89.99563908
_cell_angle_beta   89.99851993
_cell_angle_gamma   89.99542642
_symmetry_Int_Tables_number   1
_chemical_formula_structural   Ca2Al2SiO7
_chemical_formula_sum   'Ca48 Al48 Si24 O168'
_cell_volume   3653.81506293
_cell_formula_units_Z   24
loop_
 _symmetry_equiv_pos_site_id
 _symmetry_equiv_pos_as_xyz
  1  'x, y, z'
loop_
 _atom_type_symbol
 _atom_type_oxidation_number
  Ca2+  2.0
  Al0+  0.0
  Si0+  0.0
  O2-  -2.0
loop_
 _atom_site_type_symbol
 _atom_site_label
 _atom_site_symmetry_multiplicity
 _atom_site_fract_x
 _atom_site_fract_y
 _atom_site_fract_z
 _atom_site_occupancy
  Ca2+  Ca0  1  0.17453307  0.08277268  0.16348643  1
  Ca2+  Ca1  1  0.17357601  0.09392017  0.50134540  1
  Ca2+  Ca2  1  0.16588242  0.08303516  0.84496291  1
  Ca2+  Ca3  1  0.17995123  0.58233343  0.17292975  1
  Ca2+  Ca4  1  0.16845590  0.57860423  0.50259226  1
  Ca2+  Ca5  1  0.16975705  0.56818841  0.84219317  1
  Ca2+  Ca6  1  0.66885289  0.07844956  0.18153138  1
  Ca2+  Ca7  1  0.67193676  0.08249402  0.50704168  1
  Ca2+  Ca8  1  0.67030369  0.08610796  0.82955393  1
  Ca2+  Ca9  1  0.66102801  0.58534914  0.17173156  1
  Ca2+  Ca10  1  0.66474553  0.58157982  0.50107963  1
  Ca2+  Ca11  1  0.66795975  0.58485436  0.83946507  1
  Ca2+  Ca12  1  0.08171459  0.32884394  0.16138994  1
  Ca2+  Ca13  1  0.07599949  0.33309752  0.50108079  1
  Ca2+  Ca14  1  0.08793260  0.32504497  0.82702033  1
  Ca2+  Ca15  1  0.08990808  0.83022912  0.16260050  1
  Ca2+  Ca16  1  0.07614915  0.83061249  0.49503573  1
  Ca2+  Ca17  1  0.07897073  0.83738149  0.82727722  1
  Ca2+  Ca18  1  0.56948330  0.32711769  0.16699793  1
  Ca2+  Ca19  1  0.58124341  0.31945180  0.49183406  1
  Ca2+  Ca20  1  0.57312790  0.32696189  0.83060346  1
  Ca2+  Ca21  1  0.57901778  0.82619369  0.16208508  1
  Ca2+  Ca22  1  0.58986473  0.83162745  0.49487959  1
  Ca2+  Ca23  1  0.57922691  0.83362580  0.83262695  1
  Ca2+  Ca24  1  0.33536116  0.41957150  0.16939847  1
  Ca2+  Ca25  1  0.33389714  0.42067202  0.50122416  1
  Ca2+  Ca26  1  0.32304752  0.41581993  0.84420790  1
  Ca2+  Ca27  1  0.33723090  0.92547039  0.16812574  1
  Ca2+  Ca28  1  0.33497507  0.92424189  0.49936673  1
  Ca2+  Ca29  1  0.32746205  0.92415148  0.84559575  1
  Ca2+  Ca30  1  0.83227939  0.41594319  0.17344453  1
  Ca2+  Ca31  1  0.83856715  0.41351457  0.50420110  1
  Ca2+  Ca32  1  0.83266948  0.41142063  0.83276476  1
  Ca2+  Ca33  1  0.82462810  0.92481224  0.17736083  1
  Ca2+  Ca34  1  0.82366840  0.92605726  0.50654216  1
  Ca2+  Ca35  1  0.83192251  0.91986196  0.83226471  1
  Ca2+  Ca36  1  0.40805290  0.17236000  0.16375438  1
  Ca2+  Ca37  1  0.42661301  0.16850297  0.49021230  1
  Ca2+  Ca38  1  0.41290264  0.17043405  0.83107996  1
  Ca2+  Ca39  1  0.42245586  0.66522470  0.15840364  1
  Ca2+  Ca40  1  0.42128218  0.66853391  0.48853276  1
  Ca2+  Ca41  1  0.41309728  0.66963540  0.83890996  1
  Ca2+  Ca42  1  0.91877737  0.16799495  0.16458699  1
  Ca2+  Ca43  1  0.91370408  0.17146691  0.49625363  1
  Ca2+  Ca44  1  0.92999558  0.16808010  0.82247955  1
  Ca2+  Ca45  1  0.92595568  0.66715852  0.16650059  1
  Ca2+  Ca46  1  0.92189681  0.67369958  0.49498575  1
  Ca2+  Ca47  1  0.91918693  0.67566266  0.82620691  1
  Al0+  Al48  1  -0.00094538  0.00052730  0.00205880  1
  Al0+  Al49  1  -0.00155096  0.00052013  0.33637105  1
  Al0+  Al50  1  0.00038893  0.00000508  0.65903069  1
  Al0+  Al51  1  -0.00271942  0.50042259  0.00278057  1
  Al0+  Al52  1  0.00022283  0.50052100  0.32571187  1
  Al0+  Al53  1  0.00183519  0.49992145  0.66971796  1
  Al0+  Al54  1  0.50205841  -0.00138002  -0.00035139  1
  Al0+  Al55  1  0.49919524  -0.00239444  0.33892012  1
  Al0+  Al56  1  0.49980083  -0.00131029  0.66767089  1
  Al0+  Al57  1  0.50196610  0.49714413  -0.00658973  1
  Al0+  Al58  1  0.49994907  0.50000760  0.33223511  1
  Al0+  Al59  1  0.50094740  0.50265864  0.66889610  1
  Al0+  Al60  1  0.24792216  0.24919835  -0.00010795  1
  Al0+  Al61  1  0.24719421  0.25074881  0.33527729  1
  Al0+  Al62  1  0.25014066  0.25342912  0.66533371  1
  Al0+  Al63  1  0.25017647  0.74753061  -0.00007530  1
  Al0+  Al64  1  0.25012345  0.74843882  0.33508384  1
  Al0+  Al65  1  0.25264335  0.75168406  0.66629395  1
  Al0+  Al66  1  0.74998264  0.25153503  0.00098876  1
  Al0+  Al67  1  0.74968625  0.25118690  0.32841342  1
  Al0+  Al68  1  0.74959217  0.25034920  0.66672760  1
  Al0+  Al69  1  0.75130428  0.74983415  -0.00215361  1
  Al0+  Al70  1  0.75148359  0.74936693  0.33265737  1
  Al0+  Al71  1  0.74960415  0.75077028  0.66656955  1
  Al0+  Al72  1  0.32293132  0.07029819  0.01325496  1
  Al0+  Al73  1  0.67830600  0.92694166  0.34799386  1
  Al0+  Al74  1  0.56861627  0.17918423  0.65427521  1
  Al0+  Al75  1  0.57013434  0.17591437  0.31902563  1
  Al0+  Al76  1  0.18014690  0.43115235  0.68065985  1
  Al0+  Al77  1  0.32230686  0.57006985  0.34773602  1
  Al0+  Al78  1  0.07384383  0.17779199  0.65014273  1
  Al0+  Al79  1  0.67835461  0.92801117  0.68536862  1
  Al0+  Al80  1  0.07171170  0.68005826  0.31959847  1
  Al0+  Al81  1  0.92947746  0.32148801  0.65287127  1
  Al0+  Al82  1  0.57173282  0.67963212  0.32129316  1
  Al0+  Al83  1  0.32237017  0.56843777  0.01511755  1
  Al0+  Al84  1  0.82040379  0.07413044  0.34912249  1
  Al0+  Al85  1  0.42873512  0.31795429  0.98586908  1
  Al0+  Al86  1  0.82222411  0.07268247  0.68327108  1
  Al0+  Al87  1  0.17608641  0.92750470  0.01317966  1
  Al0+  Al88  1  0.42788234  0.82196604  0.98476018  1
  Al0+  Al89  1  0.57206514  0.67878636  0.98304946  1
  Al0+  Al90  1  0.92783025  0.82147301  0.65187529  1
  Al0+  Al91  1  0.31907255  0.07221238  0.34817934  1
  Al0+  Al92  1  0.42734089  0.32021495  0.31955204  1
  Al0+  Al93  1  0.92935097  0.32049331  0.31858783  1
  Al0+  Al94  1  0.06779251  0.18032682  0.98809412  1
  Al0+  Al95  1  0.17665399  0.42704399  0.01756385  1
  Si0+  Si96  1  0.82318689  0.56995875  0.34813514  1
  Si0+  Si97  1  0.82079670  0.57084258  0.68088739  1
  Si0+  Si98  1  0.92919772  0.82196439  0.31550544  1
  Si0+  Si99  1  0.31987189  0.07085799  0.68010547  1
  Si0+  Si100  1  0.67924271  0.43071131  0.34781641  1
  Si0+  Si101  1  0.81961632  0.57341749  0.01608295  1
  Si0+  Si102  1  0.67774071  0.42897059  0.68214291  1
  Si0+  Si103  1  0.92590327  0.32391426  0.98244531  1
  Si0+  Si104  1  0.07186752  0.17609373  0.31485456  1
  Si0+  Si105  1  0.07263932  0.67910096  0.65206380  1
  Si0+  Si106  1  0.17793711  0.92667620  0.35098255  1
  Si0+  Si107  1  0.32441390  0.57444587  0.68469929  1
  Si0+  Si108  1  0.82018678  0.07113165  0.01444822  1
  Si0+  Si109  1  0.07149977  0.67698403  0.98432842  1
  Si0+  Si110  1  0.42819823  0.32459480  0.65021311  1
  Si0+  Si111  1  0.42875233  0.82079081  0.65018925  1
  Si0+  Si112  1  0.68012517  0.42867851  0.01564668  1
  Si0+  Si113  1  0.68054272  0.92746746  0.01544769  1
  Si0+  Si114  1  0.57138961  0.67930385  0.65077749  1
  Si0+  Si115  1  0.42656161  0.82136198  0.31777572  1
  Si0+  Si116  1  0.93069858  0.82009306  0.98582817  1
  Si0+  Si117  1  0.17924632  0.92805543  0.67906221  1
  Si0+  Si118  1  0.17564789  0.42957878  0.35094224  1
  Si0+  Si119  1  0.57513151  0.17656492  0.98372589  1
  O2-  O120  1  0.25328099  -0.00550505  0.06196254  1
  O2-  O121  1  0.24341744  -0.00193945  0.39608324  1
  O2-  O122  1  0.24393397  0.00459466  0.72126354  1
  O2-  O123  1  0.24955139  0.49835565  0.06697579  1
  O2-  O124  1  0.24775404  0.49534978  0.39488370  1
  O2-  O125  1  0.25623872  0.50490015  0.72682401  1
  O2-  O126  1  0.74551998  0.00420506  0.05667196  1
  O2-  O127  1  0.74616617  0.00330911  0.39726372  1
  O2-  O128  1  0.75100591  0.00002607  0.73507194  1
  O2-  O129  1  0.74961092  0.50156331  0.05793620  1
  O2-  O130  1  0.75221483  0.49975190  0.39136359  1
  O2-  O131  1  0.75046001  0.49931618  0.72378091  1
  O2-  O132  1  0.00129834  0.24373863  0.27183663  1
  O2-  O133  1  -0.00220819  0.24689037  0.60186609  1
  O2-  O134  1  -0.00354193  0.25753890  0.93981355  1
  O2-  O135  1  0.00142180  0.75788602  0.27018897  1
  O2-  O136  1  0.00498899  0.74803646  0.60682619  1
  O2-  O137  1  0.00436968  0.75208913  0.94215343  1
  O2-  O138  1  0.49359234  0.24282319  0.26899926  1
  O2-  O139  1  0.49580199  0.25513806  0.60688438  1
  O2-  O140  1  0.50070768  0.23949696  0.94007644  1
  O2-  O141  1  0.49708292  0.75375079  0.27517835  1
  O2-  O142  1  0.49959519  0.74896899  0.60885215  1
  O2-  O143  1  0.49938101  0.74962988  0.93260950  1
  O2-  O144  1  0.06320225  0.17867024  0.10100897  1
  O2-  O145  1  0.07311093  0.17801890  0.42032195  1
  O2-  O146  1  0.07510055  0.17888935  0.76395399  1
  O2-  O147  1  0.06759110  0.67636254  0.08930287  1
  O2-  O148  1  0.06777111  0.68027960  0.43315997  1
  O2-  O149  1  0.07081643  0.68035336  0.75786136  1
  O2-  O150  1  0.58061234  0.18000853  0.08867495  1
  O2-  O151  1  0.57069860  0.18004417  0.43279788  1
  O2-  O152  1  0.56583236  0.18201192  0.76778143  1
  O2-  O153  1  0.57504692  0.68156420  0.09640294  1
  O2-  O154  1  0.57082006  0.67858643  0.43498135  1
  O2-  O155  1  0.57251480  0.67768582  0.75539889  1
  O2-  O156  1  0.17394065  0.43169587  0.24568533  1
  O2-  O157  1  0.17894218  0.43468172  0.56753517  1
  O2-  O158  1  0.17674967  0.42942075  0.90355169  1
  O2-  O159  1  0.17954135  0.92538457  0.24564890  1
  O2-  O160  1  0.18441978  0.92130914  0.57439999  1
  O2-  O161  1  0.17268434  0.93182926  0.89898422  1
  O2-  O162  1  0.67998205  0.43317384  0.24260784  1
  O2-  O163  1  0.67494201  0.43213507  0.57712763  1
  O2-  O164  1  0.68326399  0.42741300  0.91013555  1
  O2-  O165  1  0.68262983  0.92466427  0.23371187  1
  O2-  O166  1  0.67960673  0.92621670  0.57244256  1
  O2-  O167  1  0.68368896  0.92461161  0.91056837  1
  O2-  O168  1  0.43147347  0.31917298  0.09847948  1
  O2-  O169  1  0.43239361  0.32220667  0.43351724  1
  O2-  O170  1  0.42852955  0.32421694  0.75594436  1
  O2-  O171  1  0.43199528  0.82339406  0.09809906  1
  O2-  O172  1  0.42479728  0.81867493  0.42398752  1
  O2-  O173  1  0.42629666  0.82014887  0.75480922  1
  O2-  O174  1  0.92242896  0.32270220  0.08787252  1
  O2-  O175  1  0.93166113  0.32445905  0.43126199  1
  O2-  O176  1  0.93105542  0.32297339  0.76644608  1
  O2-  O177  1  0.92874594  0.81746444  0.09067304  1
  O2-  O178  1  0.92874483  0.81772318  0.42101959  1
  O2-  O179  1  0.92950475  0.81814594  0.76579644  1
  O2-  O180  1  0.31789195  0.07111979  0.23557317  1
  O2-  O181  1  0.32069094  0.06810892  0.57491799  1
  O2-  O182  1  0.32018540  0.07070023  0.89893299  1
  O2-  O183  1  0.32311348  0.57015407  0.23535612  1
  O2-  O184  1  0.32609380  0.57504076  0.57904196  1
  O2-  O185  1  0.31874228  0.56733791  0.90099765  1
  O2-  O186  1  0.82059256  0.07081094  0.23448213  1
  O2-  O187  1  0.81901459  0.07327365  0.57030995  1
  O2-  O188  1  0.82172547  0.06987734  0.90959962  1
  O2-  O189  1  0.82264030  0.56974488  0.24289152  1
  O2-  O190  1  0.82013995  0.57118719  0.57572856  1
  O2-  O191  1  0.82013813  0.57475490  0.91061921  1
  O2-  O192  1  0.04756642  0.08121286  0.27082767  1
  O2-  O193  1  0.05411337  0.07806200  0.59716477  1
  O2-  O194  1  0.03438865  0.08396861  0.93380325  1
  O2-  O195  1  0.03610629  0.58738104  0.26204614  1
  O2-  O196  1  0.04473825  0.58655027  0.60622923  1
  O2-  O197  1  0.03634320  0.58727167  0.93638243  1
  O2-  O198  1  0.54815591  0.07424530  0.27110833  1
  O2-  O199  1  0.53788965  0.08230932  0.60162297  1
  O2-  O200  1  0.55795871  0.08061515  0.94019206  1
  O2-  O201  1  0.54173513  0.58350647  0.26705835  1
  O2-  O202  1  0.54478914  0.58655278  0.60357146  1
  O2-  O203  1  0.54839515  0.57950314  0.92961523  1
  O2-  O204  1  0.16440176  0.20439328  0.26898345  1
  O2-  O205  1  0.17061319  0.21246150  0.59646832  1
  O2-  O206  1  0.16451755  0.20736096  0.93337740  1
  O2-  O207  1  0.16892454  0.70841761  0.26615051  1
  O2-  O208  1  0.16697819  0.70423078  0.60699144  1
  O2-  O209  1  0.16412509  0.69761005  0.93680052  1
  O2-  O210  1  0.66596847  0.20943276  0.26444986  1
  O2-  O211  1  0.66504758  0.21098986  0.60185061  1
  O2-  O212  1  0.66585702  0.21089912  0.93518326  1
  O2-  O213  1  0.66964193  0.70635369  0.26720970  1
  O2-  O214  1  0.66319505  0.70591376  0.60314460  1
  O2-  O215  1  0.67108234  0.70901026  0.93016916  1
  O2-  O216  1  0.07643144  0.45499295  0.06752644  1
  O2-  O217  1  0.08353157  0.46262316  0.39634154  1
  O2-  O218  1  0.08469420  0.46283510  0.73747063  1
  O2-  O219  1  0.07962662  0.95887866  0.06969593  1
  O2-  O220  1  0.08249193  0.94836358  0.39501919  1
  O2-  O221  1  0.08451286  0.94872574  0.72263095  1
  O2-  O222  1  0.58817820  0.45535317  0.06152101  1
  O2-  O223  1  0.58988959  0.46145521  0.39770809  1
  O2-  O224  1  0.58732400  0.45972546  0.73184449  1
  O2-  O225  1  0.58705788  0.94865656  0.06120563  1
  O2-  O226  1  0.57813761  0.94537232  0.40076230  1
  O2-  O227  1  0.57908639  0.95667735  0.73720021  1
  O2-  O228  1  0.20341374  0.32856839  0.06895431  1
  O2-  O229  1  0.19651443  0.33500400  0.39635716  1
  O2-  O230  1  0.21135552  0.33439838  0.73467880  1
  O2-  O231  1  0.19730018  0.82618835  0.06187089  1
  O2-  O232  1  0.20534200  0.83431733  0.39910100  1
  O2-  O233  1  0.21096815  0.83806538  0.72939646  1
  O2-  O234  1  0.71025804  0.33851195  0.06529581  1
  O2-  O235  1  0.70656945  0.33865770  0.39401034  1
  O2-  O236  1  0.70457265  0.33842959  0.73164678  1
  O2-  O237  1  0.71518734  0.83763506  0.06288795  1
  O2-  O238  1  0.71260117  0.82948724  0.40140188  1
  O2-  O239  1  0.70819305  0.82874537  0.73727405  1
  O2-  O240  1  0.46328858  0.41579734  0.26605604  1
  O2-  O241  1  0.45555092  0.41915779  0.60652984  1
  O2-  O242  1  0.46448337  0.41116639  0.92812053  1
  O2-  O243  1  0.45074775  0.91534882  0.27336930  1
  O2-  O244  1  0.45677567  0.91204168  0.60247751  1
  O2-  O245  1  0.45801660  0.91999384  0.93018752  1
  O2-  O246  1  0.95939225  0.41626734  0.26207006  1
  O2-  O247  1  0.95969967  0.42081619  0.60089908  1
  O2-  O248  1  0.94620748  0.41994104  0.93879503  1
  O2-  O249  1  0.95017349  0.91744654  0.27170118  1
  O2-  O250  1  0.95697816  0.91594576  0.59492249  1
  O2-  O251  1  0.95564844  0.91255378  0.93880626  1
  O2-  O252  1  0.32628994  0.29783185  0.26983212  1
  O2-  O253  1  0.33482910  0.30167282  0.60403428  1
  O2-  O254  1  0.33177437  0.28947936  0.93159971  1
  O2-  O255  1  0.33360387  0.79543769  0.27207891  1
  O2-  O256  1  0.33760729  0.79308190  0.60052159  1
  O2-  O257  1  0.32881398  0.79354765  0.93098414  1
  O2-  O258  1  0.83232556  0.29455164  0.26278465  1
  O2-  O259  1  0.82867963  0.29987507  0.60228597  1
  O2-  O260  1  0.83262810  0.29649135  0.93601912  1
  O2-  O261  1  0.83831424  0.79009569  0.26775407  1
  O2-  O262  1  0.83308078  0.78544802  0.59808108  1
  O2-  O263  1  0.84133644  0.78769223  0.93615882  1
  O2-  O264  1  0.42326788  0.04624202  0.06526892  1
  O2-  O265  1  0.41447048  0.03961576  0.40404532  1
  O2-  O266  1  0.40907179  0.03823027  0.72865688  1
  O2-  O267  1  0.42315924  0.54001923  0.06270590  1
  O2-  O268  1  0.41865072  0.53895121  0.40322306  1
  O2-  O269  1  0.41867598  0.55102172  0.73078835  1
  O2-  O270  1  0.90903689  0.03904670  0.06428509  1
  O2-  O271  1  0.91914609  0.04575954  0.40146409  1
  O2-  O272  1  0.92287302  0.04241980  0.73174169  1
  O2-  O273  1  0.91093886  0.54645494  0.06475102  1
  O2-  O274  1  0.91472768  0.54135356  0.39532312  1
  O2-  O275  1  0.91248831  0.54556122  0.73008980  1
  O2-  O276  1  0.28912382  0.16627243  0.06648188  1
  O2-  O277  1  0.28866068  0.16885500  0.40371192  1
  O2-  O278  1  0.29820049  0.16562788  0.72394383  1
  O2-  O279  1  0.29612146  0.66792201  0.06621743  1
  O2-  O280  1  0.29084889  0.66636356  0.40308484  1
  O2-  O281  1  0.29793098  0.66841964  0.72980517  1
  O2-  O282  1  0.79629214  0.16500538  0.06003993  1
  O2-  O283  1  0.79392572  0.17432593  0.39884444  1
  O2-  O284  1  0.79209076  0.17099516  0.73701602  1
  O2-  O285  1  0.79199710  0.66456445  0.06497770  1
  O2-  O286  1  0.79599195  0.66162913  0.39591770  1
  O2-  O287  1  0.79052722  0.66121144  0.72981786  1
