# generated using pymatgen
data_Ca2Al2SiO7
_symmetry_space_group_name_H-M   'P 1'
_cell_length_a   15.45764975
_cell_length_b   15.45822312
_cell_length_c   15.28362398
_cell_angle_alpha   90.00395758
_cell_angle_beta   89.98425021
_cell_angle_gamma   90.01449798
_symmetry_Int_Tables_number   1
_chemical_formula_structural   Ca2Al2SiO7
_chemical_formula_sum   'Ca48 Al48 Si24 O168'
_cell_volume   3651.98804225
_cell_formula_units_Z   24
loop_
 _symmetry_equiv_pos_site_id
 _symmetry_equiv_pos_as_xyz
  1  'x, y, z'
loop_
 _atom_type_symbol
 _atom_type_oxidation_number
  Ca2+  2.0
  Al0+  0.0
  Si0+  0.0
  O2-  -2.0
loop_
 _atom_site_type_symbol
 _atom_site_label
 _atom_site_symmetry_multiplicity
 _atom_site_fract_x
 _atom_site_fract_y
 _atom_site_fract_z
 _atom_site_occupancy
  Ca2+  Ca0  1  0.16861138  0.08652323  0.17519864  1
  Ca2+  Ca1  1  0.17590731  0.09084756  0.50062505  1
  Ca2+  Ca2  1  0.17201190  0.08404808  0.83265004  1
  Ca2+  Ca3  1  0.17147895  0.56872774  0.17418387  1
  Ca2+  Ca4  1  0.17199225  0.58081619  0.50450122  1
  Ca2+  Ca5  1  0.16932069  0.58473338  0.83471475  1
  Ca2+  Ca6  1  0.67404976  0.07615077  0.17784052  1
  Ca2+  Ca7  1  0.67734886  0.07610371  0.50502634  1
  Ca2+  Ca8  1  0.67082998  0.07645863  0.82986333  1
  Ca2+  Ca9  1  0.67141957  0.57561296  0.17084386  1
  Ca2+  Ca10  1  0.66745853  0.57946715  0.49947207  1
  Ca2+  Ca11  1  0.67927535  0.58255896  0.83832071  1
  Ca2+  Ca12  1  0.07865332  0.33418433  0.16595752  1
  Ca2+  Ca13  1  0.07621547  0.32869028  0.48746012  1
  Ca2+  Ca14  1  0.07923908  0.33956460  0.83512473  1
  Ca2+  Ca15  1  0.07628592  0.83098752  0.15991052  1
  Ca2+  Ca16  1  0.08062556  0.82752107  0.50066838  1
  Ca2+  Ca17  1  0.07125241  0.82430753  0.82309005  1
  Ca2+  Ca18  1  0.57370528  0.34541903  0.16392571  1
  Ca2+  Ca19  1  0.57784307  0.33399352  0.48891424  1
  Ca2+  Ca20  1  0.58013981  0.33866414  0.83484019  1
  Ca2+  Ca21  1  0.58859099  0.82729295  0.16925959  1
  Ca2+  Ca22  1  0.58600197  0.83154730  0.49617922  1
  Ca2+  Ca23  1  0.57971579  0.83340680  0.82330445  1
  Ca2+  Ca24  1  0.32510758  0.41195760  0.17578861  1
  Ca2+  Ca25  1  0.33248162  0.42566541  0.49823130  1
  Ca2+  Ca26  1  0.32764857  0.42222769  0.84005645  1
  Ca2+  Ca27  1  0.33036841  0.92627037  0.17513350  1
  Ca2+  Ca28  1  0.33892116  0.92753916  0.50690115  1
  Ca2+  Ca29  1  0.33790425  0.92054250  0.83085851  1
  Ca2+  Ca30  1  0.82650806  0.41138408  0.17084782  1
  Ca2+  Ca31  1  0.82788529  0.41528757  0.50383588  1
  Ca2+  Ca32  1  0.83300391  0.42904636  0.84405821  1
  Ca2+  Ca33  1  0.83131929  0.92117299  0.17604278  1
  Ca2+  Ca34  1  0.82668712  0.92261207  0.50648135  1
  Ca2+  Ca35  1  0.83674415  0.91394655  0.83337078  1
  Ca2+  Ca36  1  0.41226687  0.17915566  0.16595515  1
  Ca2+  Ca37  1  0.41445052  0.16921518  0.49130603  1
  Ca2+  Ca38  1  0.41619348  0.17288842  0.82875325  1
  Ca2+  Ca39  1  0.42488647  0.65456440  0.16968335  1
  Ca2+  Ca40  1  0.41805840  0.66766923  0.49283439  1
  Ca2+  Ca41  1  0.41764599  0.67191277  0.82164439  1
  Ca2+  Ca42  1  0.91507461  0.17675579  0.16841634  1
  Ca2+  Ca43  1  0.91850710  0.16643122  0.48900182  1
  Ca2+  Ca44  1  0.91198892  0.17433894  0.82907926  1
  Ca2+  Ca45  1  0.91255455  0.67252936  0.15873635  1
  Ca2+  Ca46  1  0.91464317  0.66725663  0.50264511  1
  Ca2+  Ca47  1  0.91504484  0.67027062  0.82386014  1
  Al0+  Al48  1  0.00143560  -0.00068207  -0.00456576  1
  Al0+  Al49  1  0.00111720  -0.00062931  0.33221131  1
  Al0+  Al50  1  0.00074240  0.00114969  0.66681342  1
  Al0+  Al51  1  0.00335148  0.50092574  0.00429588  1
  Al0+  Al52  1  -0.00034556  0.50082967  0.33238343  1
  Al0+  Al53  1  -0.00113687  0.49854200  0.66543378  1
  Al0+  Al54  1  0.50150729  0.00128821  0.00114314  1
  Al0+  Al55  1  0.49925265  -0.00167914  0.33811662  1
  Al0+  Al56  1  0.50080220  0.00185736  0.67118999  1
  Al0+  Al57  1  0.50181231  0.50113999  -0.00573884  1
  Al0+  Al58  1  0.50171965  0.50096315  0.33274876  1
  Al0+  Al59  1  0.49638234  0.49986155  0.67052740  1
  Al0+  Al60  1  0.25171091  0.25119082  -0.00302468  1
  Al0+  Al61  1  0.24840999  0.24948394  0.33417028  1
  Al0+  Al62  1  0.24904468  0.25077732  0.67145305  1
  Al0+  Al63  1  0.25122646  0.75290780  0.00148862  1
  Al0+  Al64  1  0.25017978  0.75075607  0.33270757  1
  Al0+  Al65  1  0.25028491  0.75055793  0.66223113  1
  Al0+  Al66  1  0.74963219  0.24845929  -0.00184122  1
  Al0+  Al67  1  0.74939211  0.24942052  0.33741223  1
  Al0+  Al68  1  0.74695063  0.24749635  0.67057048  1
  Al0+  Al69  1  0.74908395  0.75102344  -0.00087050  1
  Al0+  Al70  1  0.74838666  0.74871485  0.33175794  1
  Al0+  Al71  1  0.74846660  0.74807591  0.66868001  1
  Al0+  Al72  1  0.57054341  0.67982212  0.31897082  1
  Al0+  Al73  1  0.92892736  0.82035243  0.98625961  1
  Al0+  Al74  1  0.43069886  0.32007834  0.32158750  1
  Al0+  Al75  1  0.92597207  0.32296403  0.31919577  1
  Al0+  Al76  1  0.07070000  0.17816659  0.31864014  1
  Al0+  Al77  1  0.82224860  0.57320417  0.01561440  1
  Al0+  Al78  1  0.67984539  0.42918217  0.34651002  1
  Al0+  Al79  1  0.42970102  0.32113941  0.98434424  1
  Al0+  Al80  1  0.92650024  0.82161243  0.64915126  1
  Al0+  Al81  1  0.82226462  0.07079079  0.34697224  1
  Al0+  Al82  1  0.17698712  0.42821072  0.34971540  1
  Al0+  Al83  1  0.82412365  0.07143748  0.68406406  1
  Al0+  Al84  1  0.67930003  0.92616005  0.34844418  1
  Al0+  Al85  1  0.43033934  0.82253419  0.65257873  1
  Al0+  Al86  1  0.07056680  0.67661708  0.65030845  1
  Al0+  Al87  1  0.67964480  0.42832046  0.01493097  1
  Al0+  Al88  1  0.68057181  0.92833464  0.68286982  1
  Al0+  Al89  1  0.18105391  0.42903925  0.01454347  1
  Al0+  Al90  1  0.92871934  0.32113270  0.98578915  1
  Al0+  Al91  1  0.32076345  0.07209868  0.68211160  1
  Al0+  Al92  1  0.82013364  0.56732321  0.67888465  1
  Al0+  Al93  1  0.31893312  0.07052363  0.34555250  1
  Al0+  Al94  1  0.32175543  0.57075463  0.34722150  1
  Al0+  Al95  1  0.31997689  0.57255534  0.68066257  1
  Si0+  Si96  1  0.17799620  0.42853499  0.68416188  1
  Si0+  Si97  1  0.57181537  0.17555717  0.31832400  1
  Si0+  Si98  1  0.07408119  0.67830882  0.31621698  1
  Si0+  Si99  1  0.17898973  0.93019987  0.01396775  1
  Si0+  Si100  1  0.56974800  0.68071829  0.98297206  1
  Si0+  Si101  1  0.07227304  0.18013643  0.65301586  1
  Si0+  Si102  1  0.82260318  0.57323461  0.34939128  1
  Si0+  Si103  1  0.82321651  0.07022951  0.01480586  1
  Si0+  Si104  1  0.92718673  0.31932479  0.65361100  1
  Si0+  Si105  1  0.17822462  0.92742326  0.68355734  1
  Si0+  Si106  1  0.42901822  0.82413352  0.98564343  1
  Si0+  Si107  1  0.07288813  0.17806576  0.98098761  1
  Si0+  Si108  1  0.07459422  0.67903281  0.98505542  1
  Si0+  Si109  1  0.57046216  0.67600004  0.64986286  1
  Si0+  Si110  1  0.67528983  0.42595957  0.68376548  1
  Si0+  Si111  1  0.57209659  0.17463864  0.98175919  1
  Si0+  Si112  1  0.42767256  0.32116566  0.65135550  1
  Si0+  Si113  1  0.32135434  0.07075028  0.01472543  1
  Si0+  Si114  1  0.93015064  0.81850918  0.31894841  1
  Si0+  Si115  1  0.17670281  0.92601916  0.35015496  1
  Si0+  Si116  1  0.67812499  0.92972202  0.01591429  1
  Si0+  Si117  1  0.32299743  0.57503318  0.01543972  1
  Si0+  Si118  1  0.42676409  0.82370596  0.31528470  1
  Si0+  Si119  1  0.56975636  0.18032133  0.65105761  1
  O2-  O120  1  0.24909785  0.00143860  0.05700681  1
  O2-  O121  1  0.24615661  -0.00564080  0.39306285  1
  O2-  O122  1  0.24752626  -0.00421575  0.72894464  1
  O2-  O123  1  0.25637637  0.50458065  0.05888993  1
  O2-  O124  1  0.24736053  0.50229325  0.39860884  1
  O2-  O125  1  0.24431712  0.49975330  0.72817657  1
  O2-  O126  1  0.75196221  -0.00137925  0.05634521  1
  O2-  O127  1  0.74992025  -0.00045652  0.39687528  1
  O2-  O128  1  0.75714005  -0.00524179  0.73477829  1
  O2-  O129  1  0.75494116  0.49668502  0.06540856  1
  O2-  O130  1  0.75886539  0.49936789  0.39264149  1
  O2-  O131  1  0.74567276  0.49305146  0.72662619  1
  O2-  O132  1  -0.00099955  0.25094617  0.26964946  1
  O2-  O133  1  -0.00428660  0.24559419  0.61222363  1
  O2-  O134  1  0.00335586  0.24628552  0.93716473  1
  O2-  O135  1  0.00127263  0.74828801  0.27479474  1
  O2-  O136  1  -0.00158132  0.74883027  0.59975809  1
  O2-  O137  1  0.00100909  0.74252162  0.94109763  1
  O2-  O138  1  0.50498827  0.24522780  0.27271807  1
  O2-  O139  1  0.50045371  0.25273878  0.60886113  1
  O2-  O140  1  0.50607346  0.24709354  0.93842686  1
  O2-  O141  1  0.49409325  0.75350026  0.27093686  1
  O2-  O142  1  0.50292185  0.74607621  0.60625163  1
  O2-  O143  1  0.49664230  0.75072847  0.94269612  1
  O2-  O144  1  0.07382712  0.17555458  0.08593557  1
  O2-  O145  1  0.07059569  0.17874050  0.43265836  1
  O2-  O146  1  0.07538706  0.18333475  0.75830115  1
  O2-  O147  1  0.07832745  0.68475357  0.09059790  1
  O2-  O148  1  0.07549387  0.67977700  0.42094852  1
  O2-  O149  1  0.07003291  0.67751509  0.76447747  1
  O2-  O150  1  0.56856855  0.16640884  0.08663509  1
  O2-  O151  1  0.56902625  0.17674193  0.42414505  1
  O2-  O152  1  0.56922158  0.18137600  0.75649721  1
  O2-  O153  1  0.56971504  0.68097305  0.08799646  1
  O2-  O154  1  0.57065847  0.68033260  0.43183381  1
  O2-  O155  1  0.56823882  0.67590722  0.75601525  1
  O2-  O156  1  0.17895490  0.42863193  0.23590089  1
  O2-  O157  1  0.17979138  0.42549947  0.57918267  1
  O2-  O158  1  0.18270943  0.43000816  0.90104947  1
  O2-  O159  1  0.17735271  0.92541913  0.24373532  1
  O2-  O160  1  0.17828059  0.92923205  0.57818305  1
  O2-  O161  1  0.18079007  0.92934365  0.90929038  1
  O2-  O162  1  0.67781352  0.43181284  0.23377998  1
  O2-  O163  1  0.67461875  0.42512184  0.57813519  1
  O2-  O164  1  0.67913471  0.43293966  0.90095837  1
  O2-  O165  1  0.68270405  0.92658216  0.23376871  1
  O2-  O166  1  0.67924870  0.93247076  0.56996265  1
  O2-  O167  1  0.67427854  0.93057766  0.91126217  1
  O2-  O168  1  0.42795055  0.31889446  0.09723246  1
  O2-  O169  1  0.43215704  0.31919567  0.43508049  1
  O2-  O170  1  0.42848464  0.31999366  0.75676196  1
  O2-  O171  1  0.42946292  0.82777076  0.09029255  1
  O2-  O172  1  0.42643449  0.82513254  0.42045906  1
  O2-  O173  1  0.43233191  0.82085953  0.76683270  1
  O2-  O174  1  0.92724247  0.31712382  0.09804472  1
  O2-  O175  1  0.92635063  0.32138082  0.43345688  1
  O2-  O176  1  0.92954277  0.32029300  0.75894565  1
  O2-  O177  1  0.93153852  0.82248619  0.09993869  1
  O2-  O178  1  0.93055148  0.81755663  0.42356954  1
  O2-  O179  1  0.92945162  0.81883307  0.76312477  1
  O2-  O180  1  0.31840246  0.06880690  0.23167148  1
  O2-  O181  1  0.31878440  0.07450339  0.56946778  1
  O2-  O182  1  0.32150852  0.06871325  0.90956985  1
  O2-  O183  1  0.32021946  0.56861829  0.23306777  1
  O2-  O184  1  0.32317149  0.56902246  0.56831942  1
  O2-  O185  1  0.32033489  0.57785554  0.90962445  1
  O2-  O186  1  0.82152977  0.06768821  0.23248248  1
  O2-  O187  1  0.82079649  0.07549507  0.57121668  1
  O2-  O188  1  0.82281804  0.06934313  0.90985346  1
  O2-  O189  1  0.81983233  0.57758543  0.24400772  1
  O2-  O190  1  0.81945713  0.56398724  0.56582483  1
  O2-  O191  1  0.81902700  0.57448930  0.90182291  1
  O2-  O192  1  0.04518355  0.07865191  0.26413879  1
  O2-  O193  1  0.05273953  0.08616376  0.60731934  1
  O2-  O194  1  0.04871350  0.08418506  0.93399246  1
  O2-  O195  1  0.04759900  0.58638660  0.26897033  1
  O2-  O196  1  0.04182151  0.57803905  0.59731938  1
  O2-  O197  1  0.05676359  0.58326048  0.94169421  1
  O2-  O198  1  0.54558693  0.08161697  0.27241739  1
  O2-  O199  1  0.53983859  0.08936988  0.60483771  1
  O2-  O200  1  0.54080130  0.08352475  0.93185864  1
  O2-  O201  1  0.53891116  0.58468629  0.26234158  1
  O2-  O202  1  0.54235730  0.58216646  0.60518271  1
  O2-  O203  1  0.54463360  0.58990582  0.93256682  1
  O2-  O204  1  0.16869959  0.20623773  0.26462404  1
  O2-  O205  1  0.16260341  0.21317604  0.60510999  1
  O2-  O206  1  0.16625594  0.20483312  0.93419930  1
  O2-  O207  1  0.16470474  0.70792877  0.26671983  1
  O2-  O208  1  0.16824386  0.70675481  0.59698004  1
  O2-  O209  1  0.16654595  0.71107946  0.93724812  1
  O2-  O210  1  0.66626568  0.19846622  0.27384032  1
  O2-  O211  1  0.66222045  0.20626017  0.60353515  1
  O2-  O212  1  0.66635164  0.19684972  0.93573333  1
  O2-  O213  1  0.66576274  0.71234512  0.26156897  1
  O2-  O214  1  0.66440856  0.69931306  0.60473333  1
  O2-  O215  1  0.66025138  0.71206903  0.93514148  1
  O2-  O216  1  0.08554103  0.45810382  0.07059728  1
  O2-  O217  1  0.07774530  0.45619644  0.40118559  1
  O2-  O218  1  0.08356209  0.45244705  0.72922879  1
  O2-  O219  1  0.08716208  0.95761062  0.06198852  1
  O2-  O220  1  0.08365870  0.95083493  0.39622726  1
  O2-  O221  1  0.08570467  0.95477460  0.73114323  1
  O2-  O222  1  0.58075278  0.46167657  0.06461990  1
  O2-  O223  1  0.58589386  0.46460485  0.40230916  1
  O2-  O224  1  0.58208150  0.45287514  0.73006564  1
  O2-  O225  1  0.58740046  0.95953024  0.06499271  1
  O2-  O226  1  0.57989720  0.95041707  0.39961908  1
  O2-  O227  1  0.58481948  0.96415498  0.73823322  1
  O2-  O228  1  0.21292736  0.33156778  0.06611432  1
  O2-  O229  1  0.20606416  0.33057302  0.40207954  1
  O2-  O230  1  0.20698345  0.33729916  0.73362287  1
  O2-  O231  1  0.20754583  0.83955722  0.06411552  1
  O2-  O232  1  0.20122557  0.83264759  0.39611392  1
  O2-  O233  1  0.20417939  0.83424727  0.72973173  1
  O2-  O234  1  0.70075474  0.32643248  0.06393815  1
  O2-  O235  1  0.70425131  0.33194944  0.40214192  1
  O2-  O236  1  0.69775760  0.33207409  0.73006418  1
  O2-  O237  1  0.70405211  0.83737533  0.06227438  1
  O2-  O238  1  0.70916361  0.82856223  0.40078476  1
  O2-  O239  1  0.70109913  0.82780471  0.73479630  1
  O2-  O240  1  0.46200421  0.41574434  0.26675710  1
  O2-  O241  1  0.45363094  0.41417330  0.60577996  1
  O2-  O242  1  0.45916586  0.41801742  0.92877915  1
  O2-  O243  1  0.45476202  0.91664597  0.26769321  1
  O2-  O244  1  0.46160210  0.92041502  0.60166487  1
  O2-  O245  1  0.45956807  0.91498459  0.93717442  1
  O2-  O246  1  0.95150605  0.42249958  0.26661743  1
  O2-  O247  1  0.95597264  0.40941218  0.60471602  1
  O2-  O248  1  0.96188987  0.41905379  0.93427564  1
  O2-  O249  1  0.95801736  0.91004577  0.27059154  1
  O2-  O250  1  0.95613885  0.92143559  0.59956545  1
  O2-  O251  1  0.96321800  0.91531175  0.93066109  1
  O2-  O252  1  0.33465310  0.28721533  0.26805595  1
  O2-  O253  1  0.33575574  0.29069232  0.60667991  1
  O2-  O254  1  0.33496254  0.28720049  0.92776140  1
  O2-  O255  1  0.33200013  0.80145467  0.26877587  1
  O2-  O256  1  0.33293848  0.79705891  0.59904749  1
  O2-  O257  1  0.33570845  0.79982804  0.93872651  1
  O2-  O258  1  0.82772833  0.29155998  0.26644772  1
  O2-  O259  1  0.83296087  0.29412087  0.60970597  1
  O2-  O260  1  0.83211062  0.29008198  0.93059695  1
  O2-  O261  1  0.83881159  0.79012536  0.27064610  1
  O2-  O262  1  0.82736028  0.79192700  0.59887593  1
  O2-  O263  1  0.83059923  0.79417580  0.93361367  1
  O2-  O264  1  0.41237066  0.04095922  0.06211464  1
  O2-  O265  1  0.41513651  0.04123569  0.40063412  1
  O2-  O266  1  0.41637266  0.04243296  0.73804566  1
  O2-  O267  1  0.41829804  0.55006643  0.05652267  1
  O2-  O268  1  0.41909000  0.54108347  0.40011656  1
  O2-  O269  1  0.41501633  0.54025144  0.73809393  1
  O2-  O270  1  0.91586761  0.04193397  0.06003576  1
  O2-  O271  1  0.92080449  0.04166185  0.39853111  1
  O2-  O272  1  0.92494466  0.05064516  0.73560770  1
  O2-  O273  1  0.92370359  0.55432218  0.06470109  1
  O2-  O274  1  0.91826969  0.55510990  0.39307147  1
  O2-  O275  1  0.91655935  0.53680561  0.73387790  1
  O2-  O276  1  0.29422862  0.16312237  0.05987887  1
  O2-  O277  1  0.28769909  0.16522033  0.40182333  1
  O2-  O278  1  0.28639717  0.16694465  0.73867333  1
  O2-  O279  1  0.29887468  0.66894286  0.06235476  1
  O2-  O280  1  0.29705687  0.67171472  0.39655972  1
  O2-  O281  1  0.29179269  0.67056138  0.73354719  1
  O2-  O282  1  0.79432558  0.16149287  0.06152874  1
  O2-  O283  1  0.79489070  0.16803250  0.40142534  1
  O2-  O284  1  0.78740242  0.16740687  0.73908893  1
  O2-  O285  1  0.78761813  0.67050004  0.06842059  1
  O2-  O286  1  0.79001758  0.66366963  0.39726305  1
  O2-  O287  1  0.78972499  0.66358886  0.73335756  1
