# generated using pymatgen
data_Na2MnFe(PO4)2
_symmetry_space_group_name_H-M   'P 1'
_cell_length_a   22.34160331
_cell_length_b   20.09481795
_cell_length_c   19.45059151
_cell_angle_alpha   89.96321000
_cell_angle_beta   90.07683658
_cell_angle_gamma   89.93849792
_symmetry_Int_Tables_number   1
_chemical_formula_structural   Na2MnFe(PO4)2
_chemical_formula_sum   'Na96 Mn48 Fe48 P96 O384'
_cell_volume   8732.33714399
_cell_formula_units_Z   48
loop_
 _symmetry_equiv_pos_site_id
 _symmetry_equiv_pos_as_xyz
  1  'x, y, z'
loop_
 _atom_site_type_symbol
 _atom_site_label
 _atom_site_symmetry_multiplicity
 _atom_site_fract_x
 _atom_site_fract_y
 _atom_site_fract_z
 _atom_site_occupancy
  Na  Na0  1  0.13962656  0.25050142  0.24328936  1
  Na  Na1  1  0.13965976  0.25221818  0.49404627  1
  Na  Na2  1  0.13986697  0.25128799  0.74239984  1
  Na  Na3  1  0.13973426  0.24997042  0.99382064  1
  Na  Na4  1  0.13911073  0.58387793  0.24392633  1
  Na  Na5  1  0.14015635  0.58385805  0.49356765  1
  Na  Na6  1  0.13967359  0.58289056  0.74330080  1
  Na  Na7  1  0.13956746  0.58297809  0.99338195  1
  Na  Na8  1  0.13993239  0.91751815  0.24364534  1
  Na  Na9  1  0.13957311  0.91697320  0.49301391  1
  Na  Na10  1  0.13970376  0.91746741  0.74344045  1
  Na  Na11  1  0.13982845  0.91718733  0.99355542  1
  Na  Na12  1  0.64021259  0.25011262  0.24204636  1
  Na  Na13  1  0.64044485  0.24813564  0.49328258  1
  Na  Na14  1  0.64041297  0.25022480  0.74396381  1
  Na  Na15  1  0.64059229  0.25086184  0.99500264  1
  Na  Na16  1  0.64013945  0.58393899  0.24371259  1
  Na  Na17  1  0.64040421  0.58363848  0.49322233  1
  Na  Na18  1  0.64061743  0.58285356  0.74523106  1
  Na  Na19  1  0.64031037  0.58352535  0.99518518  1
  Na  Na20  1  0.64058746  0.91679672  0.24349408  1
  Na  Na21  1  0.64065084  0.91605995  0.49232315  1
  Na  Na22  1  0.64067355  0.91579554  0.74355161  1
  Na  Na23  1  0.64055133  0.91558262  0.99414819  1
  Na  Na24  1  0.35957721  0.08362604  0.00643365  1
  Na  Na25  1  0.36047459  0.08347172  0.25669172  1
  Na  Na26  1  0.36024685  0.08420733  0.50603958  1
  Na  Na27  1  0.35952762  0.08380281  0.75451345  1
  Na  Na28  1  0.35974182  0.41480948  0.00624608  1
  Na  Na29  1  0.35990602  0.41736523  0.25673167  1
  Na  Na30  1  0.35979126  0.41785630  0.50563097  1
  Na  Na31  1  0.36002261  0.41628712  0.75520515  1
  Na  Na32  1  0.36021243  0.74978907  0.00655101  1
  Na  Na33  1  0.35930567  0.74885795  0.25657725  1
  Na  Na34  1  0.35898581  0.75026707  0.50462321  1
  Na  Na35  1  0.35947238  0.75021904  0.75543525  1
  Na  Na36  1  0.86001302  0.08266765  0.00710500  1
  Na  Na37  1  0.86026170  0.08206945  0.25649951  1
  Na  Na38  1  0.86026154  0.08198377  0.50637508  1
  Na  Na39  1  0.86029205  0.08324735  0.75610573  1
  Na  Na40  1  0.86017545  0.41675476  0.00714703  1
  Na  Na41  1  0.86036122  0.41761946  0.25714644  1
  Na  Na42  1  0.85999964  0.41590907  0.50726186  1
  Na  Na43  1  0.86016925  0.41696774  0.75770189  1
  Na  Na44  1  0.86046522  0.74902676  0.00786677  1
  Na  Na45  1  0.85960666  0.75013149  0.25666161  1
  Na  Na46  1  0.85986005  0.75017385  0.50562099  1
  Na  Na47  1  0.85987424  0.74798387  0.75720070  1
  Na  Na48  1  0.10928898  0.08407346  0.11870296  1
  Na  Na49  1  0.10901190  0.08411341  0.36834115  1
  Na  Na50  1  0.10892072  0.08332672  0.61839831  1
  Na  Na51  1  0.10878482  0.08347178  0.86849541  1
  Na  Na52  1  0.10895313  0.41742605  0.11904249  1
  Na  Na53  1  0.10870609  0.41702183  0.36854049  1
  Na  Na54  1  0.10968035  0.41704763  0.61897751  1
  Na  Na55  1  0.10908640  0.41584564  0.86732040  1
  Na  Na56  1  0.10902839  0.75048607  0.11902722  1
  Na  Na57  1  0.10948273  0.75096783  0.36752019  1
  Na  Na58  1  0.10894206  0.75048191  0.61810140  1
  Na  Na59  1  0.10878291  0.75004777  0.86941381  1
  Na  Na60  1  0.61020121  0.08332700  0.11869054  1
  Na  Na61  1  0.60964325  0.08378494  0.36792927  1
  Na  Na62  1  0.60979670  0.08322071  0.61765879  1
  Na  Na63  1  0.60975503  0.08390913  0.86963042  1
  Na  Na64  1  0.60955244  0.41800818  0.11956789  1
  Na  Na65  1  0.60921295  0.41711335  0.36809690  1
  Na  Na66  1  0.60971169  0.41538459  0.61917921  1
  Na  Na67  1  0.61004647  0.41679864  0.87023977  1
  Na  Na68  1  0.60952126  0.74901669  0.11918622  1
  Na  Na69  1  0.60983269  0.74957019  0.36765924  1
  Na  Na70  1  0.61004352  0.74887481  0.61793402  1
  Na  Na71  1  0.61005490  0.74906954  0.86991631  1
  Na  Na72  1  0.39086122  0.25007988  0.13186266  1
  Na  Na73  1  0.39112556  0.25023501  0.38040613  1
  Na  Na74  1  0.39058908  0.24988472  0.63068049  1
  Na  Na75  1  0.38998602  0.25055113  0.88056906  1
  Na  Na76  1  0.39059161  0.58290754  0.13185300  1
  Na  Na77  1  0.38962114  0.58320688  0.38090111  1
  Na  Na78  1  0.39022928  0.58141501  0.63010947  1
  Na  Na79  1  0.39047232  0.58288684  0.88110890  1
  Na  Na80  1  0.39107565  0.91607181  0.13164625  1
  Na  Na81  1  0.39045465  0.91810841  0.38129826  1
  Na  Na82  1  0.39021764  0.91754033  0.62981799  1
  Na  Na83  1  0.39081011  0.91590393  0.88060573  1
  Na  Na84  1  0.89122413  0.25011569  0.13261743  1
  Na  Na85  1  0.89065028  0.24901955  0.38075413  1
  Na  Na86  1  0.89087362  0.24953588  0.63242614  1
  Na  Na87  1  0.89085913  0.24912289  0.88101312  1
  Na  Na88  1  0.89026540  0.58344464  0.13226923  1
  Na  Na89  1  0.89020234  0.58383100  0.38132189  1
  Na  Na90  1  0.89054707  0.58304851  0.63306787  1
  Na  Na91  1  0.89028532  0.58318422  0.88262902  1
  Na  Na92  1  0.89063251  0.91731545  0.13189275  1
  Na  Na93  1  0.89028814  0.91705311  0.38158851  1
  Na  Na94  1  0.89066181  0.91638475  0.63030743  1
  Na  Na95  1  0.89109774  0.91643251  0.88200366  1
  Mn  Mn96  1  0.24939681  0.33268188  0.12546658  1
  Mn  Mn97  1  0.74996432  0.33263022  0.62595634  1
  Mn  Mn98  1  0.74995808  0.50104904  0.37628746  1
  Mn  Mn99  1  0.24951619  0.66627323  0.12540041  1
  Mn  Mn100  1  0.74972100  -0.00018783  0.87480410  1
  Mn  Mn101  1  0.25010822  0.83353488  0.87458323  1
  Mn  Mn102  1  -0.00021401  0.16688122  0.00011070  1
  Mn  Mn103  1  0.50045867  0.00008747  0.74995708  1
  Mn  Mn104  1  0.49945896  0.49973177  0.00052818  1
  Mn  Mn105  1  0.25054254  0.00075151  0.12488471  1
  Mn  Mn106  1  0.24918752  0.16748254  0.87424537  1
  Mn  Mn107  1  0.74989389  0.16646542  0.87565565  1
  Mn  Mn108  1  0.75103599  0.83176637  0.87495804  1
  Mn  Mn109  1  0.00029274  0.66700743  0.50028274  1
  Mn  Mn110  1  -0.00014471  0.49930841  0.50057819  1
  Mn  Mn111  1  0.49990887  0.16728772  0.74980520  1
  Mn  Mn112  1  0.75017270  0.33309842  0.37513966  1
  Mn  Mn113  1  0.24915082  0.83436028  0.62482979  1
  Mn  Mn114  1  0.25029190  0.33464235  0.37431268  1
  Mn  Mn115  1  0.50038721  0.83304214  0.74942010  1
  Mn  Mn116  1  0.75082840  0.16540728  0.37417555  1
  Mn  Mn117  1  0.49996611  -0.00051683  -0.00020453  1
  Mn  Mn118  1  0.24963620  0.16769996  0.62472738  1
  Mn  Mn119  1  0.24939680  0.66659550  0.62437141  1
  Mn  Mn120  1  0.75023829  0.83174091  0.62424640  1
  Mn  Mn121  1  0.75018929  0.83301244  0.12545937  1
  Mn  Mn122  1  0.75050612  0.33407595  0.12503995  1
  Mn  Mn123  1  0.75058652  -0.00016137  0.62439983  1
  Mn  Mn124  1  0.50072905  0.49843251  0.75096231  1
  Mn  Mn125  1  -0.00012530  0.50010094  0.00024816  1
  Mn  Mn126  1  0.49988372  0.83338016  0.24995603  1
  Mn  Mn127  1  -0.00006088  0.83335337  0.75052357  1
  Mn  Mn128  1  -0.00001969  0.16703474  0.49999866  1
  Mn  Mn129  1  0.49976064  0.66605267  0.74955859  1
  Mn  Mn130  1  0.49996526  0.16796714  -0.00007390  1
  Mn  Mn131  1  0.49983975  0.83398546  0.49856485  1
  Mn  Mn132  1  0.25029610  0.49883045  0.87391566  1
  Mn  Mn133  1  0.24995026  0.66637930  0.87444071  1
  Mn  Mn134  1  0.49957442  0.66563607  0.49910958  1
  Mn  Mn135  1  0.50032030  0.33291826  0.49895443  1
  Mn  Mn136  1  0.24977417  0.16765372  0.37575829  1
  Mn  Mn137  1  0.24888848  0.00040580  0.37466348  1
  Mn  Mn138  1  0.24960582  0.83335064  0.12517084  1
  Mn  Mn139  1  0.24971525  0.49958738  0.12446640  1
  Mn  Mn140  1  0.25019268  0.00049653  0.87509592  1
  Mn  Mn141  1  0.75109836  0.33388142  0.87563177  1
  Mn  Mn142  1  0.00001260  0.83403275  0.24939056  1
  Mn  Mn143  1  0.75011182  0.50067882  0.62595421  1
  Fe  Fe144  1  0.00002319  0.33334192  0.00001893  1
  Fe  Fe145  1  0.50026059  0.33282791  0.74960413  1
  Fe  Fe146  1  0.24996824  0.16674836  0.12471717  1
  Fe  Fe147  1  0.75049159  -0.00055588  0.12524742  1
  Fe  Fe148  1  0.49950745  0.66636300  0.24959525  1
  Fe  Fe149  1  0.74985255  0.83269227  0.37449635  1
  Fe  Fe150  1  0.24873645  0.50060430  0.37549204  1
  Fe  Fe151  1  0.50002713  0.66652650  0.00065396  1
  Fe  Fe152  1  -0.00024338  0.33354532  0.25017878  1
  Fe  Fe153  1  -0.00035269  0.50008880  0.25005886  1
  Fe  Fe154  1  0.25027008  0.50016972  0.62442537  1
  Fe  Fe155  1  0.50046777  0.16685416  0.49927830  1
  Fe  Fe156  1  0.50013111  0.49951884  0.49923446  1
  Fe  Fe157  1  0.50041227  0.00049383  0.25002193  1
  Fe  Fe158  1  0.75078262  0.16626424  0.12515492  1
  Fe  Fe159  1  0.75014239  0.66634463  0.62516917  1
  Fe  Fe160  1  0.75000120  0.66641958  0.12558984  1
  Fe  Fe161  1  0.75052134  0.50074329  0.12594998  1
  Fe  Fe162  1  -0.00059339  0.33333288  0.50017636  1
  Fe  Fe163  1  -0.00010451  0.00030616  0.49992005  1
  Fe  Fe164  1  0.00034937  0.00003826  0.25003062  1
  Fe  Fe165  1  0.24995829  0.33329925  0.87446553  1
  Fe  Fe166  1  0.24984951  0.00056722  0.62441152  1
  Fe  Fe167  1  0.00018350  -0.00037390  0.75010841  1
  Fe  Fe168  1  0.50013024  0.33385538  0.25041389  1
  Fe  Fe169  1  0.25011261  0.33457923  0.62397569  1
  Fe  Fe170  1  -0.00013508  0.83346418  0.00021286  1
  Fe  Fe171  1  0.50018058  0.33374836  0.00094787  1
  Fe  Fe172  1  -0.00017133  0.49968227  0.75063610  1
  Fe  Fe173  1  0.75030146  0.16605684  0.62482230  1
  Fe  Fe174  1  0.00011486  0.16673748  0.25017927  1
  Fe  Fe175  1  0.50042565  0.83266008  0.00070360  1
  Fe  Fe176  1  -0.00014859  0.83365138  0.49974803  1
  Fe  Fe177  1  0.24918091  0.66660829  0.37519739  1
  Fe  Fe178  1  -0.00011304  0.33296084  0.74998517  1
  Fe  Fe179  1  0.75048808  0.66672648  0.37480859  1
  Fe  Fe180  1  0.75009829  0.50063768  0.87633292  1
  Fe  Fe181  1  0.75022009  0.66571216  0.87624298  1
  Fe  Fe182  1  0.00009245  0.66648793  0.00029374  1
  Fe  Fe183  1  0.50052983  0.16690626  0.24975063  1
  Fe  Fe184  1  0.74963015  -0.00058679  0.37474922  1
  Fe  Fe185  1  0.49986295  0.50027022  0.24939063  1
  Fe  Fe186  1  0.24992284  0.83379004  0.37495434  1
  Fe  Fe187  1  0.00003132  0.16622947  0.75034833  1
  Fe  Fe188  1  -0.00060623  0.66716003  0.24985148  1
  Fe  Fe189  1  0.50053576  0.00080340  0.49962808  1
  Fe  Fe190  1  -0.00014041  0.00036707  0.00001035  1
  Fe  Fe191  1  -0.00028043  0.66683981  0.75038189  1
  P  P192  1  0.04175160  0.25167732  0.10317949  1
  P  P193  1  0.04118949  0.25040147  0.35171861  1
  P  P194  1  0.04169009  0.25162784  0.60309725  1
  P  P195  1  0.04136621  0.24987236  0.85159259  1
  P  P196  1  0.04171209  0.58467233  0.10328363  1
  P  P197  1  0.04044877  0.58359753  0.35156799  1
  P  P198  1  0.04233994  0.58303576  0.60415025  1
  P  P199  1  0.04090728  0.58361052  0.85207312  1
  P  P200  1  0.04108061  0.91743849  0.10171740  1
  P  P201  1  0.04188791  0.91805050  0.35286462  1
  P  P202  1  0.04113531  0.91681110  0.60164486  1
  P  P203  1  0.04201329  0.91785474  0.85332992  1
  P  P204  1  0.54231797  0.25171708  0.10384216  1
  P  P205  1  0.54186632  0.24997939  0.35133150  1
  P  P206  1  0.54259268  0.24893307  0.60208392  1
  P  P207  1  0.54252643  0.25180548  0.85301592  1
  P  P208  1  0.54154201  0.58419263  0.10353313  1
  P  P209  1  0.54109110  0.58287574  0.35130824  1
  P  P210  1  0.54243032  0.58113597  0.60193157  1
  P  P211  1  0.54248412  0.58336879  0.85412000  1
  P  P212  1  0.54240633  0.91544093  0.10294826  1
  P  P213  1  0.54217271  0.91862193  0.35249044  1
  P  P214  1  0.54263193  0.91765019  0.60145993  1
  P  P215  1  0.54333586  0.91582374  0.85359183  1
  P  P216  1  0.45906776  0.08342008  0.14839540  1
  P  P217  1  0.45901225  0.08401747  0.39733053  1
  P  P218  1  0.45778059  0.08347990  0.64568181  1
  P  P219  1  0.45704186  0.08386467  0.89699132  1
  P  P220  1  0.45838661  0.41640173  0.14839851  1
  P  P221  1  0.45800704  0.41790892  0.39630457  1
  P  P222  1  0.45818005  0.41503912  0.64696294  1
  P  P223  1  0.45777614  0.41479743  0.89760834  1
  P  P224  1  0.45777147  0.74863421  0.14698630  1
  P  P225  1  0.45718582  0.74962992  0.39561489  1
  P  P226  1  0.45703143  0.74960218  0.64599658  1
  P  P227  1  0.45871299  0.74976481  0.89869170  1
  P  P228  1  0.95902663  0.08319173  0.14843340  1
  P  P229  1  0.95819510  0.08239489  0.39700373  1
  P  P230  1  0.95907749  0.08282508  0.64832136  1
  P  P231  1  0.95770642  0.08221820  0.89721895  1
  P  P232  1  0.95854750  0.41676467  0.14849120  1
  P  P233  1  0.95751740  0.41509728  0.39712754  1
  P  P234  1  0.95835956  0.41630603  0.64879292  1
  P  P235  1  0.95819659  0.41509044  0.89712751  1
  P  P236  1  0.95772113  0.74917737  0.14688738  1
  P  P237  1  0.95820951  0.75132133  0.39714929  1
  P  P238  1  0.95776688  0.74934293  0.64771012  1
  P  P239  1  0.95865368  0.74954335  0.89860807  1
  P  P240  1  0.20757269  0.08488081  0.22733159  1
  P  P241  1  0.20674891  0.08389912  0.47872346  1
  P  P242  1  0.20729081  0.08289074  0.72688329  1
  P  P243  1  0.20672600  0.08431433  0.97828094  1
  P  P244  1  0.20671780  0.41737377  0.22846257  1
  P  P245  1  0.20738329  0.41829591  0.47790519  1
  P  P246  1  0.20866089  0.41672626  0.72615157  1
  P  P247  1  0.20721169  0.41499019  0.97676928  1
  P  P248  1  0.20688575  0.75006633  0.22928551  1
  P  P249  1  0.20786181  0.75063583  0.47612256  1
  P  P250  1  0.20648479  0.75018239  0.72758339  1
  P  P251  1  0.20688530  0.74991586  0.97796341  1
  P  P252  1  0.70928112  0.08255463  0.22661551  1
  P  P253  1  0.70814668  0.08191422  0.47717932  1
  P  P254  1  0.70755321  0.08411894  0.72704916  1
  P  P255  1  0.70753069  0.08291605  0.97949002  1
  P  P256  1  0.70826671  0.41840329  0.22785930  1
  P  P257  1  0.70716413  0.41637521  0.47866249  1
  P  P258  1  0.70765874  0.41726272  0.72939781  1
  P  P259  1  0.70846232  0.41849484  0.97871733  1
  P  P260  1  0.70802941  0.74883496  0.22824340  1
  P  P261  1  0.70839063  0.74919575  0.47627909  1
  P  P262  1  0.70803127  0.74757070  0.72786934  1
  P  P263  1  0.70859373  0.74808453  0.97841612  1
  P  P264  1  0.29229623  0.24899430  0.02233382  1
  P  P265  1  0.29276532  0.24979217  0.27153083  1
  P  P266  1  0.29241259  0.25222705  0.52236124  1
  P  P267  1  0.29182146  0.25198804  0.77141089  1
  P  P268  1  0.29291078  0.58282716  0.02165785  1
  P  P269  1  0.29046324  0.58306416  0.27369520  1
  P  P270  1  0.29152759  0.58247749  0.52128429  1
  P  P271  1  0.29287914  0.58276305  0.77075701  1
  P  P272  1  0.29327553  0.91680033  0.02196509  1
  P  P273  1  0.29231639  0.91588601  0.27269912  1
  P  P274  1  0.29163246  0.91799309  0.52164895  1
  P  P275  1  0.29287730  0.91753317  0.77103128  1
  P  P276  1  0.79294128  0.24891232  0.02325539  1
  P  P277  1  0.79260673  0.24961750  0.27111089  1
  P  P278  1  0.79269248  0.24818124  0.52279939  1
  P  P279  1  0.79292938  0.24941712  0.77194550  1
  P  P280  1  0.79165002  0.58321067  0.02368752  1
  P  P281  1  0.79213651  0.58471025  0.27230617  1
  P  P282  1  0.79269186  0.58499197  0.52285750  1
  P  P283  1  0.79184458  0.58330987  0.77415497  1
  P  P284  1  0.79257548  0.91706137  0.02298238  1
  P  P285  1  0.79136149  0.91650079  0.27328165  1
  P  P286  1  0.79243106  0.91568574  0.52052515  1
  P  P287  1  0.79327538  0.91596169  0.77182560  1
  O  O288  1  0.03624276  0.25162572  0.18299283  1
  O  O289  1  0.03623246  0.25006926  0.43164839  1
  O  O290  1  0.03640499  0.25152192  0.68289188  1
  O  O291  1  0.03658506  0.24977081  0.93154335  1
  O  O292  1  0.03623637  0.58459466  0.18311731  1
  O  O293  1  0.03570313  0.58299610  0.43153565  1
  O  O294  1  0.03713527  0.58314155  0.68401907  1
  O  O295  1  0.03598062  0.58355373  0.93207371  1
  O  O296  1  0.03616610  0.91744527  0.18169946  1
  O  O297  1  0.03656382  0.91766966  0.43267889  1
  O  O298  1  0.03631300  0.91710664  0.68160025  1
  O  O299  1  0.03651513  0.91766299  0.93314641  1
  O  O300  1  0.53679092  0.25139842  0.18368770  1
  O  O301  1  0.53699989  0.24914463  0.43128510  1
  O  O302  1  0.53742876  0.24963228  0.68200810  1
  O  O303  1  0.53728247  0.25192627  0.93298964  1
  O  O304  1  0.53595983  0.58401855  0.18339884  1
  O  O305  1  0.53617176  0.58234866  0.43126574  1
  O  O306  1  0.53751825  0.58138119  0.68191181  1
  O  O307  1  0.53702876  0.58388891  0.93403650  1
  O  O308  1  0.53701051  0.91614795  0.18286709  1
  O  O309  1  0.53682533  0.91899120  0.43239281  1
  O  O310  1  0.53798917  0.91722966  0.68149419  1
  O  O311  1  0.53802558  0.91508883  0.93355228  1
  O  O312  1  0.46361832  0.08376816  0.06845423  1
  O  O313  1  0.46410246  0.08375840  0.31739900  1
  O  O314  1  0.46317242  0.08355918  0.56574570  1
  O  O315  1  0.46223105  0.08398129  0.81704263  1
  O  O316  1  0.46352954  0.41601349  0.06844500  1
  O  O317  1  0.46343884  0.41782873  0.31645090  1
  O  O318  1  0.46321795  0.41578419  0.56703715  1
  O  O319  1  0.46330049  0.41465717  0.81769793  1
  O  O320  1  0.46328477  0.74881212  0.06710603  1
  O  O321  1  0.46249207  0.74919120  0.31569846  1
  O  O322  1  0.46195558  0.74973662  0.56601240  1
  O  O323  1  0.46380730  0.74989871  0.81868067  1
  O  O324  1  0.96385840  0.08324846  0.06848558  1
  O  O325  1  0.96353118  0.08254383  0.31717935  1
  O  O326  1  0.96418256  0.08317946  0.56838109  1
  O  O327  1  0.96310037  0.08224404  0.81740011  1
  O  O328  1  0.96330563  0.41692011  0.06856144  1
  O  O329  1  0.96293660  0.41547739  0.31728876  1
  O  O330  1  0.96291920  0.41649305  0.56879923  1
  O  O331  1  0.96363625  0.41525320  0.81729188  1
  O  O332  1  0.96318292  0.74917142  0.06706319  1
  O  O333  1  0.96339857  0.75076538  0.31723243  1
  O  O334  1  0.96306737  0.75006294  0.56781364  1
  O  O335  1  0.96361571  0.74940536  0.81862852  1
  O  O336  1  0.21198985  0.08477274  0.05826434  1
  O  O337  1  0.21221112  0.08447383  0.30735755  1
  O  O338  1  0.21206660  0.08343336  0.55865825  1
  O  O339  1  0.21242865  0.08312720  0.80686835  1
  O  O340  1  0.21198346  0.41530681  0.05676624  1
  O  O341  1  0.21176667  0.41809117  0.30840369  1
  O  O342  1  0.21316861  0.41801802  0.55776840  1
  O  O343  1  0.21354830  0.41578299  0.80613136  1
  O  O344  1  0.21175048  0.74974559  0.05801024  1
  O  O345  1  0.21220542  0.75040167  0.30919705  1
  O  O346  1  0.21238787  0.75044815  0.55612803  1
  O  O347  1  0.21166801  0.75009886  0.80752626  1
  O  O348  1  0.71325540  0.08289943  0.05939493  1
  O  O349  1  0.71407538  0.08193087  0.30661754  1
  O  O350  1  0.71327729  0.08284502  0.55709144  1
  O  O351  1  0.71236492  0.08383814  0.80706962  1
  O  O352  1  0.71393297  0.41858632  0.05865506  1
  O  O353  1  0.71313127  0.41801875  0.30785621  1
  O  O354  1  0.71225267  0.41627903  0.55864717  1
  O  O355  1  0.71307145  0.41774728  0.80936653  1
  O  O356  1  0.71369210  0.74829375  0.05835411  1
  O  O357  1  0.71346684  0.74926231  0.30811118  1
  O  O358  1  0.71318493  0.74883024  0.55627649  1
  O  O359  1  0.71341071  0.74755070  0.80781880  1
  O  O360  1  0.28753518  0.24907135  0.19159301  1
  O  O361  1  0.28745152  0.25198999  0.44240453  1
  O  O362  1  0.28654620  0.25236824  0.69148120  1
  O  O363  1  0.28712680  0.24972125  0.94236697  1
  O  O364  1  0.28617371  0.58323335  0.19366148  1
  O  O365  1  0.28570485  0.58256243  0.44140215  1
  O  O366  1  0.28769379  0.58245720  0.69078815  1
  O  O367  1  0.28822360  0.58276410  0.94164341  1
  O  O368  1  0.28733208  0.91627352  0.19272610  1
  O  O369  1  0.28611421  0.91712603  0.44171270  1
  O  O370  1  0.28744459  0.91808409  0.69104897  1
  O  O371  1  0.28844644  0.91690466  0.94196238  1
  O  O372  1  0.78733260  0.24945129  0.19118321  1
  O  O373  1  0.78773230  0.24848638  0.44275172  1
  O  O374  1  0.78759483  0.24896209  0.69198426  1
  O  O375  1  0.78798170  0.24919650  0.94325884  1
  O  O376  1  0.78680923  0.58428130  0.19242319  1
  O  O377  1  0.78767991  0.58506832  0.44287467  1
  O  O378  1  0.78706808  0.58376157  0.69418592  1
  O  O379  1  0.78646976  0.58300426  0.94376740  1
  O  O380  1  0.78624470  0.91697427  0.19329104  1
  O  O381  1  0.78671619  0.91573198  0.44064732  1
  O  O382  1  0.78817874  0.91577419  0.69183469  1
  O  O383  1  0.78763866  0.91681661  0.94303821  1
  O  O384  1  0.22792042  0.24834415  0.05782839  1
  O  O385  1  0.22834513  0.25061771  0.30655731  1
  O  O386  1  0.22800994  0.25233928  0.55748086  1
  O  O387  1  0.22755902  0.25216541  0.80716667  1
  O  O388  1  0.22824883  0.58299579  0.05609061  1
  O  O389  1  0.22615073  0.58275924  0.30901488  1
  O  O390  1  0.22752663  0.58190133  0.55766748  1
  O  O391  1  0.22848419  0.58274590  0.80593355  1
  O  O392  1  0.22868481  0.91733031  0.05653744  1
  O  O393  1  0.22785756  0.91541179  0.30781962  1
  O  O394  1  0.22743438  0.91895887  0.55753773  1
  O  O395  1  0.22850240  0.91721910  0.80626492  1
  O  O396  1  0.72858795  0.24905290  0.05842606  1
  O  O397  1  0.72834635  0.24942726  0.30651658  1
  O  O398  1  0.72828580  0.24779874  0.55801913  1
  O  O399  1  0.72867441  0.25033879  0.80733912  1
  O  O400  1  0.72760443  0.58315981  0.06001804  1
  O  O401  1  0.72797090  0.58516113  0.30832935  1
  O  O402  1  0.72827779  0.58480471  0.55817354  1
  O  O403  1  0.72765613  0.58322961  0.81008980  1
  O  O404  1  0.72824040  0.91718548  0.05831926  1
  O  O405  1  0.72723964  0.91617766  0.30925861  1
  O  O406  1  0.72838761  0.91594022  0.55659600  1
  O  O407  1  0.72885411  0.91541695  0.80681310  1
  O  O408  1  0.27207498  0.08523873  0.19232985  1
  O  O409  1  0.27110962  0.08357702  0.44354908  1
  O  O410  1  0.27158422  0.08267547  0.69136178  1
  O  O411  1  0.27113957  0.08454997  0.94322664  1
  O  O412  1  0.27116142  0.41659975  0.19346227  1
  O  O413  1  0.27152088  0.41913965  0.44177326  1
  O  O414  1  0.27282617  0.41700631  0.69026141  1
  O  O415  1  0.27174613  0.41466982  0.94181850  1
  O  O416  1  0.27117226  0.74984254  0.19373613  1
  O  O417  1  0.27209569  0.75076362  0.44060985  1
  O  O418  1  0.27090050  0.75033953  0.69265013  1
  O  O419  1  0.27144391  0.74980951  0.94328177  1
  O  O420  1  0.77348337  0.08268371  0.19090908  1
  O  O421  1  0.77245288  0.08108917  0.44166860  1
  O  O422  1  0.77206232  0.08444632  0.69194831  1
  O  O423  1  0.77172674  0.08277042  0.94375144  1
  O  O424  1  0.77263575  0.41839846  0.19264976  1
  O  O425  1  0.77165826  0.41667126  0.44384602  1
  O  O426  1  0.77193052  0.41686588  0.69394888  1
  O  O427  1  0.77262079  0.41869235  0.94277262  1
  O  O428  1  0.77212975  0.74872152  0.19216110  1
  O  O429  1  0.77262847  0.74946564  0.44049527  1
  O  O430  1  0.77231135  0.74759833  0.69214818  1
  O  O431  1  0.77286730  0.74762010  0.94278377  1
  O  O432  1  0.02313923  0.08272423  0.18456455  1
  O  O433  1  0.02224697  0.08268608  0.43335592  1
  O  O434  1  0.02306811  0.08244762  0.68475782  1
  O  O435  1  0.02184491  0.08223049  0.93353476  1
  O  O436  1  0.02266006  0.41627544  0.18455696  1
  O  O437  1  0.02169373  0.41487673  0.43338130  1
  O  O438  1  0.02256299  0.41590924  0.68468672  1
  O  O439  1  0.02228489  0.41509529  0.93349445  1
  O  O440  1  0.02180097  0.74908743  0.18325922  1
  O  O441  1  0.02237867  0.75170392  0.43322234  1
  O  O442  1  0.02199125  0.74868496  0.68368741  1
  O  O443  1  0.02272488  0.74933098  0.93483129  1
  O  O444  1  0.52336195  0.08290384  0.18400373  1
  O  O445  1  0.52310075  0.08425425  0.43370461  1
  O  O446  1  0.52198292  0.08367754  0.68159799  1
  O  O447  1  0.52144293  0.08380889  0.93220664  1
  O  O448  1  0.52252186  0.41675553  0.18460549  1
  O  O449  1  0.52214814  0.41780097  0.43254506  1
  O  O450  1  0.52245181  0.41445453  0.68289676  1
  O  O451  1  0.52195863  0.41514480  0.93375000  1
  O  O452  1  0.52189833  0.74845324  0.18323972  1
  O  O453  1  0.52150001  0.74960713  0.43107950  1
  O  O454  1  0.52158853  0.74938951  0.68090916  1
  O  O455  1  0.52284359  0.74986294  0.93492558  1
  O  O456  1  0.47819251  0.25223489  0.06745083  1
  O  O457  1  0.47767843  0.25065750  0.31548259  1
  O  O458  1  0.47835535  0.24848485  0.56613277  1
  O  O459  1  0.47822014  0.25177120  0.81715329  1
  O  O460  1  0.47752867  0.58440744  0.06710200  1
  O  O461  1  0.47689406  0.58278538  0.31528570  1
  O  O462  1  0.47799842  0.58100522  0.56647603  1
  O  O463  1  0.47831219  0.58268827  0.81824565  1
  O  O464  1  0.47822197  0.91476102  0.06689645  1
  O  O465  1  0.47796641  0.91853487  0.31657648  1
  O  O466  1  0.47816471  0.91789681  0.56629452  1
  O  O467  1  0.47895517  0.91630696  0.81815629  1
  O  O468  1  0.97767743  0.25174931  0.06672675  1
  O  O469  1  0.97710231  0.25052408  0.31556903  1
  O  O470  1  0.97754892  0.25141399  0.56679937  1
  O  O471  1  0.97719400  0.25023405  0.81561219  1
  O  O472  1  0.97759551  0.58488657  0.06697078  1
  O  O473  1  0.97633420  0.58399239  0.31563010  1
  O  O474  1  0.97812099  0.58331863  0.56832983  1
  O  O475  1  0.97680646  0.58410069  0.81595526  1
  O  O476  1  0.97696103  0.91774040  0.06565245  1
  O  O477  1  0.97775088  0.91837583  0.31656324  1
  O  O478  1  0.97705593  0.91614497  0.56539107  1
  O  O479  1  0.97791211  0.91822707  0.81694622  1
  O  O480  1  0.07263445  0.31500865  0.07424825  1
  O  O481  1  0.07249662  0.31378204  0.32381421  1
  O  O482  1  0.07221121  0.31513184  0.57403181  1
  O  O483  1  0.07277479  0.31304607  0.82330972  1
  O  O484  1  0.07289398  0.64780928  0.07442045  1
  O  O485  1  0.07150475  0.64729914  0.32409458  1
  O  O486  1  0.07372558  0.64622051  0.57543445  1
  O  O487  1  0.07240993  0.64679412  0.82394487  1
  O  O488  1  0.07251435  0.98070823  0.07368569  1
  O  O489  1  0.07297697  0.98139109  0.32422183  1
  O  O490  1  0.07145080  0.98062817  0.57307801  1
  O  O491  1  0.07317276  0.98100579  0.82444877  1
  O  O492  1  0.57352409  0.31502712  0.07543308  1
  O  O493  1  0.57300012  0.31370516  0.32381749  1
  O  O494  1  0.57366267  0.31236040  0.57377223  1
  O  O495  1  0.57337979  0.31505692  0.82417333  1
  O  O496  1  0.57264902  0.64746801  0.07491867  1
  O  O497  1  0.57150991  0.64696261  0.32347543  1
  O  O498  1  0.57324039  0.64486547  0.57393458  1
  O  O499  1  0.57344629  0.64661308  0.82539011  1
  O  O500  1  0.57334286  0.97900048  0.07488099  1
  O  O501  1  0.57315705  0.98178563  0.32353615  1
  O  O502  1  0.57324066  0.98126918  0.57304501  1
  O  O503  1  0.57433289  0.97957055  0.82591407  1
  O  O504  1  0.42793437  0.01985873  0.17625842  1
  O  O505  1  0.42826305  0.02039754  0.42597740  1
  O  O506  1  0.42675091  0.02004913  0.67407598  1
  O  O507  1  0.42605585  0.02035766  0.92499709  1
  O  O508  1  0.42749691  0.35299516  0.17692989  1
  O  O509  1  0.42678128  0.35433328  0.42421423  1
  O  O510  1  0.42756126  0.35128898  0.67510352  1
  O  O511  1  0.42693445  0.35159303  0.92648142  1
  O  O512  1  0.42673474  0.68528528  0.17570874  1
  O  O513  1  0.42578174  0.68654499  0.42402970  1
  O  O514  1  0.42608448  0.68606563  0.67413148  1
  O  O515  1  0.42796176  0.68589107  0.92638861  1
  O  O516  1  0.92760841  0.01995407  0.17665945  1
  O  O517  1  0.92763815  0.01884495  0.42594599  1
  O  O518  1  0.92769511  0.01939750  0.67606890  1
  O  O519  1  0.92679883  0.01896428  0.92625087  1
  O  O520  1  0.92694604  0.35367834  0.17666750  1
  O  O521  1  0.92673800  0.35163204  0.42591074  1
  O  O522  1  0.92690202  0.35306750  0.67679625  1
  O  O523  1  0.92733340  0.35171814  0.92595766  1
  O  O524  1  0.92677287  0.68594605  0.17591208  1
  O  O525  1  0.92707864  0.68788004  0.42526052  1
  O  O526  1  0.92689222  0.68580790  0.67601878  1
  O  O527  1  0.92735501  0.68626168  0.92685688  1
  O  O528  1  0.17691406  0.02105019  0.19944924  1
  O  O529  1  0.17513672  0.02107439  0.44996422  1
  O  O530  1  0.17652503  0.01946410  0.69840757  1
  O  O531  1  0.17608880  0.02050586  0.95035362  1
  O  O532  1  0.17559783  0.35381019  0.20064566  1
  O  O533  1  0.17675773  0.35448775  0.44975907  1
  O  O534  1  0.17768327  0.35347216  0.69720040  1
  O  O535  1  0.17660276  0.35150499  0.94820104  1
  O  O536  1  0.17573063  0.68664651  0.20100995  1
  O  O537  1  0.17745862  0.68664702  0.44794196  1
  O  O538  1  0.17559283  0.68675836  0.69927311  1
  O  O539  1  0.17588745  0.68652945  0.94965722  1
  O  O540  1  0.67835718  0.01911373  0.19806776  1
  O  O541  1  0.67721839  0.01838811  0.44893517  1
  O  O542  1  0.67684878  0.02034536  0.69913111  1
  O  O543  1  0.67621107  0.01971401  0.95087710  1
  O  O544  1  0.67717272  0.35490754  0.19990030  1
  O  O545  1  0.67641958  0.35284787  0.45029508  1
  O  O546  1  0.67650433  0.35374346  0.70147492  1
  O  O547  1  0.67776256  0.35449603  0.95122311  1
  O  O548  1  0.67719462  0.68542686  0.19953711  1
  O  O549  1  0.67757137  0.68568679  0.44775371  1
  O  O550  1  0.67715371  0.68428298  0.69905686  1
  O  O551  1  0.67741048  0.68487650  0.94993633  1
  O  O552  1  0.32314597  0.31249658  0.05077363  1
  O  O553  1  0.32400268  0.31336505  0.29923127  1
  O  O554  1  0.32318699  0.31576516  0.55057796  1
  O  O555  1  0.32281552  0.31503013  0.80057411  1
  O  O556  1  0.32380667  0.64610648  0.05029266  1
  O  O557  1  0.32064997  0.64703251  0.30218339  1
  O  O558  1  0.32246736  0.64634478  0.54884216  1
  O  O559  1  0.32374710  0.64641932  0.79879142  1
  O  O560  1  0.32447642  0.98013304  0.05025305  1
  O  O561  1  0.32295689  0.97977134  0.30047894  1
  O  O562  1  0.32270272  0.98152763  0.54958836  1
  O  O563  1  0.32410615  0.98067166  0.79960624  1
  O  O564  1  0.82411641  0.31253259  0.05081110  1
  O  O565  1  0.82335073  0.31328841  0.29927617  1
  O  O566  1  0.82344290  0.31188628  0.55080762  1
  O  O567  1  0.82434653  0.31278101  0.79994565  1
  O  O568  1  0.82241791  0.64690840  0.05193953  1
  O  O569  1  0.82318911  0.64808495  0.30081719  1
  O  O570  1  0.82332011  0.64834705  0.55176869  1
  O  O571  1  0.82280301  0.64664054  0.80289262  1
  O  O572  1  0.82326987  0.98050239  0.05170272  1
  O  O573  1  0.82220055  0.97999074  0.30177972  1
  O  O574  1  0.82400624  0.97886295  0.54881297  1
  O  O575  1  0.82373892  0.97975996  0.79984245  1
  O  O576  1  0.42883500  0.14733958  0.17700388  1
  O  O577  1  0.42792864  0.14765409  0.42549571  1
  O  O578  1  0.42632809  0.14677905  0.67403127  1
  O  O579  1  0.42601115  0.14737497  0.92509983  1
  O  O580  1  0.42738443  0.48030645  0.17587866  1
  O  O581  1  0.42723597  0.48131681  0.42518655  1
  O  O582  1  0.42713856  0.47842643  0.67544816  1
  O  O583  1  0.42652589  0.47855808  0.92509453  1
  O  O584  1  0.42652904  0.81221887  0.17489419  1
  O  O585  1  0.42634085  0.81347874  0.42325118  1
  O  O586  1  0.42619268  0.81314835  0.67428566  1
  O  O587  1  0.42785593  0.81345689  0.92677277  1
  O  O588  1  0.92889863  0.14734320  0.17672705  1
  O  O589  1  0.92657093  0.14570172  0.42512611  1
  O  O590  1  0.92879109  0.14686526  0.67672751  1
  O  O591  1  0.92654166  0.14583606  0.92531148  1
  O  O592  1  0.92848446  0.48097899  0.17693577  1
  O  O593  1  0.92633196  0.47864042  0.42532582  1
  O  O594  1  0.92822264  0.48039070  0.67742188  1
  O  O595  1  0.92697119  0.47869745  0.92513046  1
  O  O596  1  0.92648539  0.81287362  0.17463730  1
  O  O597  1  0.92748139  0.81501549  0.42531498  1
  O  O598  1  0.92680073  0.81288308  0.67596157  1
  O  O599  1  0.92840280  0.81372180  0.92668961  1
  O  O600  1  0.07287656  0.18803934  0.07520323  1
  O  O601  1  0.07163682  0.18645965  0.32318657  1
  O  O602  1  0.07312757  0.18818376  0.57509951  1
  O  O603  1  0.07146679  0.18572471  0.82316363  1
  O  O604  1  0.07271139  0.52093791  0.07516494  1
  O  O605  1  0.07086230  0.51969316  0.32317373  1
  O  O606  1  0.07330186  0.51956601  0.57558798  1
  O  O607  1  0.07108875  0.51933544  0.82400456  1
  O  O608  1  0.07131095  0.85325032  0.07359350  1
  O  O609  1  0.07294777  0.85458427  0.32436601  1
  O  O610  1  0.07227959  0.85318128  0.57367473  1
  O  O611  1  0.07296899  0.85411850  0.82522794  1
  O  O612  1  0.57320455  0.18796399  0.07578859  1
  O  O613  1  0.57239969  0.18635975  0.32232612  1
  O  O614  1  0.57345083  0.18539311  0.57375835  1
  O  O615  1  0.57353439  0.18794983  0.82542805  1
  O  O616  1  0.57272848  0.52052198  0.07575732  1
  O  O617  1  0.57248462  0.51966906  0.32282540  1
  O  O618  1  0.57311430  0.51761905  0.57339888  1
  O  O619  1  0.57383323  0.51971762  0.82669210  1
  O  O620  1  0.57338356  0.85175609  0.07502827  1
  O  O621  1  0.57317041  0.85466706  0.32526795  1
  O  O622  1  0.57365915  0.85402722  0.57342147  1
  O  O623  1  0.57445596  0.85263957  0.82470634  1
  O  O624  1  0.32324952  0.18544730  0.05078510  1
  O  O625  1  0.32374107  0.18656116  0.30054230  1
  O  O626  1  0.32337282  0.18849165  0.55024660  1
  O  O627  1  0.32261436  0.18789560  0.79884180  1
  O  O628  1  0.32362154  0.51907126  0.04993534  1
  O  O629  1  0.32160943  0.51956487  0.30179902  1
  O  O630  1  0.32293858  0.51931175  0.55005780  1
  O  O631  1  0.32419525  0.51950462  0.79929174  1
  O  O632  1  0.32388689  0.85314092  0.05031034  1
  O  O633  1  0.32329421  0.85245091  0.30111691  1
  O  O634  1  0.32254073  0.85426770  0.54974459  1
  O  O635  1  0.32390759  0.85372470  0.79887166  1
  O  O636  1  0.82351576  0.18520845  0.05179748  1
  O  O637  1  0.82413070  0.18634411  0.29927532  1
  O  O638  1  0.82352387  0.18454318  0.55111029  1
  O  O639  1  0.82382098  0.18592726  0.80040018  1
  O  O640  1  0.82284396  0.51971050  0.05229944  1
  O  O641  1  0.82315537  0.52114100  0.30075335  1
  O  O642  1  0.82374470  0.52121532  0.55079325  1
  O  O643  1  0.82249153  0.51940624  0.80233494  1
  O  O644  1  0.82360370  0.85337032  0.05085332  1
  O  O645  1  0.82231097  0.85260018  0.30098661  1
  O  O646  1  0.82356390  0.85218472  0.54892316  1
  O  O647  1  0.82470482  0.85266374  0.80014391  1
  O  O648  1  0.17674188  0.14836347  0.19887667  1
  O  O649  1  0.17611322  0.14795120  0.45095165  1
  O  O650  1  0.17635991  0.14682300  0.69944483  1
  O  O651  1  0.17512735  0.14728269  0.94940626  1
  O  O652  1  0.17579042  0.48064410  0.19949153  1
  O  O653  1  0.17569585  0.48139649  0.44936023  1
  O  O654  1  0.17795964  0.48079637  0.69853523  1
  O  O655  1  0.17636321  0.47872468  0.94857496  1
  O  O656  1  0.17572852  0.81345548  0.20051109  1
  O  O657  1  0.17695581  0.81431188  0.44807632  1
  O  O658  1  0.17529216  0.81369037  0.69948791  1
  O  O659  1  0.17608110  0.81362484  0.94987770  1
  O  O660  1  0.67861983  0.14661207  0.19881173  1
  O  O661  1  0.67718759  0.14541625  0.44855366  1
  O  O662  1  0.67685366  0.14770640  0.69853464  1
  O  O663  1  0.67629234  0.14649060  0.95130054  1
  O  O664  1  0.67762006  0.48207237  0.19947739  1
  O  O665  1  0.67605394  0.47991547  0.45060859  1
  O  O666  1  0.67648043  0.48057546  0.70083372  1
  O  O667  1  0.67715358  0.48170830  0.95017485  1
  O  O668  1  0.67669860  0.81237405  0.20008433  1
  O  O669  1  0.67755781  0.81299027  0.44805386  1
  O  O670  1  0.67698516  0.81128763  0.69978012  1
  O  O671  1  0.67794150  0.81197770  0.95029456  1
