# generated using pymatgen
data_Na2MnFe(PO4)2
_symmetry_space_group_name_H-M   'P 1'
_cell_length_a   22.34373805
_cell_length_b   20.09324708
_cell_length_c   19.45166241
_cell_angle_alpha   90.02900347
_cell_angle_beta   90.06342444
_cell_angle_gamma   89.94508801
_symmetry_Int_Tables_number   1
_chemical_formula_structural   Na2MnFe(PO4)2
_chemical_formula_sum   'Na96 Mn48 Fe48 P96 O384'
_cell_volume   8732.97382532
_cell_formula_units_Z   48
loop_
 _symmetry_equiv_pos_site_id
 _symmetry_equiv_pos_as_xyz
  1  'x, y, z'
loop_
 _atom_site_type_symbol
 _atom_site_label
 _atom_site_symmetry_multiplicity
 _atom_site_fract_x
 _atom_site_fract_y
 _atom_site_fract_z
 _atom_site_occupancy
  Na  Na0  1  0.14030530  0.25074259  0.24260213  1
  Na  Na1  1  0.13984517  0.25100289  0.49372886  1
  Na  Na2  1  0.14001875  0.25136496  0.74337125  1
  Na  Na3  1  0.14006614  0.24990136  0.99353170  1
  Na  Na4  1  0.13956454  0.58164717  0.24242959  1
  Na  Na5  1  0.14000248  0.58275523  0.49346219  1
  Na  Na6  1  0.14032878  0.58329200  0.74387394  1
  Na  Na7  1  0.13990184  0.58163283  0.99352796  1
  Na  Na8  1  0.13983448  0.91701206  0.24383072  1
  Na  Na9  1  0.13967257  0.91644422  0.49413255  1
  Na  Na10  1  0.14001803  0.91842581  0.74344431  1
  Na  Na11  1  0.14045502  0.91660641  0.99364206  1
  Na  Na12  1  0.64068192  0.24980714  0.24374187  1
  Na  Na13  1  0.64026845  0.24950677  0.49489724  1
  Na  Na14  1  0.64037386  0.24828480  0.74422543  1
  Na  Na15  1  0.64037960  0.24947431  0.99277466  1
  Na  Na16  1  0.64025888  0.58341981  0.24477778  1
  Na  Na17  1  0.64037303  0.58336589  0.49395087  1
  Na  Na18  1  0.64078839  0.58359153  0.74398418  1
  Na  Na19  1  0.64018507  0.58416813  0.99518575  1
  Na  Na20  1  0.63963342  0.91597079  0.24302184  1
  Na  Na21  1  0.63932689  0.91554805  0.49347169  1
  Na  Na22  1  0.64007722  0.91605462  0.74222609  1
  Na  Na23  1  0.64017044  0.91837852  0.99334891  1
  Na  Na24  1  0.36046601  0.08335482  0.00601497  1
  Na  Na25  1  0.36017253  0.08199885  0.25509387  1
  Na  Na26  1  0.35967962  0.08309167  0.50735395  1
  Na  Na27  1  0.35976165  0.08478822  0.75695631  1
  Na  Na28  1  0.35987230  0.41599766  0.00635038  1
  Na  Na29  1  0.36041579  0.41623143  0.25584144  1
  Na  Na30  1  0.35955903  0.41609573  0.50542621  1
  Na  Na31  1  0.35960521  0.41672153  0.75624866  1
  Na  Na32  1  0.35894458  0.74962101  0.00597552  1
  Na  Na33  1  0.35930402  0.74954120  0.25669704  1
  Na  Na34  1  0.35998129  0.75012565  0.50654127  1
  Na  Na35  1  0.35957108  0.75229223  0.75569138  1
  Na  Na36  1  0.86010393  0.08373125  0.00569678  1
  Na  Na37  1  0.85980242  0.08324718  0.25610677  1
  Na  Na38  1  0.85972875  0.08312018  0.50669413  1
  Na  Na39  1  0.85981201  0.08242211  0.75658865  1
  Na  Na40  1  0.86021452  0.41791805  0.00687130  1
  Na  Na41  1  0.86056381  0.41736574  0.25767149  1
  Na  Na42  1  0.86062154  0.41689749  0.50677895  1
  Na  Na43  1  0.86055660  0.41623538  0.75745759  1
  Na  Na44  1  0.85949420  0.75015268  0.00631111  1
  Na  Na45  1  0.86006330  0.74946845  0.25583529  1
  Na  Na46  1  0.85947197  0.75053504  0.50681451  1
  Na  Na47  1  0.85916192  0.74980273  0.75584043  1
  Na  Na48  1  0.10937558  0.08336793  0.11823881  1
  Na  Na49  1  0.10929695  0.08516253  0.36893096  1
  Na  Na50  1  0.10913039  0.08376749  0.61844382  1
  Na  Na51  1  0.10973696  0.08463179  0.86833541  1
  Na  Na52  1  0.10964917  0.41643677  0.11775607  1
  Na  Na53  1  0.10967240  0.41828742  0.36779880  1
  Na  Na54  1  0.10925573  0.41568330  0.61877685  1
  Na  Na55  1  0.10969038  0.41605633  0.86948437  1
  Na  Na56  1  0.10906651  0.74828033  0.11820041  1
  Na  Na57  1  0.10873435  0.75059238  0.36864363  1
  Na  Na58  1  0.10937009  0.74988969  0.61882125  1
  Na  Na59  1  0.10937462  0.74872907  0.86815860  1
  Na  Na60  1  0.60994716  0.08246359  0.11764882  1
  Na  Na61  1  0.60912418  0.08180068  0.36872014  1
  Na  Na62  1  0.60942851  0.08190078  0.61985336  1
  Na  Na63  1  0.60981307  0.08295213  0.86770670  1
  Na  Na64  1  0.60974632  0.41590290  0.11987195  1
  Na  Na65  1  0.60953742  0.41610283  0.36841555  1
  Na  Na66  1  0.60933802  0.41636962  0.61970232  1
  Na  Na67  1  0.60976196  0.41634399  0.86851934  1
  Na  Na68  1  0.60926959  0.75116333  0.11969659  1
  Na  Na69  1  0.60954176  0.74954685  0.36925584  1
  Na  Na70  1  0.60961059  0.75111393  0.61739775  1
  Na  Na71  1  0.60936363  0.75127983  0.86837132  1
  Na  Na72  1  0.39101395  0.24909790  0.13104325  1
  Na  Na73  1  0.39068051  0.24935953  0.38083247  1
  Na  Na74  1  0.39002150  0.24931543  0.63250116  1
  Na  Na75  1  0.39055088  0.24964089  0.88044282  1
  Na  Na76  1  0.39026422  0.58243073  0.13218480  1
  Na  Na77  1  0.39033530  0.58276959  0.38085131  1
  Na  Na78  1  0.39088588  0.58452377  0.63098784  1
  Na  Na79  1  0.39041994  0.58380146  0.88107507  1
  Na  Na80  1  0.39044460  0.91753003  0.13052501  1
  Na  Na81  1  0.39063484  0.91581525  0.38096186  1
  Na  Na82  1  0.39041076  0.91733333  0.63180026  1
  Na  Na83  1  0.39026829  0.91842262  0.88073648  1
  Na  Na84  1  0.89092214  0.25042879  0.13106389  1
  Na  Na85  1  0.89113279  0.25204929  0.38166480  1
  Na  Na86  1  0.89094478  0.24993571  0.63139098  1
  Na  Na87  1  0.89111010  0.25111833  0.88208943  1
  Na  Na88  1  0.89086570  0.58269620  0.13171554  1
  Na  Na89  1  0.89070767  0.58414725  0.38183594  1
  Na  Na90  1  0.89043936  0.58192294  0.63146986  1
  Na  Na91  1  0.89067703  0.58176276  0.88200038  1
  Na  Na92  1  0.89050094  0.91668237  0.13120275  1
  Na  Na93  1  0.89060920  0.91790695  0.38118866  1
  Na  Na94  1  0.88973247  0.91629180  0.63198109  1
  Na  Na95  1  0.89017559  0.91774880  0.88129583  1
  Mn  Mn96  1  0.50036050  0.16530522  0.25027436  1
  Mn  Mn97  1  0.25017131  0.49965529  0.87444839  1
  Mn  Mn98  1  0.49956303  0.66696653  0.25024545  1
  Mn  Mn99  1  -0.00007489  0.83342431  0.24953664  1
  Mn  Mn100  1  0.74983797  -0.00075849  0.37513801  1
  Mn  Mn101  1  0.24995220  0.16622371  0.12413842  1
  Mn  Mn102  1  0.74943414  0.66643354  0.87522829  1
  Mn  Mn103  1  0.74947431  0.50001431  0.62496749  1
  Mn  Mn104  1  0.75055147  0.16625720  0.12472056  1
  Mn  Mn105  1  0.50043238  0.50002681  0.75014143  1
  Mn  Mn106  1  0.74999302  0.33340270  0.87531405  1
  Mn  Mn107  1  -0.00034270  0.00050442  0.49991379  1
  Mn  Mn108  1  0.00012364  0.16799799  0.24987478  1
  Mn  Mn109  1  0.25020451  0.16683801  0.37465793  1
  Mn  Mn110  1  0.75011517  0.83352293  0.12487938  1
  Mn  Mn111  1  0.00015737  0.66648330  0.49996018  1
  Mn  Mn112  1  0.50007629  0.49942204  0.00031259  1
  Mn  Mn113  1  -0.00051164  0.66492646  0.74932000  1
  Mn  Mn114  1  0.75070765  0.16542722  0.62444287  1
  Mn  Mn115  1  0.75048251  0.33398557  0.12460020  1
  Mn  Mn116  1  0.49941579  0.50006998  0.50012920  1
  Mn  Mn117  1  0.49981361  0.33197881  -0.00023907  1
  Mn  Mn118  1  0.25025406  0.66769854  0.62433405  1
  Mn  Mn119  1  0.25062334  0.49995279  0.62504332  1
  Mn  Mn120  1  0.74982446  0.50134674  0.12673711  1
  Mn  Mn121  1  0.24979770  -0.00010851  0.37577873  1
  Mn  Mn122  1  0.25014348  0.16740137  0.87544956  1
  Mn  Mn123  1  0.75030082  0.50041833  0.37586102  1
  Mn  Mn124  1  0.74933538  0.83421989  0.87524684  1
  Mn  Mn125  1  0.24957541  0.66494034  0.12544384  1
  Mn  Mn126  1  0.00018741  0.16734824  0.74965230  1
  Mn  Mn127  1  0.24953801  0.83405512  0.87554644  1
  Mn  Mn128  1  0.00053205  0.83236444  0.00043403  1
  Mn  Mn129  1  0.24980611  0.83295595  0.37477561  1
  Mn  Mn130  1  0.49997933  0.33265686  0.50032021  1
  Mn  Mn131  1  0.75050367  0.83222319  0.37446124  1
  Mn  Mn132  1  0.50034759  0.16525560  0.50038209  1
  Mn  Mn133  1  0.24928975  0.83319550  0.12472838  1
  Mn  Mn134  1  0.25041966  0.33377709  0.37403146  1
  Mn  Mn135  1  0.49948495  0.83496018  -0.00068322  1
  Mn  Mn136  1  0.74964502  0.16673621  0.37543644  1
  Mn  Mn137  1  0.50044252  0.66816794  0.75016582  1
  Mn  Mn138  1  -0.00059083  0.83317015  0.75039610  1
  Mn  Mn139  1  0.49958516  0.66755695  0.00066337  1
  Mn  Mn140  1  0.00051496  0.00073617  0.00018438  1
  Mn  Mn141  1  0.75025866  0.33279118  0.62621765  1
  Mn  Mn142  1  0.24967318  0.00089639  0.62519369  1
  Mn  Mn143  1  0.24900982  0.66543727  0.37525995  1
  Fe  Fe144  1  0.00035392  0.49970212  0.50015207  1
  Fe  Fe145  1  -0.00031768  0.16752891  0.49964073  1
  Fe  Fe146  1  0.25015363  0.33336515  0.87491719  1
  Fe  Fe147  1  0.50067766  0.16602067  -0.00011459  1
  Fe  Fe148  1  0.00040786  0.49880106  0.75082356  1
  Fe  Fe149  1  0.25003728  -0.00018704  0.12492539  1
  Fe  Fe150  1  0.74948199  -0.00074380  0.62529382  1
  Fe  Fe151  1  0.00001820  0.49939417  0.00078432  1
  Fe  Fe152  1  0.50001899  0.16591175  0.75031774  1
  Fe  Fe153  1  0.50039163  0.49949622  0.25069579  1
  Fe  Fe154  1  0.00057345  0.33421764  0.25027474  1
  Fe  Fe155  1  0.00007178  0.00087382  0.25015924  1
  Fe  Fe156  1  0.24943136  0.16772788  0.62573464  1
  Fe  Fe157  1  0.74976986  0.83302708  0.62490634  1
  Fe  Fe158  1  0.75002192  0.66704071  0.12494871  1
  Fe  Fe159  1  -0.00020385  0.66525500  -0.00042201  1
  Fe  Fe160  1  0.49938112  0.83333198  0.25050598  1
  Fe  Fe161  1  0.00006358  0.33374634  0.75058970  1
  Fe  Fe162  1  0.50075973  0.00038731  -0.00087653  1
  Fe  Fe163  1  0.75056469  0.16597687  0.87472204  1
  Fe  Fe164  1  0.75013119  0.00030817  0.12433948  1
  Fe  Fe165  1  0.75025895  0.33334194  0.37545519  1
  Fe  Fe166  1  0.49958282  0.33245397  0.75022754  1
  Fe  Fe167  1  -0.00027239  0.66635008  0.24970186  1
  Fe  Fe168  1  -0.00002085  0.00021139  0.74979081  1
  Fe  Fe169  1  0.25064655  0.33316648  0.12466786  1
  Fe  Fe170  1  0.49932703  -0.00076844  0.49986552  1
  Fe  Fe171  1  0.50020563  -0.00075221  0.24940788  1
  Fe  Fe172  1  -0.00002738  0.33396643  0.00062046  1
  Fe  Fe173  1  0.49957157  0.83445454  0.74889508  1
  Fe  Fe174  1  0.75025148  0.66688063  0.37560608  1
  Fe  Fe175  1  0.24915711  0.83417309  0.62572873  1
  Fe  Fe176  1  0.49990542  0.00018912  0.74963234  1
  Fe  Fe177  1  0.75031598  0.00004195  0.87415751  1
  Fe  Fe178  1  0.75024057  0.50048293  0.87557348  1
  Fe  Fe179  1  -0.00007018  0.50013368  0.24983256  1
  Fe  Fe180  1  0.50014438  0.66711816  0.49984150  1
  Fe  Fe181  1  -0.00046392  0.83384124  0.49975203  1
  Fe  Fe182  1  0.49959457  0.83383228  0.49944299  1
  Fe  Fe183  1  -0.00006444  0.16743150  -0.00024129  1
  Fe  Fe184  1  0.24974699  0.33362076  0.62477201  1
  Fe  Fe185  1  0.75028041  0.66655555  0.62527269  1
  Fe  Fe186  1  0.00017346  0.33427608  0.50013359  1
  Fe  Fe187  1  0.24964689  0.00079809  0.87451987  1
  Fe  Fe188  1  0.25060449  0.49896622  0.12392040  1
  Fe  Fe189  1  0.50049345  0.33216237  0.25011029  1
  Fe  Fe190  1  0.24996949  0.66677226  0.87475699  1
  Fe  Fe191  1  0.25015653  0.49938233  0.37452019  1
  P  P192  1  0.04152769  0.25054058  0.10168374  1
  P  P193  1  0.04262608  0.25264777  0.35290698  1
  P  P194  1  0.04102552  0.25045874  0.60163103  1
  P  P195  1  0.04208038  0.25172618  0.85312380  1
  P  P196  1  0.04122543  0.58286463  0.10223744  1
  P  P197  1  0.04122662  0.58348255  0.35144268  1
  P  P198  1  0.04230162  0.58111106  0.60273866  1
  P  P199  1  0.04216491  0.58134713  0.85322948  1
  P  P200  1  0.04286851  0.91670485  0.10365892  1
  P  P201  1  0.04188675  0.91833746  0.35258254  1
  P  P202  1  0.04165140  0.91587253  0.60274394  1
  P  P203  1  0.04208876  0.91806602  0.85243263  1
  P  P204  1  0.54274163  0.24818395  0.10264396  1
  P  P205  1  0.54260401  0.24989682  0.35248151  1
  P  P206  1  0.54235131  0.24902131  0.60440431  1
  P  P207  1  0.54157468  0.24889191  0.85189720  1
  P  P208  1  0.54219314  0.58312870  0.10422276  1
  P  P209  1  0.54181668  0.58275623  0.35309339  1
  P  P210  1  0.54228020  0.58497509  0.60229371  1
  P  P211  1  0.54307951  0.58388458  0.85332355  1
  P  P212  1  0.54221689  0.91851525  0.10246564  1
  P  P213  1  0.54137164  0.91621328  0.35207751  1
  P  P214  1  0.54085012  0.91668212  0.60187420  1
  P  P215  1  0.54141986  0.91737003  0.85092486  1
  P  P216  1  0.45841044  0.08183176  0.14656115  1
  P  P217  1  0.45748794  0.08103940  0.39730698  1
  P  P218  1  0.45815226  0.08292766  0.64827868  1
  P  P219  1  0.45894980  0.08370460  0.89743978  1
  P  P220  1  0.45926338  0.41582148  0.14876791  1
  P  P221  1  0.45775128  0.41610308  0.39603875  1
  P  P222  1  0.45777970  0.41542208  0.64796544  1
  P  P223  1  0.45751698  0.41566823  0.89636492  1
  P  P224  1  0.45711162  0.75183704  0.14783528  1
  P  P225  1  0.45838483  0.75023363  0.39804819  1
  P  P226  1  0.45802805  0.75198817  0.64639369  1
  P  P227  1  0.45688276  0.75133914  0.89638124  1
  P  P228  1  0.95793926  0.08311032  0.14734246  1
  P  P229  1  0.95768104  0.08545678  0.39720735  1
  P  P230  1  0.95771057  0.08247433  0.64734763  1
  P  P231  1  0.95829718  0.08513955  0.89717364  1
  P  P232  1  0.95888491  0.41639410  0.14820396  1
  P  P233  1  0.95901177  0.41756194  0.39795977  1
  P  P234  1  0.95872069  0.41629342  0.64832218  1
  P  P235  1  0.95883675  0.41657823  0.89849173  1
  P  P236  1  0.95787154  0.74793580  0.14688854  1
  P  P237  1  0.95763904  0.75129722  0.39729259  1
  P  P238  1  0.95717969  0.74962516  0.64636873  1
  P  P239  1  0.95769105  0.74821350  0.89769891  1
  P  P240  1  0.20747939  0.08226815  0.22705105  1
  P  P241  1  0.20719043  0.08434501  0.47894396  1
  P  P242  1  0.20744824  0.08539265  0.72784234  1
  P  P243  1  0.20794136  0.08205249  0.97754665  1
  P  P244  1  0.20894187  0.41673049  0.22600596  1
  P  P245  1  0.20779143  0.41738615  0.47715351  1
  P  P246  1  0.20791620  0.41561593  0.72751192  1
  P  P247  1  0.20825653  0.41511883  0.97777841  1
  P  P248  1  0.20652451  0.74920725  0.22791388  1
  P  P249  1  0.20662372  0.75022886  0.47845575  1
  P  P250  1  0.20739603  0.75158748  0.72788249  1
  P  P251  1  0.20716861  0.74828519  0.97726667  1
  P  P252  1  0.70763699  0.08211313  0.22704410  1
  P  P253  1  0.70691241  0.08241007  0.47862535  1
  P  P254  1  0.70829063  0.08166953  0.72805289  1
  P  P255  1  0.70889570  0.08290607  0.97627103  1
  P  P256  1  0.70782703  0.41649866  0.22930880  1
  P  P257  1  0.70788239  0.41550531  0.47782073  1
  P  P258  1  0.70744268  0.41690086  0.72921827  1
  P  P259  1  0.70771494  0.41855628  0.97779960  1
  P  P260  1  0.70781279  0.74852850  0.22769739  1
  P  P261  1  0.70814242  0.74875917  0.47837820  1
  P  P262  1  0.70828270  0.74978501  0.72641758  1
  P  P263  1  0.70688031  0.75028729  0.97847454  1
  P  P264  1  0.29241043  0.25122513  0.02210627  1
  P  P265  1  0.29299715  0.24999457  0.27081461  1
  P  P266  1  0.29147749  0.25028261  0.52354188  1
  P  P267  1  0.29182926  0.25157687  0.77188797  1
  P  P268  1  0.29260112  0.58165551  0.02194356  1
  P  P269  1  0.29186765  0.58106852  0.27201891  1
  P  P270  1  0.29300882  0.58288552  0.52125774  1
  P  P271  1  0.29244220  0.58506500  0.77238987  1
  P  P272  1  0.29179434  0.91801569  0.02206615  1
  P  P273  1  0.29245768  0.91688760  0.27145346  1
  P  P274  1  0.29199444  0.91564440  0.52322345  1
  P  P275  1  0.29168848  0.91841170  0.77240523  1
  P  P276  1  0.79280134  0.24970097  0.02121421  1
  P  P277  1  0.79250577  0.25100729  0.27292379  1
  P  P278  1  0.79307644  0.25037282  0.52175047  1
  P  P279  1  0.79266741  0.24825434  0.77298174  1
  P  P280  1  0.79232954  0.58445703  0.02280192  1
  P  P281  1  0.79244856  0.58523038  0.27306268  1
  P  P282  1  0.79227029  0.58472161  0.52266034  1
  P  P283  1  0.79253271  0.58242485  0.77261267  1
  P  P284  1  0.79231431  0.91846771  0.02197840  1
  P  P285  1  0.79296557  0.91650882  0.27126741  1
  P  P286  1  0.79106046  0.91645492  0.52359472  1
  P  P287  1  0.79178865  0.91733065  0.77166244  1
  O  O288  1  0.03658481  0.25080163  0.18160495  1
  O  O289  1  0.03732825  0.25239597  0.43268412  1
  O  O290  1  0.03649795  0.25062513  0.68158293  1
  O  O291  1  0.03663778  0.25143731  0.93292959  1
  O  O292  1  0.03622823  0.58318224  0.18209533  1
  O  O293  1  0.03678426  0.58286259  0.43139648  1
  O  O294  1  0.03692272  0.58069215  0.68262552  1
  O  O295  1  0.03671761  0.58208781  0.93308710  1
  O  O296  1  0.03759186  0.91723661  0.18357321  1
  O  O297  1  0.03640065  0.91783315  0.43251334  1
  O  O298  1  0.03643755  0.91642514  0.68267077  1
  O  O299  1  0.03730071  0.91783755  0.93241270  1
  O  O300  1  0.53754296  0.24868365  0.18256648  1
  O  O301  1  0.53766073  0.24965647  0.43242693  1
  O  O302  1  0.53675190  0.24922605  0.68427986  1
  O  O303  1  0.53672867  0.24850578  0.93188416  1
  O  O304  1  0.53667745  0.58254753  0.18417417  1
  O  O305  1  0.53647804  0.58357566  0.43301128  1
  O  O306  1  0.53727582  0.58492163  0.68223787  1
  O  O307  1  0.53775506  0.58391602  0.93326936  1
  O  O308  1  0.53708370  0.91840053  0.18227038  1
  O  O309  1  0.53599522  0.91610089  0.43195655  1
  O  O310  1  0.53584939  0.91659780  0.68172741  1
  O  O311  1  0.53678327  0.91823769  0.93085112  1
  O  O312  1  0.46380160  0.08236251  0.06670118  1
  O  O313  1  0.46293914  0.08090433  0.31741582  1
  O  O314  1  0.46269703  0.08218172  0.56833375  1
  O  O315  1  0.46414862  0.08403976  0.81757969  1
  O  O316  1  0.46401620  0.41565826  0.06873897  1
  O  O317  1  0.46351501  0.41606919  0.31617232  1
  O  O318  1  0.46267747  0.41555671  0.56797130  1
  O  O319  1  0.46273694  0.41518962  0.81645998  1
  O  O320  1  0.46225331  0.75173389  0.06789908  1
  O  O321  1  0.46336165  0.75072237  0.31809067  1
  O  O322  1  0.46342406  0.75143530  0.56652023  1
  O  O323  1  0.46215830  0.75166767  0.81644989  1
  O  O324  1  0.96328442  0.08376832  0.06743584  1
  O  O325  1  0.96301989  0.08495870  0.31733241  1
  O  O326  1  0.96251083  0.08287081  0.56746631  1
  O  O327  1  0.96352413  0.08452141  0.81727542  1
  O  O328  1  0.96380468  0.41656064  0.06834907  1
  O  O329  1  0.96369705  0.41699714  0.31809877  1
  O  O330  1  0.96397984  0.41644854  0.56848518  1
  O  O331  1  0.96371567  0.41684905  0.81864287  1
  O  O332  1  0.96335198  0.74756168  0.06699748  1
  O  O333  1  0.96294917  0.75082893  0.31737901  1
  O  O334  1  0.96269992  0.75027678  0.56647331  1
  O  O335  1  0.96269532  0.74855501  0.81772102  1
  O  O336  1  0.21316967  0.08173690  0.05747710  1
  O  O337  1  0.21248646  0.08282381  0.30704802  1
  O  O338  1  0.21235339  0.08509035  0.55891999  1
  O  O339  1  0.21261482  0.08494546  0.80779609  1
  O  O340  1  0.21389806  0.41532622  0.05762561  1
  O  O341  1  0.21367477  0.41709990  0.30600539  1
  O  O342  1  0.21293739  0.41694352  0.55706078  1
  O  O343  1  0.21330805  0.41549963  0.80741894  1
  O  O344  1  0.21231567  0.74823993  0.05721386  1
  O  O345  1  0.21149179  0.74910262  0.30788731  1
  O  O346  1  0.21180284  0.75097331  0.55843247  1
  O  O347  1  0.21274514  0.75090853  0.80781834  1
  O  O348  1  0.71381190  0.08252011  0.05626865  1
  O  O349  1  0.71251984  0.08251274  0.30701064  1
  O  O350  1  0.71226351  0.08184326  0.55854837  1
  O  O351  1  0.71401373  0.08218482  0.80792270  1
  O  O352  1  0.71301612  0.41831372  0.05779557  1
  O  O353  1  0.71313797  0.41574326  0.30924848  1
  O  O354  1  0.71266670  0.41581884  0.55785737  1
  O  O355  1  0.71275617  0.41766413  0.80915948  1
  O  O356  1  0.71228789  0.75010126  0.05836949  1
  O  O357  1  0.71312223  0.74844128  0.30766132  1
  O  O358  1  0.71350442  0.74911705  0.55824240  1
  O  O359  1  0.71257461  0.75036986  0.80643262  1
  O  O360  1  0.28782998  0.25020261  0.19088434  1
  O  O361  1  0.28684719  0.25015272  0.44348557  1
  O  O362  1  0.28611452  0.25107191  0.69202744  1
  O  O363  1  0.28715304  0.25137826  0.94216246  1
  O  O364  1  0.28688426  0.58088399  0.19202010  1
  O  O365  1  0.28754254  0.58215217  0.44131142  1
  O  O366  1  0.28736598  0.58483875  0.69242232  1
  O  O367  1  0.28751011  0.58246477  0.94199870  1
  O  O368  1  0.28720545  0.91729780  0.19149362  1
  O  O369  1  0.28704468  0.91583002  0.44325927  1
  O  O370  1  0.28635420  0.91760069  0.69250900  1
  O  O371  1  0.28627312  0.91834008  0.94214070  1
  O  O372  1  0.78771785  0.25085428  0.19287755  1
  O  O373  1  0.78764322  0.25108271  0.44181786  1
  O  O374  1  0.78769292  0.24837093  0.69300369  1
  O  O375  1  0.78747306  0.24915635  0.94129858  1
  O  O376  1  0.78719514  0.58537809  0.19312661  1
  O  O377  1  0.78697544  0.58466646  0.44273158  1
  O  O378  1  0.78724652  0.58289996  0.69268115  1
  O  O379  1  0.78708930  0.58331289  0.94286888  1
  O  O380  1  0.78801331  0.91703042  0.19130682  1
  O  O381  1  0.78665885  0.91582230  0.44357814  1
  O  O382  1  0.78644173  0.91689571  0.69177282  1
  O  O383  1  0.78691635  0.91860261  0.94201727  1
  O  O384  1  0.22815596  0.25121933  0.05770274  1
  O  O385  1  0.22861802  0.25013681  0.30597156  1
  O  O386  1  0.22715635  0.25077544  0.55904677  1
  O  O387  1  0.22781357  0.25188815  0.80828050  1
  O  O388  1  0.22823278  0.58086405  0.05737954  1
  O  O389  1  0.22750651  0.58084787  0.30746616  1
  O  O390  1  0.22871629  0.58330280  0.55660958  1
  O  O391  1  0.22812554  0.58481935  0.80783488  1
  O  O392  1  0.22761092  0.91808620  0.05792862  1
  O  O393  1  0.22810676  0.91681897  0.30672349  1
  O  O394  1  0.22759532  0.91596352  0.55846284  1
  O  O395  1  0.22748417  0.91867184  0.80820698  1
  O  O396  1  0.72853893  0.24990893  0.05660794  1
  O  O397  1  0.72809049  0.25107815  0.30807350  1
  O  O398  1  0.72877881  0.24976293  0.55711701  1
  O  O399  1  0.72832886  0.24833916  0.80828864  1
  O  O400  1  0.72804971  0.58517648  0.05848948  1
  O  O401  1  0.72821262  0.58508180  0.30879336  1
  O  O402  1  0.72800219  0.58503724  0.55834156  1
  O  O403  1  0.72821616  0.58162866  0.80827323  1
  O  O404  1  0.72811869  0.91841447  0.05782384  1
  O  O405  1  0.72853725  0.91589467  0.30628335  1
  O  O406  1  0.72675483  0.91708389  0.55896320  1
  O  O407  1  0.72755650  0.91803464  0.80748963  1
  O  O408  1  0.27186761  0.08217588  0.19178673  1
  O  O409  1  0.27159473  0.08374782  0.44379941  1
  O  O410  1  0.27170778  0.08548718  0.69227871  1
  O  O411  1  0.27219421  0.08206716  0.94185891  1
  O  O412  1  0.27324048  0.41672142  0.19041537  1
  O  O413  1  0.27210515  0.41796804  0.44148985  1
  O  O414  1  0.27215035  0.41512190  0.69176615  1
  O  O415  1  0.27230054  0.41499133  0.94143930  1
  O  O416  1  0.27098827  0.74929460  0.19308613  1
  O  O417  1  0.27101724  0.74927840  0.44335043  1
  O  O418  1  0.27164395  0.75219940  0.69211432  1
  O  O419  1  0.27149969  0.74872586  0.94185046  1
  O  O420  1  0.77208328  0.08164594  0.19182645  1
  O  O421  1  0.77129946  0.08288307  0.44348123  1
  O  O422  1  0.77231184  0.08065999  0.69168915  1
  O  O423  1  0.77309773  0.08287324  0.94050127  1
  O  O424  1  0.77213513  0.41706284  0.19395538  1
  O  O425  1  0.77233220  0.41583994  0.44282212  1
  O  O426  1  0.77177770  0.41705421  0.69396932  1
  O  O427  1  0.77203382  0.41841121  0.94229670  1
  O  O428  1  0.77202635  0.74856074  0.19188163  1
  O  O429  1  0.77235513  0.74839284  0.44238128  1
  O  O430  1  0.77258458  0.74934504  0.69108216  1
  O  O431  1  0.77114255  0.75043434  0.94306452  1
  O  O432  1  0.02214717  0.08288977  0.18330698  1
  O  O433  1  0.02186761  0.08539228  0.43320238  1
  O  O434  1  0.02205571  0.08242268  0.68294601  1
  O  O435  1  0.02249292  0.08562215  0.93312332  1
  O  O436  1  0.02301364  0.41609899  0.18441531  1
  O  O437  1  0.02315329  0.41811213  0.43406692  1
  O  O438  1  0.02276654  0.41631731  0.68495784  1
  O  O439  1  0.02290431  0.41610096  0.93477946  1
  O  O440  1  0.02198745  0.74818047  0.18302936  1
  O  O441  1  0.02183009  0.75159911  0.43331941  1
  O  O442  1  0.02136442  0.74940597  0.68213568  1
  O  O443  1  0.02206095  0.74776926  0.93315061  1
  O  O444  1  0.52251617  0.08156288  0.18286093  1
  O  O445  1  0.52176467  0.08074290  0.43318606  1
  O  O446  1  0.52240371  0.08388324  0.68404068  1
  O  O447  1  0.52304192  0.08370789  0.93393546  1
  O  O448  1  0.52336241  0.41619146  0.18473207  1
  O  O449  1  0.52183971  0.41634893  0.43215985  1
  O  O450  1  0.52211842  0.41534714  0.68332007  1
  O  O451  1  0.52179929  0.41569463  0.93187523  1
  O  O452  1  0.52143491  0.75163676  0.18342483  1
  O  O453  1  0.52248181  0.75022449  0.43423262  1
  O  O454  1  0.52219767  0.75259200  0.68260597  1
  O  O455  1  0.52125205  0.75112801  0.93175618  1
  O  O456  1  0.47843724  0.24741022  0.06683587  1
  O  O457  1  0.47827822  0.24980230  0.31697919  1
  O  O458  1  0.47817975  0.24877959  0.56842966  1
  O  O459  1  0.47739318  0.24850798  0.81590578  1
  O  O460  1  0.47794114  0.58313449  0.06855070  1
  O  O461  1  0.47769956  0.58223095  0.31701556  1
  O  O462  1  0.47792948  0.58514924  0.56677737  1
  O  O463  1  0.47871265  0.58407611  0.81804924  1
  O  O464  1  0.47801502  0.91925462  0.06634707  1
  O  O465  1  0.47736372  0.91639776  0.31547127  1
  O  O466  1  0.47680835  0.91658092  0.56534182  1
  O  O467  1  0.47715507  0.91641982  0.81518458  1
  O  O468  1  0.97739132  0.25039095  0.06555555  1
  O  O469  1  0.97839592  0.25290024  0.31680889  1
  O  O470  1  0.97694057  0.25004483  0.56560822  1
  O  O471  1  0.97798895  0.25186999  0.81677630  1
  O  O472  1  0.97715718  0.58306049  0.06594146  1
  O  O473  1  0.97698944  0.58392983  0.31567506  1
  O  O474  1  0.97812683  0.58139614  0.56667430  1
  O  O475  1  0.97799857  0.58061442  0.81701365  1
  O  O476  1  0.97861564  0.91654805  0.06809758  1
  O  O477  1  0.97777007  0.91855412  0.31643601  1
  O  O478  1  0.97740526  0.91575888  0.56687788  1
  O  O479  1  0.97767216  0.91819638  0.81711503  1
  O  O480  1  0.07246122  0.31404650  0.07346183  1
  O  O481  1  0.07360685  0.31590414  0.32399039  1
  O  O482  1  0.07153630  0.31424034  0.57326090  1
  O  O483  1  0.07288515  0.31511164  0.82430663  1
  O  O484  1  0.07253772  0.64595501  0.07334739  1
  O  O485  1  0.07215473  0.64714623  0.32349209  1
  O  O486  1  0.07332745  0.64496064  0.57537975  1
  O  O487  1  0.07292032  0.64487312  0.82452530  1
  O  O488  1  0.07420228  0.97977219  0.07512743  1
  O  O489  1  0.07248655  0.98218151  0.32460512  1
  O  O490  1  0.07307926  0.97920821  0.57479849  1
  O  O491  1  0.07252914  0.98172586  0.82389941  1
  O  O492  1  0.57352148  0.31181677  0.07443837  1
  O  O493  1  0.57303526  0.31351542  0.32390091  1
  O  O494  1  0.57362719  0.31233878  0.57605780  1
  O  O495  1  0.57166061  0.31311564  0.82397855  1
  O  O496  1  0.57287930  0.64708324  0.07670308  1
  O  O497  1  0.57297129  0.64620902  0.32504968  1
  O  O498  1  0.57295576  0.64842826  0.57370692  1
  O  O499  1  0.57430904  0.64722848  0.82525819  1
  O  O500  1  0.57352067  0.98143182  0.07318717  1
  O  O501  1  0.57251451  0.97962471  0.32375081  1
  O  O502  1  0.57151021  0.98046688  0.57366582  1
  O  O503  1  0.57152928  0.98117677  0.82194914  1
  O  O504  1  0.42743729  0.01851815  0.17521898  1
  O  O505  1  0.42625181  0.01804106  0.42615337  1
  O  O506  1  0.42815974  0.01903523  0.67726201  1
  O  O507  1  0.42824813  0.01989029  0.92549682  1
  O  O508  1  0.42901859  0.35167079  0.17661399  1
  O  O509  1  0.42658994  0.35263049  0.42420997  1
  O  O510  1  0.42719618  0.35184322  0.67644802  1
  O  O511  1  0.42624336  0.35249656  0.92488204  1
  O  O512  1  0.42584236  0.68830569  0.17549294  1
  O  O513  1  0.42781287  0.68623874  0.42576600  1
  O  O514  1  0.42703116  0.68845112  0.67466291  1
  O  O515  1  0.42592962  0.68782129  0.92461796  1
  O  O516  1  0.92739720  0.01939062  0.17564114  1
  O  O517  1  0.92607430  0.02224479  0.42517137  1
  O  O518  1  0.92744182  0.01868775  0.67597281  1
  O  O519  1  0.92717292  0.02167466  0.92520271  1
  O  O520  1  0.92758522  0.35310285  0.17653569  1
  O  O521  1  0.92864486  0.35394204  0.42723753  1
  O  O522  1  0.92797273  0.35260178  0.67678234  1
  O  O523  1  0.92744169  0.35328559  0.92675479  1
  O  O524  1  0.92701983  0.68475450  0.17589210  1
  O  O525  1  0.92659775  0.68781346  0.42535674  1
  O  O526  1  0.92628209  0.68578378  0.67382610  1
  O  O527  1  0.92678070  0.68473904  0.92582290  1
  O  O528  1  0.17691831  0.01865275  0.19870193  1
  O  O529  1  0.17613321  0.02058262  0.45135810  1
  O  O530  1  0.17614918  0.02199361  0.69978644  1
  O  O531  1  0.17680223  0.01905394  0.94843570  1
  O  O532  1  0.17851751  0.35269875  0.19791278  1
  O  O533  1  0.17703736  0.35376902  0.44883461  1
  O  O534  1  0.17665030  0.35261527  0.69852121  1
  O  O535  1  0.17721113  0.35176879  0.94917712  1
  O  O536  1  0.17564302  0.68564857  0.19974477  1
  O  O537  1  0.17527836  0.68665559  0.45074106  1
  O  O538  1  0.17633036  0.68812112  0.69960523  1
  O  O539  1  0.17694619  0.68457247  0.94850808  1
  O  O540  1  0.67685767  0.01867737  0.19851314  1
  O  O541  1  0.67584524  0.01918701  0.44989029  1
  O  O542  1  0.67672462  0.01852638  0.69964718  1
  O  O543  1  0.67777478  0.01963625  0.94753998  1
  O  O544  1  0.67671489  0.35346810  0.20017768  1
  O  O545  1  0.67752451  0.35177580  0.44929171  1
  O  O546  1  0.67687486  0.35280192  0.70176370  1
  O  O547  1  0.67656211  0.35483412  0.95018879  1
  O  O548  1  0.67686768  0.68526873  0.19896682  1
  O  O549  1  0.67710921  0.68548000  0.44958741  1
  O  O550  1  0.67740250  0.68608958  0.69857427  1
  O  O551  1  0.67565908  0.68705671  0.95001009  1
  O  O552  1  0.32342973  0.31437041  0.05109823  1
  O  O553  1  0.32424455  0.31316437  0.29940263  1
  O  O554  1  0.32241383  0.31396310  0.55150436  1
  O  O555  1  0.32303343  0.31482957  0.80037261  1
  O  O556  1  0.32346862  0.64510778  0.05057488  1
  O  O557  1  0.32255043  0.64504677  0.29980292  1
  O  O558  1  0.32407469  0.64656537  0.54899316  1
  O  O559  1  0.32285456  0.64878256  0.80084152  1
  O  O560  1  0.32291970  0.98115652  0.05091664  1
  O  O561  1  0.32367017  0.97997822  0.30028382  1
  O  O562  1  0.32319033  0.97924453  0.55100372  1
  O  O563  1  0.32221910  0.98238162  0.80029005  1
  O  O564  1  0.82379474  0.31344542  0.04895505  1
  O  O565  1  0.82303550  0.31462074  0.30161150  1
  O  O566  1  0.82416341  0.31349404  0.55072515  1
  O  O567  1  0.82370903  0.31194625  0.80067058  1
  O  O568  1  0.82302104  0.64826122  0.05068251  1
  O  O569  1  0.82336707  0.64844435  0.30191538  1
  O  O570  1  0.82340099  0.64784384  0.55142712  1
  O  O571  1  0.82316375  0.64624633  0.80068956  1
  O  O572  1  0.82327322  0.98174905  0.05067847  1
  O  O573  1  0.82386782  0.97975052  0.30022374  1
  O  O574  1  0.82226123  0.97998295  0.55136815  1
  O  O575  1  0.82312539  0.98049619  0.80034381  1
  O  O576  1  0.42713051  0.14530940  0.17489787  1
  O  O577  1  0.42681271  0.14509618  0.42504209  1
  O  O578  1  0.42667907  0.14623293  0.67638379  1
  O  O579  1  0.42783947  0.14709996  0.92614499  1
  O  O580  1  0.42805563  0.47937733  0.17666480  1
  O  O581  1  0.42624689  0.47935535  0.42442799  1
  O  O582  1  0.42667235  0.47925571  0.67538333  1
  O  O583  1  0.42657174  0.47939994  0.92432576  1
  O  O584  1  0.42660876  0.81551879  0.17626622  1
  O  O585  1  0.42716299  0.81363103  0.42644269  1
  O  O586  1  0.42688706  0.81536740  0.67497719  1
  O  O587  1  0.42570661  0.81472631  0.92470471  1
  O  O588  1  0.92661580  0.14657520  0.17536579  1
  O  O589  1  0.92734273  0.14936434  0.42557754  1
  O  O590  1  0.92641922  0.14587536  0.67551110  1
  O  O591  1  0.92754500  0.14881569  0.92549957  1
  O  O592  1  0.92840892  0.48026773  0.17698943  1
  O  O593  1  0.92760813  0.48098778  0.42622641  1
  O  O594  1  0.92764396  0.47973461  0.67692304  1
  O  O595  1  0.92835198  0.48028368  0.92757586  1
  O  O596  1  0.92666041  0.81182282  0.17412685  1
  O  O597  1  0.92691476  0.81505832  0.42556725  1
  O  O598  1  0.92571762  0.81265321  0.67508802  1
  O  O599  1  0.92691902  0.81214024  0.92544895  1
  O  O600  1  0.07222502  0.18666225  0.07352879  1
  O  O601  1  0.07366062  0.18903469  0.32454512  1
  O  O602  1  0.07190533  0.18676731  0.57328652  1
  O  O603  1  0.07340605  0.18829545  0.82480843  1
  O  O604  1  0.07174384  0.51883368  0.07395995  1
  O  O605  1  0.07164223  0.51981701  0.32224206  1
  O  O606  1  0.07331311  0.51790572  0.57380695  1
  O  O607  1  0.07350699  0.51795996  0.82503679  1
  O  O608  1  0.07377706  0.85284466  0.07591445  1
  O  O609  1  0.07328665  0.85489266  0.32469766  1
  O  O610  1  0.07215422  0.85212121  0.57420973  1
  O  O611  1  0.07314676  0.85430423  0.82486281  1
  O  O612  1  0.57380532  0.18478657  0.07413561  1
  O  O613  1  0.57388178  0.18627445  0.32485575  1
  O  O614  1  0.57368074  0.18561669  0.57607149  1
  O  O615  1  0.57301122  0.18569161  0.82346223  1
  O  O616  1  0.57374545  0.52000264  0.07579502  1
  O  O617  1  0.57276380  0.51906971  0.32504467  1
  O  O618  1  0.57325544  0.52109388  0.57482990  1
  O  O619  1  0.57395637  0.52024109  0.82528563  1
  O  O620  1  0.57293116  0.85460513  0.07438770  1
  O  O621  1  0.57216439  0.85240877  0.32368713  1
  O  O622  1  0.57200757  0.85330683  0.57315383  1
  O  O623  1  0.57275799  0.85386843  0.82301918  1
  O  O624  1  0.32342686  0.18728654  0.04947916  1
  O  O625  1  0.32384664  0.18631478  0.29904616  1
  O  O626  1  0.32191316  0.18644405  0.55199705  1
  O  O627  1  0.32297266  0.18796229  0.80012302  1
  O  O628  1  0.32359020  0.51804305  0.05014569  1
  O  O629  1  0.32299214  0.51791230  0.30083827  1
  O  O630  1  0.32431593  0.51974578  0.54996255  1
  O  O631  1  0.32368612  0.52139630  0.79994370  1
  O  O632  1  0.32260857  0.85388013  0.04933953  1
  O  O633  1  0.32333722  0.85307945  0.29936204  1
  O  O634  1  0.32238216  0.85197592  0.55179733  1
  O  O635  1  0.32309831  0.85524069  0.80086455  1
  O  O636  1  0.82405201  0.18652571  0.04993252  1
  O  O637  1  0.82349172  0.18722889  0.30060960  1
  O  O638  1  0.82422356  0.18662170  0.54933030  1
  O  O639  1  0.82332859  0.18460421  0.80127895  1
  O  O640  1  0.82338743  0.52109906  0.05155168  1
  O  O641  1  0.82344999  0.52131768  0.30060527  1
  O  O642  1  0.82303083  0.52069062  0.55024285  1
  O  O643  1  0.82360465  0.51906527  0.80121992  1
  O  O644  1  0.82341341  0.85460620  0.04944375  1
  O  O645  1  0.82413002  0.85292163  0.29930727  1
  O  O646  1  0.82121538  0.85249142  0.55231595  1
  O  O647  1  0.82264042  0.85363243  0.80008810  1
  O  O648  1  0.17634658  0.14586756  0.19897980  1
  O  O649  1  0.17622723  0.14754613  0.44990662  1
  O  O650  1  0.17674110  0.14909403  0.69947224  1
  O  O651  1  0.17712950  0.14614148  0.95017365  1
  O  O652  1  0.17777943  0.47997599  0.19724522  1
  O  O653  1  0.17690393  0.48088932  0.44859868  1
  O  O654  1  0.17729878  0.47972598  0.70003056  1
  O  O655  1  0.17705143  0.47871330  0.94971866  1
  O  O656  1  0.17546817  0.81268552  0.19976020  1
  O  O657  1  0.17576527  0.81356031  0.44964162  1
  O  O658  1  0.17659928  0.81536728  0.69977045  1
  O  O659  1  0.17573676  0.81192456  0.94991363  1
  O  O660  1  0.67697858  0.14598578  0.19903841  1
  O  O661  1  0.67581743  0.14608524  0.45078416  1
  O  O662  1  0.67755827  0.14550254  0.70000491  1
  O  O663  1  0.67835236  0.14694710  0.94827117  1
  O  O664  1  0.67666658  0.48031519  0.20190477  1
  O  O665  1  0.67654000  0.47907576  0.45009566  1
  O  O666  1  0.67571729  0.47969398  0.70026186  1
  O  O667  1  0.67702584  0.48214625  0.94951764  1
  O  O668  1  0.67681281  0.81241281  0.20013499  1
  O  O669  1  0.67721760  0.81242991  0.45000685  1
  O  O670  1  0.67803664  0.81366255  0.69755318  1
  O  O671  1  0.67577134  0.81391390  0.95041521  1
