# generated using pymatgen
data_Na2MnFe(PO4)2
_symmetry_space_group_name_H-M   'P 1'
_cell_length_a   22.34278186
_cell_length_b   20.09368645
_cell_length_c   19.44889405
_cell_angle_alpha   89.96064359
_cell_angle_beta   89.98404164
_cell_angle_gamma   90.02565685
_symmetry_Int_Tables_number   1
_chemical_formula_structural   Na2MnFe(PO4)2
_chemical_formula_sum   'Na96 Mn48 Fe48 P96 O384'
_cell_volume   8731.55540399
_cell_formula_units_Z   48
loop_
 _symmetry_equiv_pos_site_id
 _symmetry_equiv_pos_as_xyz
  1  'x, y, z'
loop_
 _atom_site_type_symbol
 _atom_site_label
 _atom_site_symmetry_multiplicity
 _atom_site_fract_x
 _atom_site_fract_y
 _atom_site_fract_z
 _atom_site_occupancy
  Na  Na0  1  0.14098738  0.25006252  0.24198751  1
  Na  Na1  1  0.14073743  0.24887829  0.49327653  1
  Na  Na2  1  0.14052574  0.24985116  0.74441096  1
  Na  Na3  1  0.14016280  0.25012027  0.99340473  1
  Na  Na4  1  0.14007337  0.58284725  0.24298882  1
  Na  Na5  1  0.14057148  0.58117333  0.49339481  1
  Na  Na6  1  0.14106669  0.58317545  0.74355015  1
  Na  Na7  1  0.14045616  0.58455120  0.99482381  1
  Na  Na8  1  0.14087118  0.91601790  0.24295038  1
  Na  Na9  1  0.14072444  0.91354419  0.49379622  1
  Na  Na10  1  0.14056290  0.91520772  0.74322277  1
  Na  Na11  1  0.14096741  0.91768412  0.99282494  1
  Na  Na12  1  0.63983360  0.25031371  0.24436130  1
  Na  Na13  1  0.63999090  0.24860040  0.49422864  1
  Na  Na14  1  0.64038252  0.24961146  0.74441747  1
  Na  Na15  1  0.64019172  0.25106846  0.99337065  1
  Na  Na16  1  0.64033731  0.58467691  0.24347064  1
  Na  Na17  1  0.63996638  0.58404099  0.49487902  1
  Na  Na18  1  0.63979541  0.58249707  0.74441579  1
  Na  Na19  1  0.64024520  0.58345799  0.99302456  1
  Na  Na20  1  0.64027030  0.91848144  0.24417097  1
  Na  Na21  1  0.64018763  0.91882487  0.49380423  1
  Na  Na22  1  0.64016222  0.91840882  0.74396491  1
  Na  Na23  1  0.64016656  0.91775054  0.99372885  1
  Na  Na24  1  0.35895707  0.08381524  0.00607556  1
  Na  Na25  1  0.35929156  0.08417895  0.25539754  1
  Na  Na26  1  0.35981622  0.08175278  0.50751040  1
  Na  Na27  1  0.35924872  0.08204347  0.75667420  1
  Na  Na28  1  0.35939766  0.41675956  0.00759999  1
  Na  Na29  1  0.35974418  0.41723299  0.25615783  1
  Na  Na30  1  0.35928189  0.41511614  0.50697076  1
  Na  Na31  1  0.35959903  0.41575146  0.75760898  1
  Na  Na32  1  0.35989297  0.75094326  0.00675116  1
  Na  Na33  1  0.35966771  0.74944322  0.25512988  1
  Na  Na34  1  0.35893583  0.74751910  0.50728036  1
  Na  Na35  1  0.35961195  0.74918486  0.75733790  1
  Na  Na36  1  0.86003048  0.08398622  0.00633887  1
  Na  Na37  1  0.85959720  0.08360932  0.25534065  1
  Na  Na38  1  0.85946467  0.08351540  0.50472079  1
  Na  Na39  1  0.85957941  0.08443818  0.75553072  1
  Na  Na40  1  0.85937970  0.41574992  0.00605905  1
  Na  Na41  1  0.85976332  0.41646281  0.25653896  1
  Na  Na42  1  0.86014552  0.41594407  0.50616003  1
  Na  Na43  1  0.85961874  0.41573642  0.75636811  1
  Na  Na44  1  0.86017158  0.74992812  0.00667032  1
  Na  Na45  1  0.85989998  0.75205313  0.25677160  1
  Na  Na46  1  0.85970042  0.75259483  0.50559060  1
  Na  Na47  1  0.85981193  0.75010988  0.75620277  1
  Na  Na48  1  0.11027172  0.08461578  0.11730143  1
  Na  Na49  1  0.10995559  0.08245025  0.36771314  1
  Na  Na50  1  0.11001508  0.08288640  0.61856327  1
  Na  Na51  1  0.11051211  0.08334177  0.86815053  1
  Na  Na52  1  0.10992997  0.41762249  0.11803074  1
  Na  Na53  1  0.10969349  0.41589699  0.36808244  1
  Na  Na54  1  0.10992667  0.41665404  0.61803827  1
  Na  Na55  1  0.11009282  0.41659868  0.86998237  1
  Na  Na56  1  0.11010022  0.74970384  0.11924622  1
  Na  Na57  1  0.10981139  0.74832537  0.36820848  1
  Na  Na58  1  0.11027440  0.74886806  0.61837468  1
  Na  Na59  1  0.11005618  0.74930688  0.86846091  1
  Na  Na60  1  0.60952934  0.08493687  0.11826750  1
  Na  Na61  1  0.60960152  0.08464277  0.36938270  1
  Na  Na62  1  0.60983560  0.08302354  0.61814625  1
  Na  Na63  1  0.60970404  0.08400338  0.86850234  1
  Na  Na64  1  0.60916393  0.41802207  0.11885544  1
  Na  Na65  1  0.60909743  0.41662615  0.36923499  1
  Na  Na66  1  0.60920114  0.41600369  0.62098487  1
  Na  Na67  1  0.60938453  0.41694891  0.86818404  1
  Na  Na68  1  0.60955260  0.75174539  0.11799210  1
  Na  Na69  1  0.60934718  0.75080741  0.36883895  1
  Na  Na70  1  0.60899127  0.75020400  0.61913089  1
  Na  Na71  1  0.60913919  0.75012277  0.86958168  1
  Na  Na72  1  0.38980214  0.25175580  0.13170609  1
  Na  Na73  1  0.38982998  0.25002782  0.38129043  1
  Na  Na74  1  0.39017599  0.24804424  0.63205962  1
  Na  Na75  1  0.39000082  0.24948916  0.88212608  1
  Na  Na76  1  0.39019509  0.58368687  0.13167084  1
  Na  Na77  1  0.38991047  0.58268053  0.38089433  1
  Na  Na78  1  0.38979586  0.58192217  0.63347751  1
  Na  Na79  1  0.39003920  0.58288647  0.88203453  1
  Na  Na80  1  0.39007153  0.91728221  0.12954615  1
  Na  Na81  1  0.39022027  0.91695206  0.38164771  1
  Na  Na82  1  0.39010806  0.91548646  0.63256481  1
  Na  Na83  1  0.38999397  0.91639669  0.88188267  1
  Na  Na84  1  0.89009433  0.25046400  0.13045865  1
  Na  Na85  1  0.89068209  0.24954192  0.38052523  1
  Na  Na86  1  0.89044923  0.25019966  0.63038087  1
  Na  Na87  1  0.88985544  0.24971448  0.88235985  1
  Na  Na88  1  0.89093914  0.58457981  0.13133218  1
  Na  Na89  1  0.89093852  0.58346421  0.38088166  1
  Na  Na90  1  0.89056136  0.58368544  0.63078826  1
  Na  Na91  1  0.89056636  0.58257580  0.88165083  1
  Na  Na92  1  0.89064606  0.91682856  0.13227020  1
  Na  Na93  1  0.89024938  0.91660810  0.38055602  1
  Na  Na94  1  0.89033078  0.91661109  0.63017367  1
  Na  Na95  1  0.89106897  0.91614633  0.88093792  1
  Mn  Mn96  1  0.00062337  0.83227580  0.00082544  1
  Mn  Mn97  1  0.49975708  0.00100250  0.25002331  1
  Mn  Mn98  1  0.49892628  0.83370505  0.50054202  1
  Mn  Mn99  1  -0.00010792  0.66648268  0.49961686  1
  Mn  Mn100  1  0.75010814  0.66747274  0.62503019  1
  Mn  Mn101  1  0.25017565  0.33217040  0.62598716  1
  Mn  Mn102  1  0.49947871  0.50018300  0.00003509  1
  Mn  Mn103  1  0.00099570  0.00035678  0.00027726  1
  Mn  Mn104  1  0.49983047  0.83408052  0.24959737  1
  Mn  Mn105  1  0.75004931  0.50002876  0.12477735  1
  Mn  Mn106  1  0.74911188  0.83526350  0.62528993  1
  Mn  Mn107  1  0.75096834  0.00128017  0.87506853  1
  Mn  Mn108  1  0.75023292  0.83406964  0.87464780  1
  Mn  Mn109  1  -0.00011384  0.16697070  0.49915309  1
  Mn  Mn110  1  0.24982790  0.33362913  0.87529094  1
  Mn  Mn111  1  0.00034814  -0.00138703  0.49859306  1
  Mn  Mn112  1  0.74952896  0.66641605  0.87563801  1
  Mn  Mn113  1  0.49897673  0.16808303  0.24928300  1
  Mn  Mn114  1  0.00037161  0.33345187  0.24946316  1
  Mn  Mn115  1  0.49945018  0.49936248  0.50100158  1
  Mn  Mn116  1  0.25047283  0.66644716  0.87531238  1
  Mn  Mn117  1  0.75016341  0.66884085  0.37428734  1
  Mn  Mn118  1  0.49936933  0.66658475  0.24974573  1
  Mn  Mn119  1  0.74957432  0.33228887  0.37575123  1
  Mn  Mn120  1  -0.00003296  0.33326773  0.74964978  1
  Mn  Mn121  1  0.74985996  0.50050878  0.37529213  1
  Mn  Mn122  1  0.00048134  0.50040221  0.00020684  1
  Mn  Mn123  1  0.74978114  0.00074097  0.12490810  1
  Mn  Mn124  1  0.00076031  0.66684645  0.74969681  1
  Mn  Mn125  1  0.50016670  0.83338654  0.75060735  1
  Mn  Mn126  1  0.74911895  0.33261636  0.12508753  1
  Mn  Mn127  1  0.25084009  0.83109621  0.37396776  1
  Mn  Mn128  1  0.25004853  -0.00092149  0.37514648  1
  Mn  Mn129  1  0.74956074  0.33214004  0.62573324  1
  Mn  Mn130  1  0.49990060  0.66596090  0.50025960  1
  Mn  Mn131  1  0.24964620  0.16647002  0.37479296  1
  Mn  Mn132  1  0.49959365  0.16588988  0.75074350  1
  Mn  Mn133  1  0.75008099  0.49986291  0.62513855  1
  Mn  Mn134  1  0.24961198  -0.00120969  0.62559240  1
  Mn  Mn135  1  0.49905556  0.33249061  0.50026999  1
  Mn  Mn136  1  0.49987974  0.16771763  -0.00031341  1
  Mn  Mn137  1  0.75042191  0.66811610  0.12471919  1
  Mn  Mn138  1  -0.00023203  0.49957043  0.75024907  1
  Mn  Mn139  1  -0.00018630  -0.00115018  0.74930909  1
  Mn  Mn140  1  0.25013547  0.49910890  0.37475121  1
  Mn  Mn141  1  0.25029104  0.83359315  0.12496644  1
  Mn  Mn142  1  0.00045073  0.16684124  0.74947435  1
  Mn  Mn143  1  0.00068999  0.00021797  0.24958794  1
  Fe  Fe144  1  0.25004720  0.50019268  0.87574002  1
  Fe  Fe145  1  0.24963138  0.00020637  0.87436107  1
  Fe  Fe146  1  0.24953845  0.83316445  0.87505612  1
  Fe  Fe147  1  0.75029730  0.16643687  0.37478052  1
  Fe  Fe148  1  0.75047741  0.49979612  0.87481743  1
  Fe  Fe149  1  0.74927737  0.83537460  0.37549204  1
  Fe  Fe150  1  0.24971735  0.16573290  0.62531259  1
  Fe  Fe151  1  0.49978721  0.33248195  0.75040950  1
  Fe  Fe152  1  0.75006286  0.83468696  0.12532340  1
  Fe  Fe153  1  -0.00010030  0.66682867  0.25077399  1
  Fe  Fe154  1  0.49928168  0.49943056  0.75125084  1
  Fe  Fe155  1  0.74967991  0.00115854  0.37439522  1
  Fe  Fe156  1  0.49986037  0.16650307  0.50069172  1
  Fe  Fe157  1  0.00048889  0.16726751  0.24907428  1
  Fe  Fe158  1  0.25038247  0.16672942  0.87551418  1
  Fe  Fe159  1  0.75011578  0.33280132  0.87513921  1
  Fe  Fe160  1  0.49963812  0.33416854  0.00022428  1
  Fe  Fe161  1  -0.00023083  0.49993476  0.24945537  1
  Fe  Fe162  1  0.00091415  0.83307761  0.24987503  1
  Fe  Fe163  1  0.25012407  0.66502494  0.37552297  1
  Fe  Fe164  1  0.75035487  0.16639501  0.62478498  1
  Fe  Fe165  1  0.24986250  0.66658112  0.12458854  1
  Fe  Fe166  1  0.49996784  -0.00028690  0.75024657  1
  Fe  Fe167  1  0.25024764  0.50048923  0.12556497  1
  Fe  Fe168  1  0.25025069  0.00034271  0.12380571  1
  Fe  Fe169  1  0.74956980  0.16666754  0.87472947  1
  Fe  Fe170  1  0.00068679  0.33348190  0.49894627  1
  Fe  Fe171  1  -0.00011202  0.49974780  0.49932010  1
  Fe  Fe172  1  0.00048814  0.83266565  0.49952068  1
  Fe  Fe173  1  0.24989915  0.33380222  0.12445204  1
  Fe  Fe174  1  0.75045251  0.00142080  0.62421178  1
  Fe  Fe175  1  0.00007615  0.83263414  0.75011100  1
  Fe  Fe176  1  0.74982154  0.16697007  0.12497070  1
  Fe  Fe177  1  0.00016385  0.66687141  0.00061584  1
  Fe  Fe178  1  0.24973543  0.49870989  0.62494473  1
  Fe  Fe179  1  -0.00023988  0.33364704  0.00051017  1
  Fe  Fe180  1  0.50009313  0.66664514  0.00013195  1
  Fe  Fe181  1  0.50035599  0.50052233  0.24982585  1
  Fe  Fe182  1  0.25022000  0.66526005  0.62564508  1
  Fe  Fe183  1  0.49997566  0.00043354  0.50060054  1
  Fe  Fe184  1  0.49964959  0.66648900  0.75079663  1
  Fe  Fe185  1  0.50018478  0.83398249  -0.00068262  1
  Fe  Fe186  1  0.49950980  0.00061039  -0.00035642  1
  Fe  Fe187  1  0.00001561  0.16706393  -0.00048024  1
  Fe  Fe188  1  0.25024491  0.83188524  0.62486749  1
  Fe  Fe189  1  0.49979775  0.33420657  0.25070483  1
  Fe  Fe190  1  0.25002553  0.16683403  0.12454288  1
  Fe  Fe191  1  0.25012494  0.33285839  0.37442634  1
  P  P192  1  0.04148500  0.25019773  0.10156292  1
  P  P193  1  0.04285429  0.24917369  0.35186530  1
  P  P194  1  0.04275518  0.25128672  0.60158651  1
  P  P195  1  0.04254844  0.25007648  0.85396549  1
  P  P196  1  0.04210390  0.58508206  0.10360470  1
  P  P197  1  0.04119331  0.58222423  0.35165004  1
  P  P198  1  0.04233389  0.58204390  0.60179080  1
  P  P199  1  0.04325108  0.58331996  0.85353711  1
  P  P200  1  0.04334601  0.91632968  0.10357542  1
  P  P201  1  0.04294327  0.91472337  0.35221692  1
  P  P202  1  0.04241387  0.91440661  0.60233347  1
  P  P203  1  0.04269776  0.91492195  0.85233332  1
  P  P204  1  0.54172632  0.25275284  0.10279823  1
  P  P205  1  0.54160340  0.25094356  0.35290085  1
  P  P206  1  0.54178609  0.24864661  0.60334658  1
  P  P207  1  0.54193182  0.25118346  0.85310954  1
  P  P208  1  0.54220256  0.58443380  0.10255558  1
  P  P209  1  0.54242619  0.58226717  0.35246336  1
  P  P210  1  0.54198517  0.58281147  0.60496668  1
  P  P211  1  0.54073390  0.58361179  0.85245136  1
  P  P212  1  0.54126033  0.91771631  0.10103474  1
  P  P213  1  0.54213464  0.91775017  0.35369299  1
  P  P214  1  0.54184433  0.91796410  0.60304668  1
  P  P215  1  0.54197566  0.91816631  0.85339046  1
  P  P216  1  0.45711401  0.08381642  0.14591314  1
  P  P217  1  0.45806460  0.08392802  0.39884629  1
  P  P218  1  0.45783026  0.08141663  0.64745446  1
  P  P219  1  0.45752752  0.08228989  0.89727118  1
  P  P220  1  0.45845542  0.41721240  0.14846474  1
  P  P221  1  0.45682450  0.41652084  0.39657083  1
  P  P222  1  0.45802253  0.41567806  0.64949464  1
  P  P223  1  0.45745537  0.41529141  0.89717995  1
  P  P224  1  0.45750644  0.75051063  0.14554911  1
  P  P225  1  0.45656101  0.74973279  0.39710303  1
  P  P226  1  0.45743703  0.74866591  0.64845322  1
  P  P227  1  0.45875272  0.74955547  0.89840266  1
  P  P228  1  0.95859013  0.08546249  0.14663342  1
  P  P229  1  0.95787776  0.08323318  0.39549659  1
  P  P230  1  0.95746709  0.08302300  0.64620215  1
  P  P231  1  0.95827380  0.08402225  0.89747152  1
  P  P232  1  0.95786390  0.41772954  0.14703420  1
  P  P233  1  0.95862397  0.41658302  0.39736208  1
  P  P234  1  0.95736746  0.41678108  0.64553539  1
  P  P235  1  0.95770542  0.41552334  0.89801164  1
  P  P236  1  0.95888065  0.74977054  0.14870866  1
  P  P237  1  0.95828445  0.75105066  0.39660624  1
  P  P238  1  0.95788992  0.75126262  0.64706248  1
  P  P239  1  0.95808617  0.74871072  0.89759060  1
  P  P240  1  0.20865392  0.08311433  0.22576847  1
  P  P241  1  0.20717609  0.08236572  0.47845762  1
  P  P242  1  0.20773388  0.08402151  0.72832004  1
  P  P243  1  0.20897421  0.08353304  0.97690887  1
  P  P244  1  0.20875781  0.41651629  0.22641320  1
  P  P245  1  0.20816714  0.41443425  0.47739993  1
  P  P246  1  0.20783209  0.41754104  0.72815450  1
  P  P247  1  0.20831547  0.41844196  0.97873902  1
  P  P248  1  0.20827998  0.74798149  0.22747599  1
  P  P249  1  0.20804765  0.74709933  0.47790228  1
  P  P250  1  0.20913854  0.74954893  0.72688290  1
  P  P251  1  0.20811975  0.75095821  0.97769196  1
  P  P252  1  0.70755374  0.08508273  0.22785424  1
  P  P253  1  0.70848957  0.08381002  0.47689523  1
  P  P254  1  0.70844850  0.08404429  0.72663436  1
  P  P255  1  0.70756623  0.08517542  0.97773165  1
  P  P256  1  0.70696642  0.41656360  0.22821887  1
  P  P257  1  0.70676950  0.41625146  0.47856102  1
  P  P258  1  0.70763151  0.41621044  0.72947637  1
  P  P259  1  0.70849292  0.41663882  0.97622309  1
  P  P260  1  0.70770121  0.75300043  0.22771818  1
  P  P261  1  0.70725563  0.75260952  0.47741454  1
  P  P262  1  0.70678842  0.75051968  0.72833101  1
  P  P263  1  0.70741161  0.75127332  0.97872763  1
  P  P264  1  0.29089107  0.24997384  0.02307976  1
  P  P265  1  0.29197696  0.25116999  0.27148902  1
  P  P266  1  0.29219544  0.24794915  0.52281236  1
  P  P267  1  0.29214657  0.24838185  0.77281067  1
  P  P268  1  0.29175063  0.58332556  0.02343735  1
  P  P269  1  0.29177265  0.58407964  0.27180037  1
  P  P270  1  0.29135428  0.58199378  0.52369950  1
  P  P271  1  0.29201253  0.58159671  0.77241303  1
  P  P272  1  0.29168054  0.91806106  0.02116990  1
  P  P273  1  0.29304855  0.91673009  0.27113736  1
  P  P274  1  0.29244003  0.91411207  0.52292534  1
  P  P275  1  0.29110818  0.91576386  0.77336391  1
  P  P276  1  0.79167219  0.24873636  0.02172744  1
  P  P277  1  0.79217486  0.24848297  0.27223735  1
  P  P278  1  0.79222779  0.24803778  0.52222316  1
  P  P279  1  0.79152855  0.24927304  0.77331771  1
  P  P280  1  0.79280503  0.58322956  0.02138650  1
  P  P281  1  0.79292092  0.58438300  0.27172932  1
  P  P282  1  0.79296958  0.58415796  0.52166822  1
  P  P283  1  0.79256184  0.58239326  0.77276499  1
  P  P284  1  0.79296938  0.91650282  0.02277089  1
  P  P285  1  0.79134615  0.91763917  0.27307346  1
  P  P286  1  0.79171544  0.91918358  0.52145933  1
  P  P287  1  0.79309669  0.91821466  0.77120125  1
  O  O288  1  0.03666328  0.24967524  0.18157506  1
  O  O289  1  0.03756022  0.25006506  0.43177691  1
  O  O290  1  0.03758107  0.25105544  0.68158391  1
  O  O291  1  0.03721171  0.25003242  0.93391650  1
  O  O292  1  0.03637100  0.58475792  0.18341821  1
  O  O293  1  0.03610126  0.58189658  0.43161766  1
  O  O294  1  0.03750525  0.58237178  0.68177645  1
  O  O295  1  0.03823160  0.58396407  0.93351683  1
  O  O296  1  0.03824883  0.91624936  0.18351890  1
  O  O297  1  0.03753429  0.91454686  0.43216567  1
  O  O298  1  0.03690687  0.91435964  0.68228275  1
  O  O299  1  0.03774921  0.91539984  0.93232519  1
  O  O300  1  0.53621287  0.25296396  0.18272883  1
  O  O301  1  0.53643100  0.24979648  0.43284431  1
  O  O302  1  0.53655669  0.24898421  0.68329497  1
  O  O303  1  0.53662216  0.25153394  0.93304248  1
  O  O304  1  0.53698353  0.58357437  0.18249951  1
  O  O305  1  0.53749383  0.58231504  0.43248148  1
  O  O306  1  0.53657129  0.58307770  0.68488303  1
  O  O307  1  0.53604184  0.58379537  0.93247373  1
  O  O308  1  0.53660416  0.91745228  0.18105454  1
  O  O309  1  0.53672630  0.91804612  0.43362483  1
  O  O310  1  0.53699919  0.91789071  0.68305698  1
  O  O311  1  0.53644903  0.91821673  0.93324712  1
  O  O312  1  0.46245177  0.08352142  0.06600190  1
  O  O313  1  0.46288882  0.08425481  0.31878837  1
  O  O314  1  0.46328804  0.08173919  0.56756288  1
  O  O315  1  0.46285544  0.08207880  0.81733458  1
  O  O316  1  0.46331900  0.41693467  0.06843554  1
  O  O317  1  0.46224827  0.41674264  0.31667197  1
  O  O318  1  0.46257113  0.41599960  0.56948275  1
  O  O319  1  0.46289521  0.41511551  0.81734949  1
  O  O320  1  0.46305403  0.75037730  0.06567316  1
  O  O321  1  0.46167963  0.74988950  0.31709087  1
  O  O322  1  0.46228811  0.74901315  0.56847893  1
  O  O323  1  0.46373192  0.74926694  0.81842039  1
  O  O324  1  0.96418348  0.08564647  0.06667867  1
  O  O325  1  0.96341111  0.08383417  0.31556739  1
  O  O326  1  0.96263100  0.08301585  0.56625478  1
  O  O327  1  0.96301200  0.08354016  0.81746585  1
  O  O328  1  0.96317996  0.41695511  0.06713010  1
  O  O329  1  0.96372298  0.41707938  0.31735981  1
  O  O330  1  0.96280385  0.41678406  0.56559480  1
  O  O331  1  0.96257891  0.41564213  0.81801882  1
  O  O332  1  0.96365878  0.74883287  0.06870879  1
  O  O333  1  0.96381548  0.75088256  0.31675129  1
  O  O334  1  0.96299097  0.75122232  0.56709688  1
  O  O335  1  0.96344888  0.74958865  0.81766968  1
  O  O336  1  0.21415815  0.08304316  0.05679732  1
  O  O337  1  0.21332671  0.08334229  0.30578001  1
  O  O338  1  0.21218038  0.08262038  0.55842242  1
  O  O339  1  0.21330037  0.08418107  0.80818407  1
  O  O340  1  0.21382719  0.41825886  0.05860172  1
  O  O341  1  0.21354616  0.41556834  0.30636570  1
  O  O342  1  0.21319566  0.41487036  0.55733978  1
  O  O343  1  0.21313788  0.41789359  0.80810923  1
  O  O344  1  0.21345217  0.75037391  0.05757955  1
  O  O345  1  0.21375115  0.74739267  0.30736493  1
  O  O346  1  0.21340541  0.74754529  0.55778856  1
  O  O347  1  0.21381425  0.75014062  0.80686257  1
  O  O348  1  0.71254907  0.08502577  0.05767094  1
  O  O349  1  0.71311419  0.08452909  0.30769117  1
  O  O350  1  0.71384960  0.08369952  0.55676866  1
  O  O351  1  0.71353715  0.08443026  0.80660484  1
  O  O352  1  0.71303591  0.41630606  0.05625881  1
  O  O353  1  0.71198063  0.41653072  0.30815236  1
  O  O354  1  0.71187310  0.41605414  0.55856492  1
  O  O355  1  0.71313773  0.41637330  0.80936041  1
  O  O356  1  0.71275316  0.75187580  0.05869179  1
  O  O357  1  0.71286974  0.75327274  0.30770799  1
  O  O358  1  0.71225462  0.75219109  0.55740031  1
  O  O359  1  0.71193657  0.75030041  0.80829493  1
  O  O360  1  0.28657021  0.25104486  0.19162862  1
  O  O361  1  0.28702002  0.24874289  0.44289077  1
  O  O362  1  0.28684028  0.24831057  0.69289110  1
  O  O363  1  0.28622205  0.24995388  0.94310698  1
  O  O364  1  0.28628709  0.58396527  0.19194012  1
  O  O365  1  0.28650200  0.58269549  0.44371180  1
  O  O366  1  0.28658973  0.58159439  0.69257652  1
  O  O367  1  0.28675695  0.58281471  0.94346356  1
  O  O368  1  0.28775945  0.91767346  0.19118168  1
  O  O369  1  0.28755179  0.91431734  0.44295501  1
  O  O370  1  0.28634947  0.91544420  0.69339921  1
  O  O371  1  0.28590860  0.91762766  0.94136179  1
  O  O372  1  0.78697162  0.24873740  0.19228779  1
  O  O373  1  0.78703916  0.24798862  0.44228395  1
  O  O374  1  0.78671236  0.24905167  0.69335192  1
  O  O375  1  0.78630520  0.24903720  0.94186489  1
  O  O376  1  0.78785959  0.58438785  0.19173222  1
  O  O377  1  0.78777093  0.58443714  0.44168997  1
  O  O378  1  0.78747770  0.58278943  0.69276854  1
  O  O379  1  0.78745230  0.58268809  0.94142902  1
  O  O380  1  0.78639918  0.91702863  0.19307304  1
  O  O381  1  0.78612566  0.91890109  0.44157918  1
  O  O382  1  0.78761263  0.91884931  0.69127760  1
  O  O383  1  0.78814837  0.91689832  0.94278503  1
  O  O384  1  0.22680234  0.24975743  0.05896327  1
  O  O385  1  0.22784594  0.25112496  0.30774643  1
  O  O386  1  0.22794620  0.24780947  0.55868309  1
  O  O387  1  0.22796155  0.24836040  0.80872439  1
  O  O388  1  0.22758760  0.58315355  0.05948933  1
  O  O389  1  0.22769688  0.58410498  0.30815867  1
  O  O390  1  0.22717108  0.58148436  0.55956635  1
  O  O391  1  0.22794350  0.58171859  0.80876110  1
  O  O392  1  0.22776526  0.91805599  0.05787548  1
  O  O393  1  0.22872788  0.91578778  0.30654795  1
  O  O394  1  0.22806162  0.91389671  0.55836703  1
  O  O395  1  0.22692673  0.91528030  0.80921316  1
  O  O396  1  0.72747535  0.24812463  0.05785337  1
  O  O397  1  0.72789033  0.24833213  0.30793557  1
  O  O398  1  0.72795844  0.24775294  0.55801484  1
  O  O399  1  0.72731295  0.24914436  0.80918160  1
  O  O400  1  0.72845350  0.58390799  0.05667190  1
  O  O401  1  0.72844891  0.58456289  0.30667086  1
  O  O402  1  0.72852185  0.58399934  0.55676171  1
  O  O403  1  0.72815341  0.58171304  0.80816731  1
  O  O404  1  0.72845680  0.91625488  0.05794415  1
  O  O405  1  0.72718462  0.91815308  0.30911817  1
  O  O406  1  0.72765754  0.91984659  0.55788196  1
  O  O407  1  0.72878450  0.91820033  0.80667728  1
  O  O408  1  0.27287465  0.08300227  0.19007370  1
  O  O409  1  0.27157163  0.08269614  0.44321793  1
  O  O410  1  0.27181246  0.08387895  0.69194110  1
  O  O411  1  0.27290203  0.08387317  0.94033639  1
  O  O412  1  0.27293570  0.41725282  0.19056474  1
  O  O413  1  0.27241304  0.41438660  0.44162139  1
  O  O414  1  0.27206834  0.41746395  0.69228940  1
  O  O415  1  0.27234776  0.41834488  0.94236003  1
  O  O416  1  0.27236643  0.74835358  0.19132523  1
  O  O417  1  0.27227515  0.74663270  0.44181264  1
  O  O418  1  0.27329072  0.74958037  0.69102280  1
  O  O419  1  0.27231277  0.75153512  0.94174175  1
  O  O420  1  0.77168605  0.08520560  0.19153201  1
  O  O421  1  0.77246422  0.08352426  0.44020974  1
  O  O422  1  0.77264274  0.08397368  0.69051885  1
  O  O423  1  0.77199824  0.08579733  0.94230128  1
  O  O424  1  0.77140847  0.41619732  0.19316761  1
  O  O425  1  0.77125249  0.41617678  0.44359114  1
  O  O426  1  0.77175541  0.41595490  0.69346466  1
  O  O427  1  0.77275731  0.41711485  0.94065902  1
  O  O428  1  0.77206066  0.75302165  0.19207842  1
  O  O429  1  0.77162819  0.75303734  0.44198210  1
  O  O430  1  0.77122719  0.75127430  0.69328188  1
  O  O431  1  0.77174221  0.75054460  0.94338911  1
  O  O432  1  0.02276605  0.08523986  0.18257654  1
  O  O433  1  0.02204897  0.08313704  0.43115732  1
  O  O434  1  0.02183562  0.08278879  0.68142647  1
  O  O435  1  0.02270306  0.08441836  0.93259016  1
  O  O436  1  0.02213934  0.41824377  0.18275485  1
  O  O437  1  0.02277579  0.41640650  0.43344755  1
  O  O438  1  0.02163450  0.41671423  0.68123510  1
  O  O439  1  0.02205816  0.41542178  0.93339767  1
  O  O440  1  0.02309234  0.75023205  0.18445035  1
  O  O441  1  0.02238705  0.75099889  0.43286770  1
  O  O442  1  0.02227003  0.75148835  0.68263754  1
  O  O443  1  0.02239494  0.74800810  0.93334311  1
  O  O444  1  0.52137200  0.08452088  0.18139183  1
  O  O445  1  0.52231823  0.08413998  0.43461141  1
  O  O446  1  0.52199857  0.08133931  0.68357588  1
  O  O447  1  0.52177249  0.08266921  0.93299043  1
  O  O448  1  0.52256823  0.41737023  0.18453902  1
  O  O449  1  0.52104398  0.41617725  0.43230107  1
  O  O450  1  0.52221913  0.41550747  0.68517967  1
  O  O451  1  0.52165127  0.41539251  0.93322351  1
  O  O452  1  0.52161580  0.75031827  0.18159752  1
  O  O453  1  0.52099353  0.75015485  0.43211547  1
  O  O454  1  0.52180181  0.74859019  0.68380399  1
  O  O455  1  0.52282686  0.74916717  0.93444799  1
  O  O456  1  0.47750738  0.25239083  0.06689803  1
  O  O457  1  0.47734552  0.25187687  0.31713196  1
  O  O458  1  0.47750472  0.24791852  0.56764189  1
  O  O459  1  0.47766491  0.25088082  0.81740424  1
  O  O460  1  0.47789899  0.58480468  0.06687924  1
  O  O461  1  0.47801314  0.58183377  0.31713033  1
  O  O462  1  0.47771562  0.58285445  0.56924632  1
  O  O463  1  0.47657642  0.58394040  0.81666279  1
  O  O464  1  0.47707383  0.91777401  0.06536585  1
  O  O465  1  0.47785572  0.91745599  0.31817287  1
  O  O466  1  0.47747868  0.91816961  0.56766693  1
  O  O467  1  0.47785280  0.91823905  0.81714360  1
  O  O468  1  0.97730263  0.25029979  0.06568925  1
  O  O469  1  0.97854609  0.24863772  0.31615974  1
  O  O470  1  0.97842950  0.25203187  0.56608484  1
  O  O471  1  0.97828037  0.24994423  0.81835039  1
  O  O472  1  0.97812791  0.58503093  0.06701479  1
  O  O473  1  0.97715064  0.58192662  0.31552672  1
  O  O474  1  0.97799003  0.58198775  0.56641601  1
  O  O475  1  0.97884189  0.58367305  0.81840442  1
  O  O476  1  0.97900053  0.91646023  0.06837520  1
  O  O477  1  0.97872144  0.91509687  0.31638902  1
  O  O478  1  0.97824858  0.91436454  0.56626452  1
  O  O479  1  0.97829274  0.91436555  0.81695855  1
  O  O480  1  0.07202622  0.31441197  0.07403680  1
  O  O481  1  0.07380378  0.31270656  0.32336143  1
  O  O482  1  0.07392643  0.31454779  0.57305288  1
  O  O483  1  0.07378828  0.31351625  0.82565881  1
  O  O484  1  0.07296427  0.64856274  0.07490524  1
  O  O485  1  0.07135802  0.64656650  0.32378259  1
  O  O486  1  0.07325250  0.64582704  0.57398014  1
  O  O487  1  0.07488538  0.64620590  0.82455876  1
  O  O488  1  0.07433422  0.97991843  0.07529637  1
  O  O489  1  0.07423701  0.97846092  0.32471186  1
  O  O490  1  0.07338545  0.97831615  0.57473243  1
  O  O491  1  0.07335500  0.97873178  0.82424933  1
  O  O492  1  0.57259924  0.31608392  0.07393438  1
  O  O493  1  0.57268403  0.31455691  0.32495390  1
  O  O494  1  0.57264220  0.31232518  0.57527299  1
  O  O495  1  0.57282970  0.31438355  0.82411626  1
  O  O496  1  0.57304695  0.64807185  0.07439126  1
  O  O497  1  0.57316174  0.64617277  0.32468423  1
  O  O498  1  0.57332272  0.64604193  0.57611807  1
  O  O499  1  0.57228211  0.64679815  0.82416874  1
  O  O500  1  0.57226664  0.98145214  0.07322500  1
  O  O501  1  0.57323126  0.98115973  0.32523064  1
  O  O502  1  0.57282170  0.98124581  0.57416049  1
  O  O503  1  0.57314139  0.98139128  0.82449973  1
  O  O504  1  0.42620359  0.02044035  0.17454077  1
  O  O505  1  0.42751425  0.01998279  0.42683864  1
  O  O506  1  0.42675742  0.01806975  0.67620376  1
  O  O507  1  0.42666699  0.01893127  0.92595493  1
  O  O508  1  0.42742414  0.35375128  0.17685781  1
  O  O509  1  0.42543425  0.35323633  0.42513726  1
  O  O510  1  0.42701011  0.35188205  0.67712112  1
  O  O511  1  0.42643732  0.35206104  0.92632505  1
  O  O512  1  0.42603341  0.68726628  0.17405892  1
  O  O513  1  0.42595913  0.68591034  0.42520041  1
  O  O514  1  0.42664871  0.68519368  0.67698116  1
  O  O515  1  0.42709358  0.68646993  0.92679452  1
  O  O516  1  0.92739274  0.02159448  0.17398316  1
  O  O517  1  0.92697801  0.01937201  0.42313279  1
  O  O518  1  0.92632583  0.01959383  0.67434763  1
  O  O519  1  0.92744275  0.02029951  0.92567911  1
  O  O520  1  0.92680348  0.35419371  0.17532696  1
  O  O521  1  0.92804834  0.35247892  0.42510463  1
  O  O522  1  0.92609706  0.35336212  0.67395537  1
  O  O523  1  0.92696641  0.35198772  0.92655243  1
  O  O524  1  0.92805480  0.68640389  0.17780967  1
  O  O525  1  0.92709648  0.68741486  0.42465498  1
  O  O526  1  0.92719815  0.68725519  0.67487907  1
  O  O527  1  0.92714925  0.68514626  0.92582926  1
  O  O528  1  0.17765893  0.01954666  0.19776916  1
  O  O529  1  0.17653742  0.01851198  0.45038586  1
  O  O530  1  0.17641879  0.02032421  0.70069669  1
  O  O531  1  0.17829923  0.01988306  0.94800925  1
  O  O532  1  0.17825948  0.35296524  0.19721349  1
  O  O533  1  0.17757895  0.35089626  0.44869506  1
  O  O534  1  0.17696143  0.35350127  0.70088807  1
  O  O535  1  0.17705758  0.35483975  0.95080352  1
  O  O536  1  0.17728768  0.68479142  0.19854651  1
  O  O537  1  0.17691034  0.68369538  0.44939964  1
  O  O538  1  0.17882598  0.68533022  0.69899981  1
  O  O539  1  0.17729469  0.68729306  0.94955447  1
  O  O540  1  0.67630934  0.02157706  0.19963058  1
  O  O541  1  0.67720204  0.02053432  0.44829070  1
  O  O542  1  0.67786293  0.02022699  0.69847274  1
  O  O543  1  0.67725050  0.02107942  0.94975030  1
  O  O544  1  0.67578147  0.35316273  0.20007500  1
  O  O545  1  0.67576992  0.35266981  0.45057033  1
  O  O546  1  0.67630273  0.35276444  0.70131478  1
  O  O547  1  0.67831180  0.35260104  0.94789502  1
  O  O548  1  0.67685310  0.68906656  0.20013960  1
  O  O549  1  0.67633480  0.68890558  0.44949070  1
  O  O550  1  0.67627474  0.68677709  0.70012108  1
  O  O551  1  0.67602354  0.68769265  0.95113416  1
  O  O552  1  0.32132109  0.31397040  0.05137033  1
  O  O553  1  0.32268139  0.31465984  0.30034390  1
  O  O554  1  0.32358266  0.31124327  0.55113257  1
  O  O555  1  0.32292840  0.31228296  0.80058575  1
  O  O556  1  0.32211649  0.64756209  0.05098140  1
  O  O557  1  0.32302174  0.64720860  0.30055598  1
  O  O558  1  0.32191848  0.64551564  0.55279479  1
  O  O559  1  0.32321301  0.64524416  0.80043396  1
  O  O560  1  0.32263317  0.98158137  0.04956572  1
  O  O561  1  0.32392077  0.98000613  0.30014449  1
  O  O562  1  0.32324541  0.97780417  0.55093273  1
  O  O563  1  0.32106776  0.98010367  0.80146396  1
  O  O564  1  0.82239480  0.31258430  0.04988902  1
  O  O565  1  0.82313360  0.31223534  0.30021437  1
  O  O566  1  0.82291378  0.31192572  0.55009153  1
  O  O567  1  0.82186720  0.31327374  0.80171691  1
  O  O568  1  0.82413081  0.64671860  0.04925953  1
  O  O569  1  0.82396791  0.64794293  0.29961797  1
  O  O570  1  0.82388027  0.64779142  0.54973403  1
  O  O571  1  0.82323734  0.64625054  0.80059629  1
  O  O572  1  0.82372622  0.98028761  0.05071426  1
  O  O573  1  0.82230766  0.98155744  0.30048152  1
  O  O574  1  0.82308844  0.98240687  0.54992150  1
  O  O575  1  0.82450877  0.98129014  0.79985625  1
  O  O576  1  0.42581821  0.14731435  0.17380784  1
  O  O577  1  0.42719331  0.14750390  0.42709405  1
  O  O578  1  0.42665305  0.14494095  0.67558846  1
  O  O579  1  0.42643880  0.14608524  0.92475254  1
  O  O580  1  0.42789804  0.48122353  0.17627839  1
  O  O581  1  0.42582650  0.47990400  0.42524856  1
  O  O582  1  0.42764323  0.47946264  0.67813894  1
  O  O583  1  0.42633712  0.47894656  0.92512843  1
  O  O584  1  0.42642790  0.81405055  0.17371011  1
  O  O585  1  0.42523852  0.81296759  0.42531770  1
  O  O586  1  0.42661601  0.81239565  0.67638554  1
  O  O587  1  0.42878064  0.81399224  0.92621702  1
  O  O588  1  0.92762353  0.14871571  0.17527210  1
  O  O589  1  0.92638261  0.14628303  0.42393241  1
  O  O590  1  0.92668637  0.14668630  0.67424824  1
  O  O591  1  0.92743324  0.14751900  0.92581917  1
  O  O592  1  0.92699369  0.48129597  0.17516210  1
  O  O593  1  0.92759071  0.47995804  0.42583237  1
  O  O594  1  0.92627967  0.48010555  0.67422943  1
  O  O595  1  0.92678470  0.47920732  0.92569489  1
  O  O596  1  0.92812637  0.81380010  0.17616097  1
  O  O597  1  0.92733293  0.81442466  0.42520749  1
  O  O598  1  0.92681306  0.81435454  0.67597827  1
  O  O599  1  0.92710988  0.81221012  0.92598766  1
  O  O600  1  0.07255545  0.18692490  0.07290176  1
  O  O601  1  0.07375478  0.18563521  0.32366959  1
  O  O602  1  0.07333348  0.18728970  0.57408823  1
  O  O603  1  0.07378194  0.18682034  0.82525856  1
  O  O604  1  0.07348631  0.52159388  0.07569431  1
  O  O605  1  0.07273352  0.51917512  0.32309499  1
  O  O606  1  0.07304567  0.51862531  0.57313916  1
  O  O607  1  0.07367098  0.51933916  0.82569137  1
  O  O608  1  0.07454045  0.85302189  0.07533464  1
  O  O609  1  0.07378150  0.85135799  0.32358562  1
  O  O610  1  0.07349980  0.85117314  0.57369266  1
  O  O611  1  0.07355658  0.85141587  0.82416377  1
  O  O612  1  0.57288567  0.18903114  0.07527110  1
  O  O613  1  0.57240793  0.18749347  0.32420188  1
  O  O614  1  0.57267223  0.18520025  0.57478774  1
  O  O615  1  0.57292271  0.18730974  0.82570601  1
  O  O616  1  0.57326510  0.52101006  0.07414290  1
  O  O617  1  0.57328171  0.51890350  0.32386153  1
  O  O618  1  0.57302076  0.51926730  0.57675177  1
  O  O619  1  0.57073028  0.51930755  0.82433583  1
  O  O620  1  0.57169644  0.85389305  0.07253801  1
  O  O621  1  0.57319808  0.85425780  0.32553921  1
  O  O622  1  0.57258773  0.85406765  0.57528799  1
  O  O623  1  0.57300666  0.85440842  0.82558618  1
  O  O624  1  0.32212883  0.18660413  0.05138839  1
  O  O625  1  0.32327184  0.18763828  0.29957690  1
  O  O626  1  0.32262981  0.18414204  0.55115521  1
  O  O627  1  0.32335104  0.18522411  0.80143181  1
  O  O628  1  0.32301994  0.52013476  0.05211675  1
  O  O629  1  0.32275180  0.52034129  0.29988875  1
  O  O630  1  0.32235110  0.51816665  0.55139140  1
  O  O631  1  0.32289485  0.51830525  0.80140148  1
  O  O632  1  0.32312104  0.85463940  0.04919745  1
  O  O633  1  0.32431642  0.85305017  0.29859893  1
  O  O634  1  0.32316470  0.85057093  0.55139231  1
  O  O635  1  0.32268458  0.85268532  0.80189888  1
  O  O636  1  0.82296832  0.18565971  0.05059008  1
  O  O637  1  0.82315728  0.18517345  0.30084155  1
  O  O638  1  0.82344182  0.18488127  0.55089809  1
  O  O639  1  0.82268164  0.18593743  0.80174566  1
  O  O640  1  0.82376450  0.51980403  0.04979831  1
  O  O641  1  0.82376734  0.52076630  0.29980481  1
  O  O642  1  0.82396026  0.52059211  0.54958482  1
  O  O643  1  0.82363403  0.51894309  0.80096083  1
  O  O644  1  0.82374033  0.85309022  0.05136627  1
  O  O645  1  0.82208871  0.85419916  0.30195713  1
  O  O646  1  0.82254036  0.85543754  0.54961456  1
  O  O647  1  0.82396204  0.85441110  0.79896088  1
  O  O648  1  0.17826256  0.14706008  0.19736933  1
  O  O649  1  0.17572942  0.14539267  0.44975095  1
  O  O650  1  0.17687662  0.14738570  0.69938670  1
  O  O651  1  0.17776434  0.14715728  0.94905215  1
  O  O652  1  0.17756935  0.48025649  0.19893021  1
  O  O653  1  0.17707328  0.47795457  0.44916426  1
  O  O654  1  0.17680478  0.48057546  0.69892578  1
  O  O655  1  0.17737269  0.48187751  0.95015773  1
  O  O656  1  0.17721555  0.81188445  0.20021138  1
  O  O657  1  0.17725198  0.81069074  0.44928151  1
  O  O658  1  0.17790565  0.81268235  0.69798732  1
  O  O659  1  0.17705207  0.81439268  0.94941386  1
  O  O660  1  0.67661146  0.14850618  0.19932460  1
  O  O661  1  0.67778559  0.14760248  0.44859680  1
  O  O662  1  0.67747214  0.14753286  0.69824207  1
  O  O663  1  0.67617133  0.14809988  0.94884180  1
  O  O664  1  0.67624112  0.48015713  0.19987531  1
  O  O665  1  0.67584356  0.47984545  0.45055177  1
  O  O666  1  0.67643657  0.47956134  0.70103496  1
  O  O667  1  0.67735625  0.48020555  0.94831199  1
  O  O668  1  0.67673112  0.81628121  0.19892646  1
  O  O669  1  0.67643379  0.81622848  0.44924543  1
  O  O670  1  0.67529746  0.81388556  0.70055280  1
  O  O671  1  0.67647477  0.81458257  0.95005328  1
