# generated using pymatgen
data_Na2MnFe(PO4)2
_symmetry_space_group_name_H-M   'P 1'
_cell_length_a   22.34626184
_cell_length_b   20.09754608
_cell_length_c   19.44786916
_cell_angle_alpha   89.98881875
_cell_angle_beta   89.96947325
_cell_angle_gamma   90.01637212
_symmetry_Int_Tables_number   1
_chemical_formula_structural   Na2MnFe(PO4)2
_chemical_formula_sum   'Na96 Mn48 Fe48 P96 O384'
_cell_volume   8734.13404619
_cell_formula_units_Z   48
loop_
 _symmetry_equiv_pos_site_id
 _symmetry_equiv_pos_as_xyz
  1  'x, y, z'
loop_
 _atom_site_type_symbol
 _atom_site_label
 _atom_site_symmetry_multiplicity
 _atom_site_fract_x
 _atom_site_fract_y
 _atom_site_fract_z
 _atom_site_occupancy
  Na  Na0  1  0.14033782  0.24904132  0.24326853  1
  Na  Na1  1  0.13994213  0.25003035  0.49504516  1
  Na  Na2  1  0.13939445  0.25022728  0.74484057  1
  Na  Na3  1  0.14012381  0.24918884  0.99190937  1
  Na  Na4  1  0.14031993  0.58385059  0.24412989  1
  Na  Na5  1  0.14024706  0.58299464  0.49438103  1
  Na  Na6  1  0.14024388  0.58269676  0.74467423  1
  Na  Na7  1  0.14010264  0.58222387  0.99377748  1
  Na  Na8  1  0.14005853  0.91786954  0.24183802  1
  Na  Na9  1  0.14049364  0.91669067  0.49276294  1
  Na  Na10  1  0.14078237  0.91763065  0.74389986  1
  Na  Na11  1  0.14012837  0.91814553  0.99447497  1
  Na  Na12  1  0.64060299  0.24964511  0.24356915  1
  Na  Na13  1  0.64045015  0.25008268  0.49265472  1
  Na  Na14  1  0.64052312  0.25077124  0.74221817  1
  Na  Na15  1  0.64036207  0.25055973  0.99464101  1
  Na  Na16  1  0.64079921  0.58206984  0.24468837  1
  Na  Na17  1  0.64105141  0.58274469  0.49351210  1
  Na  Na18  1  0.64066293  0.58435396  0.74371725  1
  Na  Na19  1  0.64079943  0.58312587  0.99478252  1
  Na  Na20  1  0.64077802  0.91638915  0.24288337  1
  Na  Na21  1  0.64096059  0.91630212  0.49329726  1
  Na  Na22  1  0.64074966  0.91806190  0.74242418  1
  Na  Na23  1  0.64056657  0.91630545  0.99341621  1
  Na  Na24  1  0.35915992  0.08260428  0.00595720  1
  Na  Na25  1  0.36021339  0.08316264  0.25527382  1
  Na  Na26  1  0.35996149  0.08397606  0.50509539  1
  Na  Na27  1  0.35968252  0.08407669  0.75611380  1
  Na  Na28  1  0.35982591  0.41485245  0.00508168  1
  Na  Na29  1  0.35915607  0.41619622  0.25644824  1
  Na  Na30  1  0.35959508  0.41596301  0.50750833  1
  Na  Na31  1  0.36012848  0.41554235  0.75788974  1
  Na  Na32  1  0.35947633  0.75110353  0.00625672  1
  Na  Na33  1  0.35922374  0.75104491  0.25524972  1
  Na  Na34  1  0.35972363  0.75006734  0.50560681  1
  Na  Na35  1  0.35919524  0.74970743  0.75598214  1
  Na  Na36  1  0.85985139  0.08411913  0.00800180  1
  Na  Na37  1  0.85974022  0.08286814  0.25597705  1
  Na  Na38  1  0.85919342  0.08286460  0.50652812  1
  Na  Na39  1  0.85966938  0.08404877  0.75600181  1
  Na  Na40  1  0.85974475  0.41732526  0.00905124  1
  Na  Na41  1  0.85941619  0.41674263  0.25704821  1
  Na  Na42  1  0.85995460  0.41568272  0.50645360  1
  Na  Na43  1  0.85957371  0.41764672  0.75673281  1
  Na  Na44  1  0.85895361  0.74950703  0.00667322  1
  Na  Na45  1  0.85876281  0.74883189  0.25717143  1
  Na  Na46  1  0.85951422  0.74968223  0.50554295  1
  Na  Na47  1  0.85969760  0.75046674  0.75581831  1
  Na  Na48  1  0.10968060  0.08408543  0.11725375  1
  Na  Na49  1  0.10966539  0.08335604  0.36780348  1
  Na  Na50  1  0.10976009  0.08530248  0.61930282  1
  Na  Na51  1  0.10980903  0.08455051  0.86893376  1
  Na  Na52  1  0.10901251  0.41635294  0.11822161  1
  Na  Na53  1  0.10945338  0.41628242  0.37010770  1
  Na  Na54  1  0.10927512  0.41588061  0.62067556  1
  Na  Na55  1  0.10917913  0.41647377  0.86919830  1
  Na  Na56  1  0.10900437  0.75125771  0.11899983  1
  Na  Na57  1  0.10973959  0.74966644  0.36795344  1
  Na  Na58  1  0.10961127  0.74774007  0.61863578  1
  Na  Na59  1  0.10918548  0.74999896  0.86896968  1
  Na  Na60  1  0.61041859  0.08327653  0.11847689  1
  Na  Na61  1  0.61034338  0.08418624  0.36824821  1
  Na  Na62  1  0.61004172  0.08332690  0.61725341  1
  Na  Na63  1  0.61003704  0.08441004  0.86856653  1
  Na  Na64  1  0.61033946  0.41639187  0.11930378  1
  Na  Na65  1  0.61003499  0.41489371  0.36863414  1
  Na  Na66  1  0.60975396  0.41625100  0.61869565  1
  Na  Na67  1  0.61001139  0.41647835  0.86907923  1
  Na  Na68  1  0.60996680  0.74944141  0.11886907  1
  Na  Na69  1  0.61030978  0.75106452  0.36797514  1
  Na  Na70  1  0.61006343  0.75049202  0.61830712  1
  Na  Na71  1  0.60969079  0.75063508  0.86832681  1
  Na  Na72  1  0.38998822  0.24879822  0.13069544  1
  Na  Na73  1  0.39029431  0.24878026  0.38114046  1
  Na  Na74  1  0.39059809  0.24928797  0.63141580  1
  Na  Na75  1  0.39018097  0.24997130  0.88106721  1
  Na  Na76  1  0.39029003  0.58331245  0.13073924  1
  Na  Na77  1  0.39023130  0.58405981  0.38204986  1
  Na  Na78  1  0.39038818  0.58292703  0.63156261  1
  Na  Na79  1  0.39073193  0.58214652  0.88099370  1
  Na  Na80  1  0.39022668  0.91725020  0.13110243  1
  Na  Na81  1  0.39067605  0.91835530  0.37968873  1
  Na  Na82  1  0.39051448  0.91676953  0.63029403  1
  Na  Na83  1  0.39029762  0.91768346  0.88095777  1
  Na  Na84  1  0.89000328  0.25019114  0.13226993  1
  Na  Na85  1  0.88972705  0.25028923  0.38165468  1
  Na  Na86  1  0.89013111  0.25004219  0.63120934  1
  Na  Na87  1  0.89056241  0.25044049  0.88223260  1
  Na  Na88  1  0.88967743  0.58353199  0.13281002  1
  Na  Na89  1  0.88992698  0.58155752  0.38181763  1
  Na  Na90  1  0.89014263  0.58148726  0.63122630  1
  Na  Na91  1  0.88999101  0.58387182  0.88205914  1
  Na  Na92  1  0.89024094  0.91759901  0.13184501  1
  Na  Na93  1  0.89020199  0.91598552  0.38049203  1
  Na  Na94  1  0.89012859  0.91650991  0.63170186  1
  Na  Na95  1  0.89028202  0.91767970  0.88077321  1
  Mn  Mn96  1  0.25020670  0.66735892  0.12396567  1
  Mn  Mn97  1  0.49983188  0.66704631  0.25030528  1
  Mn  Mn98  1  0.74990256  -0.00030374  0.37506141  1
  Mn  Mn99  1  0.49982061  0.83420230  0.74940464  1
  Mn  Mn100  1  0.24910187  0.33215225  0.12511894  1
  Mn  Mn101  1  0.24956132  0.66613277  0.87590269  1
  Mn  Mn102  1  0.75041082  0.66693344  0.62428883  1
  Mn  Mn103  1  0.50041943  0.00024608  0.49921397  1
  Mn  Mn104  1  0.24979085  0.00095428  0.37386815  1
  Mn  Mn105  1  -0.00054539  0.49940050  0.75070671  1
  Mn  Mn106  1  0.24976923  0.50082979  0.37601062  1
  Mn  Mn107  1  0.00033968  -0.00002468  0.49995222  1
  Mn  Mn108  1  0.50024951  0.66699703  -0.00023073  1
  Mn  Mn109  1  0.49979489  0.16729673  -0.00104981  1
  Mn  Mn110  1  0.49950698  0.66643918  0.74979794  1
  Mn  Mn111  1  0.49914964  0.33205200  0.25004454  1
  Mn  Mn112  1  0.50088832  0.66735803  0.50071569  1
  Mn  Mn113  1  0.75066496  0.83327562  0.87470823  1
  Mn  Mn114  1  0.49989631  0.83442290  0.24942006  1
  Mn  Mn115  1  0.25014864  0.49971375  0.12543437  1
  Mn  Mn116  1  -0.00068791  0.16750035  0.49951505  1
  Mn  Mn117  1  0.74989048  0.16709987  0.87530688  1
  Mn  Mn118  1  0.00002911  0.66596496  0.24991094  1
  Mn  Mn119  1  0.50054542  0.16695248  0.74942936  1
  Mn  Mn120  1  0.24936336  0.83416997  0.87499224  1
  Mn  Mn121  1  0.50028989  0.49891605  0.00022185  1
  Mn  Mn122  1  0.24988986  0.83282025  0.62419905  1
  Mn  Mn123  1  0.50036917  0.49872749  0.50077932  1
  Mn  Mn124  1  0.00036532  0.83273025  0.50008519  1
  Mn  Mn125  1  -0.00095955  0.83457110  -0.00048010  1
  Mn  Mn126  1  0.24981360  0.33239695  0.62613891  1
  Mn  Mn127  1  0.25017037  0.83311243  0.37430107  1
  Mn  Mn128  1  0.00032063  0.33408778  0.25013291  1
  Mn  Mn129  1  0.24988704  0.33209078  0.37580616  1
  Mn  Mn130  1  0.74964901  0.83239652  0.12469328  1
  Mn  Mn131  1  0.50014262  -0.00006147  -0.00055792  1
  Mn  Mn132  1  0.49949230  0.49908775  0.25054398  1
  Mn  Mn133  1  0.00021836  0.16653194  0.24992186  1
  Mn  Mn134  1  0.00071677  0.83267157  0.75058210  1
  Mn  Mn135  1  0.24987250  0.50027351  0.62590217  1
  Mn  Mn136  1  0.75018497  0.33369770  0.62435771  1
  Mn  Mn137  1  0.00049187  0.00136919  0.75060653  1
  Mn  Mn138  1  -0.00091388  0.66661568  0.00084062  1
  Mn  Mn139  1  -0.00063048  0.66481429  0.49893319  1
  Mn  Mn140  1  0.74989114  0.00071988  0.87437070  1
  Mn  Mn141  1  0.75038768  0.33399243  0.87527205  1
  Mn  Mn142  1  0.75004384  0.50121614  0.87666929  1
  Mn  Mn143  1  0.24999671  0.00137812  0.62403869  1
  Fe  Fe144  1  0.75014600  0.66590277  0.37556692  1
  Fe  Fe145  1  0.50022475  0.16643064  0.49985927  1
  Fe  Fe146  1  0.50078326  0.16664360  0.24990363  1
  Fe  Fe147  1  -0.00059301  0.16754991  0.75041854  1
  Fe  Fe148  1  0.25045638  0.49927971  0.87481855  1
  Fe  Fe149  1  0.75005156  0.49925761  0.37483179  1
  Fe  Fe150  1  0.00027101  0.33337944  0.50057355  1
  Fe  Fe151  1  -0.00034271  0.83394875  0.24928815  1
  Fe  Fe152  1  0.24987223  0.16623792  0.87508641  1
  Fe  Fe153  1  -0.00061717  0.33355728  0.00006191  1
  Fe  Fe154  1  0.25010857  0.66635739  0.62552531  1
  Fe  Fe155  1  -0.00030771  0.00023228  0.24920151  1
  Fe  Fe156  1  0.24986367  0.16695302  0.62579615  1
  Fe  Fe157  1  0.00014472  0.00096142  0.00010570  1
  Fe  Fe158  1  -0.00027458  0.49939204  0.25050214  1
  Fe  Fe159  1  0.50121607  0.00071578  0.25003027  1
  Fe  Fe160  1  0.74956048  0.66597053  0.12648310  1
  Fe  Fe161  1  0.74990525  0.33324464  0.12626322  1
  Fe  Fe162  1  0.24968086  0.16635562  0.37431989  1
  Fe  Fe163  1  0.75024432  0.83308592  0.37474089  1
  Fe  Fe164  1  0.75003594  0.16641412  0.37456414  1
  Fe  Fe165  1  0.50020854  0.33298319  -0.00014948  1
  Fe  Fe166  1  0.24985925  0.33241330  0.87540922  1
  Fe  Fe167  1  0.24997460  0.66713761  0.37454198  1
  Fe  Fe168  1  0.75026999  0.50004359  0.12640086  1
  Fe  Fe169  1  0.75006819  0.16694918  0.12582307  1
  Fe  Fe170  1  0.75024931  0.00028673  0.62410121  1
  Fe  Fe171  1  0.50030501  0.00014429  0.74916891  1
  Fe  Fe172  1  0.50050043  0.49902292  0.75024595  1
  Fe  Fe173  1  0.24933734  0.83405957  0.12492082  1
  Fe  Fe174  1  0.75013112  0.50003298  0.62453064  1
  Fe  Fe175  1  0.49972656  0.33277052  0.50014138  1
  Fe  Fe176  1  0.75062136  0.16690608  0.62397127  1
  Fe  Fe177  1  0.50015685  0.83381383  -0.00033031  1
  Fe  Fe178  1  0.50039277  0.83413691  0.49959747  1
  Fe  Fe179  1  0.74974949  0.66710329  0.87496034  1
  Fe  Fe180  1  0.50060286  0.33293784  0.74970249  1
  Fe  Fe181  1  -0.00040750  0.66565983  0.75017256  1
  Fe  Fe182  1  0.24997909  0.00058349  0.12428471  1
  Fe  Fe183  1  0.00007007  0.49872743  0.50119774  1
  Fe  Fe184  1  0.74982497  0.83336052  0.62460086  1
  Fe  Fe185  1  0.25011253  0.16616644  0.12368972  1
  Fe  Fe186  1  0.75017277  -0.00030719  0.12532598  1
  Fe  Fe187  1  -0.00013401  0.50022040  0.00009660  1
  Fe  Fe188  1  -0.00048072  0.16731756  -0.00014291  1
  Fe  Fe189  1  -0.00120914  0.33338957  0.75086805  1
  Fe  Fe190  1  0.25033040  0.00056236  0.87480771  1
  Fe  Fe191  1  0.75031801  0.33299788  0.37494009  1
  P  P192  1  0.04124745  0.25041528  0.10114597  1
  P  P193  1  0.04264935  0.25051528  0.35335991  1
  P  P194  1  0.04152943  0.25132290  0.60362565  1
  P  P195  1  0.04054732  0.25043719  0.85268566  1
  P  P196  1  0.04187983  0.58186250  0.10304106  1
  P  P197  1  0.04200452  0.58092526  0.35295799  1
  P  P198  1  0.04185300  0.58150865  0.60306707  1
  P  P199  1  0.04180113  0.58385151  0.85321917  1
  P  P200  1  0.04139379  0.91846053  0.10295136  1
  P  P201  1  0.04162083  0.91702559  0.35076889  1
  P  P202  1  0.04327121  0.91650921  0.60316346  1
  P  P203  1  0.04286984  0.91772243  0.85367503  1
  P  P204  1  0.54209079  0.25056491  0.10254928  1
  P  P205  1  0.54229762  0.24836734  0.35314545  1
  P  P206  1  0.54170902  0.25016971  0.60148611  1
  P  P207  1  0.54289574  0.25147286  0.85222247  1
  P  P208  1  0.54280166  0.58309293  0.10328805  1
  P  P209  1  0.54283927  0.58299611  0.35358357  1
  P  P210  1  0.54303115  0.58244612  0.60389015  1
  P  P211  1  0.54228313  0.58191491  0.85223479  1
  P  P212  1  0.54265081  0.91596418  0.10230035  1
  P  P213  1  0.54292400  0.91840954  0.35232483  1
  P  P214  1  0.54268630  0.91619814  0.60213436  1
  P  P215  1  0.54274093  0.91829200  0.85205134  1
  P  P216  1  0.45931285  0.08336441  0.14820454  1
  P  P217  1  0.45852136  0.08488421  0.39650335  1
  P  P218  1  0.45831823  0.08247610  0.64676669  1
  P  P219  1  0.45723465  0.08342008  0.89587895  1
  P  P220  1  0.45674246  0.41560689  0.14660546  1
  P  P221  1  0.45730198  0.41470535  0.39809901  1
  P  P222  1  0.45847729  0.41570238  0.64842797  1
  P  P223  1  0.45841575  0.41474445  0.89661159  1
  P  P224  1  0.45713009  0.75066597  0.14624807  1
  P  P225  1  0.45831475  0.75195302  0.39761547  1
  P  P226  1  0.45722996  0.75055970  0.64621710  1
  P  P227  1  0.45773537  0.75166708  0.89730342  1
  P  P228  1  0.95800690  0.08272706  0.14663529  1
  P  P229  1  0.95702272  0.08284194  0.39628866  1
  P  P230  1  0.95784682  0.08516801  0.64781843  1
  P  P231  1  0.95833579  0.08428577  0.89845947  1
  P  P232  1  0.95755314  0.41803806  0.14717865  1
  P  P233  1  0.95846973  0.41655014  0.39873408  1
  P  P234  1  0.95742087  0.41502588  0.64764501  1
  P  P235  1  0.95782611  0.41669272  0.89891007  1
  P  P236  1  0.95723709  0.75126892  0.14794975  1
  P  P237  1  0.95760087  0.74997878  0.39587045  1
  P  P238  1  0.95802808  0.74783673  0.64768115  1
  P  P239  1  0.95677303  0.74973605  0.89668387  1
  P  P240  1  0.20851922  0.08404974  0.22572198  1
  P  P241  1  0.20730489  0.08519131  0.47724727  1
  P  P242  1  0.20784908  0.08487630  0.72832552  1
  P  P243  1  0.20863232  0.08311647  0.97693132  1
  P  P244  1  0.20668554  0.41628122  0.22852890  1
  P  P245  1  0.20719533  0.41636042  0.47895112  1
  P  P246  1  0.20771269  0.41620663  0.72981708  1
  P  P247  1  0.20860688  0.41609438  0.97649701  1
  P  P248  1  0.20743598  0.75111113  0.22726399  1
  P  P249  1  0.20769272  0.74844363  0.47747436  1
  P  P250  1  0.20745889  0.74877249  0.72754516  1
  P  P251  1  0.20664627  0.75091271  0.97865354  1
  P  P252  1  0.70912955  0.08324756  0.22699321  1
  P  P253  1  0.70840072  0.08446725  0.47775381  1
  P  P254  1  0.70882294  0.08417644  0.72547250  1
  P  P255  1  0.70768332  0.08353698  0.97914542  1
  P  P256  1  0.70898385  0.41642726  0.22801493  1
  P  P257  1  0.70889828  0.41647080  0.47656555  1
  P  P258  1  0.70814651  0.41852135  0.72730447  1
  P  P259  1  0.70782714  0.41659586  0.97981359  1
  P  P260  1  0.70772020  0.74828317  0.22865645  1
  P  P261  1  0.70893877  0.75016974  0.47658809  1
  P  P262  1  0.70796740  0.75122299  0.72724389  1
  P  P263  1  0.70771057  0.74862825  0.97771445  1
  P  P264  1  0.29166379  0.24835394  0.02135878  1
  P  P265  1  0.29211142  0.24809409  0.27195302  1
  P  P266  1  0.29216613  0.24813736  0.52270371  1
  P  P267  1  0.29118194  0.24918571  0.77356199  1
  P  P268  1  0.29290673  0.58238900  0.02124746  1
  P  P269  1  0.29248635  0.58479702  0.27262124  1
  P  P270  1  0.29228876  0.58488449  0.52264023  1
  P  P271  1  0.29228091  0.58234644  0.77271220  1
  P  P272  1  0.29115992  0.91718405  0.02304919  1
  P  P273  1  0.29221493  0.91723821  0.27036806  1
  P  P274  1  0.29284421  0.91710166  0.52119025  1
  P  P275  1  0.29224551  0.91829388  0.77232723  1
  P  P276  1  0.79134112  0.25046976  0.02444824  1
  P  P277  1  0.79110081  0.24980096  0.27281199  1
  P  P278  1  0.79219210  0.24889739  0.52139220  1
  P  P279  1  0.79270865  0.25030164  0.77152601  1
  P  P280  1  0.79125412  0.58374186  0.02453508  1
  P  P281  1  0.79118261  0.58267754  0.27343546  1
  P  P282  1  0.79228759  0.58159456  0.52166282  1
  P  P283  1  0.79215589  0.58488014  0.77275259  1
  P  P284  1  0.79228463  0.91762798  0.02273170  1
  P  P285  1  0.79171954  0.91548215  0.27208289  1
  P  P286  1  0.79151671  0.91603421  0.52285670  1
  P  P287  1  0.79271249  0.91723462  0.77059369  1
  O  O288  1  0.03704370  0.25023098  0.18119381  1
  O  O289  1  0.03743408  0.25086490  0.43328412  1
  O  O290  1  0.03578405  0.25096174  0.68348478  1
  O  O291  1  0.03515287  0.25041285  0.93255516  1
  O  O292  1  0.03659492  0.58158183  0.18300720  1
  O  O293  1  0.03658019  0.58073387  0.43291709  1
  O  O294  1  0.03641119  0.58248838  0.68301300  1
  O  O295  1  0.03638437  0.58334088  0.93314868  1
  O  O296  1  0.03591767  0.91806428  0.18286932  1
  O  O297  1  0.03719025  0.91676343  0.43085414  1
  O  O298  1  0.03839100  0.91660226  0.68313901  1
  O  O299  1  0.03733354  0.91833428  0.93359895  1
  O  O300  1  0.53680871  0.24945000  0.18248299  1
  O  O301  1  0.53714812  0.24844805  0.43303165  1
  O  O302  1  0.53690833  0.25046501  0.68150117  1
  O  O303  1  0.53774483  0.25139288  0.93217533  1
  O  O304  1  0.53754314  0.58315608  0.18324189  1
  O  O305  1  0.53804967  0.58297170  0.43361865  1
  O  O306  1  0.53748738  0.58196485  0.68382292  1
  O  O307  1  0.53716544  0.58219770  0.93222056  1
  O  O308  1  0.53768813  0.91682781  0.18224717  1
  O  O309  1  0.53777101  0.91765379  0.43225601  1
  O  O310  1  0.53744766  0.91705218  0.68206143  1
  O  O311  1  0.53761022  0.91743175  0.93202545  1
  O  O312  1  0.46408004  0.08335791  0.06820446  1
  O  O313  1  0.46402604  0.08483669  0.31663088  1
  O  O314  1  0.46370795  0.08330206  0.56683309  1
  O  O315  1  0.46236284  0.08305818  0.81595035  1
  O  O316  1  0.46197903  0.41535662  0.06664394  1
  O  O317  1  0.46210660  0.41492060  0.31809754  1
  O  O318  1  0.46336999  0.41511680  0.56840716  1
  O  O319  1  0.46411660  0.41522422  0.81673754  1
  O  O320  1  0.46231944  0.75101579  0.06628304  1
  O  O321  1  0.46339618  0.75157591  0.31762588  1
  O  O322  1  0.46274905  0.75107908  0.56629208  1
  O  O323  1  0.46278807  0.75136513  0.81729740  1
  O  O324  1  0.96323234  0.08290270  0.06674511  1
  O  O325  1  0.96216816  0.08226518  0.31629777  1
  O  O326  1  0.96286321  0.08479838  0.56785215  1
  O  O327  1  0.96334664  0.08519974  0.81848696  1
  O  O328  1  0.96278359  0.41799561  0.06731714  1
  O  O329  1  0.96354851  0.41719114  0.31875672  1
  O  O330  1  0.96295282  0.41531376  0.56780579  1
  O  O331  1  0.96254391  0.41597742  0.81890351  1
  O  O332  1  0.96187684  0.75104741  0.06793840  1
  O  O333  1  0.96310126  0.75068193  0.31595339  1
  O  O334  1  0.96327577  0.74798967  0.56766249  1
  O  O335  1  0.96235937  0.74886742  0.81676532  1
  O  O336  1  0.21384008  0.08319379  0.05680999  1
  O  O337  1  0.21287065  0.08409421  0.30571740  1
  O  O338  1  0.21244920  0.08518595  0.55719771  1
  O  O339  1  0.21337827  0.08420884  0.80818894  1
  O  O340  1  0.21307074  0.41592052  0.05652676  1
  O  O341  1  0.21185504  0.41623869  0.30848148  1
  O  O342  1  0.21229817  0.41642125  0.55892614  1
  O  O343  1  0.21320991  0.41629145  0.80970349  1
  O  O344  1  0.21190642  0.75148495  0.05857943  1
  O  O345  1  0.21298451  0.75029142  0.30721716  1
  O  O346  1  0.21297190  0.74826648  0.55744835  1
  O  O347  1  0.21259212  0.74915614  0.80752430  1
  O  O348  1  0.71292527  0.08323314  0.05904304  1
  O  O349  1  0.71395694  0.08375557  0.30696524  1
  O  O350  1  0.71401446  0.08432028  0.55758535  1
  O  O351  1  0.71319519  0.08397248  0.80554907  1
  O  O352  1  0.71299763  0.41613839  0.05970725  1
  O  O353  1  0.71403155  0.41675015  0.30792657  1
  O  O354  1  0.71363319  0.41655280  0.55653214  1
  O  O355  1  0.71321450  0.41836794  0.80726445  1
  O  O356  1  0.71278618  0.74846967  0.05768920  1
  O  O357  1  0.71339910  0.74890623  0.30847770  1
  O  O358  1  0.71383530  0.75053678  0.55658017  1
  O  O359  1  0.71317243  0.75060458  0.80717034  1
  O  O360  1  0.28675041  0.24829156  0.19199892  1
  O  O361  1  0.28694191  0.24814385  0.44274541  1
  O  O362  1  0.28654926  0.24918079  0.69357642  1
  O  O363  1  0.28617625  0.24854815  0.94148786  1
  O  O364  1  0.28738171  0.58443813  0.19262878  1
  O  O365  1  0.28707321  0.58503401  0.44264827  1
  O  O366  1  0.28711930  0.58312504  0.69272788  1
  O  O367  1  0.28759383  0.58168655  0.94131761  1
  O  O368  1  0.28689184  0.91711908  0.19047354  1
  O  O369  1  0.28766862  0.91709142  0.44122567  1
  O  O370  1  0.28713481  0.91793994  0.69238524  1
  O  O371  1  0.28644850  0.91784841  0.94307071  1
  O  O372  1  0.78602758  0.25043551  0.19290070  1
  O  O373  1  0.78702171  0.24888724  0.44150618  1
  O  O374  1  0.78768167  0.25002182  0.69155782  1
  O  O375  1  0.78687623  0.25022963  0.94440982  1
  O  O376  1  0.78616547  0.58310814  0.19354206  1
  O  O377  1  0.78684528  0.58145292  0.44183406  1
  O  O378  1  0.78714588  0.58426383  0.69284428  1
  O  O379  1  0.78657591  0.58395067  0.94458434  1
  O  O380  1  0.78611604  0.91608965  0.19219613  1
  O  O381  1  0.78655547  0.91583413  0.44284574  1
  O  O382  1  0.78748838  0.91708189  0.69069499  1
  O  O383  1  0.78737113  0.91756261  0.94272976  1
  O  O384  1  0.22747560  0.24773206  0.05747015  1
  O  O385  1  0.22782732  0.24803600  0.30776188  1
  O  O386  1  0.22788283  0.24807827  0.55850220  1
  O  O387  1  0.22700884  0.24876490  0.80939066  1
  O  O388  1  0.22853705  0.58297203  0.05652774  1
  O  O389  1  0.22811041  0.58506536  0.30809810  1
  O  O390  1  0.22802390  0.58486727  0.55844922  1
  O  O391  1  0.22801143  0.58172452  0.80838599  1
  O  O392  1  0.22700204  0.91665530  0.05901213  1
  O  O393  1  0.22801797  0.91701971  0.30616207  1
  O  O394  1  0.22847023  0.91710843  0.55637002  1
  O  O395  1  0.22792663  0.91875282  0.80793490  1
  O  O396  1  0.72710334  0.25093115  0.06003088  1
  O  O397  1  0.72713426  0.24932613  0.30923810  1
  O  O398  1  0.72804466  0.24870223  0.55752646  1
  O  O399  1  0.72830170  0.25057876  0.80676624  1
  O  O400  1  0.72710089  0.58380702  0.06047446  1
  O  O401  1  0.72722632  0.58211899  0.30983220  1
  O  O402  1  0.72820184  0.58191774  0.55795229  1
  O  O403  1  0.72787307  0.58505858  0.80856861  1
  O  O404  1  0.72794537  0.91747675  0.05818599  1
  O  O405  1  0.72766137  0.91509335  0.30832683  1
  O  O406  1  0.72738327  0.91580998  0.55886573  1
  O  O407  1  0.72848396  0.91691750  0.80636186  1
  O  O408  1  0.27281972  0.08453772  0.19011500  1
  O  O409  1  0.27163415  0.08514118  0.44152219  1
  O  O410  1  0.27200077  0.08528974  0.69206203  1
  O  O411  1  0.27266107  0.08341839  0.94045465  1
  O  O412  1  0.27113046  0.41565157  0.19345305  1
  O  O413  1  0.27154314  0.41641574  0.44370873  1
  O  O414  1  0.27184738  0.41627451  0.69387820  1
  O  O415  1  0.27283938  0.41638323  0.94090386  1
  O  O416  1  0.27160240  0.75204585  0.19125031  1
  O  O417  1  0.27197629  0.74849419  0.44166248  1
  O  O418  1  0.27178479  0.74859283  0.69194093  1
  O  O419  1  0.27101102  0.75059675  0.94336489  1
  O  O420  1  0.77319215  0.08265602  0.19097958  1
  O  O421  1  0.77236852  0.08450372  0.44124374  1
  O  O422  1  0.77313001  0.08448119  0.69006505  1
  O  O423  1  0.77195904  0.08370774  0.94345969  1
  O  O424  1  0.77296823  0.41589791  0.19162584  1
  O  O425  1  0.77305901  0.41682490  0.44066115  1
  O  O426  1  0.77241743  0.41833739  0.69161849  1
  O  O427  1  0.77212224  0.41710587  0.94415318  1
  O  O428  1  0.77176171  0.74816725  0.19217211  1
  O  O429  1  0.77302794  0.75046487  0.44053829  1
  O  O430  1  0.77217803  0.75169240  0.69131018  1
  O  O431  1  0.77204347  0.74846183  0.94205123  1
  O  O432  1  0.02219917  0.08241254  0.18259857  1
  O  O433  1  0.02140579  0.08356092  0.43143019  1
  O  O434  1  0.02212313  0.08584054  0.68335636  1
  O  O435  1  0.02252258  0.08389025  0.93433778  1
  O  O436  1  0.02181488  0.41855007  0.18306579  1
  O  O437  1  0.02254942  0.41636823  0.43499032  1
  O  O438  1  0.02142858  0.41488447  0.68405283  1
  O  O439  1  0.02210402  0.41697546  0.93453419  1
  O  O440  1  0.02165399  0.75090629  0.18298927  1
  O  O441  1  0.02178337  0.74923635  0.43153094  1
  O  O442  1  0.02225018  0.74735182  0.68343280  1
  O  O443  1  0.02096815  0.75013274  0.93226520  1
  O  O444  1  0.52352832  0.08332816  0.18399911  1
  O  O445  1  0.52260433  0.08485229  0.43266188  1
  O  O446  1  0.52253226  0.08209148  0.68265364  1
  O  O447  1  0.52160256  0.08365878  0.93102943  1
  O  O448  1  0.52111546  0.41559761  0.18183426  1
  O  O449  1  0.52181778  0.41425983  0.43312113  1
  O  O450  1  0.52276975  0.41593035  0.68408723  1
  O  O451  1  0.52243971  0.41431138  0.93306780  1
  O  O452  1  0.52149204  0.75042484  0.18145780  1
  O  O453  1  0.52268142  0.75228164  0.43302624  1
  O  O454  1  0.52152120  0.75025314  0.68157155  1
  O  O455  1  0.52209534  0.75183452  0.93268078  1
  O  O456  1  0.47788293  0.25136110  0.06663893  1
  O  O457  1  0.47804255  0.24772307  0.31736894  1
  O  O458  1  0.47749043  0.25025138  0.56568602  1
  O  O459  1  0.47855003  0.25126328  0.81674172  1
  O  O460  1  0.47850447  0.58306650  0.06800692  1
  O  O461  1  0.47830281  0.58307616  0.31883685  1
  O  O462  1  0.47880236  0.58292557  0.56838643  1
  O  O463  1  0.47798692  0.58151223  0.81675060  1
  O  O464  1  0.47828947  0.91538173  0.06678565  1
  O  O465  1  0.47863018  0.91930906  0.31675888  1
  O  O466  1  0.47841838  0.91569756  0.56648077  1
  O  O467  1  0.47834840  0.91903649  0.81660622  1
  O  O468  1  0.97682939  0.25047252  0.06613339  1
  O  O469  1  0.97834814  0.25028193  0.31797993  1
  O  O470  1  0.97757499  0.25195895  0.56698200  1
  O  O471  1  0.97658853  0.25021987  0.81607392  1
  O  O472  1  0.97754601  0.58155615  0.06746486  1
  O  O473  1  0.97777309  0.58122602  0.31711112  1
  O  O474  1  0.97767222  0.58065556  0.56711053  1
  O  O475  1  0.97760827  0.58429092  0.81729245  1
  O  O476  1  0.97732805  0.91920149  0.06674780  1
  O  O477  1  0.97727182  0.91736021  0.31544612  1
  O  O478  1  0.97871491  0.91638787  0.56838522  1
  O  O479  1  0.97867562  0.91720686  0.81810169  1
  O  O480  1  0.07190936  0.31415240  0.07286200  1
  O  O481  1  0.07379615  0.31379662  0.32491203  1
  O  O482  1  0.07284171  0.31464041  0.57516081  1
  O  O483  1  0.07134822  0.31417564  0.82440123  1
  O  O484  1  0.07253675  0.64601109  0.07572170  1
  O  O485  1  0.07308478  0.64472734  0.32532871  1
  O  O486  1  0.07278013  0.64485369  0.57433236  1
  O  O487  1  0.07276353  0.64730155  0.82482721  1
  O  O488  1  0.07277606  0.98170002  0.07441994  1
  O  O489  1  0.07253433  0.98068985  0.32261937  1
  O  O490  1  0.07408891  0.98011307  0.57487221  1
  O  O491  1  0.07392879  0.98106879  0.82516719  1
  O  O492  1  0.57303913  0.31425368  0.07474309  1
  O  O493  1  0.57302180  0.31215618  0.32491124  1
  O  O494  1  0.57282319  0.31358936  0.57304252  1
  O  O495  1  0.57382706  0.31469430  0.82331799  1
  O  O496  1  0.57386169  0.64651734  0.07500861  1
  O  O497  1  0.57378271  0.64653139  0.32550894  1
  O  O498  1  0.57442089  0.64597456  0.57610778  1
  O  O499  1  0.57308717  0.64577225  0.82451826  1
  O  O500  1  0.57367539  0.97944347  0.07399189  1
  O  O501  1  0.57386338  0.98200103  0.32405998  1
  O  O502  1  0.57385034  0.97956180  0.57379621  1
  O  O503  1  0.57352082  0.98193508  0.82365181  1
  O  O504  1  0.42870065  0.01954510  0.17634146  1
  O  O505  1  0.42709784  0.02133328  0.42434596  1
  O  O506  1  0.42758233  0.01873870  0.67478560  1
  O  O507  1  0.42602614  0.02034345  0.92480496  1
  O  O508  1  0.42534171  0.35241481  0.17500414  1
  O  O509  1  0.42647156  0.35121008  0.42651007  1
  O  O510  1  0.42754724  0.35220000  0.67701853  1
  O  O511  1  0.42735061  0.35131560  0.92511934  1
  O  O512  1  0.42605492  0.68711317  0.17442837  1
  O  O513  1  0.42744126  0.68825588  0.42553316  1
  O  O514  1  0.42617485  0.68692859  0.67420865  1
  O  O515  1  0.42668636  0.68792487  0.92486994  1
  O  O516  1  0.92688169  0.01952788  0.17556086  1
  O  O517  1  0.92615006  0.01949269  0.42516655  1
  O  O518  1  0.92727538  0.02123351  0.67568734  1
  O  O519  1  0.92745611  0.02041428  0.92606631  1
  O  O520  1  0.92699594  0.35408457  0.17542840  1
  O  O521  1  0.92786511  0.35248693  0.42635174  1
  O  O522  1  0.92634310  0.35175322  0.67641279  1
  O  O523  1  0.92704852  0.35322411  0.92781804  1
  O  O524  1  0.92600805  0.68776708  0.17589523  1
  O  O525  1  0.92618426  0.68634844  0.42325102  1
  O  O526  1  0.92693190  0.68436607  0.67579919  1
  O  O527  1  0.92546785  0.68672671  0.92567107  1
  O  O528  1  0.17851948  0.01992698  0.19717002  1
  O  O529  1  0.17642990  0.02136399  0.44931898  1
  O  O530  1  0.17668693  0.02153174  0.69974051  1
  O  O531  1  0.17806241  0.01935035  0.94849880  1
  O  O532  1  0.17530894  0.35302691  0.20023749  1
  O  O533  1  0.17621638  0.35281634  0.45100176  1
  O  O534  1  0.17653055  0.35271118  0.70166797  1
  O  O535  1  0.17831323  0.35199453  0.94837080  1
  O  O536  1  0.17647872  0.68751618  0.19918747  1
  O  O537  1  0.17669787  0.68526095  0.44854655  1
  O  O538  1  0.17682008  0.68507199  0.69943257  1
  O  O539  1  0.17559105  0.68716968  0.95101797  1
  O  O540  1  0.67795215  0.01963768  0.19917933  1
  O  O541  1  0.67718323  0.02078790  0.44992919  1
  O  O542  1  0.67865025  0.02019829  0.69690237  1
  O  O543  1  0.67643963  0.02041644  0.95013251  1
  O  O544  1  0.67743835  0.35306481  0.20002605  1
  O  O545  1  0.67882420  0.35228884  0.44819513  1
  O  O546  1  0.67697068  0.35494304  0.69948047  1
  O  O547  1  0.67692883  0.35333605  0.95065211  1
  O  O548  1  0.67678384  0.68471094  0.20041432  1
  O  O549  1  0.67878313  0.68583072  0.44880949  1
  O  O550  1  0.67690353  0.68775548  0.69898576  1
  O  O551  1  0.67678944  0.68537656  0.94882181  1
  O  O552  1  0.32245175  0.31201784  0.04960399  1
  O  O553  1  0.32310450  0.31176194  0.30001009  1
  O  O554  1  0.32297881  0.31198355  0.55059108  1
  O  O555  1  0.32128648  0.31330261  0.80200396  1
  O  O556  1  0.32403175  0.64615335  0.04874027  1
  O  O557  1  0.32323494  0.64844224  0.30072916  1
  O  O558  1  0.32328428  0.64807658  0.55149328  1
  O  O559  1  0.32341593  0.64578296  0.80092140  1
  O  O560  1  0.32169657  0.98096112  0.05174066  1
  O  O561  1  0.32319035  0.98084420  0.29862541  1
  O  O562  1  0.32387581  0.98068523  0.54905831  1
  O  O563  1  0.32314721  0.98173733  0.80072133  1
  O  O564  1  0.82266778  0.31376971  0.05254015  1
  O  O565  1  0.82166832  0.31353766  0.30173341  1
  O  O566  1  0.82311851  0.31259491  0.54948584  1
  O  O567  1  0.82365351  0.31391859  0.79969825  1
  O  O568  1  0.82250961  0.64700475  0.05297560  1
  O  O569  1  0.82153374  0.64651743  0.30227219  1
  O  O570  1  0.82376537  0.64513412  0.54933038  1
  O  O571  1  0.82254928  0.64867436  0.80121427  1
  O  O572  1  0.82283482  0.98117657  0.05138400  1
  O  O573  1  0.82289559  0.97893214  0.30016673  1
  O  O574  1  0.82170545  0.98027401  0.55091006  1
  O  O575  1  0.82365419  0.98080701  0.79904294  1
  O  O576  1  0.42854051  0.14709621  0.17611471  1
  O  O577  1  0.42759475  0.14804486  0.42576875  1
  O  O578  1  0.42718753  0.14591325  0.67496376  1
  O  O579  1  0.42632008  0.14704791  0.92399153  1
  O  O580  1  0.42588184  0.47922521  0.17491857  1
  O  O581  1  0.42660339  0.47844509  0.42612377  1
  O  O582  1  0.42787212  0.47960383  0.67646319  1
  O  O583  1  0.42724331  0.47828433  0.92467323  1
  O  O584  1  0.42600919  0.81394119  0.17478136  1
  O  O585  1  0.42756033  0.81568133  0.42553992  1
  O  O586  1  0.42586171  0.81372260  0.67460697  1
  O  O587  1  0.42719816  0.81537537  0.92560337  1
  O  O588  1  0.92705482  0.14643186  0.17471998  1
  O  O589  1  0.92577401  0.14635264  0.42410641  1
  O  O590  1  0.92671703  0.14844714  0.67616751  1
  O  O591  1  0.92754543  0.14775661  0.92742409  1
  O  O592  1  0.92625482  0.48097056  0.17633447  1
  O  O593  1  0.92748131  0.47984913  0.42743809  1
  O  O594  1  0.92625745  0.47857730  0.67582591  1
  O  O595  1  0.92713328  0.48063525  0.92662924  1
  O  O596  1  0.92696651  0.81510720  0.17629076  1
  O  O597  1  0.92663570  0.81323365  0.42473130  1
  O  O598  1  0.92735056  0.81177388  0.67528088  1
  O  O599  1  0.92563462  0.81353766  0.92403467  1
  O  O600  1  0.07181332  0.18674796  0.07258559  1
  O  O601  1  0.07365535  0.18699993  0.32508898  1
  O  O602  1  0.07252231  0.18774734  0.57537781  1
  O  O603  1  0.07168831  0.18693049  0.82442208  1
  O  O604  1  0.07314951  0.51893175  0.07390012  1
  O  O605  1  0.07289599  0.51764255  0.32431788  1
  O  O606  1  0.07289283  0.51776516  0.57551709  1
  O  O607  1  0.07275009  0.52019700  0.82526434  1
  O  O608  1  0.07218416  0.85469816  0.07490336  1
  O  O609  1  0.07195786  0.85311984  0.32238249  1
  O  O610  1  0.07417956  0.85299284  0.57489057  1
  O  O611  1  0.07416431  0.85412409  0.82611642  1
  O  O612  1  0.57302204  0.18711141  0.07408741  1
  O  O613  1  0.57357093  0.18540240  0.32385032  1
  O  O614  1  0.57209590  0.18615291  0.57347973  1
  O  O615  1  0.57394479  0.18778961  0.82424682  1
  O  O616  1  0.57388434  0.51956823  0.07543042  1
  O  O617  1  0.57353088  0.51929307  0.32542316  1
  O  O618  1  0.57411539  0.51914828  0.57536471  1
  O  O619  1  0.57321461  0.51840673  0.82401382  1
  O  O620  1  0.57330369  0.85227518  0.07395048  1
  O  O621  1  0.57376292  0.85492313  0.32393948  1
  O  O622  1  0.57337696  0.85251225  0.57388084  1
  O  O623  1  0.57371754  0.85479914  0.82376124  1
  O  O624  1  0.32306251  0.18513885  0.04986528  1
  O  O625  1  0.32297176  0.18469431  0.30046700  1
  O  O626  1  0.32315098  0.18495486  0.55153865  1
  O  O627  1  0.32276838  0.18606584  0.80172318  1
  O  O628  1  0.32393657  0.51919493  0.05007249  1
  O  O629  1  0.32339087  0.52113346  0.30064771  1
  O  O630  1  0.32321077  0.52097868  0.55025846  1
  O  O631  1  0.32306301  0.51861002  0.80073807  1
  O  O632  1  0.32213885  0.85360365  0.05107883  1
  O  O633  1  0.32375933  0.85415954  0.29892609  1
  O  O634  1  0.32381920  0.85364748  0.54936495  1
  O  O635  1  0.32300504  0.85450877  0.80027785  1
  O  O636  1  0.82144374  0.18642100  0.05297719  1
  O  O637  1  0.82247283  0.18626210  0.30055236  1
  O  O638  1  0.82332672  0.18567751  0.55022136  1
  O  O639  1  0.82371229  0.18705942  0.80030813  1
  O  O640  1  0.82150815  0.51971118  0.05302361  1
  O  O641  1  0.82271937  0.51931332  0.30140182  1
  O  O642  1  0.82279654  0.51810184  0.55080092  1
  O  O643  1  0.82340719  0.52157592  0.80122312  1
  O  O644  1  0.82339529  0.85394527  0.05031081  1
  O  O645  1  0.82259653  0.85187810  0.30018627  1
  O  O646  1  0.82289202  0.85284146  0.55121284  1
  O  O647  1  0.82416295  0.85411877  0.79927690  1
  O  O648  1  0.17705523  0.14713141  0.19714823  1
  O  O649  1  0.17638805  0.14840464  0.44838877  1
  O  O650  1  0.17689547  0.14843813  0.70007252  1
  O  O651  1  0.17732586  0.14651550  0.94866613  1
  O  O652  1  0.17621746  0.48002178  0.20027789  1
  O  O653  1  0.17615339  0.47984293  0.45090044  1
  O  O654  1  0.17626343  0.47939862  0.70138084  1
  O  O655  1  0.17756981  0.47955621  0.94834284  1
  O  O656  1  0.17631623  0.81465554  0.19936294  1
  O  O657  1  0.17674982  0.81231623  0.44983144  1
  O  O658  1  0.17650301  0.81246464  0.69973216  1
  O  O659  1  0.17549594  0.81407161  0.94996942  1
  O  O660  1  0.67867018  0.14706752  0.19843547  1
  O  O661  1  0.67738834  0.14774604  0.44897201  1
  O  O662  1  0.67767442  0.14766294  0.69744930  1
  O  O663  1  0.67654083  0.14706257  0.95083418  1
  O  O664  1  0.67863430  0.48028137  0.19925757  1
  O  O665  1  0.67733679  0.47955887  0.44828470  1
  O  O666  1  0.67770471  0.48214279  0.69876546  1
  O  O667  1  0.67649928  0.48000411  0.95165794  1
  O  O668  1  0.67642716  0.81162976  0.20021186  1
  O  O669  1  0.67757889  0.81333770  0.44807565  1
  O  O670  1  0.67707672  0.81477405  0.69896956  1
  O  O671  1  0.67703594  0.81254065  0.94990524  1
