# generated using pymatgen
data_Na2MnFe(PO4)2
_symmetry_space_group_name_H-M   'P 1'
_cell_length_a   22.34237082
_cell_length_b   20.09487412
_cell_length_c   19.45139776
_cell_angle_alpha   89.98987022
_cell_angle_beta   89.99284799
_cell_angle_gamma   89.98754712
_symmetry_Int_Tables_number   1
_chemical_formula_structural   Na2MnFe(PO4)2
_chemical_formula_sum   'Na96 Mn48 Fe48 P96 O384'
_cell_volume   8733.03780106
_cell_formula_units_Z   48
loop_
 _symmetry_equiv_pos_site_id
 _symmetry_equiv_pos_as_xyz
  1  'x, y, z'
loop_
 _atom_site_type_symbol
 _atom_site_label
 _atom_site_symmetry_multiplicity
 _atom_site_fract_x
 _atom_site_fract_y
 _atom_site_fract_z
 _atom_site_occupancy
  Na  Na0  1  0.14026657  0.24964150  0.24153780  1
  Na  Na1  1  0.14032059  0.25096184  0.49327444  1
  Na  Na2  1  0.14046687  0.25141444  0.74259860  1
  Na  Na3  1  0.14023008  0.24981339  0.99256481  1
  Na  Na4  1  0.14127940  0.58427282  0.24270088  1
  Na  Na5  1  0.14057530  0.58405146  0.49318184  1
  Na  Na6  1  0.14071468  0.58266407  0.74382052  1
  Na  Na7  1  0.14095686  0.58385389  0.99422384  1
  Na  Na8  1  0.14043022  0.91645441  0.24217369  1
  Na  Na9  1  0.14041668  0.91796976  0.49224880  1
  Na  Na10  1  0.14043770  0.91769294  0.74353293  1
  Na  Na11  1  0.14042223  0.91687853  0.99419756  1
  Na  Na12  1  0.63994545  0.25081882  0.24282296  1
  Na  Na13  1  0.64006934  0.24932138  0.49390382  1
  Na  Na14  1  0.64034951  0.24924376  0.74408859  1
  Na  Na15  1  0.64036772  0.24935854  0.99399574  1
  Na  Na16  1  0.64059356  0.58247996  0.24433851  1
  Na  Na17  1  0.63980602  0.58286542  0.49446544  1
  Na  Na18  1  0.64015759  0.58217197  0.74470266  1
  Na  Na19  1  0.64043012  0.58281237  0.99543872  1
  Na  Na20  1  0.64010549  0.91647481  0.24341673  1
  Na  Na21  1  0.63994362  0.91614629  0.49407313  1
  Na  Na22  1  0.63977322  0.91651277  0.74535356  1
  Na  Na23  1  0.63985382  0.91653333  0.99398972  1
  Na  Na24  1  0.35916434  0.08213768  0.00671513  1
  Na  Na25  1  0.35925120  0.08242859  0.25501970  1
  Na  Na26  1  0.35840424  0.08468931  0.50597538  1
  Na  Na27  1  0.35873614  0.08341639  0.75621093  1
  Na  Na28  1  0.35933105  0.41639773  0.00609845  1
  Na  Na29  1  0.35948894  0.41699447  0.25759566  1
  Na  Na30  1  0.35956815  0.41633683  0.50804177  1
  Na  Na31  1  0.35972409  0.41660010  0.75609281  1
  Na  Na32  1  0.35885921  0.75069841  0.00791056  1
  Na  Na33  1  0.35984160  0.75087882  0.25705678  1
  Na  Na34  1  0.35979375  0.75039506  0.50701543  1
  Na  Na35  1  0.35887562  0.75027331  0.75681624  1
  Na  Na36  1  0.86013171  0.08409524  0.00628721  1
  Na  Na37  1  0.86020057  0.08386968  0.25555988  1
  Na  Na38  1  0.86000090  0.08244796  0.50432491  1
  Na  Na39  1  0.85967923  0.08290505  0.75514139  1
  Na  Na40  1  0.85983005  0.41657037  0.00751139  1
  Na  Na41  1  0.86069911  0.41622027  0.25497600  1
  Na  Na42  1  0.86058398  0.41580194  0.50530924  1
  Na  Na43  1  0.86024018  0.41593563  0.75638485  1
  Na  Na44  1  0.85986005  0.74918420  0.00674755  1
  Na  Na45  1  0.85989456  0.75020223  0.25632402  1
  Na  Na46  1  0.86008270  0.75065046  0.50659200  1
  Na  Na47  1  0.85971526  0.75051106  0.75666271  1
  Na  Na48  1  0.11000195  0.08419114  0.11777002  1
  Na  Na49  1  0.10968855  0.08346802  0.36684958  1
  Na  Na50  1  0.11037035  0.08473147  0.61738706  1
  Na  Na51  1  0.10978146  0.08409235  0.86787561  1
  Na  Na52  1  0.11030605  0.41723396  0.11758008  1
  Na  Na53  1  0.10978791  0.41578062  0.36790882  1
  Na  Na54  1  0.11010574  0.41749063  0.61820426  1
  Na  Na55  1  0.11064438  0.41661673  0.86825750  1
  Na  Na56  1  0.11050709  0.75085723  0.11876906  1
  Na  Na57  1  0.11050192  0.74972938  0.36728455  1
  Na  Na58  1  0.10942502  0.75189425  0.61825699  1
  Na  Na59  1  0.10980295  0.75020598  0.86966898  1
  Na  Na60  1  0.60933577  0.08274951  0.11782296  1
  Na  Na61  1  0.60900121  0.08280716  0.36862108  1
  Na  Na62  1  0.60926521  0.08249497  0.61850393  1
  Na  Na63  1  0.60940342  0.08308808  0.86956476  1
  Na  Na64  1  0.60983209  0.41547162  0.11883630  1
  Na  Na65  1  0.60916669  0.41659567  0.36980910  1
  Na  Na66  1  0.60931695  0.41714052  0.61964652  1
  Na  Na67  1  0.60989937  0.41668200  0.86959742  1
  Na  Na68  1  0.60952284  0.75067823  0.11919546  1
  Na  Na69  1  0.60943329  0.74927685  0.36988392  1
  Na  Na70  1  0.60870247  0.74867905  0.61943489  1
  Na  Na71  1  0.60891054  0.74975630  0.87040975  1
  Na  Na72  1  0.38996918  0.24877662  0.13088310  1
  Na  Na73  1  0.38978466  0.25064577  0.38144500  1
  Na  Na74  1  0.38981655  0.25111174  0.63153928  1
  Na  Na75  1  0.38994856  0.25021331  0.88078958  1
  Na  Na76  1  0.38952629  0.58344770  0.13311063  1
  Na  Na77  1  0.39044674  0.58351180  0.38287344  1
  Na  Na78  1  0.39008302  0.58200408  0.63149159  1
  Na  Na79  1  0.38984595  0.58268854  0.88193354  1
  Na  Na80  1  0.38965653  0.91643527  0.13125369  1
  Na  Na81  1  0.38970901  0.91516559  0.38135147  1
  Na  Na82  1  0.38949120  0.91624481  0.63141337  1
  Na  Na83  1  0.38922321  0.91750215  0.88327095  1
  Na  Na84  1  0.89098900  0.25036812  0.13170764  1
  Na  Na85  1  0.89095195  0.24902879  0.37905063  1
  Na  Na86  1  0.89072400  0.25043440  0.62987829  1
  Na  Na87  1  0.89104521  0.25063763  0.88158696  1
  Na  Na88  1  0.89066924  0.58352586  0.13178681  1
  Na  Na89  1  0.89126011  0.58191010  0.38014616  1
  Na  Na90  1  0.89123423  0.58412956  0.63152761  1
  Na  Na91  1  0.89072079  0.58206645  0.88227505  1
  Na  Na92  1  0.89097716  0.91766619  0.13179785  1
  Na  Na93  1  0.89074647  0.91615298  0.38085403  1
  Na  Na94  1  0.89038913  0.91799751  0.63069215  1
  Na  Na95  1  0.89046805  0.91665649  0.88112299  1
  Mn  Mn96  1  0.49916962  0.33229305  -0.00040004  1
  Mn  Mn97  1  0.49891980  0.83286129  0.75067585  1
  Mn  Mn98  1  0.74993397  0.33257233  0.62517494  1
  Mn  Mn99  1  0.75058486  0.00055312  0.12474753  1
  Mn  Mn100  1  0.25005243  0.66671322  0.87582602  1
  Mn  Mn101  1  0.74988210  0.16586252  0.37425043  1
  Mn  Mn102  1  0.74945667  0.83431738  0.62595020  1
  Mn  Mn103  1  0.00075947  0.00114559  0.00007791  1
  Mn  Mn104  1  0.75092735  0.83293629  0.12494633  1
  Mn  Mn105  1  0.24964835  0.16633704  0.87426388  1
  Mn  Mn106  1  0.75059953  0.33335682  0.87547294  1
  Mn  Mn107  1  0.49988075  0.49887420  0.25158420  1
  Mn  Mn108  1  0.74949557  0.83360304  0.87586562  1
  Mn  Mn109  1  0.75033333  0.66625084  0.62587853  1
  Mn  Mn110  1  0.00021903  0.49961672  0.49983333  1
  Mn  Mn111  1  0.49936419  0.16749630  0.49969627  1
  Mn  Mn112  1  0.75038353  0.49944861  0.62534379  1
  Mn  Mn113  1  0.24972229  0.50115035  0.37509033  1
  Mn  Mn114  1  0.50014409  0.66707265  0.25159936  1
  Mn  Mn115  1  0.49933991  0.49936433  0.00103605  1
  Mn  Mn116  1  0.49922775  -0.00010099  0.75048422  1
  Mn  Mn117  1  0.00062540  0.49961506  0.75018191  1
  Mn  Mn118  1  0.24956524  0.00079327  0.37436009  1
  Mn  Mn119  1  0.49959802  0.16693955  0.24982016  1
  Mn  Mn120  1  0.00050569  0.16696800  0.49857727  1
  Mn  Mn121  1  0.75090993  0.66654799  0.37505334  1
  Mn  Mn122  1  0.49967755  0.66692043  0.00110223  1
  Mn  Mn123  1  0.75018480  0.16486851  0.62404242  1
  Mn  Mn124  1  0.24973330  0.33294785  0.37495266  1
  Mn  Mn125  1  0.75057327  0.16551130  0.87440494  1
  Mn  Mn126  1  0.49882486  -0.00118044  0.49925041  1
  Mn  Mn127  1  0.00032125  0.83316553  0.00051799  1
  Mn  Mn128  1  0.00008017  0.16837589  0.74856505  1
  Mn  Mn129  1  0.49916508  0.16728995  0.74955259  1
  Mn  Mn130  1  0.74970501  0.66551042  0.87610310  1
  Mn  Mn131  1  0.24905526  0.66637299  0.62584442  1
  Mn  Mn132  1  0.75049547  0.49952527  0.37448453  1
  Mn  Mn133  1  0.74946279  0.83413513  0.37549336  1
  Mn  Mn134  1  0.24927091  0.83433328  0.62526384  1
  Mn  Mn135  1  -0.00005419  0.00048214  0.74956210  1
  Mn  Mn136  1  0.00047346  0.83383540  0.49906587  1
  Mn  Mn137  1  0.49870330  0.66548620  0.75013191  1
  Mn  Mn138  1  0.00066424  0.66779213  0.75019497  1
  Mn  Mn139  1  0.25035648  0.33305813  0.12457619  1
  Mn  Mn140  1  0.00058317  0.66658357  0.25012859  1
  Mn  Mn141  1  0.75002723  0.33294964  0.37401659  1
  Mn  Mn142  1  0.49950458  -0.00113412  0.24924876  1
  Mn  Mn143  1  0.00077355  0.49992035  -0.00009370  1
  Fe  Fe144  1  0.00025292  0.33388490  0.74981952  1
  Fe  Fe145  1  0.50043961  0.33367918  0.75050876  1
  Fe  Fe146  1  0.00095166  0.33319015  0.24898561  1
  Fe  Fe147  1  0.25010420  0.49989178  0.62490260  1
  Fe  Fe148  1  0.49893315  0.83353445  0.00020965  1
  Fe  Fe149  1  0.24996900  0.33363660  0.87401855  1
  Fe  Fe150  1  0.00079029  0.16691230  0.24919027  1
  Fe  Fe151  1  0.00019374  0.33337324  0.49853881  1
  Fe  Fe152  1  0.00048263  0.33354594  0.00001730  1
  Fe  Fe153  1  0.74951085  0.16654586  0.12514325  1
  Fe  Fe154  1  0.49953461  0.49932800  0.50083028  1
  Fe  Fe155  1  0.25011315  0.83337730  0.12526377  1
  Fe  Fe156  1  0.00117661  0.49965133  0.24981614  1
  Fe  Fe157  1  0.24938200  -0.00002194  0.87541882  1
  Fe  Fe158  1  -0.00020569  0.83394027  0.74971894  1
  Fe  Fe159  1  0.74980115  0.66609057  0.12534242  1
  Fe  Fe160  1  0.49997878  0.16654985  0.00017690  1
  Fe  Fe161  1  0.75031497  0.49968687  0.87607212  1
  Fe  Fe162  1  0.25049228  0.66719066  0.12508017  1
  Fe  Fe163  1  0.00021273  0.00029749  0.24933614  1
  Fe  Fe164  1  0.24967983  0.16698928  0.37460055  1
  Fe  Fe165  1  0.24975817  0.83363024  0.37428369  1
  Fe  Fe166  1  0.00037384  0.66700547  0.49976782  1
  Fe  Fe167  1  0.74960323  0.00016326  0.37444197  1
  Fe  Fe168  1  0.24961341  -0.00037082  0.12486461  1
  Fe  Fe169  1  -0.00001871  0.66688246  0.00038249  1
  Fe  Fe170  1  0.24989101  0.00052280  0.62508531  1
  Fe  Fe171  1  0.24991655  0.16606649  0.12375331  1
  Fe  Fe172  1  0.50011774  0.83311785  0.25021389  1
  Fe  Fe173  1  0.75002455  -0.00001589  0.87533566  1
  Fe  Fe174  1  0.24965507  0.33369386  0.62475412  1
  Fe  Fe175  1  0.24946917  0.83406792  0.87598579  1
  Fe  Fe176  1  0.50013320  0.33379688  0.50092676  1
  Fe  Fe177  1  0.49948948  0.33335958  0.25097488  1
  Fe  Fe178  1  0.74948863  -0.00026099  0.62492648  1
  Fe  Fe179  1  0.49963760  -0.00008610  0.00028594  1
  Fe  Fe180  1  0.50009867  0.49967803  0.75013900  1
  Fe  Fe181  1  0.49954984  0.66613933  0.50095225  1
  Fe  Fe182  1  0.00037359  0.00017951  0.49877888  1
  Fe  Fe183  1  0.75019689  0.33337706  0.12425078  1
  Fe  Fe184  1  0.25080658  0.66738948  0.37469147  1
  Fe  Fe185  1  0.50000416  0.83264461  0.50058898  1
  Fe  Fe186  1  0.25020472  0.49990135  0.87496503  1
  Fe  Fe187  1  0.24973403  0.16737274  0.62515790  1
  Fe  Fe188  1  0.00003452  0.16765311  -0.00025122  1
  Fe  Fe189  1  0.25047708  0.50008821  0.12486422  1
  Fe  Fe190  1  -0.00003880  0.83316642  0.25008307  1
  Fe  Fe191  1  0.75059486  0.49982370  0.12511390  1
  P  P192  1  0.04179775  0.25047525  0.10169579  1
  P  P193  1  0.04212049  0.25021718  0.35067779  1
  P  P194  1  0.04231839  0.25221022  0.60149501  1
  P  P195  1  0.04255137  0.25179494  0.85255788  1
  P  P196  1  0.04237521  0.58454860  0.10275354  1
  P  P197  1  0.04319077  0.58176782  0.35238771  1
  P  P198  1  0.04264058  0.58504742  0.60213612  1
  P  P199  1  0.04313102  0.58359480  0.85353779  1
  P  P200  1  0.04263190  0.91735087  0.10397849  1
  P  P201  1  0.04178142  0.91683896  0.35097875  1
  P  P202  1  0.04238591  0.91847367  0.60177421  1
  P  P203  1  0.04222761  0.91582915  0.85223748  1
  P  P204  1  0.54207917  0.24883310  0.10278453  1
  P  P205  1  0.54203172  0.25154606  0.35302512  1
  P  P206  1  0.54204981  0.25167383  0.60302384  1
  P  P207  1  0.54207297  0.25051199  0.85280760  1
  P  P208  1  0.54228573  0.58307033  0.10427182  1
  P  P209  1  0.54245040  0.58278303  0.35511417  1
  P  P210  1  0.54095698  0.58221520  0.60240658  1
  P  P211  1  0.54180227  0.58194899  0.85298800  1
  P  P212  1  0.54110260  0.91615113  0.10176568  1
  P  P213  1  0.54183019  0.91468987  0.35268422  1
  P  P214  1  0.54164732  0.91515806  0.60260673  1
  P  P215  1  0.54149667  0.91664479  0.85464146  1
  P  P216  1  0.45740167  0.08298437  0.14574103  1
  P  P217  1  0.45643571  0.08332394  0.39653677  1
  P  P218  1  0.45649599  0.08325878  0.64671125  1
  P  P219  1  0.45790709  0.08369150  0.89882082  1
  P  P220  1  0.45716556  0.41482436  0.14840444  1
  P  P221  1  0.45779187  0.41612235  0.39911875  1
  P  P222  1  0.45874252  0.41658402  0.64825063  1
  P  P223  1  0.45717329  0.41652213  0.89630350  1
  P  P224  1  0.45782057  0.75142099  0.14800980  1
  P  P225  1  0.45854496  0.74988475  0.39908746  1
  P  P226  1  0.45645667  0.74925538  0.64652695  1
  P  P227  1  0.45648243  0.75064930  0.89839662  1
  P  P228  1  0.95924627  0.08423646  0.14767903  1
  P  P229  1  0.95863754  0.08184613  0.39568918  1
  P  P230  1  0.95774059  0.08393310  0.64559750  1
  P  P231  1  0.95824480  0.08528657  0.89740868  1
  P  P232  1  0.95978106  0.41649608  0.14766347  1
  P  P233  1  0.95855584  0.41517504  0.39582324  1
  P  P234  1  0.95814998  0.41567818  0.64691099  1
  P  P235  1  0.95831781  0.41513583  0.89756543  1
  P  P236  1  0.95809981  0.75103844  0.14756058  1
  P  P237  1  0.95837463  0.74868918  0.39700896  1
  P  P238  1  0.95774520  0.75197970  0.64716523  1
  P  P239  1  0.95773825  0.74906064  0.89762429  1
  P  P240  1  0.20857598  0.08355654  0.22596615  1
  P  P241  1  0.20737295  0.08563528  0.47744125  1
  P  P242  1  0.20825783  0.08364528  0.72659444  1
  P  P243  1  0.20759274  0.08207658  0.97771775  1
  P  P244  1  0.20824029  0.41795613  0.22686788  1
  P  P245  1  0.20764402  0.41691991  0.47855901  1
  P  P246  1  0.20888643  0.41702117  0.72696475  1
  P  P247  1  0.20914292  0.41686365  0.97650266  1
  P  P248  1  0.20918788  0.75033071  0.22716157  1
  P  P249  1  0.20894763  0.75052852  0.47620515  1
  P  P250  1  0.20688896  0.75073746  0.72890299  1
  P  P251  1  0.20819164  0.75160924  0.97865304  1
  P  P252  1  0.70719985  0.08414028  0.22742936  1
  P  P253  1  0.70707588  0.08130656  0.47729096  1
  P  P254  1  0.70723896  0.08124072  0.72768672  1
  P  P255  1  0.70783409  0.08243766  0.97784500  1
  P  P256  1  0.70886835  0.41651853  0.22602386  1
  P  P257  1  0.70736810  0.41612874  0.47795998  1
  P  P258  1  0.70745779  0.41632506  0.72919912  1
  P  P259  1  0.70830984  0.41772355  0.97888262  1
  P  P260  1  0.70797738  0.74891460  0.22754415  1
  P  P261  1  0.70722065  0.74994810  0.47859833  1
  P  P262  1  0.70670224  0.74985722  0.72894981  1
  P  P263  1  0.70706924  0.74911247  0.97936289  1
  P  P264  1  0.29189969  0.24859299  0.02156864  1
  P  P265  1  0.29178544  0.24832052  0.27178075  1
  P  P266  1  0.29113465  0.24997757  0.52325215  1
  P  P267  1  0.29142188  0.25120043  0.77147737  1
  P  P268  1  0.29148314  0.58327080  0.02351684  1
  P  P269  1  0.29271718  0.58536722  0.27218573  1
  P  P270  1  0.29188116  0.58295657  0.52267795  1
  P  P271  1  0.29190335  0.58191290  0.77269068  1
  P  P272  1  0.29086046  0.91647621  0.02310794  1
  P  P273  1  0.29150491  0.91569140  0.27179033  1
  P  P274  1  0.29154908  0.91849332  0.52225101  1
  P  P275  1  0.29102482  0.91724386  0.77380485  1
  P  P276  1  0.79157241  0.24934688  0.02353288  1
  P  P277  1  0.79247666  0.24961240  0.27016614  1
  P  P278  1  0.79299140  0.24908801  0.52124095  1
  P  P279  1  0.79337941  0.24942378  0.77188228  1
  P  P280  1  0.79199271  0.58277908  0.02365225  1
  P  P281  1  0.79329554  0.58303159  0.27062006  1
  P  P282  1  0.79358428  0.58311566  0.52204417  1
  P  P283  1  0.79282429  0.58164823  0.77346496  1
  P  P284  1  0.79337210  0.91703617  0.02158055  1
  P  P285  1  0.79248935  0.91805504  0.27251835  1
  P  P286  1  0.79204073  0.91833068  0.52221670  1
  P  P287  1  0.79213818  0.91818088  0.77269808  1
  O  O288  1  0.03674961  0.25043137  0.18158255  1
  O  O289  1  0.03715417  0.25014527  0.43059452  1
  O  O290  1  0.03712365  0.25240806  0.68141423  1
  O  O291  1  0.03719852  0.25125601  0.93244594  1
  O  O292  1  0.03727010  0.58369923  0.18267973  1
  O  O293  1  0.03787951  0.58209211  0.43227033  1
  O  O294  1  0.03755168  0.58490458  0.68209012  1
  O  O295  1  0.03783618  0.58378172  0.93347917  1
  O  O296  1  0.03707247  0.91742815  0.18383866  1
  O  O297  1  0.03681908  0.91713955  0.43097935  1
  O  O298  1  0.03709967  0.91776812  0.68166676  1
  O  O299  1  0.03728212  0.91604062  0.93218936  1
  O  O300  1  0.53696251  0.24945888  0.18267663  1
  O  O301  1  0.53688487  0.25176966  0.43299661  1
  O  O302  1  0.53678280  0.25163485  0.68295755  1
  O  O303  1  0.53666347  0.24935274  0.93273488  1
  O  O304  1  0.53740534  0.58307386  0.18425170  1
  O  O305  1  0.53693730  0.58254451  0.43498867  1
  O  O306  1  0.53594891  0.58188898  0.68239859  1
  O  O307  1  0.53678741  0.58244241  0.93296358  1
  O  O308  1  0.53632823  0.91572084  0.18176786  1
  O  O309  1  0.53655710  0.91471341  0.43260209  1
  O  O310  1  0.53645921  0.91571242  0.68257069  1
  O  O311  1  0.53604352  0.91683851  0.93456034  1
  O  O312  1  0.46296049  0.08303505  0.06584870  1
  O  O313  1  0.46172311  0.08327096  0.31658228  1
  O  O314  1  0.46149790  0.08324186  0.56676756  1
  O  O315  1  0.46267322  0.08366110  0.81878378  1
  O  O316  1  0.46190377  0.41514256  0.06842601  1
  O  O317  1  0.46281696  0.41559720  0.31912198  1
  O  O318  1  0.46400306  0.41652914  0.56832988  1
  O  O319  1  0.46269401  0.41678089  0.81644512  1
  O  O320  1  0.46278716  0.75152444  0.06806436  1
  O  O321  1  0.46338047  0.75004512  0.31913302  1
  O  O322  1  0.46197282  0.74938152  0.56666407  1
  O  O323  1  0.46119223  0.75004569  0.81839420  1
  O  O324  1  0.96394717  0.08504504  0.06771398  1
  O  O325  1  0.96427041  0.08192555  0.31582481  1
  O  O326  1  0.96301706  0.08335154  0.56567504  1
  O  O327  1  0.96323830  0.08520977  0.81746764  1
  O  O328  1  0.96471480  0.41637211  0.06768998  1
  O  O329  1  0.96441235  0.41572535  0.31598922  1
  O  O330  1  0.96323036  0.41594198  0.56693496  1
  O  O331  1  0.96332664  0.41515075  0.81761563  1
  O  O332  1  0.96315052  0.75030340  0.06764233  1
  O  O333  1  0.96350726  0.74931959  0.31709416  1
  O  O334  1  0.96288918  0.75142680  0.56722908  1
  O  O335  1  0.96288673  0.74995578  0.81770735  1
  O  O336  1  0.21306582  0.08247797  0.05754064  1
  O  O337  1  0.21317788  0.08377076  0.30590913  1
  O  O338  1  0.21257130  0.08565443  0.55725514  1
  O  O339  1  0.21333842  0.08295292  0.80654567  1
  O  O340  1  0.21406235  0.41671531  0.05642795  1
  O  O341  1  0.21318279  0.41766733  0.30678168  1
  O  O342  1  0.21295399  0.41688975  0.55845390  1
  O  O343  1  0.21378676  0.41662320  0.80687690  1
  O  O344  1  0.21396139  0.75160262  0.05848137  1
  O  O345  1  0.21413454  0.74988925  0.30707281  1
  O  O346  1  0.21319964  0.75075661  0.55623833  1
  O  O347  1  0.21227994  0.75089775  0.80880358  1
  O  O348  1  0.71303015  0.08360381  0.05775734  1
  O  O349  1  0.71229367  0.08325069  0.30737492  1
  O  O350  1  0.71217404  0.08110923  0.55726029  1
  O  O351  1  0.71250425  0.08137120  0.80763314  1
  O  O352  1  0.71387575  0.41750775  0.05876642  1
  O  O353  1  0.71351015  0.41621590  0.30599847  1
  O  O354  1  0.71216755  0.41599974  0.55795101  1
  O  O355  1  0.71270475  0.41694846  0.80918322  1
  O  O356  1  0.71255046  0.74860843  0.05929354  1
  O  O357  1  0.71307623  0.74941111  0.30751985  1
  O  O358  1  0.71205363  0.75012123  0.55858371  1
  O  O359  1  0.71169945  0.74975494  0.80895667  1
  O  O360  1  0.28664275  0.24836722  0.19182743  1
  O  O361  1  0.28651106  0.24997058  0.44325663  1
  O  O362  1  0.28613091  0.25101279  0.69162055  1
  O  O363  1  0.28667144  0.24912066  0.94169855  1
  O  O364  1  0.28788208  0.58512786  0.19231500  1
  O  O365  1  0.28685639  0.58390972  0.44275532  1
  O  O366  1  0.28638128  0.58194351  0.69281632  1
  O  O367  1  0.28656258  0.58311624  0.94358513  1
  O  O368  1  0.28635030  0.91543417  0.19194449  1
  O  O369  1  0.28637672  0.91801876  0.44236631  1
  O  O370  1  0.28584455  0.91763940  0.69384670  1
  O  O371  1  0.28576579  0.91677171  0.94322069  1
  O  O372  1  0.78710932  0.24965721  0.19027683  1
  O  O373  1  0.78782144  0.24906201  0.44126379  1
  O  O374  1  0.78838319  0.24935123  0.69193868  1
  O  O375  1  0.78717766  0.24947041  0.94352095  1
  O  O376  1  0.78776906  0.58327948  0.19070538  1
  O  O377  1  0.78869855  0.58312285  0.44201644  1
  O  O378  1  0.78791378  0.58219560  0.69346733  1
  O  O379  1  0.78690710  0.58214442  0.94367982  1
  O  O380  1  0.78778145  0.91766173  0.19253650  1
  O  O381  1  0.78682973  0.91827319  0.44224972  1
  O  O382  1  0.78666933  0.91828188  0.69274841  1
  O  O383  1  0.78805063  0.91729767  0.94165990  1
  O  O384  1  0.22773850  0.24862319  0.05758932  1
  O  O385  1  0.22748147  0.24843945  0.30747396  1
  O  O386  1  0.22696134  0.24963458  0.55908782  1
  O  O387  1  0.22738168  0.25101276  0.80768572  1
  O  O388  1  0.22742757  0.58282405  0.05963018  1
  O  O389  1  0.22836032  0.58566972  0.30778332  1
  O  O390  1  0.22759715  0.58181918  0.55840098  1
  O  O391  1  0.22778140  0.58200621  0.80880879  1
  O  O392  1  0.22690643  0.91596035  0.05952355  1
  O  O393  1  0.22736390  0.91594701  0.30785508  1
  O  O394  1  0.22730102  0.91890506  0.55809115  1
  O  O395  1  0.22687904  0.91700590  0.81001748  1
  O  O396  1  0.72723853  0.24900558  0.05891251  1
  O  O397  1  0.72821346  0.24938967  0.30581888  1
  O  O398  1  0.72858554  0.24889456  0.55642025  1
  O  O399  1  0.72894861  0.24955094  0.80692724  1
  O  O400  1  0.72780117  0.58252640  0.05961474  1
  O  O401  1  0.72904932  0.58313769  0.30634861  1
  O  O402  1  0.72900276  0.58298529  0.55681214  1
  O  O403  1  0.72832754  0.58105414  0.80864341  1
  O  O404  1  0.72900676  0.91674947  0.05679041  1
  O  O405  1  0.72797611  0.91837734  0.30760104  1
  O  O406  1  0.72771584  0.91835906  0.55794146  1
  O  O407  1  0.72788977  0.91842369  0.80862822  1
  O  O408  1  0.27271567  0.08388320  0.19007255  1
  O  O409  1  0.27157244  0.08537714  0.44131624  1
  O  O410  1  0.27234704  0.08405684  0.69042146  1
  O  O411  1  0.27170758  0.08176781  0.94151829  1
  O  O412  1  0.27259476  0.41793667  0.19144686  1
  O  O413  1  0.27181356  0.41695320  0.44274526  1
  O  O414  1  0.27291402  0.41756678  0.69062543  1
  O  O415  1  0.27317813  0.41727948  0.94034524  1
  O  O416  1  0.27320434  0.75078716  0.19089004  1
  O  O417  1  0.27325792  0.75077324  0.44083156  1
  O  O418  1  0.27111362  0.75051654  0.69328962  1
  O  O419  1  0.27212796  0.75193188  0.94207264  1
  O  O420  1  0.77165057  0.08509850  0.19208539  1
  O  O421  1  0.77145439  0.08128124  0.44171101  1
  O  O422  1  0.77161125  0.08097768  0.69205855  1
  O  O423  1  0.77217856  0.08148391  0.94222803  1
  O  O424  1  0.77315290  0.41698106  0.19052001  1
  O  O425  1  0.77190176  0.41601464  0.44314043  1
  O  O426  1  0.77184487  0.41596730  0.69392321  1
  O  O427  1  0.77244729  0.41814634  0.94262014  1
  O  O428  1  0.77233707  0.74842176  0.19215642  1
  O  O429  1  0.77171269  0.75050833  0.44364493  1
  O  O430  1  0.77120310  0.75031719  0.69403601  1
  O  O431  1  0.77132710  0.74945567  0.94388255  1
  O  O432  1  0.02341876  0.08330951  0.18345423  1
  O  O433  1  0.02266006  0.08201555  0.43211366  1
  O  O434  1  0.02199455  0.08417494  0.68114562  1
  O  O435  1  0.02258026  0.08575891  0.93289652  1
  O  O436  1  0.02393425  0.41630682  0.18358829  1
  O  O437  1  0.02254304  0.41517894  0.43237242  1
  O  O438  1  0.02247819  0.41535784  0.68262308  1
  O  O439  1  0.02269869  0.41524753  0.93300771  1
  O  O440  1  0.02239933  0.75154076  0.18316969  1
  O  O441  1  0.02268425  0.74874503  0.43266821  1
  O  O442  1  0.02211861  0.75252151  0.68270804  1
  O  O443  1  0.02205314  0.74845097  0.93331138  1
  O  O444  1  0.52149377  0.08299554  0.18175041  1
  O  O445  1  0.52078709  0.08312550  0.43170661  1
  O  O446  1  0.52091816  0.08333735  0.68174980  1
  O  O447  1  0.52215226  0.08353306  0.93455944  1
  O  O448  1  0.52166140  0.41463789  0.18353965  1
  O  O449  1  0.52204784  0.41646569  0.43491508  1
  O  O450  1  0.52269985  0.41667564  0.68489454  1
  O  O451  1  0.52133930  0.41627426  0.93216835  1
  O  O452  1  0.52212979  0.75131900  0.18365369  1
  O  O453  1  0.52264581  0.75011957  0.43512357  1
  O  O454  1  0.52061706  0.74916700  0.68241709  1
  O  O455  1  0.52095391  0.75113093  0.93349591  1
  O  O456  1  0.47775271  0.24793208  0.06714396  1
  O  O457  1  0.47767297  0.25147363  0.31745791  1
  O  O458  1  0.47774745  0.25184219  0.56730772  1
  O  O459  1  0.47786944  0.25161348  0.81691371  1
  O  O460  1  0.47778308  0.58318820  0.06941132  1
  O  O461  1  0.47825775  0.58291769  0.31928758  1
  O  O462  1  0.47687850  0.58211449  0.56632510  1
  O  O463  1  0.47741598  0.58121763  0.81759005  1
  O  O464  1  0.47688157  0.91659326  0.06594373  1
  O  O465  1  0.47752528  0.91455021  0.31697959  1
  O  O466  1  0.47729454  0.91446925  0.56709994  1
  O  O467  1  0.47723682  0.91657685  0.81895400  1
  O  O468  1  0.97768247  0.25066472  0.06542094  1
  O  O469  1  0.97799970  0.25074924  0.31470020  1
  O  O470  1  0.97816329  0.25174694  0.56550673  1
  O  O471  1  0.97832342  0.25233652  0.81653067  1
  O  O472  1  0.97816926  0.58451958  0.06691951  1
  O  O473  1  0.97896708  0.58151254  0.31658213  1
  O  O474  1  0.97836598  0.58500465  0.56649165  1
  O  O475  1  0.97887846  0.58355538  0.81808759  1
  O  O476  1  0.97854828  0.91742087  0.06801461  1
  O  O477  1  0.97758402  0.91682160  0.31509199  1
  O  O478  1  0.97818252  0.91849238  0.56585959  1
  O  O479  1  0.97789498  0.91581921  0.81671199  1
  O  O480  1  0.07304622  0.31394558  0.07340740  1
  O  O481  1  0.07381170  0.31327089  0.32239386  1
  O  O482  1  0.07299929  0.31560140  0.57266012  1
  O  O483  1  0.07367168  0.31510123  0.82390307  1
  O  O484  1  0.07265323  0.64853854  0.07465004  1
  O  O485  1  0.07435443  0.64532691  0.32443424  1
  O  O486  1  0.07314145  0.64878684  0.57367659  1
  O  O487  1  0.07465367  0.64669731  0.82527559  1
  O  O488  1  0.07387454  0.98065712  0.07539131  1
  O  O489  1  0.07304851  0.98009590  0.32255469  1
  O  O490  1  0.07291417  0.98217720  0.57332216  1
  O  O491  1  0.07323122  0.97958490  0.82460345  1
  O  O492  1  0.57279785  0.31248507  0.07448446  1
  O  O493  1  0.57273988  0.31493943  0.32404042  1
  O  O494  1  0.57317897  0.31492356  0.57448556  1
  O  O495  1  0.57323171  0.31413139  0.82512694  1
  O  O496  1  0.57326067  0.64654076  0.07606199  1
  O  O497  1  0.57374510  0.64614433  0.32681637  1
  O  O498  1  0.57126790  0.64637784  0.57440384  1
  O  O499  1  0.57230140  0.64587571  0.82497706  1
  O  O500  1  0.57207711  0.97991379  0.07384300  1
  O  O501  1  0.57262359  0.97848734  0.32464464  1
  O  O502  1  0.57227705  0.97886753  0.57434867  1
  O  O503  1  0.57262278  0.98004246  0.82611841  1
  O  O504  1  0.42624896  0.01943784  0.17386494  1
  O  O505  1  0.42517008  0.01987086  0.42439341  1
  O  O506  1  0.42555279  0.01981353  0.67507627  1
  O  O507  1  0.42708112  0.02001722  0.92702946  1
  O  O508  1  0.42652776  0.35119286  0.17675667  1
  O  O509  1  0.42692530  0.35267752  0.42778805  1
  O  O510  1  0.42792335  0.35291998  0.67665476  1
  O  O511  1  0.42584212  0.35308033  0.92442233  1
  O  O512  1  0.42688750  0.68771736  0.17596277  1
  O  O513  1  0.42833178  0.68577408  0.42740657  1
  O  O514  1  0.42525321  0.68580276  0.67485647  1
  O  O515  1  0.42572477  0.68695048  0.92660671  1
  O  O516  1  0.92782575  0.02073579  0.17540753  1
  O  O517  1  0.92785620  0.01841395  0.42451372  1
  O  O518  1  0.92648356  0.02084572  0.67442655  1
  O  O519  1  0.92761643  0.02138586  0.92519871  1
  O  O520  1  0.92849819  0.35309438  0.17575259  1
  O  O521  1  0.92775196  0.35146595  0.42402465  1
  O  O522  1  0.92703525  0.35246437  0.67545638  1
  O  O523  1  0.92742178  0.35194823  0.92665861  1
  O  O524  1  0.92700722  0.68761890  0.17576857  1
  O  O525  1  0.92808910  0.68481221  0.42544481  1
  O  O526  1  0.92672566  0.68849811  0.67548283  1
  O  O527  1  0.92714098  0.68529445  0.92598881  1
  O  O528  1  0.17848179  0.01927550  0.19794352  1
  O  O529  1  0.17612371  0.02219053  0.44912189  1
  O  O530  1  0.17758098  0.02003252  0.69796818  1
  O  O531  1  0.17648932  0.01868685  0.94924696  1
  O  O532  1  0.17724577  0.35436925  0.19888813  1
  O  O533  1  0.17656087  0.35349979  0.45000291  1
  O  O534  1  0.17846278  0.35326998  0.69797056  1
  O  O535  1  0.17899046  0.35281230  0.94794875  1
  O  O536  1  0.17876420  0.68658461  0.19808666  1
  O  O537  1  0.17856563  0.68662443  0.44802560  1
  O  O538  1  0.17584868  0.68712148  0.70086040  1
  O  O539  1  0.17718293  0.68776210  0.95109444  1
  O  O540  1  0.67645450  0.02052745  0.19904672  1
  O  O541  1  0.67610250  0.01817289  0.44827027  1
  O  O542  1  0.67602222  0.01814564  0.69898949  1
  O  O543  1  0.67686566  0.01880706  0.95000545  1
  O  O544  1  0.67864446  0.35257802  0.19747338  1
  O  O545  1  0.67629317  0.35280905  0.44952628  1
  O  O546  1  0.67643576  0.35268249  0.70136413  1
  O  O547  1  0.67739484  0.35389185  0.95106130  1
  O  O548  1  0.67696318  0.68541793  0.19943977  1
  O  O549  1  0.67665084  0.68628000  0.45039464  1
  O  O550  1  0.67609697  0.68609853  0.70082818  1
  O  O551  1  0.67580347  0.68584781  0.95098391  1
  O  O552  1  0.32327905  0.31192899  0.04973744  1
  O  O553  1  0.32263540  0.31215206  0.29969427  1
  O  O554  1  0.32127609  0.31407797  0.55172467  1
  O  O555  1  0.32193589  0.31482542  0.80035610  1
  O  O556  1  0.32167359  0.64742847  0.05168926  1
  O  O557  1  0.32358906  0.64867450  0.30135690  1
  O  O558  1  0.32241777  0.64658076  0.55122542  1
  O  O559  1  0.32299145  0.64563523  0.80045916  1
  O  O560  1  0.32112841  0.98044977  0.05180445  1
  O  O561  1  0.32290529  0.97923253  0.29946475  1
  O  O562  1  0.32227899  0.98209761  0.55073180  1
  O  O563  1  0.32186020  0.98087679  0.80213445  1
  O  O564  1  0.82177535  0.31349434  0.05168880  1
  O  O565  1  0.82359715  0.31306631  0.29847681  1
  O  O566  1  0.82393904  0.31256129  0.54936373  1
  O  O567  1  0.82447861  0.31268732  0.80040020  1
  O  O568  1  0.82226718  0.64695795  0.05142474  1
  O  O569  1  0.82470906  0.64620083  0.29916438  1
  O  O570  1  0.82428758  0.64670030  0.55042970  1
  O  O571  1  0.82351843  0.64544032  0.80146116  1
  O  O572  1  0.82467311  0.98026446  0.04996901  1
  O  O573  1  0.82313521  0.98167851  0.30072458  1
  O  O574  1  0.82298032  0.98160315  0.55089432  1
  O  O575  1  0.82333499  0.98136773  0.80128703  1
  O  O576  1  0.42597698  0.14616755  0.17415268  1
  O  O577  1  0.42560611  0.14695896  0.42458646  1
  O  O578  1  0.42550737  0.14679712  0.67481000  1
  O  O579  1  0.42724760  0.14755356  0.92665734  1
  O  O580  1  0.42630512  0.47844359  0.17659779  1
  O  O581  1  0.42694701  0.47995205  0.42696473  1
  O  O582  1  0.42769629  0.48020805  0.67640560  1
  O  O583  1  0.42598211  0.47971766  0.92518880  1
  O  O584  1  0.42706987  0.81485042  0.17677731  1
  O  O585  1  0.42716285  0.81318407  0.42730444  1
  O  O586  1  0.42512662  0.81254738  0.67502396  1
  O  O587  1  0.42576218  0.81425328  0.92665708  1
  O  O588  1  0.92902876  0.14804282  0.17665622  1
  O  O589  1  0.92724271  0.14546293  0.42334577  1
  O  O590  1  0.92669801  0.14764924  0.67331883  1
  O  O591  1  0.92723074  0.14862294  0.92602479  1
  O  O592  1  0.92940061  0.48048577  0.17584078  1
  O  O593  1  0.92705009  0.47842066  0.42417826  1
  O  O594  1  0.92760913  0.47965075  0.67499566  1
  O  O595  1  0.92731729  0.47885789  0.92541622  1
  O  O596  1  0.92735715  0.81474265  0.17586148  1
  O  O597  1  0.92687383  0.81203039  0.42495410  1
  O  O598  1  0.92706739  0.81564124  0.67569598  1
  O  O599  1  0.92661373  0.81248271  0.92590464  1
  O  O600  1  0.07240974  0.18675863  0.07305916  1
  O  O601  1  0.07219968  0.18602954  0.32230234  1
  O  O602  1  0.07353173  0.18849443  0.57390257  1
  O  O603  1  0.07347229  0.18821161  0.82399416  1
  O  O604  1  0.07393981  0.52136324  0.07453628  1
  O  O605  1  0.07393281  0.51824332  0.32371003  1
  O  O606  1  0.07378704  0.52142097  0.57455333  1
  O  O607  1  0.07395181  0.51983260  0.82541024  1
  O  O608  1  0.07392322  0.85394593  0.07585870  1
  O  O609  1  0.07216308  0.85262912  0.32321591  1
  O  O610  1  0.07387696  0.85519000  0.57349963  1
  O  O611  1  0.07268865  0.85218898  0.82370480  1
  O  O612  1  0.57314256  0.18543746  0.07430072  1
  O  O613  1  0.57304907  0.18776228  0.32540317  1
  O  O614  1  0.57282972  0.18776289  0.57517751  1
  O  O615  1  0.57291714  0.18695602  0.82436068  1
  O  O616  1  0.57311720  0.51949646  0.07610549  1
  O  O617  1  0.57364065  0.51942636  0.32651358  1
  O  O618  1  0.57236597  0.51900183  0.57406861  1
  O  O619  1  0.57296928  0.51868228  0.82459415  1
  O  O620  1  0.57177998  0.85253423  0.07328810  1
  O  O621  1  0.57290520  0.85141233  0.32403281  1
  O  O622  1  0.57274427  0.85161725  0.57469643  1
  O  O623  1  0.57274698  0.85322380  0.82641997  1
  O  O624  1  0.32245980  0.18481644  0.04978068  1
  O  O625  1  0.32261985  0.18501152  0.30061588  1
  O  O626  1  0.32260031  0.18680641  0.55159367  1
  O  O627  1  0.32302396  0.18784421  0.79947939  1
  O  O628  1  0.32286156  0.51996192  0.05188797  1
  O  O629  1  0.32366170  0.52174597  0.30058667  1
  O  O630  1  0.32301895  0.51940428  0.55067788  1
  O  O631  1  0.32288061  0.51857866  0.80125832  1
  O  O632  1  0.32250631  0.85332273  0.05139907  1
  O  O633  1  0.32217273  0.85230913  0.30114143  1
  O  O634  1  0.32257910  0.85497412  0.55050383  1
  O  O635  1  0.32179029  0.85344322  0.80183764  1
  O  O636  1  0.82259548  0.18590894  0.05180872  1
  O  O637  1  0.82380990  0.18637760  0.29873723  1
  O  O638  1  0.82401601  0.18546058  0.54910565  1
  O  O639  1  0.82425031  0.18575942  0.79991106  1
  O  O640  1  0.82347199  0.51959256  0.05212381  1
  O  O641  1  0.82431307  0.51941390  0.29878385  1
  O  O642  1  0.82467996  0.51964173  0.55011124  1
  O  O643  1  0.82372507  0.51818634  0.80183275  1
  O  O644  1  0.82448676  0.85348231  0.04967151  1
  O  O645  1  0.82325803  0.85432162  0.30054224  1
  O  O646  1  0.82294425  0.85453739  0.55016407  1
  O  O647  1  0.82291031  0.85419673  0.80027551  1
  O  O648  1  0.17719536  0.14668614  0.19728672  1
  O  O649  1  0.17679684  0.14908305  0.44818063  1
  O  O650  1  0.17722094  0.14745963  0.69902004  1
  O  O651  1  0.17651750  0.14555984  0.94926049  1
  O  O652  1  0.17764969  0.48160526  0.19850370  1
  O  O653  1  0.17628357  0.48020792  0.45019980  1
  O  O654  1  0.17751212  0.48044842  0.69880011  1
  O  O655  1  0.17769666  0.48026841  0.94854948  1
  O  O656  1  0.17769467  0.81369325  0.19912840  1
  O  O657  1  0.17805845  0.81414377  0.44773962  1
  O  O658  1  0.17571525  0.81397085  0.70029502  1
  O  O659  1  0.17683609  0.81478951  0.94999880  1
  O  O660  1  0.67620635  0.14764509  0.19920974  1
  O  O661  1  0.67622457  0.14525661  0.44973233  1
  O  O662  1  0.67662781  0.14521355  0.69969841  1
  O  O663  1  0.67700961  0.14591063  0.94916769  1
  O  O664  1  0.67753102  0.47999678  0.19830506  1
  O  O665  1  0.67668406  0.47981630  0.44977643  1
  O  O666  1  0.67638794  0.47958826  0.70046967  1
  O  O667  1  0.67709978  0.48098823  0.95029147  1
  O  O668  1  0.67723015  0.81278266  0.19973300  1
  O  O669  1  0.67596372  0.81329329  0.45032870  1
  O  O670  1  0.67542272  0.81322652  0.70090749  1
  O  O671  1  0.67590393  0.81272015  0.95159920  1
