# generated using pymatgen
data_Na2MnFe(PO4)2
_symmetry_space_group_name_H-M   'P 1'
_cell_length_a   22.34605695
_cell_length_b   20.09782093
_cell_length_c   19.44678668
_cell_angle_alpha   90.04289279
_cell_angle_beta   89.94123779
_cell_angle_gamma   89.95789710
_symmetry_Int_Tables_number   1
_chemical_formula_structural   Na2MnFe(PO4)2
_chemical_formula_sum   'Na96 Mn48 Fe48 P96 O384'
_cell_volume   8733.67961318
_cell_formula_units_Z   48
loop_
 _symmetry_equiv_pos_site_id
 _symmetry_equiv_pos_as_xyz
  1  'x, y, z'
loop_
 _atom_site_type_symbol
 _atom_site_label
 _atom_site_symmetry_multiplicity
 _atom_site_fract_x
 _atom_site_fract_y
 _atom_site_fract_z
 _atom_site_occupancy
  Na  Na0  1  0.14095388  0.24930570  0.24272547  1
  Na  Na1  1  0.14154405  0.24969001  0.49304721  1
  Na  Na2  1  0.14089357  0.24993000  0.74331292  1
  Na  Na3  1  0.14078266  0.25005442  0.99313444  1
  Na  Na4  1  0.14041828  0.58217251  0.24209871  1
  Na  Na5  1  0.14002252  0.58259850  0.49282475  1
  Na  Na6  1  0.14035708  0.58322945  0.74462110  1
  Na  Na7  1  0.14028692  0.58288999  0.99198114  1
  Na  Na8  1  0.14100808  0.91695902  0.24298552  1
  Na  Na9  1  0.14079851  0.91800697  0.49463872  1
  Na  Na10  1  0.14025634  0.91680943  0.74511897  1
  Na  Na11  1  0.14037584  0.91575362  0.99288293  1
  Na  Na12  1  0.64039503  0.24799725  0.24427944  1
  Na  Na13  1  0.64080909  0.25071066  0.49291738  1
  Na  Na14  1  0.64114444  0.25110966  0.74382455  1
  Na  Na15  1  0.64068841  0.24977463  0.99438502  1
  Na  Na16  1  0.64021057  0.58232398  0.24462550  1
  Na  Na17  1  0.64015244  0.58394074  0.49307612  1
  Na  Na18  1  0.63974199  0.58426539  0.74353327  1
  Na  Na19  1  0.63967026  0.58354010  0.99369797  1
  Na  Na20  1  0.64062506  0.91547380  0.24592717  1
  Na  Na21  1  0.64070299  0.91716881  0.49272176  1
  Na  Na22  1  0.64038077  0.91749261  0.74380648  1
  Na  Na23  1  0.64022144  0.91741467  0.99505972  1
  Na  Na24  1  0.35912625  0.08281291  0.00689630  1
  Na  Na25  1  0.35911402  0.08375795  0.25743513  1
  Na  Na26  1  0.35925546  0.08388033  0.50676394  1
  Na  Na27  1  0.35941996  0.08359294  0.75574028  1
  Na  Na28  1  0.35923264  0.41686204  0.00590393  1
  Na  Na29  1  0.35884098  0.41539784  0.25632464  1
  Na  Na30  1  0.35959574  0.41562586  0.50603651  1
  Na  Na31  1  0.35934694  0.41677334  0.75577071  1
  Na  Na32  1  0.35906692  0.74948864  0.00633406  1
  Na  Na33  1  0.35881354  0.75019998  0.25647471  1
  Na  Na34  1  0.35947614  0.75030780  0.50744288  1
  Na  Na35  1  0.35953090  0.74949841  0.75774406  1
  Na  Na36  1  0.86002903  0.08406355  0.00687917  1
  Na  Na37  1  0.85996012  0.08246551  0.25588721  1
  Na  Na38  1  0.85975417  0.08372894  0.50462851  1
  Na  Na39  1  0.85944586  0.08413176  0.75656598  1
  Na  Na40  1  0.85955681  0.41767871  0.00587487  1
  Na  Na41  1  0.85954272  0.41659610  0.25572312  1
  Na  Na42  1  0.85990296  0.41728724  0.50527906  1
  Na  Na43  1  0.85979605  0.41744075  0.75590745  1
  Na  Na44  1  0.85979223  0.75089328  0.00682913  1
  Na  Na45  1  0.85899667  0.74902791  0.25663162  1
  Na  Na46  1  0.85984166  0.74964411  0.50672463  1
  Na  Na47  1  0.85998339  0.75134687  0.75704247  1
  Na  Na48  1  0.10982503  0.08253799  0.11779565  1
  Na  Na49  1  0.11104521  0.08289463  0.36780308  1
  Na  Na50  1  0.11063012  0.08316031  0.61854842  1
  Na  Na51  1  0.10991192  0.08318152  0.86877671  1
  Na  Na52  1  0.11023553  0.41735966  0.11707430  1
  Na  Na53  1  0.11053437  0.41583098  0.36644729  1
  Na  Na54  1  0.11020590  0.41645523  0.61843874  1
  Na  Na55  1  0.11012351  0.41795629  0.86798605  1
  Na  Na56  1  0.10942796  0.75048015  0.11674254  1
  Na  Na57  1  0.10954538  0.74863401  0.36895074  1
  Na  Na58  1  0.10960763  0.74987072  0.62093205  1
  Na  Na59  1  0.10967561  0.75038425  0.86943199  1
  Na  Na60  1  0.60983632  0.08312763  0.11997699  1
  Na  Na61  1  0.61018129  0.08232693  0.36889570  1
  Na  Na62  1  0.61023941  0.08263729  0.61782374  1
  Na  Na63  1  0.60988476  0.08281398  0.86921202  1
  Na  Na64  1  0.60964324  0.41675645  0.11862817  1
  Na  Na65  1  0.60957129  0.41594991  0.36918225  1
  Na  Na66  1  0.60978349  0.41810719  0.61801309  1
  Na  Na67  1  0.60990017  0.41828059  0.86886993  1
  Na  Na68  1  0.60959271  0.74879313  0.11976010  1
  Na  Na69  1  0.60999151  0.74925900  0.36975716  1
  Na  Na70  1  0.60862624  0.74987535  0.61785581  1
  Na  Na71  1  0.60935515  0.74955925  0.87012719  1
  Na  Na72  1  0.38998135  0.25054779  0.13158319  1
  Na  Na73  1  0.38984248  0.24909255  0.38261411  1
  Na  Na74  1  0.38989018  0.25074245  0.63084260  1
  Na  Na75  1  0.39020106  0.25117656  0.88084533  1
  Na  Na76  1  0.38939638  0.58233319  0.13016658  1
  Na  Na77  1  0.38979595  0.58247364  0.38231734  1
  Na  Na78  1  0.39015386  0.58307951  0.63032229  1
  Na  Na79  1  0.38981540  0.58327039  0.88177154  1
  Na  Na80  1  0.38912382  0.91709063  0.13227977  1
  Na  Na81  1  0.38995890  0.91636485  0.38258705  1
  Na  Na82  1  0.39008945  0.91631226  0.63150640  1
  Na  Na83  1  0.38948444  0.91583406  0.88228183  1
  Na  Na84  1  0.89046120  0.25050504  0.13068934  1
  Na  Na85  1  0.89070942  0.24916315  0.37941928  1
  Na  Na86  1  0.89079365  0.25043229  0.63075866  1
  Na  Na87  1  0.89064505  0.25172005  0.88146838  1
  Na  Na88  1  0.89018640  0.58399267  0.13079580  1
  Na  Na89  1  0.89017164  0.58248782  0.38083361  1
  Na  Na90  1  0.89030548  0.58371987  0.63095671  1
  Na  Na91  1  0.89063530  0.58510490  0.88120615  1
  Na  Na92  1  0.89028367  0.91776102  0.13118467  1
  Na  Na93  1  0.89027774  0.91567682  0.38196712  1
  Na  Na94  1  0.89020694  0.91666416  0.63140037  1
  Na  Na95  1  0.89039825  0.91733944  0.88247463  1
  Mn  Mn96  1  0.50066077  0.16623174  0.50057880  1
  Mn  Mn97  1  0.49939084  0.66605483  0.25063737  1
  Mn  Mn98  1  0.49974168  -0.00061395  0.74998784  1
  Mn  Mn99  1  0.00010796  0.50095885  0.74954734  1
  Mn  Mn100  1  0.75003942  0.83322919  0.12601840  1
  Mn  Mn101  1  0.00030792  -0.00053433  0.50006661  1
  Mn  Mn102  1  0.00010535  0.16769234  0.74984546  1
  Mn  Mn103  1  0.25008531  0.49911776  0.62452389  1
  Mn  Mn104  1  0.50093056  0.33420922  0.00054602  1
  Mn  Mn105  1  0.49991534  0.83235371  0.00074907  1
  Mn  Mn106  1  -0.00038518  -0.00029808  0.75049603  1
  Mn  Mn107  1  0.00087080  0.16635264  0.49990523  1
  Mn  Mn108  1  0.49997452  0.83209352  0.75033292  1
  Mn  Mn109  1  0.49974924  0.16695024  0.00020563  1
  Mn  Mn110  1  0.49935657  0.50136872  0.74895276  1
  Mn  Mn111  1  0.74960030  0.66689359  0.62496644  1
  Mn  Mn112  1  0.00069167  0.33290746  0.49851766  1
  Mn  Mn113  1  0.24999911  0.66637627  0.62554703  1
  Mn  Mn114  1  0.75003437  0.16594055  0.12456672  1
  Mn  Mn115  1  0.50052217  0.16701460  0.74950789  1
  Mn  Mn116  1  0.49971912  0.49975244  0.25068224  1
  Mn  Mn117  1  -0.00026919  0.66555824  0.24861521  1
  Mn  Mn118  1  0.24943404  0.66589911  0.12479298  1
  Mn  Mn119  1  0.00032179  0.33328450  0.24855105  1
  Mn  Mn120  1  0.50020689  0.00022438  0.25120080  1
  Mn  Mn121  1  0.24945322  0.66625907  0.37462256  1
  Mn  Mn122  1  0.75024890  0.16706479  0.87518142  1
  Mn  Mn123  1  0.00016035  0.50015152  0.49988747  1
  Mn  Mn124  1  0.74967738  0.49973884  0.12512576  1
  Mn  Mn125  1  0.49908441  0.00014433  0.00095631  1
  Mn  Mn126  1  0.00085617  0.83189576  0.50077817  1
  Mn  Mn127  1  0.75052439  0.16670582  0.62484466  1
  Mn  Mn128  1  0.74972706  0.66743763  0.87483743  1
  Mn  Mn129  1  0.75053351  0.33474866  0.62367404  1
  Mn  Mn130  1  0.75038707  0.33314863  0.37493421  1
  Mn  Mn131  1  0.75045065  0.50001893  0.87511174  1
  Mn  Mn132  1  0.25029231  0.16634374  0.12501416  1
  Mn  Mn133  1  0.00081146  0.00022887  0.24952090  1
  Mn  Mn134  1  0.25028668  0.16671755  0.87503297  1
  Mn  Mn135  1  0.24949513  0.83448076  0.37567002  1
  Mn  Mn136  1  0.75001074  0.83479766  0.62507464  1
  Mn  Mn137  1  0.49948834  0.33262169  0.24986987  1
  Mn  Mn138  1  0.00026787  0.33448890  0.00013685  1
  Mn  Mn139  1  0.49907409  0.83274930  0.25073626  1
  Mn  Mn140  1  0.74943008  0.83504819  0.87618061  1
  Mn  Mn141  1  0.50038558  0.33430796  0.75024084  1
  Mn  Mn142  1  0.24954267  0.83430208  0.62611687  1
  Mn  Mn143  1  -0.00026483  0.83286094  0.24965534  1
  Fe  Fe144  1  0.49951726  0.66643903  0.50015322  1
  Fe  Fe145  1  0.74974379  0.49997995  0.37445418  1
  Fe  Fe146  1  0.00021097  0.16640498  0.24905008  1
  Fe  Fe147  1  0.25014798  0.33293951  0.37476273  1
  Fe  Fe148  1  0.24989167  0.66611360  0.87573091  1
  Fe  Fe149  1  0.24977797  0.49909051  0.87467703  1
  Fe  Fe150  1  0.75009966  0.50077243  0.62474747  1
  Fe  Fe151  1  0.24997863  0.33321678  0.12462203  1
  Fe  Fe152  1  0.00011015  0.66735123  0.75089844  1
  Fe  Fe153  1  0.25017863  0.83352758  0.87543690  1
  Fe  Fe154  1  0.25029259  0.00057523  0.62548586  1
  Fe  Fe155  1  0.24985629  0.49898775  0.37382410  1
  Fe  Fe156  1  0.49956510  -0.00067526  0.49987483  1
  Fe  Fe157  1  0.49970383  0.16632236  0.25117016  1
  Fe  Fe158  1  -0.00012807  0.50113858  -0.00114878  1
  Fe  Fe159  1  0.50001609  0.49973613  0.50034223  1
  Fe  Fe160  1  0.00074393  0.33428681  0.75016033  1
  Fe  Fe161  1  0.24973995  0.49897235  0.12375573  1
  Fe  Fe162  1  0.49916075  0.66618275  0.00004705  1
  Fe  Fe163  1  0.49961825  0.66640036  0.74966385  1
  Fe  Fe164  1  0.24980730  0.16663324  0.37535911  1
  Fe  Fe165  1  0.75041448  0.66608206  0.37556009  1
  Fe  Fe166  1  -0.00005371  0.00033553  -0.00017516  1
  Fe  Fe167  1  -0.00024034  0.66715254  -0.00029263  1
  Fe  Fe168  1  0.00000198  0.83294886  0.75109157  1
  Fe  Fe169  1  0.00019580  0.66651357  0.50056183  1
  Fe  Fe170  1  0.24986692  -0.00013790  0.87542669  1
  Fe  Fe171  1  0.74995845  -0.00042501  0.12612426  1
  Fe  Fe172  1  0.24984044  -0.00051564  0.12524678  1
  Fe  Fe173  1  0.75052095  -0.00014577  0.37512867  1
  Fe  Fe174  1  0.24964896  0.33320907  0.62472862  1
  Fe  Fe175  1  0.74993492  0.33281071  0.12552683  1
  Fe  Fe176  1  0.00031697  0.50019575  0.24900588  1
  Fe  Fe177  1  0.75045422  0.83295859  0.37473606  1
  Fe  Fe178  1  0.25031000  0.00059769  0.37496090  1
  Fe  Fe179  1  0.49964060  0.83251281  0.50063886  1
  Fe  Fe180  1  0.75048799  0.16617181  0.37429058  1
  Fe  Fe181  1  0.24968226  0.83302197  0.12460783  1
  Fe  Fe182  1  0.75024050  0.00071853  0.62431081  1
  Fe  Fe183  1  0.75026757  0.00072806  0.87515587  1
  Fe  Fe184  1  0.25025002  0.33326414  0.87460663  1
  Fe  Fe185  1  0.74947128  0.66623905  0.12589054  1
  Fe  Fe186  1  -0.00063749  0.83340974  -0.00033498  1
  Fe  Fe187  1  0.49959801  0.50069515  -0.00052821  1
  Fe  Fe188  1  0.50041695  0.33283808  0.50006486  1
  Fe  Fe189  1  0.00067699  0.16742097  -0.00040064  1
  Fe  Fe190  1  0.74976812  0.33393731  0.87464841  1
  Fe  Fe191  1  0.25000953  0.16692452  0.62506714  1
  P  P192  1  0.04260010  0.24904945  0.10219778  1
  P  P193  1  0.04285352  0.24848369  0.35110208  1
  P  P194  1  0.04360429  0.25057022  0.60317257  1
  P  P195  1  0.04245610  0.25181567  0.85273958  1
  P  P196  1  0.04158972  0.58338070  0.10080345  1
  P  P197  1  0.04271055  0.58199962  0.35188084  1
  P  P198  1  0.04245996  0.58488577  0.60295197  1
  P  P199  1  0.04201480  0.58527747  0.85317866  1
  P  P200  1  0.04119817  0.91661050  0.10092182  1
  P  P201  1  0.04324621  0.91586131  0.35278295  1
  P  P202  1  0.04288326  0.91582078  0.60419110  1
  P  P203  1  0.04147009  0.91536850  0.85380127  1
  P  P204  1  0.54286549  0.24961553  0.10408327  1
  P  P205  1  0.54193248  0.24874341  0.35330322  1
  P  P206  1  0.54307616  0.25131953  0.60241393  1
  P  P207  1  0.54338280  0.25052492  0.85325861  1
  P  P208  1  0.54117921  0.58312395  0.10160783  1
  P  P209  1  0.54225152  0.58298571  0.35460642  1
  P  P210  1  0.54124286  0.58400035  0.60153997  1
  P  P211  1  0.54164984  0.58479756  0.85294628  1
  P  P212  1  0.54247049  0.91643818  0.10403470  1
  P  P213  1  0.54206609  0.91590361  0.35485581  1
  P  P214  1  0.54127772  0.91612034  0.60147573  1
  P  P215  1  0.54254360  0.91590694  0.85352084  1
  P  P216  1  0.45714003  0.08463115  0.14860051  1
  P  P217  1  0.45789663  0.08239101  0.39793007  1
  P  P218  1  0.45756492  0.08288085  0.64625360  1
  P  P219  1  0.45661568  0.08344480  0.89694445  1
  P  P220  1  0.45718758  0.41723246  0.14657643  1
  P  P221  1  0.45872197  0.41592497  0.39891741  1
  P  P222  1  0.45737818  0.41680516  0.64569879  1
  P  P223  1  0.45762068  0.41830271  0.89754825  1
  P  P224  1  0.45658376  0.74890221  0.14682081  1
  P  P225  1  0.45779020  0.74936519  0.39901429  1
  P  P226  1  0.45717088  0.74839428  0.64689508  1
  P  P227  1  0.45731435  0.74804897  0.89750374  1
  P  P228  1  0.95830749  0.08466483  0.14615667  1
  P  P229  1  0.95804387  0.08324549  0.39604126  1
  P  P230  1  0.95730618  0.08334246  0.64711264  1
  P  P231  1  0.95898961  0.08418250  0.89853483  1
  P  P232  1  0.95805281  0.41874466  0.14636852  1
  P  P233  1  0.95781835  0.41689645  0.39550029  1
  P  P234  1  0.95807872  0.41583753  0.64733533  1
  P  P235  1  0.95799998  0.41860919  0.89694358  1
  P  P236  1  0.95706098  0.75001680  0.14559586  1
  P  P237  1  0.95773725  0.74786035  0.39778314  1
  P  P238  1  0.95839827  0.74962150  0.64880933  1
  P  P239  1  0.95823141  0.75030088  0.89801150  1
  P  P240  1  0.20791940  0.08204708  0.22770441  1
  P  P241  1  0.20897717  0.08344648  0.47738145  1
  P  P242  1  0.20874880  0.08329872  0.72707757  1
  P  P243  1  0.20811537  0.08188929  0.97774628  1
  P  P244  1  0.20857660  0.41623381  0.22634177  1
  P  P245  1  0.20847421  0.41608736  0.47598585  1
  P  P246  1  0.20793306  0.41538250  0.72785179  1
  P  P247  1  0.20844743  0.41626980  0.97658785  1
  P  P248  1  0.20745833  0.75103285  0.22693974  1
  P  P249  1  0.20708529  0.75030466  0.47842452  1
  P  P250  1  0.20793876  0.75011128  0.72992153  1
  P  P251  1  0.20888518  0.75030836  0.97695354  1
  P  P252  1  0.70820622  0.08157969  0.22858092  1
  P  P253  1  0.70880948  0.08343576  0.47655302  1
  P  P254  1  0.70803465  0.08237421  0.72760125  1
  P  P255  1  0.70797497  0.08230210  0.97801528  1
  P  P256  1  0.70763596  0.41527594  0.22786969  1
  P  P257  1  0.70802316  0.41860807  0.47724261  1
  P  P258  1  0.70774643  0.41838108  0.72714290  1
  P  P259  1  0.70787031  0.41528055  0.97791402  1
  P  P260  1  0.70791018  0.74811890  0.22895414  1
  P  P261  1  0.70922864  0.75019724  0.47658914  1
  P  P262  1  0.70678131  0.75116087  0.72794880  1
  P  P263  1  0.70723331  0.75025956  0.97935206  1
  P  P264  1  0.29207890  0.25126864  0.02222928  1
  P  P265  1  0.29119609  0.24974407  0.27352257  1
  P  P266  1  0.29107672  0.25004658  0.52279231  1
  P  P267  1  0.29216038  0.25109390  0.77180653  1
  P  P268  1  0.29102056  0.58154860  0.02132886  1
  P  P269  1  0.29177890  0.58129951  0.27168796  1
  P  P270  1  0.29217140  0.58256036  0.52115869  1
  P  P271  1  0.29113986  0.58267404  0.77380295  1
  P  P272  1  0.29094574  0.91642066  0.02292155  1
  P  P273  1  0.29212282  0.91810699  0.27231930  1
  P  P274  1  0.29203093  0.91872391  0.52286554  1
  P  P275  1  0.29132559  0.91722384  0.77368314  1
  P  P276  1  0.79218855  0.25163420  0.02220076  1
  P  P277  1  0.79221644  0.24857037  0.27174351  1
  P  P278  1  0.79314690  0.24985966  0.52084910  1
  P  P279  1  0.79264528  0.25180661  0.77246642  1
  P  P280  1  0.79192357  0.58460181  0.02290828  1
  P  P281  1  0.79121376  0.58319704  0.27304424  1
  P  P282  1  0.79202441  0.58243480  0.52163430  1
  P  P283  1  0.79285767  0.58358138  0.77142161  1
  P  P284  1  0.79199786  0.91846338  0.02303809  1
  P  P285  1  0.79177646  0.91653685  0.27351918  1
  P  P286  1  0.79238146  0.91847659  0.52152550  1
  P  P287  1  0.79244876  0.91879881  0.77254698  1
  O  O288  1  0.03715420  0.24873861  0.18210619  1
  O  O289  1  0.03795920  0.24889088  0.43110153  1
  O  O290  1  0.03847593  0.25138877  0.68317421  1
  O  O291  1  0.03709715  0.25126203  0.93270215  1
  O  O292  1  0.03669429  0.58258672  0.18082493  1
  O  O293  1  0.03778924  0.58254602  0.43184585  1
  O  O294  1  0.03714265  0.58507860  0.68291319  1
  O  O295  1  0.03644614  0.58488487  0.93304868  1
  O  O296  1  0.03669447  0.91687310  0.18095566  1
  O  O297  1  0.03840781  0.91574239  0.43280814  1
  O  O298  1  0.03734608  0.91558454  0.68413617  1
  O  O299  1  0.03583290  0.91576989  0.93368735  1
  O  O300  1  0.53741684  0.24895528  0.18406267  1
  O  O301  1  0.53681329  0.24970482  0.43329174  1
  O  O302  1  0.53815813  0.25111048  0.68241135  1
  O  O303  1  0.53833496  0.25058258  0.93327953  1
  O  O304  1  0.53650091  0.58311388  0.18164568  1
  O  O305  1  0.53727277  0.58312239  0.43450828  1
  O  O306  1  0.53623859  0.58447359  0.68154487  1
  O  O307  1  0.53607325  0.58418120  0.93284756  1
  O  O308  1  0.53735609  0.91654756  0.18403917  1
  O  O309  1  0.53664420  0.91601940  0.43478807  1
  O  O310  1  0.53675195  0.91585021  0.68155300  1
  O  O311  1  0.53741562  0.91601015  0.93350510  1
  O  O312  1  0.46193184  0.08435556  0.06856057  1
  O  O313  1  0.46291161  0.08332614  0.31795233  1
  O  O314  1  0.46291665  0.08221657  0.56629263  1
  O  O315  1  0.46181954  0.08336501  0.81694445  1
  O  O316  1  0.46255096  0.41778750  0.06663608  1
  O  O317  1  0.46335244  0.41595338  0.31888007  1
  O  O318  1  0.46273687  0.41618522  0.56580221  1
  O  O319  1  0.46255102  0.41835019  0.81753766  1
  O  O320  1  0.46177150  0.74849505  0.06683202  1
  O  O321  1  0.46226480  0.74956665  0.31894435  1
  O  O322  1  0.46253035  0.74889795  0.56696075  1
  O  O323  1  0.46246772  0.74788169  0.81750459  1
  O  O324  1  0.96388605  0.08456357  0.06626310  1
  O  O325  1  0.96312317  0.08365089  0.31602511  1
  O  O326  1  0.96250335  0.08315048  0.56713808  1
  O  O327  1  0.96365077  0.08377097  0.81853600  1
  O  O328  1  0.96339869  0.41903086  0.06641170  1
  O  O329  1  0.96292737  0.41742475  0.31550753  1
  O  O330  1  0.96330235  0.41591057  0.56733666  1
  O  O331  1  0.96342707  0.41780776  0.81701480  1
  O  O332  1  0.96228467  0.75022043  0.06567558  1
  O  O333  1  0.96246465  0.74816812  0.31777477  1
  O  O334  1  0.96379083  0.74892376  0.56883859  1
  O  O335  1  0.96353500  0.75022877  0.81809531  1
  O  O336  1  0.21335078  0.08177975  0.05765381  1
  O  O337  1  0.21292307  0.08222284  0.30758539  1
  O  O338  1  0.21394704  0.08388907  0.55728031  1
  O  O339  1  0.21352750  0.08354002  0.80704526  1
  O  O340  1  0.21367052  0.41656027  0.05648032  1
  O  O341  1  0.21359970  0.41656660  0.30621946  1
  O  O342  1  0.21318449  0.41564269  0.55595921  1
  O  O343  1  0.21343082  0.41577307  0.80769174  1
  O  O344  1  0.21354149  0.75046953  0.05694289  1
  O  O345  1  0.21236902  0.75088721  0.30691597  1
  O  O346  1  0.21227325  0.75017504  0.55840907  1
  O  O347  1  0.21359953  0.75012041  0.80979190  1
  O  O348  1  0.71316282  0.08234440  0.05798134  1
  O  O349  1  0.71385569  0.08210787  0.30842599  1
  O  O350  1  0.71396328  0.08328411  0.55654325  1
  O  O351  1  0.71337701  0.08231909  0.80756463  1
  O  O352  1  0.71324932  0.41505871  0.05785560  1
  O  O353  1  0.71311528  0.41617443  0.30777401  1
  O  O354  1  0.71335527  0.41885044  0.55714895  1
  O  O355  1  0.71296827  0.41755075  0.80711127  1
  O  O356  1  0.71258724  0.74949007  0.05930441  1
  O  O357  1  0.71367823  0.74812072  0.30881826  1
  O  O358  1  0.71378629  0.75069908  0.55657697  1
  O  O359  1  0.71156237  0.75134574  0.80794765  1
  O  O360  1  0.28688168  0.24979165  0.19356761  1
  O  O361  1  0.28620588  0.24957259  0.44291803  1
  O  O362  1  0.28667539  0.25087781  0.69195440  1
  O  O363  1  0.28686024  0.25125156  0.94231534  1
  O  O364  1  0.28635379  0.58118007  0.19170768  1
  O  O365  1  0.28695328  0.58224799  0.44121546  1
  O  O366  1  0.28651713  0.58296389  0.69377445  1
  O  O367  1  0.28559340  0.58168549  0.94146712  1
  O  O368  1  0.28689562  0.91765471  0.19244096  1
  O  O369  1  0.28677905  0.91878518  0.44293695  1
  O  O370  1  0.28632284  0.91772528  0.69372789  1
  O  O371  1  0.28587860  0.91597768  0.94301233  1
  O  O372  1  0.78664875  0.24900647  0.19183291  1
  O  O373  1  0.78782909  0.24912022  0.44090047  1
  O  O374  1  0.78752409  0.25141653  0.69248764  1
  O  O375  1  0.78672607  0.25188180  0.94226100  1
  O  O376  1  0.78571303  0.58361239  0.19311192  1
  O  O377  1  0.78642734  0.58270997  0.44173040  1
  O  O378  1  0.78789063  0.58318624  0.69144291  1
  O  O379  1  0.78698342  0.58431226  0.94294418  1
  O  O380  1  0.78671260  0.91634760  0.19356374  1
  O  O381  1  0.78715439  0.91796502  0.44163633  1
  O  O382  1  0.78748961  0.91871196  0.69253276  1
  O  O383  1  0.78680542  0.91880641  0.94307496  1
  O  O384  1  0.22790038  0.25105361  0.05820518  1
  O  O385  1  0.22697622  0.24996199  0.30915963  1
  O  O386  1  0.22712278  0.25043920  0.55936011  1
  O  O387  1  0.22806775  0.25124830  0.80817546  1
  O  O388  1  0.22698417  0.58138337  0.05769860  1
  O  O389  1  0.22754208  0.58115494  0.30755873  1
  O  O390  1  0.22792135  0.58267068  0.55677577  1
  O  O391  1  0.22696226  0.58222846  0.80956985  1
  O  O392  1  0.22688634  0.91688852  0.05929489  1
  O  O393  1  0.22789443  0.91865208  0.30831953  1
  O  O394  1  0.22783062  0.91897990  0.55883932  1
  O  O395  1  0.22717949  0.91649082  0.80977675  1
  O  O396  1  0.72804075  0.25134024  0.05832169  1
  O  O397  1  0.72815783  0.24843852  0.30801670  1
  O  O398  1  0.72887001  0.25032869  0.55635992  1
  O  O399  1  0.72833350  0.25178977  0.80811810  1
  O  O400  1  0.72758826  0.58454013  0.05844920  1
  O  O401  1  0.72722920  0.58340643  0.30953477  1
  O  O402  1  0.72786907  0.58201652  0.55796935  1
  O  O403  1  0.72842424  0.58347192  0.80654237  1
  O  O404  1  0.72782129  0.91822595  0.05901142  1
  O  O405  1  0.72771899  0.91683049  0.30967843  1
  O  O406  1  0.72816320  0.91901701  0.55767829  1
  O  O407  1  0.72805080  0.91921310  0.80810130  1
  O  O408  1  0.27215567  0.08160855  0.19175468  1
  O  O409  1  0.27296343  0.08318069  0.44088555  1
  O  O410  1  0.27284090  0.08292001  0.69093578  1
  O  O411  1  0.27232075  0.08217927  0.94192638  1
  O  O412  1  0.27267249  0.41612468  0.19003441  1
  O  O413  1  0.27271119  0.41680441  0.44009253  1
  O  O414  1  0.27199321  0.41479340  0.69139756  1
  O  O415  1  0.27251787  0.41627894  0.94013680  1
  O  O416  1  0.27179386  0.75056467  0.19152588  1
  O  O417  1  0.27141787  0.75017977  0.44308454  1
  O  O418  1  0.27198861  0.75032791  0.69367782  1
  O  O419  1  0.27296377  0.75062300  0.94099276  1
  O  O420  1  0.77224875  0.08149992  0.19210030  1
  O  O421  1  0.77286278  0.08343764  0.44015971  1
  O  O422  1  0.77230398  0.08196580  0.69170839  1
  O  O423  1  0.77226700  0.08236649  0.94218862  1
  O  O424  1  0.77180818  0.41513912  0.19178337  1
  O  O425  1  0.77222900  0.41836649  0.44132144  1
  O  O426  1  0.77207986  0.41908838  0.69138819  1
  O  O427  1  0.77209211  0.41514484  0.94187948  1
  O  O428  1  0.77192218  0.74794994  0.19240826  1
  O  O429  1  0.77342549  0.74954258  0.44091168  1
  O  O430  1  0.77132890  0.75083925  0.69315867  1
  O  O431  1  0.77146860  0.75086802  0.94365853  1
  O  O432  1  0.02243439  0.08516442  0.18234005  1
  O  O433  1  0.02242321  0.08278323  0.43123820  1
  O  O434  1  0.02169029  0.08342910  0.68214764  1
  O  O435  1  0.02322566  0.08437133  0.93402578  1
  O  O436  1  0.02230898  0.41845359  0.18207546  1
  O  O437  1  0.02218363  0.41696280  0.43069056  1
  O  O438  1  0.02235987  0.41589563  0.68292499  1
  O  O439  1  0.02222176  0.41882952  0.93269058  1
  O  O440  1  0.02138625  0.74976553  0.18101491  1
  O  O441  1  0.02221189  0.74760589  0.43290448  1
  O  O442  1  0.02241982  0.75000106  0.68522862  1
  O  O443  1  0.02223655  0.75041193  0.93446006  1
  O  O444  1  0.52160513  0.08501847  0.18373632  1
  O  O445  1  0.52221965  0.08181705  0.43328373  1
  O  O446  1  0.52191602  0.08284818  0.68147597  1
  O  O447  1  0.52107329  0.08316441  0.93186425  1
  O  O448  1  0.52146668  0.41649853  0.18195006  1
  O  O449  1  0.52294440  0.41577083  0.43444094  1
  O  O450  1  0.52160200  0.41753243  0.68132033  1
  O  O451  1  0.52200472  0.41888224  0.93283340  1
  O  O452  1  0.52094309  0.74929154  0.18202742  1
  O  O453  1  0.52215214  0.74885300  0.43425622  1
  O  O454  1  0.52142865  0.74774545  0.68277161  1
  O  O455  1  0.52153966  0.74801143  0.93317712  1
  O  O456  1  0.47855817  0.25046467  0.06878051  1
  O  O457  1  0.47763877  0.24826272  0.31766452  1
  O  O458  1  0.47862891  0.25114154  0.56736082  1
  O  O459  1  0.47890472  0.25045767  0.81839483  1
  O  O460  1  0.47691115  0.58265854  0.06601695  1
  O  O461  1  0.47784244  0.58292237  0.31939768  1
  O  O462  1  0.47712600  0.58411545  0.56562200  1
  O  O463  1  0.47748575  0.58531102  0.81679193  1
  O  O464  1  0.47800703  0.91608910  0.06910796  1
  O  O465  1  0.47787953  0.91646890  0.31913013  1
  O  O466  1  0.47695792  0.91644378  0.56619128  1
  O  O467  1  0.47811329  0.91573034  0.81854491  1
  O  O468  1  0.97839668  0.24929562  0.06641273  1
  O  O469  1  0.97849188  0.24852964  0.31574361  1
  O  O470  1  0.97919596  0.25017194  0.56807183  1
  O  O471  1  0.97826099  0.25229653  0.81690298  1
  O  O472  1  0.97733677  0.58388959  0.06513590  1
  O  O473  1  0.97829495  0.58132874  0.31640909  1
  O  O474  1  0.97822987  0.58473488  0.56713682  1
  O  O475  1  0.97799323  0.58532576  0.81689506  1
  O  O476  1  0.97693693  0.91615392  0.06553671  1
  O  O477  1  0.97870358  0.91644805  0.31808163  1
  O  O478  1  0.97868916  0.91582277  0.56853793  1
  O  O479  1  0.97747727  0.91508939  0.81746424  1
  O  O480  1  0.07361275  0.31295105  0.07493341  1
  O  O481  1  0.07381749  0.31208102  0.32312402  1
  O  O482  1  0.07464395  0.31358135  0.57395114  1
  O  O483  1  0.07313971  0.31542550  0.82443532  1
  O  O484  1  0.07243983  0.64727065  0.07319006  1
  O  O485  1  0.07346152  0.64555379  0.32337946  1
  O  O486  1  0.07320069  0.64821593  0.57412775  1
  O  O487  1  0.07287136  0.64881251  0.82488149  1
  O  O488  1  0.07138965  0.98061697  0.07256894  1
  O  O489  1  0.07452464  0.97908690  0.32450593  1
  O  O490  1  0.07384273  0.97943077  0.57613973  1
  O  O491  1  0.07268200  0.97895716  0.82588008  1
  O  O492  1  0.57418256  0.31312430  0.07634849  1
  O  O493  1  0.57307769  0.31206124  0.32494231  1
  O  O494  1  0.57357374  0.31487970  0.57381064  1
  O  O495  1  0.57425427  0.31408310  0.82519036  1
  O  O496  1  0.57144917  0.64706893  0.07339770  1
  O  O497  1  0.57319960  0.64630736  0.32579618  1
  O  O498  1  0.57271049  0.64709931  0.57315730  1
  O  O499  1  0.57280421  0.64807699  0.82445711  1
  O  O500  1  0.57311007  0.98012561  0.07589876  1
  O  O501  1  0.57371225  0.97899808  0.32652214  1
  O  O502  1  0.57229413  0.97962012  0.57338205  1
  O  O503  1  0.57345354  0.97935398  0.82521011  1
  O  O504  1  0.42645967  0.02084121  0.17641037  1
  O  O505  1  0.42716337  0.01869884  0.42598316  1
  O  O506  1  0.42607374  0.01992649  0.67493888  1
  O  O507  1  0.42553351  0.02007951  0.92529658  1
  O  O508  1  0.42589113  0.35377494  0.17455162  1
  O  O509  1  0.42779103  0.35225903  0.42677858  1
  O  O510  1  0.42651606  0.35356018  0.67477802  1
  O  O511  1  0.42711819  0.35439154  0.92531048  1
  O  O512  1  0.42558801  0.68555310  0.17531089  1
  O  O513  1  0.42651632  0.68598094  0.42695173  1
  O  O514  1  0.42594361  0.68519546  0.67545044  1
  O  O515  1  0.42629686  0.68489020  0.92638453  1
  O  O516  1  0.92756042  0.02084389  0.17419633  1
  O  O517  1  0.92695536  0.01974057  0.42412403  1
  O  O518  1  0.92623936  0.02002182  0.67538756  1
  O  O519  1  0.92852973  0.02035596  0.92697299  1
  O  O520  1  0.92705719  0.35484367  0.17369729  1
  O  O521  1  0.92711875  0.35296237  0.42313133  1
  O  O522  1  0.92742761  0.35241319  0.67598556  1
  O  O523  1  0.92669503  0.35542353  0.92542275  1
  O  O524  1  0.92592426  0.68662447  0.17394459  1
  O  O525  1  0.92718959  0.68432357  0.42636682  1
  O  O526  1  0.92744073  0.68619502  0.67725431  1
  O  O527  1  0.92740819  0.68667462  0.92642200  1
  O  O528  1  0.17673005  0.01891695  0.19870806  1
  O  O529  1  0.17773036  0.02005184  0.44910732  1
  O  O530  1  0.17739929  0.01989718  0.69911012  1
  O  O531  1  0.17736630  0.01849869  0.94890189  1
  O  O532  1  0.17787359  0.35240646  0.19804573  1
  O  O533  1  0.17826465  0.35223410  0.44721339  1
  O  O534  1  0.17676774  0.35221788  0.69912308  1
  O  O535  1  0.17766120  0.35253224  0.94844169  1
  O  O536  1  0.17610633  0.68755220  0.19914798  1
  O  O537  1  0.17596321  0.68699088  0.45004062  1
  O  O538  1  0.17683834  0.68663473  0.70164309  1
  O  O539  1  0.17874400  0.68602772  0.94896814  1
  O  O540  1  0.67735655  0.01792206  0.20038804  1
  O  O541  1  0.67774265  0.01991956  0.44852028  1
  O  O542  1  0.67676057  0.01943815  0.69853787  1
  O  O543  1  0.67697119  0.01908028  0.94940315  1
  O  O544  1  0.67705363  0.35144231  0.20001463  1
  O  O545  1  0.67703111  0.35471331  0.44983299  1
  O  O546  1  0.67686236  0.35488426  0.69869261  1
  O  O547  1  0.67673561  0.35224842  0.94895290  1
  O  O548  1  0.67670642  0.68490787  0.20016770  1
  O  O549  1  0.67790278  0.68668834  0.44901342  1
  O  O550  1  0.67571032  0.68774355  0.69972843  1
  O  O551  1  0.67620092  0.68705296  0.95054770  1
  O  O552  1  0.32287378  0.31461342  0.05098793  1
  O  O553  1  0.32226842  0.31316167  0.30210057  1
  O  O554  1  0.32223976  0.31360049  0.55086055  1
  O  O555  1  0.32318776  0.31442623  0.80052234  1
  O  O556  1  0.32207867  0.64517833  0.04934942  1
  O  O557  1  0.32257210  0.64525969  0.29927196  1
  O  O558  1  0.32316359  0.64607553  0.54937427  1
  O  O559  1  0.32134665  0.64657597  0.80241953  1
  O  O560  1  0.32232306  0.97980606  0.05107180  1
  O  O561  1  0.32322237  0.98134459  0.30111468  1
  O  O562  1  0.32317813  0.98181751  0.55162043  1
  O  O563  1  0.32180747  0.98093926  0.80233608  1
  O  O564  1  0.82310831  0.31482649  0.05117830  1
  O  O565  1  0.82364096  0.31202517  0.29944878  1
  O  O566  1  0.82420521  0.31365762  0.54832143  1
  O  O567  1  0.82320874  0.31543038  0.80072480  1
  O  O568  1  0.82253563  0.64808733  0.05143423  1
  O  O569  1  0.82271775  0.64629772  0.30148605  1
  O  O570  1  0.82289264  0.64615516  0.54976331  1
  O  O571  1  0.82349743  0.64737432  0.79954200  1
  O  O572  1  0.82288989  0.98170681  0.05191983  1
  O  O573  1  0.82325575  0.97977584  0.30149631  1
  O  O574  1  0.82344063  0.98176619  0.55017130  1
  O  O575  1  0.82362660  0.98190246  0.80136442  1
  O  O576  1  0.42632043  0.14815054  0.17711624  1
  O  O577  1  0.42676271  0.14579686  0.42637771  1
  O  O578  1  0.42690046  0.14691285  0.67385368  1
  O  O579  1  0.42571921  0.14708170  0.92500934  1
  O  O580  1  0.42624158  0.48053314  0.17537086  1
  O  O581  1  0.42830732  0.47986270  0.42724065  1
  O  O582  1  0.42587133  0.48025836  0.67373880  1
  O  O583  1  0.42657198  0.48165626  0.92605753  1
  O  O584  1  0.42547777  0.81247475  0.17493693  1
  O  O585  1  0.42767428  0.81340998  0.42754997  1
  O  O586  1  0.42648339  0.81218948  0.67539246  1
  O  O587  1  0.42642623  0.81196105  0.92518775  1
  O  O588  1  0.92698423  0.14786423  0.17489577  1
  O  O589  1  0.92704127  0.14665948  0.42453786  1
  O  O590  1  0.92624862  0.14693962  0.67512196  1
  O  O591  1  0.92799966  0.14794330  0.92627305  1
  O  O592  1  0.92710948  0.48196594  0.17530345  1
  O  O593  1  0.92632689  0.47978355  0.42457085  1
  O  O594  1  0.92697901  0.47964237  0.67479498  1
  O  O595  1  0.92727146  0.48246148  0.92492006  1
  O  O596  1  0.92596129  0.81335475  0.17441347  1
  O  O597  1  0.92694173  0.81155231  0.42601422  1
  O  O598  1  0.92758766  0.81357980  0.67655824  1
  O  O599  1  0.92697125  0.81381283  0.92626817  1
  O  O600  1  0.07363249  0.18587162  0.07317826  1
  O  O601  1  0.07346042  0.18482123  0.32284099  1
  O  O602  1  0.07457534  0.18672363  0.57547829  1
  O  O603  1  0.07361061  0.18816843  0.82481918  1
  O  O604  1  0.07240801  0.51994430  0.07190610  1
  O  O605  1  0.07362856  0.51856909  0.32315142  1
  O  O606  1  0.07354625  0.52104496  0.57532424  1
  O  O607  1  0.07338885  0.52188249  0.82487609  1
  O  O608  1  0.07237523  0.85312361  0.07288261  1
  O  O609  1  0.07374118  0.85212773  0.32431124  1
  O  O610  1  0.07427609  0.85253019  0.57596304  1
  O  O611  1  0.07250623  0.85192438  0.82528479  1
  O  O612  1  0.57388815  0.18628008  0.07543345  1
  O  O613  1  0.57259955  0.18486785  0.32535510  1
  O  O614  1  0.57436878  0.18772469  0.57465761  1
  O  O615  1  0.57435414  0.18696730  0.82506877  1
  O  O616  1  0.57235004  0.51962978  0.07341498  1
  O  O617  1  0.57332473  0.51959666  0.32584744  1
  O  O618  1  0.57143534  0.51974740  0.57354885  1
  O  O619  1  0.57268691  0.52124504  0.82441650  1
  O  O620  1  0.57376551  0.85303987  0.07604192  1
  O  O621  1  0.57287333  0.85225169  0.32644965  1
  O  O622  1  0.57157727  0.85207455  0.57311063  1
  O  O623  1  0.57364119  0.85242598  0.82532272  1
  O  O624  1  0.32315423  0.18754727  0.04999339  1
  O  O625  1  0.32151866  0.18590981  0.30227212  1
  O  O626  1  0.32159133  0.18633141  0.55169924  1
  O  O627  1  0.32333731  0.18751200  0.79986577  1
  O  O628  1  0.32219887  0.51827181  0.04990961  1
  O  O629  1  0.32292670  0.51810149  0.30036075  1
  O  O630  1  0.32338027  0.51925805  0.54952275  1
  O  O631  1  0.32236879  0.51903488  0.80127550  1
  O  O632  1  0.32136685  0.85257567  0.05171717  1
  O  O633  1  0.32301023  0.85440231  0.30066674  1
  O  O634  1  0.32272371  0.85474760  0.55057793  1
  O  O635  1  0.32258838  0.85363310  0.80147274  1
  O  O636  1  0.82332424  0.18775832  0.04945198  1
  O  O637  1  0.82296019  0.18489159  0.29986911  1
  O  O638  1  0.82435658  0.18679290  0.54969995  1
  O  O639  1  0.82374737  0.18819126  0.80039603  1
  O  O640  1  0.82300929  0.52088513  0.05052424  1
  O  O641  1  0.82177754  0.51902123  0.30046438  1
  O  O642  1  0.82326906  0.51919283  0.55012961  1
  O  O643  1  0.82428989  0.52054815  0.80008813  1
  O  O644  1  0.82303383  0.85464885  0.05051978  1
  O  O645  1  0.82207741  0.85240647  0.30175467  1
  O  O646  1  0.82327117  0.85476199  0.54978747  1
  O  O647  1  0.82296123  0.85484835  0.80062380  1
  O  O648  1  0.17721052  0.14580371  0.19938394  1
  O  O649  1  0.17841137  0.14717038  0.44842368  1
  O  O650  1  0.17847734  0.14725038  0.69848741  1
  O  O651  1  0.17695424  0.14555112  0.95003705  1
  O  O652  1  0.17751553  0.47953414  0.19735615  1
  O  O653  1  0.17723627  0.47950648  0.44782273  1
  O  O654  1  0.17703971  0.47916582  0.69978880  1
  O  O655  1  0.17731604  0.47968389  0.94800212  1
  O  O656  1  0.17710910  0.81472348  0.19828164  1
  O  O657  1  0.17615261  0.81400543  0.45075399  1
  O  O658  1  0.17649755  0.81344034  0.70176225  1
  O  O659  1  0.17739706  0.81343643  0.94858413  1
  O  O660  1  0.67681078  0.14488174  0.20029857  1
  O  O661  1  0.67816880  0.14733811  0.44855065  1
  O  O662  1  0.67737873  0.14648195  0.70014481  1
  O  O663  1  0.67709127  0.14614831  0.95022706  1
  O  O664  1  0.67622078  0.47863329  0.19975044  1
  O  O665  1  0.67702815  0.48178182  0.44840633  1
  O  O666  1  0.67679944  0.48199494  0.69907171  1
  O  O667  1  0.67714362  0.47939250  0.95057399  1
  O  O668  1  0.67679541  0.81190269  0.20135153  1
  O  O669  1  0.67906753  0.81417576  0.44808851  1
  O  O670  1  0.67599979  0.81464203  0.69946649  1
  O  O671  1  0.67604240  0.81397106  0.95188147  1
