# generated using pymatgen
data_Na2MnFe(PO4)2
_symmetry_space_group_name_H-M   'P 1'
_cell_length_a   22.34395252
_cell_length_b   20.09234305
_cell_length_c   19.45051409
_cell_angle_alpha   90.00131440
_cell_angle_beta   90.01597621
_cell_angle_gamma   89.98476316
_symmetry_Int_Tables_number   1
_chemical_formula_structural   Na2MnFe(PO4)2
_chemical_formula_sum   'Na96 Mn48 Fe48 P96 O384'
_cell_volume   8732.15902830
_cell_formula_units_Z   48
loop_
 _symmetry_equiv_pos_site_id
 _symmetry_equiv_pos_as_xyz
  1  'x, y, z'
loop_
 _atom_site_type_symbol
 _atom_site_label
 _atom_site_symmetry_multiplicity
 _atom_site_fract_x
 _atom_site_fract_y
 _atom_site_fract_z
 _atom_site_occupancy
  Na  Na0  1  0.14068749  0.25102387  0.24318184  1
  Na  Na1  1  0.14104852  0.24900222  0.49398631  1
  Na  Na2  1  0.14025573  0.24964769  0.74377602  1
  Na  Na3  1  0.14003614  0.25065166  0.99397935  1
  Na  Na4  1  0.14057153  0.58438135  0.24378940  1
  Na  Na5  1  0.14006874  0.58324751  0.49338947  1
  Na  Na6  1  0.14023113  0.58350324  0.74281213  1
  Na  Na7  1  0.14083018  0.58350449  0.99471629  1
  Na  Na8  1  0.14081817  0.91652454  0.24418868  1
  Na  Na9  1  0.14090126  0.91575936  0.49305828  1
  Na  Na10  1  0.14087575  0.91646624  0.74319972  1
  Na  Na11  1  0.14060594  0.91654365  0.99406535  1
  Na  Na12  1  0.63998837  0.25157921  0.24375165  1
  Na  Na13  1  0.64024249  0.24977947  0.49357590  1
  Na  Na14  1  0.63958748  0.24932019  0.74280819  1
  Na  Na15  1  0.63912024  0.24943301  0.99356481  1
  Na  Na16  1  0.64015943  0.58306154  0.24419660  1
  Na  Na17  1  0.63953450  0.58163160  0.49352876  1
  Na  Na18  1  0.64029452  0.58382404  0.74421137  1
  Na  Na19  1  0.64055240  0.58436521  0.99510416  1
  Na  Na20  1  0.63976080  0.91720755  0.24293726  1
  Na  Na21  1  0.63969306  0.91714855  0.49361289  1
  Na  Na22  1  0.64000824  0.91634623  0.74366257  1
  Na  Na23  1  0.64025425  0.91628496  0.99275409  1
  Na  Na24  1  0.35974340  0.08435045  0.00664458  1
  Na  Na25  1  0.35927929  0.08340035  0.25674770  1
  Na  Na26  1  0.35972944  0.08246456  0.50628900  1
  Na  Na27  1  0.36003936  0.08328405  0.75613683  1
  Na  Na28  1  0.35944214  0.41643277  0.00774489  1
  Na  Na29  1  0.36015930  0.41704634  0.25784818  1
  Na  Na30  1  0.35997806  0.41608915  0.50723728  1
  Na  Na31  1  0.35968335  0.41606187  0.75566618  1
  Na  Na32  1  0.36007187  0.75103610  0.00701422  1
  Na  Na33  1  0.35951897  0.75145170  0.25686125  1
  Na  Na34  1  0.35971017  0.74963728  0.50639455  1
  Na  Na35  1  0.35977019  0.75025095  0.75559092  1
  Na  Na36  1  0.85953540  0.08402286  0.00501973  1
  Na  Na37  1  0.85918309  0.08470898  0.25495499  1
  Na  Na38  1  0.85933177  0.08279370  0.50495528  1
  Na  Na39  1  0.85953896  0.08215630  0.75589387  1
  Na  Na40  1  0.85959414  0.41641151  0.00670358  1
  Na  Na41  1  0.85994997  0.41698784  0.25534590  1
  Na  Na42  1  0.85998813  0.41632587  0.50608253  1
  Na  Na43  1  0.85957398  0.41659699  0.75698939  1
  Na  Na44  1  0.85979993  0.74944893  0.00598581  1
  Na  Na45  1  0.85994413  0.74988561  0.25653772  1
  Na  Na46  1  0.85991221  0.74968549  0.50684894  1
  Na  Na47  1  0.85991109  0.74942830  0.75629953  1
  Na  Na48  1  0.10957513  0.08390256  0.11790954  1
  Na  Na49  1  0.10981576  0.08359812  0.36868045  1
  Na  Na50  1  0.11022159  0.08261561  0.61805134  1
  Na  Na51  1  0.11005941  0.08527876  0.86836507  1
  Na  Na52  1  0.10978365  0.41518774  0.11857967  1
  Na  Na53  1  0.10982627  0.41779776  0.36863607  1
  Na  Na54  1  0.10962506  0.41732513  0.61869873  1
  Na  Na55  1  0.10947872  0.41782990  0.86978660  1
  Na  Na56  1  0.11050430  0.74852322  0.11898993  1
  Na  Na57  1  0.11037815  0.74976357  0.36897551  1
  Na  Na58  1  0.10950201  0.74817235  0.61740398  1
  Na  Na59  1  0.11011040  0.75016264  0.86951400  1
  Na  Na60  1  0.60908131  0.08256530  0.11860502  1
  Na  Na61  1  0.60934851  0.08228470  0.36792482  1
  Na  Na62  1  0.60957249  0.08367284  0.61882805  1
  Na  Na63  1  0.60903766  0.08432632  0.86760335  1
  Na  Na64  1  0.60893458  0.41619987  0.11968529  1
  Na  Na65  1  0.60950228  0.41628430  0.36917074  1
  Na  Na66  1  0.60926368  0.41736074  0.61824800  1
  Na  Na67  1  0.60905572  0.41623106  0.86901058  1
  Na  Na68  1  0.60989203  0.74990040  0.11855007  1
  Na  Na69  1  0.60909528  0.74905241  0.36865505  1
  Na  Na70  1  0.60917140  0.75076858  0.61934916  1
  Na  Na71  1  0.60997105  0.75160386  0.86850376  1
  Na  Na72  1  0.38995351  0.24932670  0.13289288  1
  Na  Na73  1  0.39033619  0.25044697  0.38188569  1
  Na  Na74  1  0.39099625  0.24948964  0.63174945  1
  Na  Na75  1  0.38994010  0.24959524  0.88109758  1
  Na  Na76  1  0.39072766  0.58403477  0.13307004  1
  Na  Na77  1  0.39067581  0.58237753  0.38257761  1
  Na  Na78  1  0.38986032  0.58358965  0.63133440  1
  Na  Na79  1  0.39027423  0.58448158  0.88094493  1
  Na  Na80  1  0.39049082  0.91592629  0.13187888  1
  Na  Na81  1  0.38977854  0.91598422  0.38156359  1
  Na  Na82  1  0.39031641  0.91863067  0.63126463  1
  Na  Na83  1  0.39063749  0.91810953  0.88049734  1
  Na  Na84  1  0.88983446  0.24972201  0.13007973  1
  Na  Na85  1  0.89037924  0.25174312  0.38020855  1
  Na  Na86  1  0.89052002  0.24988500  0.63086205  1
  Na  Na87  1  0.89013521  0.25088496  0.88166817  1
  Na  Na88  1  0.89026456  0.58189147  0.13136952  1
  Na  Na89  1  0.89081691  0.58426114  0.38097938  1
  Na  Na90  1  0.89036514  0.58214602  0.63132706  1
  Na  Na91  1  0.89044465  0.58429091  0.88190777  1
  Na  Na92  1  0.89090449  0.91552632  0.13057356  1
  Na  Na93  1  0.89009023  0.91628883  0.38129454  1
  Na  Na94  1  0.89039821  0.91538105  0.63067538  1
  Na  Na95  1  0.89093197  0.91672456  0.88076125  1
  Mn  Mn96  1  0.50010622  0.66797500  0.75038432  1
  Mn  Mn97  1  0.74982353  0.33348001  0.12440164  1
  Mn  Mn98  1  0.25014096  0.83320715  0.87451680  1
  Mn  Mn99  1  0.00003118  -0.00051911  0.24933236  1
  Mn  Mn100  1  0.50004640  0.83386140  0.49972644  1
  Mn  Mn101  1  0.49867147  0.33230084  0.00013975  1
  Mn  Mn102  1  0.49986965  0.16664544  0.49998702  1
  Mn  Mn103  1  0.00090037  0.83232141  0.74990290  1
  Mn  Mn104  1  0.50013810  0.66816225  0.00108888  1
  Mn  Mn105  1  0.74850279  0.33258006  0.87531753  1
  Mn  Mn106  1  0.74962672  0.16694408  0.37489853  1
  Mn  Mn107  1  0.00098890  0.33464377  0.50004410  1
  Mn  Mn108  1  0.00033350  0.16724173  0.49940414  1
  Mn  Mn109  1  0.24948340  0.33257088  0.87531607  1
  Mn  Mn110  1  0.50007615  -0.00008173  -0.00029088  1
  Mn  Mn111  1  0.49988856  0.66616290  0.25027753  1
  Mn  Mn112  1  0.00000279  0.50015327  0.75031903  1
  Mn  Mn113  1  0.24987316  0.00056477  0.12517885  1
  Mn  Mn114  1  -0.00025408  0.16791902  0.74934742  1
  Mn  Mn115  1  0.25024829  0.00085499  0.87504077  1
  Mn  Mn116  1  0.49996884  0.16567840  0.25083558  1
  Mn  Mn117  1  0.25027122  0.83307559  0.62414554  1
  Mn  Mn118  1  0.74968275  -0.00018720  0.87496872  1
  Mn  Mn119  1  0.00026263  0.66634155  0.00031395  1
  Mn  Mn120  1  0.74941518  0.50076653  0.87602376  1
  Mn  Mn121  1  0.25017445  0.33235083  0.62564204  1
  Mn  Mn122  1  0.00076565  -0.00002754  0.74998499  1
  Mn  Mn123  1  0.75094493  0.49921168  0.37443460  1
  Mn  Mn124  1  0.74950098  0.83356598  0.62518190  1
  Mn  Mn125  1  -0.00020052  0.16767154  0.24893298  1
  Mn  Mn126  1  -0.00038026  -0.00089325  0.49937962  1
  Mn  Mn127  1  0.00052876  -0.00010209  -0.00040679  1
  Mn  Mn128  1  0.00043963  0.49985804  0.24977707  1
  Mn  Mn129  1  0.25108624  0.50017749  0.87556268  1
  Mn  Mn130  1  0.75016462  0.66624578  0.37540005  1
  Mn  Mn131  1  0.75037568  0.33324392  0.62522426  1
  Mn  Mn132  1  0.00059197  0.83160758  0.25076574  1
  Mn  Mn133  1  0.75044384  0.16519516  0.62345777  1
  Mn  Mn134  1  0.75048758  0.83302489  0.12455098  1
  Mn  Mn135  1  0.25023365  0.16671114  0.37512046  1
  Mn  Mn136  1  0.75035929  0.00122323  0.12344729  1
  Mn  Mn137  1  0.25006961  0.50000863  0.37489263  1
  Mn  Mn138  1  0.25053590  0.50056885  0.12596986  1
  Mn  Mn139  1  0.49935839  0.49989424  0.00047874  1
  Mn  Mn140  1  0.25031817  0.66663769  0.87489061  1
  Mn  Mn141  1  0.74916737  0.66572602  0.62568650  1
  Mn  Mn142  1  0.50005987  0.49980427  0.75024901  1
  Mn  Mn143  1  0.74916400  0.83418369  0.37520029  1
  Fe  Fe144  1  -0.00035745  0.33362548  -0.00032527  1
  Fe  Fe145  1  0.25039080  0.33314017  0.37568805  1
  Fe  Fe146  1  0.74998877  -0.00076881  0.62523682  1
  Fe  Fe147  1  0.24996875  0.16662438  0.87525583  1
  Fe  Fe148  1  0.25029780  0.16569617  0.62441210  1
  Fe  Fe149  1  0.75001500  0.33359481  0.37449005  1
  Fe  Fe150  1  0.25102008  0.66758682  0.12541690  1
  Fe  Fe151  1  0.50001722  0.16717058  0.74950910  1
  Fe  Fe152  1  0.74891487  0.16741198  0.12507793  1
  Fe  Fe153  1  0.75049605  0.83287961  0.87465795  1
  Fe  Fe154  1  -0.00000171  0.66635779  0.25043651  1
  Fe  Fe155  1  -0.00068858  0.50046228  0.49984061  1
  Fe  Fe156  1  0.50026869  0.49924169  0.25155246  1
  Fe  Fe157  1  0.25020792  0.33356421  0.12566360  1
  Fe  Fe158  1  0.24980568  0.49953496  0.62458004  1
  Fe  Fe159  1  -0.00021183  0.16736045  -0.00073738  1
  Fe  Fe160  1  0.74953589  0.50039376  0.12516998  1
  Fe  Fe161  1  0.74979934  0.49950470  0.62536868  1
  Fe  Fe162  1  0.74950740  0.16614331  0.87406158  1
  Fe  Fe163  1  0.25028015  -0.00006158  0.62456501  1
  Fe  Fe164  1  0.49943024  0.83466928  0.74922827  1
  Fe  Fe165  1  0.24986061  0.66651279  0.62446832  1
  Fe  Fe166  1  0.25000524  0.83362164  0.12546542  1
  Fe  Fe167  1  0.49999659  0.00091646  0.75029605  1
  Fe  Fe168  1  0.74968740  0.00041905  0.37390560  1
  Fe  Fe169  1  0.00027542  0.49982289  0.00012299  1
  Fe  Fe170  1  0.25037210  0.83344346  0.37519193  1
  Fe  Fe171  1  0.49966561  0.16647882  -0.00018174  1
  Fe  Fe172  1  0.50013796  0.83438347  -0.00032771  1
  Fe  Fe173  1  0.50038730  0.33346970  0.50045941  1
  Fe  Fe174  1  0.00001678  0.66632330  0.74985765  1
  Fe  Fe175  1  0.75035271  0.66650559  0.87520333  1
  Fe  Fe176  1  0.00048933  0.83215198  0.50008474  1
  Fe  Fe177  1  0.75009336  0.66699870  0.12500079  1
  Fe  Fe178  1  0.00008905  0.33424023  0.75053312  1
  Fe  Fe179  1  0.49958600  -0.00121006  0.24945025  1
  Fe  Fe180  1  0.00005098  0.66617241  0.49999109  1
  Fe  Fe181  1  0.25076556  0.66685890  0.37483502  1
  Fe  Fe182  1  0.49961987  0.66669552  0.49990940  1
  Fe  Fe183  1  0.24948540  0.00027150  0.37477515  1
  Fe  Fe184  1  0.00014592  0.33335122  0.24894454  1
  Fe  Fe185  1  0.50019900  -0.00000535  0.50011965  1
  Fe  Fe186  1  0.50018371  0.83287237  0.25027670  1
  Fe  Fe187  1  0.49951364  0.33300402  0.25110900  1
  Fe  Fe188  1  0.24950785  0.16739311  0.12580167  1
  Fe  Fe189  1  0.00047703  0.83283055  -0.00011097  1
  Fe  Fe190  1  0.49952711  0.33340743  0.74983706  1
  Fe  Fe191  1  0.49938148  0.49967500  0.50061243  1
  P  P192  1  0.04109258  0.25052341  0.10118391  1
  P  P193  1  0.04260851  0.25205998  0.35184742  1
  P  P194  1  0.04336988  0.25068066  0.60327359  1
  P  P195  1  0.04171226  0.25217854  0.85319010  1
  P  P196  1  0.04248140  0.58147990  0.10282264  1
  P  P197  1  0.04236453  0.58477412  0.35310999  1
  P  P198  1  0.04129378  0.58302283  0.60174888  1
  P  P199  1  0.04246882  0.58454464  0.85274302  1
  P  P200  1  0.04260305  0.91471134  0.10238525  1
  P  P201  1  0.04274036  0.91578944  0.35356177  1
  P  P202  1  0.04274824  0.91452839  0.60205540  1
  P  P203  1  0.04368213  0.91638770  0.85340550  1
  P  P204  1  0.54131944  0.24823696  0.10298603  1
  P  P205  1  0.54179060  0.25092896  0.35318818  1
  P  P206  1  0.54235441  0.25119914  0.60302609  1
  P  P207  1  0.54092012  0.25013348  0.85152138  1
  P  P208  1  0.54233026  0.58295862  0.10422871  1
  P  P209  1  0.54181692  0.58176900  0.35385103  1
  P  P210  1  0.54088133  0.58386718  0.60171501  1
  P  P211  1  0.54266483  0.58399130  0.85344281  1
  P  P212  1  0.54242091  0.91542705  0.10290876  1
  P  P213  1  0.54119252  0.91631188  0.35165031  1
  P  P214  1  0.54185317  0.91841782  0.60316798  1
  P  P215  1  0.54149088  0.91719484  0.85150090  1
  P  P216  1  0.45741460  0.08165487  0.14774524  1
  P  P217  1  0.45795995  0.08134323  0.39733265  1
  P  P218  1  0.45886025  0.08358391  0.64817729  1
  P  P219  1  0.45784355  0.08472817  0.89682254  1
  P  P220  1  0.45837402  0.41647723  0.14956739  1
  P  P221  1  0.45873406  0.41629752  0.39848614  1
  P  P222  1  0.45790899  0.41558423  0.64690177  1
  P  P223  1  0.45649097  0.41620061  0.89682870  1
  P  P224  1  0.45803384  0.75159252  0.14774226  1
  P  P225  1  0.45782267  0.74889125  0.39737644  1
  P  P226  1  0.45764311  0.75172264  0.64699216  1
  P  P227  1  0.45793527  0.75257404  0.89731892  1
  P  P228  1  0.95741073  0.08362697  0.14559291  1
  P  P229  1  0.95719055  0.08373539  0.39614037  1
  P  P230  1  0.95736468  0.08297357  0.64653953  1
  P  P231  1  0.95810586  0.08492399  0.89714263  1
  P  P232  1  0.95801280  0.41516258  0.14644936  1
  P  P233  1  0.95787536  0.41847843  0.39699664  1
  P  P234  1  0.95769886  0.41597717  0.64759657  1
  P  P235  1  0.95819624  0.41715537  0.89833859  1
  P  P236  1  0.95803234  0.74803764  0.14753546  1
  P  P237  1  0.95843124  0.74922044  0.39849706  1
  P  P238  1  0.95817977  0.74789588  0.64670907  1
  P  P239  1  0.95811705  0.75077571  0.89739420  1
  P  P240  1  0.20745035  0.08470550  0.22777416  1
  P  P241  1  0.20795251  0.08190227  0.47785797  1
  P  P242  1  0.20866989  0.08338329  0.72655419  1
  P  P243  1  0.20775975  0.08524129  0.97803228  1
  P  P244  1  0.20818881  0.41578133  0.22824295  1
  P  P245  1  0.20827270  0.41551585  0.47795074  1
  P  P246  1  0.20783430  0.41741252  0.72741683  1
  P  P247  1  0.20786043  0.41653527  0.97910948  1
  P  P248  1  0.20918013  0.75032172  0.22766758  1
  P  P249  1  0.20927317  0.74940236  0.47648479  1
  P  P250  1  0.20759391  0.74883273  0.72659199  1
  P  P251  1  0.20803270  0.75018602  0.97908971  1
  P  P252  1  0.70731361  0.08465046  0.22717960  1
  P  P253  1  0.70733399  0.08141335  0.47709981  1
  P  P254  1  0.70783250  0.08191252  0.72723786  1
  P  P255  1  0.70708565  0.08506272  0.97716219  1
  P  P256  1  0.70782319  0.41768774  0.22743890  1
  P  P257  1  0.70797930  0.41539240  0.47759139  1
  P  P258  1  0.70717838  0.41765803  0.72771861  1
  P  P259  1  0.70668175  0.41712877  0.97897948  1
  P  P260  1  0.70769045  0.74917238  0.22741312  1
  P  P261  1  0.70666905  0.74975500  0.47836965  1
  P  P262  1  0.70721414  0.74996320  0.72921729  1
  P  P263  1  0.70882297  0.74947819  0.97676245  1
  P  P264  1  0.29141400  0.24984722  0.02395832  1
  P  P265  1  0.29222674  0.25161180  0.27246066  1
  P  P266  1  0.29285544  0.24840124  0.52266641  1
  P  P267  1  0.29186857  0.24802619  0.77236740  1
  P  P268  1  0.29313214  0.58482682  0.02342106  1
  P  P269  1  0.29268623  0.58516080  0.27253098  1
  P  P270  1  0.29104408  0.58337980  0.52290108  1
  P  P271  1  0.29274300  0.58309914  0.77073913  1
  P  P272  1  0.29237443  0.91617951  0.02299245  1
  P  P273  1  0.29091752  0.91696432  0.27323336  1
  P  P274  1  0.29208227  0.91789908  0.52154780  1
  P  P275  1  0.29267023  0.91717108  0.77110973  1
  P  P276  1  0.79137758  0.24823301  0.02174429  1
  P  P277  1  0.79188624  0.25147126  0.27190013  1
  P  P278  1  0.79298269  0.25013135  0.52102973  1
  P  P279  1  0.79193545  0.24857458  0.77236294  1
  P  P280  1  0.79150251  0.58387468  0.02352542  1
  P  P281  1  0.79286327  0.58351328  0.27092747  1
  P  P282  1  0.79207751  0.58148497  0.52304480  1
  P  P283  1  0.79226138  0.58392712  0.77278451  1
  P  P284  1  0.79290614  0.91625932  0.02081367  1
  P  P285  1  0.79219212  0.91816539  0.27199424  1
  P  P286  1  0.79186997  0.91807392  0.52199235  1
  P  P287  1  0.79236156  0.91546906  0.77236603  1
  O  O288  1  0.03623169  0.25084283  0.18114965  1
  O  O289  1  0.03774816  0.25180496  0.43182094  1
  O  O290  1  0.03823698  0.25102846  0.68322200  1
  O  O291  1  0.03599190  0.25162230  0.93306320  1
  O  O292  1  0.03737681  0.58197851  0.18269503  1
  O  O293  1  0.03684844  0.58468362  0.43296474  1
  O  O294  1  0.03645602  0.58337904  0.68171946  1
  O  O295  1  0.03725394  0.58382625  0.93263307  1
  O  O296  1  0.03724152  0.91488038  0.18234188  1
  O  O297  1  0.03744851  0.91530408  0.43349227  1
  O  O298  1  0.03788965  0.91474990  0.68206765  1
  O  O299  1  0.03835880  0.91606531  0.93333834  1
  O  O300  1  0.53636129  0.24861500  0.18287024  1
  O  O301  1  0.53675568  0.25121722  0.43309898  1
  O  O302  1  0.53692505  0.25101236  0.68289922  1
  O  O303  1  0.53589215  0.24917322  0.93147782  1
  O  O304  1  0.53707368  0.58238826  0.18419640  1
  O  O305  1  0.53611316  0.58229855  0.43369251  1
  O  O306  1  0.53627835  0.58374142  0.68170772  1
  O  O307  1  0.53740406  0.58402570  0.93337028  1
  O  O308  1  0.53712969  0.91544708  0.18278652  1
  O  O309  1  0.53645859  0.91678022  0.43162322  1
  O  O310  1  0.53623742  0.91832004  0.68299633  1
  O  O311  1  0.53653064  0.91678550  0.93149795  1
  O  O312  1  0.46247969  0.08217164  0.06783526  1
  O  O313  1  0.46323062  0.08103501  0.31743764  1
  O  O314  1  0.46358907  0.08357164  0.56823324  1
  O  O315  1  0.46327648  0.08446631  0.81697759  1
  O  O316  1  0.46279189  0.41612785  0.06955199  1
  O  O317  1  0.46361427  0.41666248  0.31855703  1
  O  O318  1  0.46343869  0.41577168  0.56703269  1
  O  O319  1  0.46184083  0.41578815  0.81690576  1
  O  O320  1  0.46314816  0.75206694  0.06779526  1
  O  O321  1  0.46315944  0.74931818  0.31748079  1
  O  O322  1  0.46308653  0.75087617  0.56708550  1
  O  O323  1  0.46321733  0.75256819  0.81735101  1
  O  O324  1  0.96285503  0.08414478  0.06564945  1
  O  O325  1  0.96238339  0.08371515  0.31614781  1
  O  O326  1  0.96237726  0.08284941  0.56656199  1
  O  O327  1  0.96318479  0.08479571  0.81717626  1
  O  O328  1  0.96327039  0.41549051  0.06657992  1
  O  O329  1  0.96301279  0.41803413  0.31712071  1
  O  O330  1  0.96287632  0.41685337  0.56769396  1
  O  O331  1  0.96336363  0.41695454  0.81837527  1
  O  O332  1  0.96302489  0.74874657  0.06764695  1
  O  O333  1  0.96334742  0.74851756  0.31852558  1
  O  O334  1  0.96355182  0.74818483  0.56680229  1
  O  O335  1  0.96328867  0.75009937  0.81749353  1
  O  O336  1  0.21274569  0.08531556  0.05797421  1
  O  O337  1  0.21266125  0.08408733  0.30767876  1
  O  O338  1  0.21340405  0.08194392  0.55773268  1
  O  O339  1  0.21359046  0.08376101  0.80656732  1
  O  O340  1  0.21329012  0.41621995  0.05905787  1
  O  O341  1  0.21342858  0.41557785  0.30820394  1
  O  O342  1  0.21358923  0.41610227  0.55788122  1
  O  O343  1  0.21297151  0.41736968  0.80738370  1
  O  O344  1  0.21350943  0.75037419  0.05901213  1
  O  O345  1  0.21455582  0.74992280  0.30756444  1
  O  O346  1  0.21413283  0.74923388  0.55642201  1
  O  O347  1  0.21254656  0.74912072  0.80657023  1
  O  O348  1  0.71227767  0.08542280  0.05711172  1
  O  O349  1  0.71266603  0.08377989  0.30711117  1
  O  O350  1  0.71275469  0.08099385  0.55702910  1
  O  O351  1  0.71295684  0.08280687  0.80718250  1
  O  O352  1  0.71208976  0.41748360  0.05888760  1
  O  O353  1  0.71324996  0.41673845  0.30735422  1
  O  O354  1  0.71309939  0.41600752  0.55754251  1
  O  O355  1  0.71186183  0.41739053  0.80774508  1
  O  O356  1  0.71400079  0.74926555  0.05676332  1
  O  O357  1  0.71261691  0.74958404  0.30739644  1
  O  O358  1  0.71150377  0.74993088  0.55835674  1
  O  O359  1  0.71273065  0.75007312  0.80911338  1
  O  O360  1  0.28677330  0.25163692  0.19259455  1
  O  O361  1  0.28756595  0.24916895  0.44275683  1
  O  O362  1  0.28675849  0.24775262  0.69245977  1
  O  O363  1  0.28641023  0.24959104  0.94397591  1
  O  O364  1  0.28757582  0.58525099  0.19259746  1
  O  O365  1  0.28632676  0.58362779  0.44287826  1
  O  O366  1  0.28722497  0.58283806  0.69082346  1
  O  O367  1  0.28822129  0.58430628  0.94339847  1
  O  O368  1  0.28590407  0.91625885  0.19329689  1
  O  O369  1  0.28663055  0.91798612  0.44168170  1
  O  O370  1  0.28733488  0.91752429  0.69117270  1
  O  O371  1  0.28744278  0.91656404  0.94300083  1
  O  O372  1  0.78632914  0.25085200  0.19198026  1
  O  O373  1  0.78754257  0.25084072  0.44111223  1
  O  O374  1  0.78723253  0.24896524  0.69235276  1
  O  O375  1  0.78593299  0.24812399  0.94182388  1
  O  O376  1  0.78738179  0.58368194  0.19105889  1
  O  O377  1  0.78747777  0.58170438  0.44305291  1
  O  O378  1  0.78687764  0.58283656  0.69290020  1
  O  O379  1  0.78642863  0.58445159  0.94356070  1
  O  O380  1  0.78735698  0.91770915  0.19198273  1
  O  O381  1  0.78647703  0.91828154  0.44203194  1
  O  O382  1  0.78722677  0.91611438  0.69239938  1
  O  O383  1  0.78756932  0.91561684  0.94089943  1
  O  O384  1  0.22721446  0.25016327  0.05991112  1
  O  O385  1  0.22810106  0.25166302  0.30857334  1
  O  O386  1  0.22858732  0.24782769  0.55837949  1
  O  O387  1  0.22761689  0.24800666  0.80819045  1
  O  O388  1  0.22876777  0.58493983  0.05867925  1
  O  O389  1  0.22839149  0.58502479  0.30814129  1
  O  O390  1  0.22688965  0.58356099  0.55875447  1
  O  O391  1  0.22856444  0.58304728  0.80659349  1
  O  O392  1  0.22802322  0.91600005  0.05839751  1
  O  O393  1  0.22691655  0.91723617  0.30941223  1
  O  O394  1  0.22802176  0.91764977  0.55777697  1
  O  O395  1  0.22845238  0.91720977  0.80670474  1
  O  O396  1  0.72718025  0.24865480  0.05764603  1
  O  O397  1  0.72771934  0.25179985  0.30791966  1
  O  O398  1  0.72870646  0.24982041  0.55646416  1
  O  O399  1  0.72738082  0.24812774  0.80737021  1
  O  O400  1  0.72739064  0.58401082  0.05966593  1
  O  O401  1  0.72866103  0.58314800  0.30670152  1
  O  O402  1  0.72758498  0.58108905  0.55815233  1
  O  O403  1  0.72797552  0.58494537  0.80849305  1
  O  O404  1  0.72861067  0.91662202  0.05617815  1
  O  O405  1  0.72773076  0.91840723  0.30723094  1
  O  O406  1  0.72761727  0.91817472  0.55783164  1
  O  O407  1  0.72807457  0.91517147  0.80792158  1
  O  O408  1  0.27172028  0.08507140  0.19209233  1
  O  O409  1  0.27206384  0.08170249  0.44168094  1
  O  O410  1  0.27288560  0.08353910  0.69060965  1
  O  O411  1  0.27210536  0.08518551  0.94245074  1
  O  O412  1  0.27247669  0.41590412  0.19264399  1
  O  O413  1  0.27248160  0.41549496  0.44204927  1
  O  O414  1  0.27208596  0.41735325  0.69182449  1
  O  O415  1  0.27208390  0.41600158  0.94353257  1
  O  O416  1  0.27316170  0.75082833  0.19111878  1
  O  O417  1  0.27342543  0.74938922  0.44061964  1
  O  O418  1  0.27198758  0.74864659  0.69128893  1
  O  O419  1  0.27222586  0.75016223  0.94326308  1
  O  O420  1  0.77154265  0.08558393  0.19129994  1
  O  O421  1  0.77154676  0.08173866  0.44122930  1
  O  O422  1  0.77212698  0.08119121  0.69154905  1
  O  O423  1  0.77139046  0.08490999  0.94150257  1
  O  O424  1  0.77194576  0.41805351  0.19146112  1
  O  O425  1  0.77229809  0.41458044  0.44192974  1
  O  O426  1  0.77171361  0.41810105  0.69273848  1
  O  O427  1  0.77091613  0.41647412  0.94348259  1
  O  O428  1  0.77209956  0.74859244  0.19212934  1
  O  O429  1  0.77118200  0.75038026  0.44358489  1
  O  O430  1  0.77135123  0.74970997  0.69334083  1
  O  O431  1  0.77294246  0.74928248  0.94061176  1
  O  O432  1  0.02168248  0.08358057  0.18114397  1
  O  O433  1  0.02159995  0.08334366  0.43126091  1
  O  O434  1  0.02184443  0.08362001  0.68150129  1
  O  O435  1  0.02238146  0.08479891  0.93266769  1
  O  O436  1  0.02219457  0.41497544  0.18256918  1
  O  O437  1  0.02217709  0.41936220  0.43271460  1
  O  O438  1  0.02200971  0.41562496  0.68332214  1
  O  O439  1  0.02233727  0.41715816  0.93444889  1
  O  O440  1  0.02241926  0.74755525  0.18307296  1
  O  O441  1  0.02270538  0.74958335  0.43426680  1
  O  O442  1  0.02239440  0.74756149  0.68273457  1
  O  O443  1  0.02235662  0.75093731  0.93322395  1
  O  O444  1  0.52170748  0.08126488  0.18345109  1
  O  O445  1  0.52216695  0.08184279  0.43324506  1
  O  O446  1  0.52296802  0.08295678  0.68414108  1
  O  O447  1  0.52195304  0.08475906  0.93313339  1
  O  O448  1  0.52261878  0.41688544  0.18519247  1
  O  O449  1  0.52277913  0.41608401  0.43466500  1
  O  O450  1  0.52196236  0.41497510  0.68330134  1
  O  O451  1  0.52079458  0.41598720  0.93227779  1
  O  O452  1  0.52230325  0.75099753  0.18338031  1
  O  O453  1  0.52197914  0.74859009  0.43335358  1
  O  O454  1  0.52178805  0.75235275  0.68305608  1
  O  O455  1  0.52217718  0.75249810  0.93326389  1
  O  O456  1  0.47700887  0.24773408  0.06723187  1
  O  O457  1  0.47754766  0.25039978  0.31753807  1
  O  O458  1  0.47823207  0.25128328  0.56679151  1
  O  O459  1  0.47682846  0.25092845  0.81543274  1
  O  O460  1  0.47804024  0.58382473  0.06877067  1
  O  O461  1  0.47779812  0.58155489  0.31739020  1
  O  O462  1  0.47666451  0.58436559  0.56601937  1
  O  O463  1  0.47833648  0.58386554  0.81814883  1
  O  O464  1  0.47819528  0.91553286  0.06688376  1
  O  O465  1  0.47696605  0.91622020  0.31581690  1
  O  O466  1  0.47779778  0.91846916  0.56676828  1
  O  O467  1  0.47736189  0.91773399  0.81537619  1
  O  O468  1  0.97694843  0.25061230  0.06525177  1
  O  O469  1  0.97815954  0.25220388  0.31659040  1
  O  O470  1  0.97899595  0.25078355  0.56803119  1
  O  O471  1  0.97762871  0.25255614  0.81683643  1
  O  O472  1  0.97823023  0.58134714  0.06702989  1
  O  O473  1  0.97824729  0.58459569  0.31688222  1
  O  O474  1  0.97710646  0.58289499  0.56580533  1
  O  O475  1  0.97816815  0.58483717  0.81699605  1
  O  O476  1  0.97840030  0.91494993  0.06655041  1
  O  O477  1  0.97843800  0.91571909  0.31814652  1
  O  O478  1  0.97832475  0.91390073  0.56678795  1
  O  O479  1  0.97932095  0.91634898  0.81805323  1
  O  O480  1  0.07236524  0.31380118  0.07283971  1
  O  O481  1  0.07317121  0.31565287  0.32334951  1
  O  O482  1  0.07479089  0.31382806  0.57483941  1
  O  O483  1  0.07268839  0.31571823  0.82488014  1
  O  O484  1  0.07373908  0.64489293  0.07479562  1
  O  O485  1  0.07302505  0.64827792  0.32416718  1
  O  O486  1  0.07233807  0.64636816  0.57314931  1
  O  O487  1  0.07313187  0.64815004  0.82432136  1
  O  O488  1  0.07395250  0.97832203  0.07495673  1
  O  O489  1  0.07358599  0.97943118  0.32540765  1
  O  O490  1  0.07329967  0.97845517  0.57432140  1
  O  O491  1  0.07443803  0.98023578  0.82543998  1
  O  O492  1  0.57220107  0.31189758  0.07483539  1
  O  O493  1  0.57217544  0.31442124  0.32397773  1
  O  O494  1  0.57335484  0.31452790  0.57431275  1
  O  O495  1  0.57226159  0.31375365  0.82405028  1
  O  O496  1  0.57365652  0.64650970  0.07647986  1
  O  O497  1  0.57317518  0.64517315  0.32564956  1
  O  O498  1  0.57209571  0.64734435  0.57377615  1
  O  O499  1  0.57361716  0.64748656  0.82529100  1
  O  O500  1  0.57357425  0.97897101  0.07470496  1
  O  O501  1  0.57218830  0.97961820  0.32289906  1
  O  O502  1  0.57269817  0.98179473  0.57426083  1
  O  O503  1  0.57249680  0.98103733  0.82394741  1
  O  O504  1  0.42668050  0.01796989  0.17602243  1
  O  O505  1  0.42730093  0.01803917  0.42641290  1
  O  O506  1  0.42720621  0.02059137  0.67659720  1
  O  O507  1  0.42657807  0.02123159  0.92493345  1
  O  O508  1  0.42829189  0.35234857  0.17796262  1
  O  O509  1  0.42755589  0.35282959  0.42671905  1
  O  O510  1  0.42659544  0.35234602  0.67541948  1
  O  O511  1  0.42504163  0.35308862  0.92542672  1
  O  O512  1  0.42672849  0.68797324  0.17528264  1
  O  O513  1  0.42702300  0.68531339  0.42573848  1
  O  O514  1  0.42661222  0.68825321  0.67528338  1
  O  O515  1  0.42691109  0.68882601  0.92513957  1
  O  O516  1  0.92652216  0.01982665  0.17333926  1
  O  O517  1  0.92589204  0.02038990  0.42418530  1
  O  O518  1  0.92689839  0.01922505  0.67488092  1
  O  O519  1  0.92687918  0.02128289  0.92463466  1
  O  O520  1  0.92720181  0.35166797  0.17520297  1
  O  O521  1  0.92714458  0.35482894  0.42518476  1
  O  O522  1  0.92703111  0.35231709  0.67593580  1
  O  O523  1  0.92694206  0.35377931  0.92649396  1
  O  O524  1  0.92747818  0.68434443  0.17595391  1
  O  O525  1  0.92750155  0.68583471  0.42721733  1
  O  O526  1  0.92732265  0.68448771  0.67555616  1
  O  O527  1  0.92682246  0.68742955  0.92559101  1
  O  O528  1  0.17627477  0.02129929  0.19951354  1
  O  O529  1  0.17679834  0.01873055  0.44893020  1
  O  O530  1  0.17827138  0.01932860  0.69846090  1
  O  O531  1  0.17686902  0.02143399  0.95018601  1
  O  O532  1  0.17726758  0.35261627  0.19915535  1
  O  O533  1  0.17780681  0.35165131  0.44981578  1
  O  O534  1  0.17666399  0.35370274  0.70000722  1
  O  O535  1  0.17617492  0.35357186  0.95062958  1
  O  O536  1  0.17855599  0.68660091  0.19896956  1
  O  O537  1  0.17795833  0.68614208  0.44809212  1
  O  O538  1  0.17690883  0.68529138  0.69807419  1
  O  O539  1  0.17682786  0.68670181  0.95086120  1
  O  O540  1  0.67657826  0.02113010  0.19854150  1
  O  O541  1  0.67640316  0.01834182  0.44786877  1
  O  O542  1  0.67700828  0.01818078  0.69937963  1
  O  O543  1  0.67625048  0.02097871  0.94988129  1
  O  O544  1  0.67641175  0.35438938  0.19928564  1
  O  O545  1  0.67701200  0.35194991  0.44909594  1
  O  O546  1  0.67652634  0.35388787  0.69972674  1
  O  O547  1  0.67530631  0.35361927  0.95110980  1
  O  O548  1  0.67668467  0.68577141  0.19911268  1
  O  O549  1  0.67627614  0.68588515  0.45032145  1
  O  O550  1  0.67577603  0.68664773  0.70090991  1
  O  O551  1  0.67759304  0.68606387  0.94866435  1
  O  O552  1  0.32231414  0.31362031  0.05198979  1
  O  O553  1  0.32316756  0.31483832  0.30160528  1
  O  O554  1  0.32380668  0.31186319  0.55104396  1
  O  O555  1  0.32258513  0.31203189  0.79992679  1
  O  O556  1  0.32376690  0.64849114  0.05171428  1
  O  O557  1  0.32368618  0.64837253  0.30129029  1
  O  O558  1  0.32226221  0.64674055  0.55126075  1
  O  O559  1  0.32390345  0.64662890  0.79899537  1
  O  O560  1  0.32327857  0.97995794  0.05078411  1
  O  O561  1  0.32179947  0.98084189  0.30083669  1
  O  O562  1  0.32282093  0.98127113  0.55066708  1
  O  O563  1  0.32400299  0.98030365  0.79969910  1
  O  O564  1  0.82262207  0.31204180  0.04909041  1
  O  O565  1  0.82266630  0.31518300  0.29995370  1
  O  O566  1  0.82442031  0.31304344  0.54994561  1
  O  O567  1  0.82244147  0.31239198  0.80063474  1
  O  O568  1  0.82281827  0.64713618  0.05193094  1
  O  O569  1  0.82383423  0.64684989  0.29987503  1
  O  O570  1  0.82275512  0.64531756  0.55089015  1
  O  O571  1  0.82331589  0.64749281  0.80080779  1
  O  O572  1  0.82390817  0.98008337  0.04832348  1
  O  O573  1  0.82285641  0.98185715  0.30009099  1
  O  O574  1  0.82302263  0.98114308  0.55096291  1
  O  O575  1  0.82363919  0.97884099  0.80059444  1
  O  O576  1  0.42631750  0.14503123  0.17617671  1
  O  O577  1  0.42678059  0.14518272  0.42472505  1
  O  O578  1  0.42890500  0.14787133  0.67652632  1
  O  O579  1  0.42707012  0.14817465  0.92572121  1
  O  O580  1  0.42724707  0.47995525  0.17765090  1
  O  O581  1  0.42806414  0.48003002  0.42738066  1
  O  O582  1  0.42704485  0.47942455  0.67476851  1
  O  O583  1  0.42571103  0.47996249  0.92488418  1
  O  O584  1  0.42740168  0.81495784  0.17689917  1
  O  O585  1  0.42670797  0.81244987  0.42530465  1
  O  O586  1  0.42671837  0.81546205  0.67484506  1
  O  O587  1  0.42707485  0.81603915  0.92580313  1
  O  O588  1  0.92602080  0.14679980  0.17406619  1
  O  O589  1  0.92651993  0.14752696  0.42405707  1
  O  O590  1  0.92589459  0.14628975  0.67447249  1
  O  O591  1  0.92743145  0.14858121  0.92548364  1
  O  O592  1  0.92688199  0.47862163  0.17474365  1
  O  O593  1  0.92687541  0.48193340  0.42554770  1
  O  O594  1  0.92654745  0.47933228  0.67606632  1
  O  O595  1  0.92767017  0.48114053  0.92641129  1
  O  O596  1  0.92694495  0.81148823  0.17595167  1
  O  O597  1  0.92766636  0.81313226  0.42630155  1
  O  O598  1  0.92706339  0.81150343  0.67478745  1
  O  O599  1  0.92765054  0.81456466  0.92578482  1
  O  O600  1  0.07154154  0.18646453  0.07311669  1
  O  O601  1  0.07354029  0.18835787  0.32392960  1
  O  O602  1  0.07410872  0.18694352  0.57503701  1
  O  O603  1  0.07293238  0.18865704  0.82503649  1
  O  O604  1  0.07304742  0.51778134  0.07433168  1
  O  O605  1  0.07385567  0.52139585  0.32508387  1
  O  O606  1  0.07185171  0.51912369  0.57358625  1
  O  O607  1  0.07361357  0.52104740  0.82451876  1
  O  O608  1  0.07305604  0.85092245  0.07416566  1
  O  O609  1  0.07416007  0.85252822  0.32531636  1
  O  O610  1  0.07380138  0.85111878  0.57368900  1
  O  O611  1  0.07509302  0.85327267  0.82493155  1
  O  O612  1  0.57206062  0.18472348  0.07428649  1
  O  O613  1  0.57318033  0.18728558  0.32576861  1
  O  O614  1  0.57347638  0.18756084  0.57490645  1
  O  O615  1  0.57133919  0.18645878  0.82239413  1
  O  O616  1  0.57312416  0.51952920  0.07567829  1
  O  O617  1  0.57281431  0.51822645  0.32552535  1
  O  O618  1  0.57102299  0.51971074  0.57351499  1
  O  O619  1  0.57377920  0.52048883  0.82535818  1
  O  O620  1  0.57331021  0.85210932  0.07388089  1
  O  O621  1  0.57179179  0.85223303  0.32387110  1
  O  O622  1  0.57315661  0.85488423  0.57514479  1
  O  O623  1  0.57216052  0.85363447  0.82287650  1
  O  O624  1  0.32217984  0.18627592  0.05257709  1
  O  O625  1  0.32345705  0.18790611  0.30022585  1
  O  O626  1  0.32374704  0.18470693  0.55062764  1
  O  O627  1  0.32282520  0.18487529  0.80146777  1
  O  O628  1  0.32426426  0.52125672  0.05140111  1
  O  O629  1  0.32354170  0.52128187  0.30031977  1
  O  O630  1  0.32134253  0.51924565  0.55100965  1
  O  O631  1  0.32415579  0.51991942  0.79948490  1
  O  O632  1  0.32307822  0.85273319  0.05164654  1
  O  O633  1  0.32171730  0.85343470  0.30208458  1
  O  O634  1  0.32357915  0.85432439  0.54918016  1
  O  O635  1  0.32353706  0.85338300  0.79890371  1
  O  O636  1  0.82219536  0.18502955  0.05080218  1
  O  O637  1  0.82317266  0.18803023  0.29990019  1
  O  O638  1  0.82393009  0.18620468  0.54848399  1
  O  O639  1  0.82278052  0.18501061  0.80056111  1
  O  O640  1  0.82178984  0.51958827  0.05121239  1
  O  O641  1  0.82433635  0.52014945  0.29905725  1
  O  O642  1  0.82276847  0.51797305  0.55167959  1
  O  O643  1  0.82316740  0.52046489  0.80143055  1
  O  O644  1  0.82417650  0.85317240  0.04965561  1
  O  O645  1  0.82302650  0.85448098  0.30019531  1
  O  O646  1  0.82271555  0.85408696  0.54954499  1
  O  O647  1  0.82311356  0.85174948  0.80057144  1
  O  O648  1  0.17675626  0.14843508  0.19953493  1
  O  O649  1  0.17688506  0.14564659  0.44994976  1
  O  O650  1  0.17748018  0.14670924  0.69804103  1
  O  O651  1  0.17700792  0.14856774  0.94901844  1
  O  O652  1  0.17712781  0.47970298  0.20091560  1
  O  O653  1  0.17687065  0.47884525  0.44975448  1
  O  O654  1  0.17721151  0.48092532  0.69857914  1
  O  O655  1  0.17728796  0.48045998  0.95123300  1
  O  O656  1  0.17787763  0.81387073  0.19958502  1
  O  O657  1  0.17897948  0.81350508  0.44824498  1
  O  O658  1  0.17663942  0.81247995  0.69867264  1
  O  O659  1  0.17682758  0.81346250  0.95037656  1
  O  O660  1  0.67619104  0.14835919  0.19954304  1
  O  O661  1  0.67626297  0.14542174  0.44993146  1
  O  O662  1  0.67690838  0.14536367  0.69865956  1
  O  O663  1  0.67607079  0.14807783  0.94785871  1
  O  O664  1  0.67711143  0.48150489  0.19949427  1
  O  O665  1  0.67715438  0.47901582  0.44934877  1
  O  O666  1  0.67644399  0.48120746  0.69916786  1
  O  O667  1  0.67565126  0.48055556  0.95069884  1
  O  O668  1  0.67705964  0.81300793  0.19937086  1
  O  O669  1  0.67521915  0.81296990  0.45005373  1
  O  O670  1  0.67601843  0.81331650  0.70069393  1
  O  O671  1  0.67837463  0.81352820  0.94869591  1
