# generated using pymatgen
data_Na2MnFe(PO4)2
_symmetry_space_group_name_H-M   'P 1'
_cell_length_a   22.34652839
_cell_length_b   20.09675701
_cell_length_c   19.44630781
_cell_angle_alpha   90.02806942
_cell_angle_beta   89.97058297
_cell_angle_gamma   90.00049747
_symmetry_Int_Tables_number   1
_chemical_formula_structural   Na2MnFe(PO4)2
_chemical_formula_sum   'Na96 Mn48 Fe48 P96 O384'
_cell_volume   8733.19367345
_cell_formula_units_Z   48
loop_
 _symmetry_equiv_pos_site_id
 _symmetry_equiv_pos_as_xyz
  1  'x, y, z'
loop_
 _atom_site_type_symbol
 _atom_site_label
 _atom_site_symmetry_multiplicity
 _atom_site_fract_x
 _atom_site_fract_y
 _atom_site_fract_z
 _atom_site_occupancy
  Na  Na0  1  0.14081011  0.24919302  0.24252953  1
  Na  Na1  1  0.14031558  0.24962137  0.49439281  1
  Na  Na2  1  0.14005729  0.25010952  0.74431320  1
  Na  Na3  1  0.14045146  0.24853055  0.99427555  1
  Na  Na4  1  0.14073191  0.58361680  0.24320983  1
  Na  Na5  1  0.14060876  0.58332940  0.49380924  1
  Na  Na6  1  0.14105885  0.58269772  0.74422872  1
  Na  Na7  1  0.14077399  0.58336819  0.99359011  1
  Na  Na8  1  0.14064687  0.91779015  0.24260378  1
  Na  Na9  1  0.14044836  0.91603691  0.49284729  1
  Na  Na10  1  0.14017653  0.91612165  0.74578004  1
  Na  Na11  1  0.14041962  0.91664917  0.99270084  1
  Na  Na12  1  0.64029122  0.24950546  0.24438588  1
  Na  Na13  1  0.64009354  0.25044176  0.49333705  1
  Na  Na14  1  0.63990036  0.25098780  0.74294272  1
  Na  Na15  1  0.64065885  0.25062051  0.99393926  1
  Na  Na16  1  0.63961101  0.58203498  0.24354587  1
  Na  Na17  1  0.64013290  0.58239378  0.49208543  1
  Na  Na18  1  0.64100442  0.58398005  0.74230554  1
  Na  Na19  1  0.64049112  0.58407036  0.99292908  1
  Na  Na20  1  0.64013878  0.91654530  0.24517612  1
  Na  Na21  1  0.64061941  0.91669143  0.49388658  1
  Na  Na22  1  0.64015394  0.91671216  0.74455431  1
  Na  Na23  1  0.64017844  0.91715306  0.99352208  1
  Na  Na24  1  0.35891427  0.08321583  0.00693683  1
  Na  Na25  1  0.35944642  0.08293179  0.25670478  1
  Na  Na26  1  0.35964722  0.08301734  0.50637538  1
  Na  Na27  1  0.35957413  0.08307048  0.75668663  1
  Na  Na28  1  0.35970358  0.41587198  0.00629891  1
  Na  Na29  1  0.35976681  0.41715057  0.25681333  1
  Na  Na30  1  0.36015401  0.41620810  0.50740746  1
  Na  Na31  1  0.36003319  0.41596326  0.75534113  1
  Na  Na32  1  0.36028416  0.75101437  0.00663759  1
  Na  Na33  1  0.35957178  0.75071416  0.25644558  1
  Na  Na34  1  0.35925479  0.74879309  0.50505838  1
  Na  Na35  1  0.35946745  0.75040400  0.75744010  1
  Na  Na36  1  0.85959744  0.08478897  0.00720272  1
  Na  Na37  1  0.85992713  0.08240030  0.25621053  1
  Na  Na38  1  0.85929570  0.08288300  0.50609455  1
  Na  Na39  1  0.85883890  0.08384445  0.75782017  1
  Na  Na40  1  0.85974302  0.41683465  0.00543455  1
  Na  Na41  1  0.85990784  0.41607490  0.25625804  1
  Na  Na42  1  0.85954980  0.41679597  0.50567177  1
  Na  Na43  1  0.85972785  0.41711642  0.75677735  1
  Na  Na44  1  0.85971178  0.75142115  0.00555262  1
  Na  Na45  1  0.85921665  0.75005822  0.25609057  1
  Na  Na46  1  0.85933500  0.74960096  0.50577879  1
  Na  Na47  1  0.85936163  0.75093944  0.75636184  1
  Na  Na48  1  0.10980392  0.08208416  0.11723701  1
  Na  Na49  1  0.10977334  0.08369052  0.36762176  1
  Na  Na50  1  0.10939010  0.08304883  0.62033907  1
  Na  Na51  1  0.11001328  0.08336866  0.86947342  1
  Na  Na52  1  0.10982405  0.41535093  0.11923309  1
  Na  Na53  1  0.11010616  0.41646438  0.36909169  1
  Na  Na54  1  0.11021818  0.41678440  0.61969037  1
  Na  Na55  1  0.10961441  0.41664907  0.86901722  1
  Na  Na56  1  0.10989409  0.75043059  0.11796959  1
  Na  Na57  1  0.11006163  0.75014215  0.36705139  1
  Na  Na58  1  0.10999484  0.75061573  0.61982004  1
  Na  Na59  1  0.11027665  0.75000611  0.86855955  1
  Na  Na60  1  0.60984352  0.08311609  0.11967939  1
  Na  Na61  1  0.60949997  0.08292975  0.36996409  1
  Na  Na62  1  0.60900474  0.08466609  0.61885696  1
  Na  Na63  1  0.60932210  0.08454970  0.86908392  1
  Na  Na64  1  0.60984088  0.41756271  0.11929359  1
  Na  Na65  1  0.60997942  0.41631165  0.36850479  1
  Na  Na66  1  0.61009057  0.41606988  0.61672729  1
  Na  Na67  1  0.60983170  0.41557487  0.86748324  1
  Na  Na68  1  0.60946430  0.74951074  0.11868652  1
  Na  Na69  1  0.60930008  0.74896598  0.36911216  1
  Na  Na70  1  0.60962943  0.75052747  0.61832757  1
  Na  Na71  1  0.61050615  0.75028208  0.86868492  1
  Na  Na72  1  0.38999021  0.25056688  0.13223607  1
  Na  Na73  1  0.39066593  0.24945118  0.38155290  1
  Na  Na74  1  0.39053008  0.25032638  0.63110853  1
  Na  Na75  1  0.38992195  0.24984582  0.88050850  1
  Na  Na76  1  0.39105301  0.58409931  0.13094260  1
  Na  Na77  1  0.39072176  0.58235304  0.38151573  1
  Na  Na78  1  0.39036928  0.58216590  0.63051639  1
  Na  Na79  1  0.39084540  0.58435139  0.88101168  1
  Na  Na80  1  0.38953107  0.91586088  0.13225618  1
  Na  Na81  1  0.38957064  0.91646264  0.38196795  1
  Na  Na82  1  0.39000162  0.91773095  0.63075092  1
  Na  Na83  1  0.39002140  0.91611101  0.88306787  1
  Na  Na84  1  0.89045150  0.24980242  0.13128064  1
  Na  Na85  1  0.89057110  0.25101503  0.38046467  1
  Na  Na86  1  0.88984314  0.25157158  0.63233317  1
  Na  Na87  1  0.88967790  0.25104341  0.88199906  1
  Na  Na88  1  0.89069128  0.58183186  0.13013047  1
  Na  Na89  1  0.89034891  0.58222080  0.38029878  1
  Na  Na90  1  0.89021881  0.58346125  0.63193540  1
  Na  Na91  1  0.89052860  0.58392054  0.88076146  1
  Na  Na92  1  0.88988178  0.91688353  0.13078535  1
  Na  Na93  1  0.88976580  0.91698627  0.38089076  1
  Na  Na94  1  0.88979473  0.91631982  0.63073268  1
  Na  Na95  1  0.89037924  0.91679298  0.88214515  1
  Mn  Mn96  1  -0.00025240  0.16733278  0.49995175  1
  Mn  Mn97  1  0.74983875  0.50027586  0.87433671  1
  Mn  Mn98  1  0.74959221  0.16757244  0.62518960  1
  Mn  Mn99  1  -0.00058184  0.83403509  0.24852101  1
  Mn  Mn100  1  0.25043085  0.83295833  0.62509545  1
  Mn  Mn101  1  0.00001606  0.49989890  0.50043352  1
  Mn  Mn102  1  0.24985288  -0.00073706  0.62555038  1
  Mn  Mn103  1  0.50002530  0.66649281  0.74955884  1
  Mn  Mn104  1  0.00034435  0.66674298  0.49998918  1
  Mn  Mn105  1  0.25057925  0.16561935  0.37447123  1
  Mn  Mn106  1  0.74978483  0.00088368  0.87512046  1
  Mn  Mn107  1  -0.00012440  0.16621679  0.24983132  1
  Mn  Mn108  1  0.49999482  0.50089708  -0.00103025  1
  Mn  Mn109  1  0.50015919  0.00032256  0.25079502  1
  Mn  Mn110  1  0.49938815  0.83306176  0.50018696  1
  Mn  Mn111  1  0.74972812  0.66698528  0.62408370  1
  Mn  Mn112  1  0.50030219  0.83217442  0.25118682  1
  Mn  Mn113  1  0.75003314  0.66661530  0.12505373  1
  Mn  Mn114  1  0.25053797  0.66818748  0.12460670  1
  Mn  Mn115  1  0.00015080  0.33384150  0.50050758  1
  Mn  Mn116  1  0.75040319  0.16665373  0.37529889  1
  Mn  Mn117  1  0.25085982  0.49994366  0.12479550  1
  Mn  Mn118  1  0.74977062  0.66587832  0.37524033  1
  Mn  Mn119  1  0.49903372  -0.00024204  0.00056448  1
  Mn  Mn120  1  0.00045766  0.66608071  -0.00042126  1
  Mn  Mn121  1  0.00027068  0.83359799  0.49918771  1
  Mn  Mn122  1  0.24925707  0.66626694  0.62524448  1
  Mn  Mn123  1  0.25007326  0.49995921  0.87556415  1
  Mn  Mn124  1  0.50006889  0.16722661  -0.00000028  1
  Mn  Mn125  1  0.24934390  0.33219272  0.87557478  1
  Mn  Mn126  1  -0.00031182  0.33354372  0.00030837  1
  Mn  Mn127  1  0.24930153  0.50021103  0.37526396  1
  Mn  Mn128  1  0.49945313  0.83361944  0.74973539  1
  Mn  Mn129  1  0.49998914  0.00102665  0.75082317  1
  Mn  Mn130  1  0.50022979  0.33362873  0.25054968  1
  Mn  Mn131  1  0.74947863  -0.00077339  0.62635734  1
  Mn  Mn132  1  0.00025181  0.66704862  0.75067057  1
  Mn  Mn133  1  0.74891550  0.83442566  0.12563324  1
  Mn  Mn134  1  0.50107055  0.49916128  0.74945872  1
  Mn  Mn135  1  0.75002678  0.16704298  0.12577056  1
  Mn  Mn136  1  0.00012379  0.00041751  0.50015345  1
  Mn  Mn137  1  0.24904923  0.16632797  0.62544667  1
  Mn  Mn138  1  -0.00046510  0.66554822  0.24848917  1
  Mn  Mn139  1  0.50009431  0.33375782  0.00023534  1
  Mn  Mn140  1  0.75032962  0.49884824  0.12359006  1
  Mn  Mn141  1  -0.00071802  -0.00045516  0.75008878  1
  Mn  Mn142  1  -0.00106086  0.16737560  0.75053441  1
  Mn  Mn143  1  0.25022011  0.33298744  0.37504755  1
  Fe  Fe144  1  0.50004593  0.16656652  0.25115882  1
  Fe  Fe145  1  0.24954120  0.83416130  0.12496589  1
  Fe  Fe146  1  0.24960322  0.83353704  0.37429326  1
  Fe  Fe147  1  0.74954440  0.83323098  0.37512491  1
  Fe  Fe148  1  0.49923609  0.16747980  0.74887371  1
  Fe  Fe149  1  0.25000661  0.33259076  0.12507087  1
  Fe  Fe150  1  0.74959347  0.16786003  0.87573906  1
  Fe  Fe151  1  0.75003477  0.33331350  0.12488988  1
  Fe  Fe152  1  0.25076831  0.66695415  0.87502855  1
  Fe  Fe153  1  0.25058788  0.49983996  0.62517685  1
  Fe  Fe154  1  0.74939757  0.33390083  0.87429370  1
  Fe  Fe155  1  0.49965126  0.16679585  0.50047248  1
  Fe  Fe156  1  -0.00016905  -0.00002825  0.24865974  1
  Fe  Fe157  1  0.49964908  0.66592823  0.49947842  1
  Fe  Fe158  1  0.75020688  0.83403294  0.87519482  1
  Fe  Fe159  1  0.74994149  0.83335754  0.62499186  1
  Fe  Fe160  1  0.00051475  0.33387139  0.75136232  1
  Fe  Fe161  1  0.25026543  0.83382392  0.87587792  1
  Fe  Fe162  1  0.00013934  0.16660995  0.00043173  1
  Fe  Fe163  1  0.25023356  0.16582553  0.12470316  1
  Fe  Fe164  1  0.49994863  0.33292736  0.74839460  1
  Fe  Fe165  1  0.49977054  0.50014967  0.25025497  1
  Fe  Fe166  1  0.50036845  0.49950852  0.49946126  1
  Fe  Fe167  1  -0.00004824  0.83359919  0.75016843  1
  Fe  Fe168  1  -0.00021276  0.83323608  -0.00044529  1
  Fe  Fe169  1  -0.00038710  -0.00032659  -0.00066821  1
  Fe  Fe170  1  0.24957230  -0.00026862  0.37431624  1
  Fe  Fe171  1  0.75029429  0.33394843  0.62446594  1
  Fe  Fe172  1  0.00045121  0.33303484  0.24950348  1
  Fe  Fe173  1  0.25009485  -0.00029619  0.12477810  1
  Fe  Fe174  1  0.00080503  0.50025864  0.75046433  1
  Fe  Fe175  1  0.50010248  0.66595985  0.24968258  1
  Fe  Fe176  1  0.50078755  0.83273881  0.00098268  1
  Fe  Fe177  1  0.75042974  0.66751564  0.87377528  1
  Fe  Fe178  1  0.75026430  0.33353297  0.37490646  1
  Fe  Fe179  1  0.49988862  0.00069596  0.50074529  1
  Fe  Fe180  1  0.50001014  0.33278820  0.49934431  1
  Fe  Fe181  1  0.74995869  0.49974303  0.62410693  1
  Fe  Fe182  1  0.25038519  0.33277975  0.62525396  1
  Fe  Fe183  1  0.74989584  -0.00054144  0.37583145  1
  Fe  Fe184  1  0.25020278  0.66676971  0.37492991  1
  Fe  Fe185  1  0.25042416  0.16617927  0.87545735  1
  Fe  Fe186  1  0.50100620  0.66696260  0.00048193  1
  Fe  Fe187  1  0.00051186  0.49916921  0.24993820  1
  Fe  Fe188  1  0.75007464  0.49910640  0.37427575  1
  Fe  Fe189  1  0.74967058  0.00034936  0.12529844  1
  Fe  Fe190  1  0.25022081  -0.00005519  0.87591454  1
  Fe  Fe191  1  0.00040479  0.49937070  0.00009652  1
  P  P192  1  0.04201990  0.24896225  0.10287942  1
  P  P193  1  0.04283193  0.25121813  0.35192963  1
  P  P194  1  0.04265165  0.25061044  0.60421233  1
  P  P195  1  0.04186348  0.25092965  0.85356674  1
  P  P196  1  0.04267191  0.58107039  0.10245741  1
  P  P197  1  0.04259282  0.58203867  0.35183319  1
  P  P198  1  0.04299265  0.58326665  0.60398794  1
  P  P199  1  0.04273134  0.58197548  0.85307445  1
  P  P200  1  0.04099439  0.91681329  0.10086981  1
  P  P201  1  0.04218235  0.91820381  0.35125835  1
  P  P202  1  0.04301626  0.91645236  0.60342671  1
  P  P203  1  0.04158810  0.91549180  0.85351453  1
  P  P204  1  0.54286788  0.25030343  0.10398003  1
  P  P205  1  0.54197638  0.24871870  0.35366510  1
  P  P206  1  0.54136335  0.25027419  0.60166655  1
  P  P207  1  0.54109571  0.25013858  0.85069274  1
  P  P208  1  0.54275812  0.58449983  0.10277777  1
  P  P209  1  0.54123754  0.58298492  0.35217872  1
  P  P210  1  0.54174847  0.58311258  0.60073730  1
  P  P211  1  0.54350558  0.58355303  0.85279416  1
  P  P212  1  0.54199056  0.91550783  0.10308447  1
  P  P213  1  0.54203546  0.91690003  0.35450092  1
  P  P214  1  0.54198473  0.91824945  0.60254174  1
  P  P215  1  0.54229886  0.91633001  0.85408794  1
  P  P216  1  0.45776744  0.08463109  0.14842387  1
  P  P217  1  0.45840022  0.08379992  0.39877118  1
  P  P218  1  0.45761191  0.08478138  0.64684236  1
  P  P219  1  0.45667667  0.08390155  0.89686495  1
  P  P220  1  0.45758716  0.41833877  0.14786338  1
  P  P221  1  0.45887935  0.41639640  0.39807232  1
  P  P222  1  0.45856054  0.41535309  0.64594478  1
  P  P223  1  0.45735595  0.41617528  0.89589372  1
  P  P224  1  0.45816111  0.74863005  0.14731142  1
  P  P225  1  0.45783020  0.74777512  0.39715755  1
  P  P226  1  0.45676238  0.74948862  0.64621429  1
  P  P227  1  0.45908818  0.74982485  0.89894574  1
  P  P228  1  0.95799005  0.08199600  0.14611192  1
  P  P229  1  0.95697515  0.08351247  0.39630713  1
  P  P230  1  0.95613632  0.08364477  0.64738492  1
  P  P231  1  0.95825716  0.08385005  0.89872336  1
  P  P232  1  0.95862298  0.41641865  0.14799761  1
  P  P233  1  0.95772020  0.41665052  0.39606782  1
  P  P234  1  0.95889081  0.41691380  0.64947834  1
  P  P235  1  0.95793998  0.41812578  0.89692059  1
  P  P236  1  0.95687450  0.74995918  0.14548211  1
  P  P237  1  0.95710049  0.74976469  0.39607553  1
  P  P238  1  0.95770708  0.75136352  0.64777403  1
  P  P239  1  0.95829058  0.75112522  0.89704408  1
  P  P240  1  0.20866078  0.08271432  0.22625771  1
  P  P241  1  0.20733811  0.08173443  0.47705891  1
  P  P242  1  0.20723746  0.08259298  0.72967990  1
  P  P243  1  0.20884285  0.08320859  0.97753879  1
  P  P244  1  0.20832167  0.41559888  0.22722033  1
  P  P245  1  0.20786026  0.41626682  0.47942623  1
  P  P246  1  0.20917806  0.41631942  0.72685885  1
  P  P247  1  0.20739813  0.41573332  0.97900935  1
  P  P248  1  0.20782234  0.75233119  0.22777658  1
  P  P249  1  0.20813167  0.74981253  0.47601334  1
  P  P250  1  0.20776325  0.75012551  0.72943512  1
  P  P251  1  0.20892846  0.75046288  0.97683622  1
  P  P252  1  0.70806661  0.08174706  0.22852210  1
  P  P253  1  0.70784600  0.08239099  0.47782639  1
  P  P254  1  0.70686850  0.08431417  0.72904165  1
  P  P255  1  0.70772939  0.08521474  0.97806922  1
  P  P256  1  0.70816797  0.41526010  0.22785399  1
  P  P257  1  0.70869094  0.41664770  0.47678550  1
  P  P258  1  0.70867621  0.41679786  0.72606148  1
  P  P259  1  0.70749286  0.41538047  0.97702174  1
  P  P260  1  0.70691980  0.75012895  0.22885217  1
  P  P261  1  0.70773938  0.75108181  0.47763644  1
  P  P262  1  0.70787319  0.75146502  0.72779180  1
  P  P263  1  0.70909448  0.75043069  0.97625227  1
  P  P264  1  0.29156472  0.24894915  0.02338014  1
  P  P265  1  0.29274475  0.24945322  0.27087150  1
  P  P266  1  0.29229460  0.25021162  0.52282429  1
  P  P267  1  0.29168458  0.24877298  0.77244447  1
  P  P268  1  0.29317350  0.58429689  0.02138403  1
  P  P269  1  0.29223402  0.58484732  0.27259061  1
  P  P270  1  0.29201179  0.58236149  0.52238780  1
  P  P271  1  0.29242833  0.58388908  0.77241574  1
  P  P272  1  0.29120058  0.91674637  0.02291937  1
  P  P273  1  0.29141701  0.91685713  0.27252042  1
  P  P274  1  0.29233887  0.91624481  0.52084616  1
  P  P275  1  0.29189581  0.91676632  0.77437340  1
  P  P276  1  0.79210508  0.25148552  0.02209974  1
  P  P277  1  0.79201593  0.25123575  0.27232066  1
  P  P278  1  0.79221147  0.25171959  0.52222121  1
  P  P279  1  0.79103053  0.25080861  0.77324460  1
  P  P280  1  0.79263583  0.58382381  0.02064929  1
  P  P281  1  0.79201977  0.58166676  0.27213317  1
  P  P282  1  0.79199167  0.58155028  0.52177063  1
  P  P283  1  0.79205621  0.58461373  0.77154411  1
  P  P284  1  0.79156229  0.91844326  0.02246835  1
  P  P285  1  0.79106667  0.91682463  0.27345906  1
  P  P286  1  0.79171884  0.91548708  0.52206986  1
  P  P287  1  0.79214531  0.91556210  0.77273052  1
  O  O288  1  0.03661991  0.24954799  0.18279497  1
  O  O289  1  0.03775820  0.25096415  0.43195251  1
  O  O290  1  0.03745268  0.25111606  0.68421114  1
  O  O291  1  0.03655010  0.25031831  0.93352701  1
  O  O292  1  0.03723322  0.58105640  0.18239370  1
  O  O293  1  0.03750989  0.58270215  0.43187317  1
  O  O294  1  0.03791472  0.58308415  0.68398236  1
  O  O295  1  0.03746706  0.58177894  0.93302466  1
  O  O296  1  0.03625840  0.91763842  0.18084416  1
  O  O297  1  0.03736320  0.91785857  0.43125980  1
  O  O298  1  0.03780979  0.91584329  0.68342901  1
  O  O299  1  0.03606669  0.91550161  0.93341604  1
  O  O300  1  0.53792013  0.24988422  0.18394702  1
  O  O301  1  0.53632324  0.24899761  0.43354332  1
  O  O302  1  0.53591902  0.25050642  0.68158856  1
  O  O303  1  0.53633831  0.25045320  0.93071143  1
  O  O304  1  0.53738154  0.58419950  0.18266602  1
  O  O305  1  0.53601056  0.58290214  0.43209370  1
  O  O306  1  0.53733209  0.58272690  0.68076347  1
  O  O307  1  0.53851536  0.58409675  0.93275330  1
  O  O308  1  0.53732996  0.91553892  0.18312326  1
  O  O309  1  0.53636998  0.91758094  0.43437045  1
  O  O310  1  0.53688158  0.91801649  0.68257142  1
  O  O311  1  0.53701456  0.91563313  0.93409146  1
  O  O312  1  0.46266432  0.08426117  0.06843877  1
  O  O313  1  0.46362283  0.08415139  0.31880116  1
  O  O314  1  0.46323699  0.08432889  0.56694934  1
  O  O315  1  0.46151610  0.08414125  0.81688659  1
  O  O316  1  0.46253483  0.41814460  0.06785851  1
  O  O317  1  0.46371912  0.41721652  0.31808714  1
  O  O318  1  0.46373234  0.41530525  0.56603386  1
  O  O319  1  0.46268642  0.41532645  0.81590198  1
  O  O320  1  0.46381874  0.74920302  0.06741833  1
  O  O321  1  0.46352349  0.74741332  0.31725478  1
  O  O322  1  0.46184780  0.74900494  0.56624531  1
  O  O323  1  0.46342945  0.75019215  0.81888551  1
  O  O324  1  0.96341502  0.08259411  0.06623192  1
  O  O325  1  0.96196414  0.08310373  0.31626890  1
  O  O326  1  0.96135367  0.08383243  0.56739724  1
  O  O327  1  0.96244929  0.08354251  0.81869000  1
  O  O328  1  0.96373422  0.41693822  0.06799904  1
  O  O329  1  0.96306499  0.41634924  0.31616292  1
  O  O330  1  0.96365095  0.41683573  0.56944050  1
  O  O331  1  0.96362005  0.41772717  0.81707054  1
  O  O332  1  0.96231022  0.75034253  0.06553080  1
  O  O333  1  0.96177916  0.74967320  0.31602569  1
  O  O334  1  0.96277355  0.75081237  0.56774211  1
  O  O335  1  0.96365449  0.75153538  0.81709540  1
  O  O336  1  0.21415983  0.08333525  0.05742596  1
  O  O337  1  0.21340739  0.08195794  0.30622548  1
  O  O338  1  0.21214406  0.08207322  0.55706847  1
  O  O339  1  0.21277937  0.08275993  0.80957310  1
  O  O340  1  0.21286341  0.41530489  0.05890811  1
  O  O341  1  0.21319393  0.41591596  0.30724443  1
  O  O342  1  0.21356592  0.41626754  0.55933158  1
  O  O343  1  0.21375547  0.41636657  0.80690840  1
  O  O344  1  0.21341458  0.75139526  0.05684496  1
  O  O345  1  0.21302422  0.75216772  0.30762985  1
  O  O346  1  0.21297185  0.74961597  0.55604654  1
  O  O347  1  0.21328975  0.75000537  0.80929754  1
  O  O348  1  0.71297682  0.08478326  0.05803921  1
  O  O349  1  0.71347778  0.08143523  0.30844211  1
  O  O350  1  0.71269524  0.08284047  0.55780856  1
  O  O351  1  0.71217544  0.08505804  0.80900987  1
  O  O352  1  0.71278521  0.41512217  0.05696178  1
  O  O353  1  0.71358560  0.41577321  0.30776570  1
  O  O354  1  0.71384145  0.41702791  0.55671635  1
  O  O355  1  0.71312059  0.41659386  0.80606694  1
  O  O356  1  0.71370647  0.75029437  0.05627240  1
  O  O357  1  0.71223389  0.75036481  0.30878631  1
  O  O358  1  0.71304097  0.75119465  0.55758366  1
  O  O359  1  0.71361605  0.75101001  0.80767119  1
  O  O360  1  0.28729577  0.24956696  0.19095720  1
  O  O361  1  0.28772233  0.24987323  0.44279927  1
  O  O362  1  0.28620624  0.24960243  0.69253493  1
  O  O363  1  0.28648985  0.24847895  0.94339229  1
  O  O364  1  0.28720232  0.58464286  0.19262489  1
  O  O365  1  0.28683506  0.58290726  0.44245883  1
  O  O366  1  0.28680695  0.58321773  0.69245905  1
  O  O367  1  0.28778553  0.58451170  0.94145398  1
  O  O368  1  0.28640137  0.91669892  0.19257371  1
  O  O369  1  0.28692468  0.91639357  0.44094358  1
  O  O370  1  0.28739722  0.91628115  0.69432638  1
  O  O371  1  0.28635118  0.91706115  0.94301762  1
  O  O372  1  0.78664702  0.25124369  0.19240123  1
  O  O373  1  0.78706816  0.25170371  0.44227256  1
  O  O374  1  0.78624970  0.25095397  0.69325578  1
  O  O375  1  0.78646896  0.25094750  0.94222249  1
  O  O376  1  0.78711237  0.58195367  0.19212158  1
  O  O377  1  0.78669968  0.58110080  0.44180588  1
  O  O378  1  0.78689349  0.58422635  0.69160520  1
  O  O379  1  0.78723663  0.58438842  0.94069215  1
  O  O380  1  0.78596388  0.91738593  0.19345141  1
  O  O381  1  0.78596573  0.91584724  0.44217635  1
  O  O382  1  0.78684812  0.91535290  0.69279950  1
  O  O383  1  0.78664143  0.91784367  0.94252282  1
  O  O384  1  0.22743359  0.24874922  0.05947555  1
  O  O385  1  0.22854925  0.24919268  0.30668584  1
  O  O386  1  0.22787507  0.25086168  0.55801046  1
  O  O387  1  0.22754025  0.24781813  0.80850203  1
  O  O388  1  0.22891548  0.58394193  0.05688312  1
  O  O389  1  0.22787268  0.58508341  0.30806712  1
  O  O390  1  0.22779978  0.58150420  0.55820857  1
  O  O391  1  0.22833672  0.58478331  0.80862453  1
  O  O392  1  0.22704423  0.91640886  0.05900170  1
  O  O393  1  0.22729488  0.91694908  0.30877208  1
  O  O394  1  0.22816233  0.91603889  0.55677895  1
  O  O395  1  0.22762472  0.91719690  0.80989949  1
  O  O396  1  0.72802863  0.25176158  0.05847518  1
  O  O397  1  0.72792627  0.25104150  0.30844176  1
  O  O398  1  0.72789447  0.25203578  0.55785959  1
  O  O399  1  0.72679233  0.25055528  0.80910845  1
  O  O400  1  0.72839644  0.58315987  0.05622340  1
  O  O401  1  0.72771767  0.58166173  0.30766649  1
  O  O402  1  0.72773016  0.58179681  0.55751493  1
  O  O403  1  0.72788731  0.58472479  0.80739530  1
  O  O404  1  0.72723468  0.91883439  0.05810296  1
  O  O405  1  0.72698662  0.91656541  0.30958763  1
  O  O406  1  0.72768061  0.91501580  0.55864281  1
  O  O407  1  0.72789254  0.91602000  0.80844077  1
  O  O408  1  0.27289005  0.08340145  0.19051935  1
  O  O409  1  0.27179004  0.08108230  0.44172553  1
  O  O410  1  0.27137251  0.08293837  0.69367085  1
  O  O411  1  0.27281410  0.08334372  0.94095039  1
  O  O412  1  0.27266628  0.41540573  0.19190483  1
  O  O413  1  0.27199566  0.41676431  0.44342486  1
  O  O414  1  0.27331717  0.41624893  0.69097144  1
  O  O415  1  0.27161741  0.41588038  0.94341998  1
  O  O416  1  0.27205542  0.75273604  0.19179269  1
  O  O417  1  0.27234262  0.74994952  0.44015701  1
  O  O418  1  0.27189710  0.74970236  0.69342231  1
  O  O419  1  0.27317881  0.74986264  0.94115592  1
  O  O420  1  0.77216629  0.08185729  0.19232639  1
  O  O421  1  0.77213801  0.08225333  0.44233308  1
  O  O422  1  0.77117881  0.08387051  0.69366407  1
  O  O423  1  0.77193889  0.08547950  0.94220694  1
  O  O424  1  0.77229350  0.41469310  0.19155193  1
  O  O425  1  0.77275607  0.41673035  0.44044409  1
  O  O426  1  0.77298868  0.41700600  0.69049641  1
  O  O427  1  0.77173771  0.41549783  0.94123454  1
  O  O428  1  0.77118194  0.75059003  0.19332309  1
  O  O429  1  0.77188877  0.75080017  0.44169113  1
  O  O430  1  0.77192808  0.75159383  0.69135150  1
  O  O431  1  0.77325691  0.75073194  0.94043935  1
  O  O432  1  0.02210977  0.08189137  0.18229153  1
  O  O433  1  0.02143025  0.08384092  0.43136290  1
  O  O434  1  0.02056203  0.08366880  0.68236391  1
  O  O435  1  0.02256963  0.08412723  0.93405149  1
  O  O436  1  0.02275610  0.41628272  0.18409020  1
  O  O437  1  0.02195921  0.41683266  0.43173762  1
  O  O438  1  0.02318187  0.41654047  0.68505253  1
  O  O439  1  0.02201531  0.41798767  0.93323616  1
  O  O440  1  0.02118691  0.74993532  0.18078587  1
  O  O441  1  0.02168445  0.74981446  0.43075237  1
  O  O442  1  0.02204883  0.75141382  0.68317725  1
  O  O443  1  0.02246560  0.75108418  0.93293325  1
  O  O444  1  0.52214731  0.08494356  0.18375578  1
  O  O445  1  0.52245838  0.08382867  0.43495579  1
  O  O446  1  0.52166462  0.08529880  0.68317408  1
  O  O447  1  0.52111047  0.08321752  0.93192959  1
  O  O448  1  0.52191616  0.41839524  0.18330017  1
  O  O449  1  0.52302690  0.41562863  0.43390425  1
  O  O450  1  0.52275928  0.41489019  0.68188646  1
  O  O451  1  0.52169703  0.41673663  0.93121798  1
  O  O452  1  0.52225958  0.74801428  0.18352802  1
  O  O453  1  0.52187393  0.74811570  0.43335890  1
  O  O454  1  0.52124197  0.75005807  0.68121200  1
  O  O455  1  0.52340706  0.74946914  0.93440594  1
  O  O456  1  0.47841331  0.25048279  0.06895200  1
  O  O457  1  0.47798288  0.24875793  0.31721889  1
  O  O458  1  0.47733664  0.25038196  0.56527426  1
  O  O459  1  0.47689091  0.25016103  0.81493139  1
  O  O460  1  0.47860178  0.58527047  0.06665461  1
  O  O461  1  0.47726845  0.58312708  0.31561027  1
  O  O462  1  0.47741915  0.58340609  0.56543447  1
  O  O463  1  0.47906265  0.58278707  0.81775994  1
  O  O464  1  0.47760429  0.91523046  0.06794368  1
  O  O465  1  0.47795180  0.91653619  0.31864448  1
  O  O466  1  0.47766936  0.91811527  0.56714806  1
  O  O467  1  0.47799249  0.91697414  0.81867965  1
  O  O468  1  0.97785792  0.24858536  0.06699212  1
  O  O469  1  0.97846421  0.25139330  0.31655838  1
  O  O470  1  0.97824574  0.25046271  0.56902281  1
  O  O471  1  0.97761020  0.25195584  0.81786756  1
  O  O472  1  0.97844965  0.58141867  0.06665164  1
  O  O473  1  0.97823581  0.58128815  0.31639500  1
  O  O474  1  0.97856914  0.58365970  0.56884353  1
  O  O475  1  0.97851293  0.58206916  0.81731512  1
  O  O476  1  0.97678151  0.91603787  0.06525886  1
  O  O477  1  0.97773208  0.91861998  0.31605745  1
  O  O478  1  0.97859699  0.91663449  0.56829222  1
  O  O479  1  0.97751268  0.91509341  0.81722564  1
  O  O480  1  0.07324864  0.31234509  0.07483146  1
  O  O481  1  0.07364182  0.31463481  0.32340346  1
  O  O482  1  0.07393110  0.31372290  0.57558987  1
  O  O483  1  0.07306375  0.31439138  0.82540599  1
  O  O484  1  0.07389616  0.64482000  0.07488908  1
  O  O485  1  0.07318007  0.64576551  0.32355691  1
  O  O486  1  0.07407992  0.64677518  0.57574467  1
  O  O487  1  0.07370324  0.64584817  0.82568782  1
  O  O488  1  0.07136464  0.98048942  0.07179669  1
  O  O489  1  0.07298723  0.98161933  0.32264455  1
  O  O490  1  0.07388718  0.98023539  0.57561315  1
  O  O491  1  0.07239158  0.97943275  0.82584345  1
  O  O492  1  0.57367700  0.31397671  0.07575066  1
  O  O493  1  0.57338659  0.31216996  0.32575091  1
  O  O494  1  0.57260759  0.31356579  0.57305557  1
  O  O495  1  0.57199108  0.31367032  0.82224040  1
  O  O496  1  0.57402584  0.64772524  0.07402655  1
  O  O497  1  0.57244054  0.64641261  0.32388905  1
  O  O498  1  0.57274814  0.64672404  0.57283930  1
  O  O499  1  0.57421021  0.64694698  0.82398170  1
  O  O500  1  0.57286836  0.97922678  0.07525242  1
  O  O501  1  0.57335002  0.98004409  0.32590962  1
  O  O502  1  0.57260569  0.98197409  0.57439582  1
  O  O503  1  0.57361275  0.97991847  0.82649044  1
  O  O504  1  0.42701614  0.02073152  0.17614627  1
  O  O505  1  0.42774365  0.01984211  0.42664099  1
  O  O506  1  0.42650328  0.02126993  0.67505516  1
  O  O507  1  0.42548177  0.02054155  0.92532599  1
  O  O508  1  0.42656155  0.35477189  0.17579856  1
  O  O509  1  0.42755152  0.35278238  0.42559929  1
  O  O510  1  0.42729096  0.35221773  0.67484666  1
  O  O511  1  0.42626692  0.35302860  0.92490651  1
  O  O512  1  0.42689030  0.68536470  0.17576458  1
  O  O513  1  0.42693459  0.68447045  0.42587781  1
  O  O514  1  0.42599882  0.68610524  0.67503789  1
  O  O515  1  0.42826196  0.68613013  0.92685254  1
  O  O516  1  0.92728525  0.01836412  0.17458208  1
  O  O517  1  0.92589774  0.02030572  0.42499747  1
  O  O518  1  0.92524393  0.02005821  0.67544500  1
  O  O519  1  0.92791849  0.01987806  0.92703227  1
  O  O520  1  0.92814349  0.35228650  0.17560900  1
  O  O521  1  0.92660047  0.35337671  0.42488816  1
  O  O522  1  0.92788855  0.35342814  0.67778281  1
  O  O523  1  0.92655776  0.35473434  0.92513127  1
  O  O524  1  0.92594739  0.68623311  0.17329868  1
  O  O525  1  0.92625646  0.68629709  0.42456186  1
  O  O526  1  0.92653618  0.68784881  0.67579152  1
  O  O527  1  0.92741900  0.68710604  0.92422491  1
  O  O528  1  0.17824276  0.01907839  0.19715258  1
  O  O529  1  0.17629731  0.01851805  0.44840247  1
  O  O530  1  0.17629922  0.01902337  0.70131039  1
  O  O531  1  0.17807338  0.01939482  0.94938468  1
  O  O532  1  0.17764241  0.35193438  0.19892936  1
  O  O533  1  0.17689022  0.35275716  0.45096614  1
  O  O534  1  0.17838443  0.35251477  0.69900309  1
  O  O535  1  0.17606385  0.35249028  0.95061764  1
  O  O536  1  0.17689769  0.68864883  0.19951396  1
  O  O537  1  0.17765948  0.68588233  0.44783489  1
  O  O538  1  0.17615321  0.68698590  0.70096296  1
  O  O539  1  0.17791706  0.68673040  0.94912742  1
  O  O540  1  0.67705941  0.01856361  0.19949895  1
  O  O541  1  0.67713989  0.01877722  0.44958553  1
  O  O542  1  0.67578621  0.02053188  0.70153038  1
  O  O543  1  0.67640878  0.02180263  0.95010615  1
  O  O544  1  0.67692472  0.35193361  0.19951041  1
  O  O545  1  0.67793056  0.35281269  0.44869367  1
  O  O546  1  0.67797941  0.35323389  0.69734545  1
  O  O547  1  0.67651590  0.35215822  0.94808308  1
  O  O548  1  0.67639380  0.68630897  0.20068686  1
  O  O549  1  0.67661076  0.68720840  0.45028665  1
  O  O550  1  0.67659024  0.68800361  0.69947366  1
  O  O551  1  0.67863946  0.68667425  0.94771440  1
  O  O552  1  0.32186455  0.31316392  0.05122732  1
  O  O553  1  0.32396248  0.31276806  0.29940498  1
  O  O554  1  0.32322954  0.31364405  0.55130205  1
  O  O555  1  0.32260482  0.31238912  0.80060619  1
  O  O556  1  0.32422859  0.64762737  0.04982614  1
  O  O557  1  0.32287189  0.64845074  0.30095850  1
  O  O558  1  0.32278827  0.64604619  0.55049031  1
  O  O559  1  0.32360406  0.64737906  0.80054541  1
  O  O560  1  0.32179810  0.98045157  0.05172522  1
  O  O561  1  0.32228549  0.98053699  0.30090448  1
  O  O562  1  0.32341714  0.97956195  0.54966671  1
  O  O563  1  0.32292730  0.98034531  0.80228444  1
  O  O564  1  0.82320780  0.31493322  0.05044742  1
  O  O565  1  0.82297294  0.31453895  0.30092416  1
  O  O566  1  0.82328650  0.31495049  0.55108509  1
  O  O567  1  0.82174643  0.31452690  0.80157417  1
  O  O568  1  0.82369389  0.64703864  0.04936502  1
  O  O569  1  0.82314874  0.64525477  0.30000540  1
  O  O570  1  0.82303478  0.64546817  0.54907871  1
  O  O571  1  0.82266416  0.64835967  0.79996488  1
  O  O572  1  0.82213295  0.98216646  0.05087376  1
  O  O573  1  0.82202313  0.98027315  0.30206817  1
  O  O574  1  0.82269998  0.97914816  0.55025382  1
  O  O575  1  0.82342311  0.97926385  0.80027533  1
  O  O576  1  0.42702867  0.14806192  0.17699074  1
  O  O577  1  0.42717009  0.14720348  0.42705772  1
  O  O578  1  0.42657840  0.14831686  0.67516229  1
  O  O579  1  0.42601220  0.14744147  0.92541297  1
  O  O580  1  0.42693421  0.48192568  0.17637694  1
  O  O581  1  0.42852881  0.48013769  0.42703636  1
  O  O582  1  0.42779661  0.47915016  0.67407093  1
  O  O583  1  0.42621698  0.47983474  0.92359906  1
  O  O584  1  0.42717539  0.81224744  0.17567945  1
  O  O585  1  0.42659075  0.81161900  0.42425714  1
  O  O586  1  0.42565974  0.81307813  0.67431247  1
  O  O587  1  0.42871430  0.81365059  0.92757163  1
  O  O588  1  0.92654755  0.14529826  0.17447692  1
  O  O589  1  0.92608981  0.14727769  0.42427945  1
  O  O590  1  0.92496465  0.14697269  0.67575840  1
  O  O591  1  0.92738359  0.14747819  0.92683539  1
  O  O592  1  0.92756709  0.47980026  0.17647553  1
  O  O593  1  0.92651630  0.48001016  0.42461774  1
  O  O594  1  0.92846364  0.48095426  0.67730916  1
  O  O595  1  0.92710267  0.48160265  0.92554390  1
  O  O596  1  0.92546042  0.81311429  0.17399529  1
  O  O597  1  0.92627779  0.81336377  0.42426292  1
  O  O598  1  0.92710941  0.81502039  0.67610101  1
  O  O599  1  0.92711393  0.81422064  0.92593674  1
  O  O600  1  0.07279926  0.18526958  0.07467867  1
  O  O601  1  0.07376215  0.18749391  0.32405806  1
  O  O602  1  0.07348774  0.18687916  0.57606246  1
  O  O603  1  0.07259836  0.18726184  0.82542119  1
  O  O604  1  0.07346129  0.51767288  0.07382392  1
  O  O605  1  0.07370898  0.51855360  0.32381290  1
  O  O606  1  0.07390956  0.51986071  0.57548397  1
  O  O607  1  0.07371395  0.51872819  0.82416379  1
  O  O608  1  0.07227750  0.85315276  0.07325127  1
  O  O609  1  0.07283829  0.85438619  0.32323633  1
  O  O610  1  0.07424349  0.85337000  0.57441582  1
  O  O611  1  0.07283306  0.85230060  0.82480437  1
  O  O612  1  0.57397688  0.18707673  0.07516558  1
  O  O613  1  0.57275212  0.18512474  0.32516995  1
  O  O614  1  0.57223782  0.18647794  0.57364724  1
  O  O615  1  0.57170474  0.18627581  0.82272502  1
  O  O616  1  0.57351598  0.52076529  0.07448891  1
  O  O617  1  0.57192480  0.51917111  0.32370554  1
  O  O618  1  0.57203606  0.51921851  0.57202479  1
  O  O619  1  0.57472067  0.52006060  0.82465143  1
  O  O620  1  0.57275904  0.85195499  0.07447697  1
  O  O621  1  0.57321676  0.85318569  0.32703655  1
  O  O622  1  0.57315226  0.85466757  0.57476853  1
  O  O623  1  0.57325040  0.85308595  0.82517028  1
  O  O624  1  0.32295422  0.18577553  0.05181671  1
  O  O625  1  0.32393989  0.18605874  0.29927689  1
  O  O626  1  0.32281221  0.18635998  0.55076043  1
  O  O627  1  0.32278674  0.18533217  0.80060849  1
  O  O628  1  0.32439308  0.52074663  0.04924698  1
  O  O629  1  0.32312069  0.52113815  0.30037010  1
  O  O630  1  0.32314028  0.51895822  0.55079329  1
  O  O631  1  0.32336424  0.52019719  0.80023500  1
  O  O632  1  0.32236986  0.85333594  0.05128649  1
  O  O633  1  0.32239340  0.85337951  0.30108264  1
  O  O634  1  0.32363266  0.85284370  0.54910947  1
  O  O635  1  0.32230360  0.85295071  0.80299136  1
  O  O636  1  0.82326493  0.18807396  0.05057924  1
  O  O637  1  0.82316970  0.18741067  0.29968963  1
  O  O638  1  0.82295033  0.18786156  0.55003230  1
  O  O639  1  0.82188403  0.18720917  0.80165384  1
  O  O640  1  0.82383001  0.52012963  0.04828363  1
  O  O641  1  0.82269080  0.51804248  0.30031414  1
  O  O642  1  0.82295834  0.51844155  0.55091043  1
  O  O643  1  0.82339035  0.52123624  0.79953042  1
  O  O644  1  0.82258133  0.85500045  0.05075811  1
  O  O645  1  0.82188538  0.85290479  0.30116068  1
  O  O646  1  0.82289512  0.85210004  0.55036804  1
  O  O647  1  0.82284926  0.85224374  0.80168250  1
  O  O648  1  0.17745303  0.14625967  0.19844241  1
  O  O649  1  0.17692010  0.14571335  0.44907821  1
  O  O650  1  0.17566376  0.14571939  0.70118104  1
  O  O651  1  0.17773226  0.14664388  0.94911769  1
  O  O652  1  0.17732997  0.47928768  0.19958943  1
  O  O653  1  0.17617405  0.47939825  0.45106902  1
  O  O654  1  0.17859749  0.48017790  0.69886498  1
  O  O655  1  0.17640597  0.47932210  0.95100973  1
  O  O656  1  0.17670002  0.81552296  0.19882517  1
  O  O657  1  0.17718472  0.81338575  0.44797622  1
  O  O658  1  0.17690272  0.81367019  0.70096785  1
  O  O659  1  0.17854106  0.81418300  0.94791156  1
  O  O660  1  0.67702985  0.14563910  0.20123159  1
  O  O661  1  0.67691993  0.14605205  0.44990430  1
  O  O662  1  0.67574760  0.14739422  0.70010909  1
  O  O663  1  0.67698708  0.14885748  0.94971617  1
  O  O664  1  0.67734173  0.47891090  0.19947023  1
  O  O665  1  0.67755307  0.47997588  0.44798400  1
  O  O666  1  0.67793814  0.48052411  0.69771408  1
  O  O667  1  0.67650413  0.47915596  0.94939102  1
  O  O668  1  0.67529068  0.81322097  0.20053761  1
  O  O669  1  0.67681637  0.81436876  0.44900184  1
  O  O670  1  0.67680323  0.81487987  0.69942974  1
  O  O671  1  0.67817062  0.81425143  0.94859172  1
