# generated using pymatgen
data_Na2MnFe(PO4)2
_symmetry_space_group_name_H-M   'P 1'
_cell_length_a   22.33963550
_cell_length_b   20.08896831
_cell_length_c   19.45189281
_cell_angle_alpha   90.09981034
_cell_angle_beta   89.97553434
_cell_angle_gamma   89.90242785
_symmetry_Int_Tables_number   1
_chemical_formula_structural   Na2MnFe(PO4)2
_chemical_formula_sum   'Na96 Mn48 Fe48 P96 O384'
_cell_volume   8729.59821566
_cell_formula_units_Z   48
loop_
 _symmetry_equiv_pos_site_id
 _symmetry_equiv_pos_as_xyz
  1  'x, y, z'
loop_
 _atom_site_type_symbol
 _atom_site_label
 _atom_site_symmetry_multiplicity
 _atom_site_fract_x
 _atom_site_fract_y
 _atom_site_fract_z
 _atom_site_occupancy
  Na  Na0  1  0.13942445  0.24986747  0.24306926  1
  Na  Na1  1  0.13984562  0.24920704  0.49409164  1
  Na  Na2  1  0.14000852  0.25142486  0.74282083  1
  Na  Na3  1  0.13953481  0.25056950  0.99317089  1
  Na  Na4  1  0.14026286  0.58369426  0.24314702  1
  Na  Na5  1  0.14019922  0.58171795  0.49370197  1
  Na  Na6  1  0.14089294  0.58310161  0.74259846  1
  Na  Na7  1  0.14028851  0.58225976  0.99335837  1
  Na  Na8  1  0.14074728  0.91589072  0.24326069  1
  Na  Na9  1  0.14065355  0.91582586  0.49429780  1
  Na  Na10  1  0.14028712  0.91760988  0.74259438  1
  Na  Na11  1  0.14046254  0.91624599  0.99393824  1
  Na  Na12  1  0.64059484  0.24929696  0.24408117  1
  Na  Na13  1  0.64075979  0.24976161  0.49474535  1
  Na  Na14  1  0.64072709  0.24980550  0.74431815  1
  Na  Na15  1  0.64035320  0.25054606  0.99379602  1
  Na  Na16  1  0.64031984  0.58297485  0.24365841  1
  Na  Na17  1  0.64032838  0.58328461  0.49457129  1
  Na  Na18  1  0.64075474  0.58443232  0.74371630  1
  Na  Na19  1  0.64083634  0.58491847  0.99327294  1
  Na  Na20  1  0.64099772  0.91604628  0.24397867  1
  Na  Na21  1  0.64053742  0.91515873  0.49537925  1
  Na  Na22  1  0.64033744  0.91591966  0.74305408  1
  Na  Na23  1  0.64094702  0.91603640  0.99283063  1
  Na  Na24  1  0.35906552  0.08324355  0.00659064  1
  Na  Na25  1  0.35921315  0.08321325  0.25539790  1
  Na  Na26  1  0.35939954  0.08286521  0.50690949  1
  Na  Na27  1  0.35930368  0.08413932  0.75612910  1
  Na  Na28  1  0.35951310  0.41704947  0.00653264  1
  Na  Na29  1  0.35957689  0.41742614  0.25660307  1
  Na  Na30  1  0.35905312  0.41609587  0.50703427  1
  Na  Na31  1  0.35938204  0.41762380  0.75525469  1
  Na  Na32  1  0.35972159  0.75008427  0.00618915  1
  Na  Na33  1  0.35946676  0.74957399  0.25447955  1
  Na  Na34  1  0.35901973  0.74800390  0.50679483  1
  Na  Na35  1  0.35996396  0.74986830  0.75628044  1
  Na  Na36  1  0.85959151  0.08444574  0.00602830  1
  Na  Na37  1  0.85981355  0.08356330  0.25648154  1
  Na  Na38  1  0.86011967  0.08274691  0.50770834  1
  Na  Na39  1  0.85990454  0.08326105  0.75729107  1
  Na  Na40  1  0.86038004  0.41719729  0.00667077  1
  Na  Na41  1  0.85971642  0.41656139  0.25570616  1
  Na  Na42  1  0.85995748  0.41779975  0.50730242  1
  Na  Na43  1  0.86028278  0.41706386  0.75728350  1
  Na  Na44  1  0.85974868  0.75139648  0.00575389  1
  Na  Na45  1  0.85983883  0.75005587  0.25582848  1
  Na  Na46  1  0.85908937  0.75045186  0.50617230  1
  Na  Na47  1  0.85936593  0.75133297  0.75616599  1
  Na  Na48  1  0.10939164  0.08469531  0.11861948  1
  Na  Na49  1  0.10935791  0.08444345  0.36954551  1
  Na  Na50  1  0.10934978  0.08410450  0.61913056  1
  Na  Na51  1  0.10927797  0.08515923  0.86860454  1
  Na  Na52  1  0.10921944  0.41480907  0.11835861  1
  Na  Na53  1  0.10935155  0.41628238  0.36845485  1
  Na  Na54  1  0.10978524  0.41528915  0.61853185  1
  Na  Na55  1  0.10977968  0.41531927  0.86795581  1
  Na  Na56  1  0.11003560  0.74841612  0.11781724  1
  Na  Na57  1  0.11001086  0.74962159  0.36864065  1
  Na  Na58  1  0.11011325  0.74986333  0.61743759  1
  Na  Na59  1  0.11003804  0.74951074  0.86793407  1
  Na  Na60  1  0.60980753  0.08272944  0.11856856  1
  Na  Na61  1  0.60990605  0.08275609  0.36961759  1
  Na  Na62  1  0.60961626  0.08242163  0.61939532  1
  Na  Na63  1  0.60947259  0.08189270  0.86868882  1
  Na  Na64  1  0.60976225  0.41768772  0.11869287  1
  Na  Na65  1  0.60963007  0.41644994  0.37034097  1
  Na  Na66  1  0.60991240  0.41631971  0.61911422  1
  Na  Na67  1  0.60998395  0.41671956  0.86960690  1
  Na  Na68  1  0.61034543  0.74977744  0.11789929  1
  Na  Na69  1  0.60987979  0.74816550  0.36912936  1
  Na  Na70  1  0.61034455  0.74893811  0.61933683  1
  Na  Na71  1  0.61025435  0.75073454  0.86789154  1
  Na  Na72  1  0.39020193  0.25215125  0.13122799  1
  Na  Na73  1  0.38982697  0.25087216  0.38189491  1
  Na  Na74  1  0.38984537  0.25012780  0.63138098  1
  Na  Na75  1  0.38984622  0.25054289  0.88076885  1
  Na  Na76  1  0.39024692  0.58434249  0.13040689  1
  Na  Na77  1  0.38983207  0.58197658  0.38143021  1
  Na  Na78  1  0.38960939  0.58314856  0.63174405  1
  Na  Na79  1  0.39025877  0.58468215  0.88109729  1
  Na  Na80  1  0.38987715  0.91598657  0.13065464  1
  Na  Na81  1  0.39004718  0.91595252  0.38001114  1
  Na  Na82  1  0.39041485  0.91490039  0.63236263  1
  Na  Na83  1  0.39019030  0.91543435  0.88063645  1
  Na  Na84  1  0.89011105  0.25042259  0.13062769  1
  Na  Na85  1  0.89074070  0.25030093  0.38129168  1
  Na  Na86  1  0.89078900  0.25002264  0.63275663  1
  Na  Na87  1  0.89054982  0.25161471  0.88121562  1
  Na  Na88  1  0.89052165  0.58277515  0.13090718  1
  Na  Na89  1  0.89019512  0.58438086  0.38090604  1
  Na  Na90  1  0.89049157  0.58287409  0.63155586  1
  Na  Na91  1  0.89059143  0.58272307  0.88109124  1
  Na  Na92  1  0.89052070  0.91757459  0.13149303  1
  Na  Na93  1  0.89041208  0.91840573  0.38204871  1
  Na  Na94  1  0.89004150  0.91807026  0.63234452  1
  Na  Na95  1  0.88997986  0.91856699  0.88141733  1
  Mn  Mn96  1  -0.00021997  0.49969307  0.24953314  1
  Mn  Mn97  1  0.75068310  0.16534694  0.37520698  1
  Mn  Mn98  1  -0.00005443  0.66617453  0.49974566  1
  Mn  Mn99  1  0.74992164  0.16665305  0.87537073  1
  Mn  Mn100  1  -0.00009265  0.66532957  -0.00123009  1
  Mn  Mn101  1  0.00013906  0.66571228  0.74926271  1
  Mn  Mn102  1  0.24957691  0.16705629  0.37476743  1
  Mn  Mn103  1  0.25012110  -0.00100278  0.37543050  1
  Mn  Mn104  1  0.49924831  0.16676645  0.50018823  1
  Mn  Mn105  1  0.49928680  0.66492547  0.49959240  1
  Mn  Mn106  1  -0.00051287  0.83460206  0.49966257  1
  Mn  Mn107  1  0.00036010  0.00179096  0.00076246  1
  Mn  Mn108  1  0.24944781  0.49933262  0.37467890  1
  Mn  Mn109  1  0.75044406  0.83382143  0.12509274  1
  Mn  Mn110  1  0.24992996  0.83242123  0.87460319  1
  Mn  Mn111  1  0.49920149  -0.00112369  -0.00073408  1
  Mn  Mn112  1  0.49924712  0.16735084  -0.00064999  1
  Mn  Mn113  1  0.50071639  0.16587732  0.75054742  1
  Mn  Mn114  1  0.50039866  0.83248275  0.24958621  1
  Mn  Mn115  1  0.75022172  0.83295278  0.37495562  1
  Mn  Mn116  1  0.74966300  0.16615577  0.12485399  1
  Mn  Mn117  1  0.24959413  0.00022356  0.87450022  1
  Mn  Mn118  1  0.50012400  0.50083625  -0.00046525  1
  Mn  Mn119  1  0.25007732  0.50043250  0.87464357  1
  Mn  Mn120  1  0.75022467  0.16630045  0.62583772  1
  Mn  Mn121  1  0.00051616  0.00159759  0.25049118  1
  Mn  Mn122  1  -0.00033215  0.33325175  0.49981123  1
  Mn  Mn123  1  0.49973601  0.66558642  0.24967635  1
  Mn  Mn124  1  0.00017714  0.83462114  0.74931205  1
  Mn  Mn125  1  0.75029176  0.50053864  0.12478786  1
  Mn  Mn126  1  0.49993402  -0.00075870  0.50017254  1
  Mn  Mn127  1  0.00064147  0.83308370  0.25071590  1
  Mn  Mn128  1  0.50033224  -0.00044061  0.24950105  1
  Mn  Mn129  1  0.75032918  0.33324203  0.37551130  1
  Mn  Mn130  1  0.00025893  0.83359962  -0.00019314  1
  Mn  Mn131  1  0.75001245  0.50069443  0.87514360  1
  Mn  Mn132  1  0.75033872  0.50069905  0.62594958  1
  Mn  Mn133  1  0.50036266  0.33485008  0.25112217  1
  Mn  Mn134  1  0.74976416  0.50086632  0.37561392  1
  Mn  Mn135  1  0.25033995  -0.00008793  0.62486829  1
  Mn  Mn136  1  0.49979259  0.83215106  0.50047774  1
  Mn  Mn137  1  0.49990724  0.16729849  0.24991033  1
  Mn  Mn138  1  0.24965767  0.49996575  0.12476298  1
  Mn  Mn139  1  0.25051573  0.83145872  0.37394458  1
  Mn  Mn140  1  0.50002028  0.33328805  0.75006565  1
  Mn  Mn141  1  0.24954199  0.16834474  0.87584939  1
  Mn  Mn142  1  0.49952943  0.50041079  0.75035686  1
  Mn  Mn143  1  0.25001908  0.16735888  0.12511031  1
  Fe  Fe144  1  0.49993138  0.49995757  0.25011855  1
  Fe  Fe145  1  0.75068779  0.66734734  0.62510372  1
  Fe  Fe146  1  -0.00009087  0.49961717  0.49976255  1
  Fe  Fe147  1  0.49915320  -0.00095891  0.74982036  1
  Fe  Fe148  1  -0.00057146  0.16758824  0.25005480  1
  Fe  Fe149  1  0.75059253  0.66788317  0.87435693  1
  Fe  Fe150  1  -0.00031210  0.33336580  0.75006514  1
  Fe  Fe151  1  -0.00040955  0.16787849  -0.00068658  1
  Fe  Fe152  1  0.50034814  0.33344982  0.50040814  1
  Fe  Fe153  1  0.24999653  0.66656613  0.12425423  1
  Fe  Fe154  1  0.75038708  0.83387303  0.87469953  1
  Fe  Fe155  1  0.75004607  -0.00063601  0.62597634  1
  Fe  Fe156  1  0.50073447  0.66736331  0.00013101  1
  Fe  Fe157  1  -0.00002122  0.33305829  -0.00082217  1
  Fe  Fe158  1  0.49998934  0.49950782  0.50098107  1
  Fe  Fe159  1  0.24954533  0.66581281  0.37495771  1
  Fe  Fe160  1  0.24963559  0.66688547  0.87420558  1
  Fe  Fe161  1  0.00017285  0.66623368  0.24955229  1
  Fe  Fe162  1  0.75005899  0.33368171  0.87538532  1
  Fe  Fe163  1  0.24983802  0.33360294  0.12502323  1
  Fe  Fe164  1  -0.00014585  0.16705376  0.74991114  1
  Fe  Fe165  1  0.24968853  0.49978004  0.62459840  1
  Fe  Fe166  1  -0.00045631  0.16672972  0.50100190  1
  Fe  Fe167  1  0.75002369  0.66682347  0.37508740  1
  Fe  Fe168  1  0.75038721  0.33361556  0.62553793  1
  Fe  Fe169  1  0.24974997  0.33272001  0.37580527  1
  Fe  Fe170  1  0.25033372  0.33415998  0.87411821  1
  Fe  Fe171  1  0.00039316  0.49892214  0.75030814  1
  Fe  Fe172  1  0.50064831  0.66664329  0.75071228  1
  Fe  Fe173  1  0.00021553  0.00133743  0.75063281  1
  Fe  Fe174  1  0.24937385  0.83261213  0.12442829  1
  Fe  Fe175  1  0.74989635  0.33339335  0.12530044  1
  Fe  Fe176  1  0.24978197  0.16743593  0.62523245  1
  Fe  Fe177  1  0.75018655  0.66732103  0.12452063  1
  Fe  Fe178  1  0.50059033  0.83302332  -0.00091073  1
  Fe  Fe179  1  0.24981045  0.33337841  0.62481626  1
  Fe  Fe180  1  0.25016741  0.83221879  0.62450231  1
  Fe  Fe181  1  -0.00028019  0.33314279  0.24916268  1
  Fe  Fe182  1  0.74965562  -0.00021533  0.87523666  1
  Fe  Fe183  1  0.00056606  0.49902133  0.00002834  1
  Fe  Fe184  1  0.24933038  -0.00021013  0.12494878  1
  Fe  Fe185  1  0.75024413  -0.00017554  0.12500166  1
  Fe  Fe186  1  0.75008230  -0.00072054  0.37575630  1
  Fe  Fe187  1  0.49991656  0.33423079  0.00053328  1
  Fe  Fe188  1  0.24996368  0.66603055  0.62475735  1
  Fe  Fe189  1  0.50030974  0.83219922  0.75032013  1
  Fe  Fe190  1  0.75018870  0.83355145  0.62531688  1
  Fe  Fe191  1  0.00029956  0.00135636  0.50058176  1
  P  P192  1  0.04089680  0.25008788  0.10165207  1
  P  P193  1  0.04124829  0.25032345  0.35166019  1
  P  P194  1  0.04162568  0.24882750  0.60323260  1
  P  P195  1  0.04119190  0.25022703  0.85163278  1
  P  P196  1  0.04223431  0.58150108  0.10229608  1
  P  P197  1  0.04224962  0.58408928  0.35223253  1
  P  P198  1  0.04199520  0.58094511  0.60263560  1
  P  P199  1  0.04261654  0.58111062  0.85229715  1
  P  P200  1  0.04295077  0.91706890  0.10342500  1
  P  P201  1  0.04296056  0.91804713  0.35385324  1
  P  P202  1  0.04193887  0.91909638  0.60282558  1
  P  P203  1  0.04243201  0.91868966  0.85242650  1
  P  P204  1  0.54209886  0.25181693  0.10250644  1
  P  P205  1  0.54282202  0.25063586  0.35401731  1
  P  P206  1  0.54233110  0.25075942  0.60264341  1
  P  P207  1  0.54296195  0.25039900  0.85387145  1
  P  P208  1  0.54267360  0.58440389  0.10232896  1
  P  P209  1  0.54216231  0.58102773  0.35291853  1
  P  P210  1  0.54217165  0.58218862  0.60328245  1
  P  P211  1  0.54253267  0.58499936  0.85316508  1
  P  P212  1  0.54269904  0.91505661  0.10163437  1
  P  P213  1  0.54327748  0.91586527  0.35311483  1
  P  P214  1  0.54227376  0.91571658  0.60447907  1
  P  P215  1  0.54104810  0.91590239  0.85136141  1
  P  P216  1  0.45697729  0.08349335  0.14647030  1
  P  P217  1  0.45663508  0.08296971  0.39686242  1
  P  P218  1  0.45745013  0.08203090  0.64788011  1
  P  P219  1  0.45659038  0.08248706  0.89616045  1
  P  P220  1  0.45764090  0.41842641  0.14751604  1
  P  P221  1  0.45821976  0.41711245  0.39899075  1
  P  P222  1  0.45736530  0.41666059  0.64623601  1
  P  P223  1  0.45735316  0.41602770  0.89778811  1
  P  P224  1  0.45786781  0.74946957  0.14546221  1
  P  P225  1  0.45663598  0.74892137  0.39681032  1
  P  P226  1  0.45880653  0.74875373  0.64883430  1
  P  P227  1  0.45907336  0.74989904  0.89759924  1
  P  P228  1  0.95759850  0.08579611  0.14740763  1
  P  P229  1  0.95855163  0.08467031  0.39867219  1
  P  P230  1  0.95834758  0.08364303  0.64832686  1
  P  P231  1  0.95791890  0.08559112  0.89691981  1
  P  P232  1  0.95779018  0.41505110  0.14643384  1
  P  P233  1  0.95744899  0.41785822  0.39719918  1
  P  P234  1  0.95853928  0.41656283  0.64830101  1
  P  P235  1  0.95898754  0.41684939  0.89769239  1
  P  P236  1  0.95835709  0.74862005  0.14735613  1
  P  P237  1  0.95718553  0.75009039  0.39643265  1
  P  P238  1  0.95748786  0.75017567  0.64658943  1
  P  P239  1  0.95739914  0.75012379  0.89626927  1
  P  P240  1  0.20754729  0.08253736  0.22731933  1
  P  P241  1  0.20766124  0.08358018  0.47875603  1
  P  P242  1  0.20777765  0.08526050  0.72728853  1
  P  P243  1  0.20711561  0.08335840  0.97862574  1
  P  P244  1  0.20745166  0.41549340  0.22755971  1
  P  P245  1  0.20750944  0.41489652  0.47810995  1
  P  P246  1  0.20876441  0.41683613  0.72640528  1
  P  P247  1  0.20796689  0.41553221  0.97720371  1
  P  P248  1  0.20837719  0.74907883  0.22626246  1
  P  P249  1  0.20794322  0.74775428  0.47787274  1
  P  P250  1  0.20823843  0.74939404  0.72621332  1
  P  P251  1  0.20766317  0.74834804  0.97759319  1
  P  P252  1  0.70787359  0.08129932  0.22794347  1
  P  P253  1  0.70825197  0.08121332  0.47861255  1
  P  P254  1  0.70795741  0.08164379  0.72837701  1
  P  P255  1  0.70764462  0.08197873  0.97788248  1
  P  P256  1  0.70775783  0.41587011  0.22753593  1
  P  P257  1  0.70776560  0.41675819  0.47931035  1
  P  P258  1  0.70835961  0.41557219  0.72835003  1
  P  P259  1  0.70839558  0.41606971  0.97803514  1
  P  P260  1  0.70800405  0.74885351  0.22746140  1
  P  P261  1  0.70788369  0.74885377  0.47821519  1
  P  P262  1  0.70929482  0.75031468  0.72722078  1
  P  P263  1  0.70913570  0.75066411  0.97630497  1
  P  P264  1  0.29209120  0.25195897  0.02222008  1
  P  P265  1  0.29185811  0.25182857  0.27235280  1
  P  P266  1  0.29132904  0.25018752  0.52331231  1
  P  P267  1  0.29172246  0.25171860  0.77150397  1
  P  P268  1  0.29200855  0.58443233  0.02185767  1
  P  P269  1  0.29177159  0.58446610  0.27209010  1
  P  P270  1  0.29095277  0.58264872  0.52299023  1
  P  P271  1  0.29210201  0.58495982  0.77161188  1
  P  P272  1  0.29077153  0.91631262  0.02321653  1
  P  P273  1  0.29222422  0.91604424  0.27045410  1
  P  P274  1  0.29264954  0.91431430  0.52259339  1
  P  P275  1  0.29224089  0.91596263  0.77111408  1
  P  P276  1  0.79161914  0.25153950  0.02227683  1
  P  P277  1  0.79276328  0.24969095  0.27169155  1
  P  P278  1  0.79261390  0.25072844  0.52348602  1
  P  P279  1  0.79202450  0.25139511  0.77270940  1
  P  P280  1  0.79237212  0.58561345  0.02187620  1
  P  P281  1  0.79213073  0.58481860  0.27214966  1
  P  P282  1  0.79238416  0.58510283  0.52263336  1
  P  P283  1  0.79235883  0.58532614  0.77233123  1
  P  P284  1  0.79260892  0.91820847  0.02201154  1
  P  P285  1  0.79263118  0.91784225  0.27260284  1
  P  P286  1  0.79158609  0.91664863  0.52371535  1
  P  P287  1  0.79126083  0.91706109  0.77300208  1
  O  O288  1  0.03602795  0.25033309  0.18154105  1
  O  O289  1  0.03622066  0.25041464  0.43155872  1
  O  O290  1  0.03635102  0.24892535  0.68303867  1
  O  O291  1  0.03622898  0.25059777  0.93151464  1
  O  O292  1  0.03687959  0.58253414  0.18220111  1
  O  O293  1  0.03715524  0.58358067  0.43215618  1
  O  O294  1  0.03679385  0.58075939  0.68256941  1
  O  O295  1  0.03728429  0.58099369  0.93223183  1
  O  O296  1  0.03791545  0.91698635  0.18339974  1
  O  O297  1  0.03751785  0.91863590  0.43379917  1
  O  O298  1  0.03683027  0.91933170  0.68281287  1
  O  O299  1  0.03729898  0.91837890  0.93240451  1
  O  O300  1  0.53705373  0.25171377  0.18252232  1
  O  O301  1  0.53751717  0.25087747  0.43396884  1
  O  O302  1  0.53769007  0.25039277  0.68266152  1
  O  O303  1  0.53755977  0.25104731  0.93379362  1
  O  O304  1  0.53770591  0.58364449  0.18225937  1
  O  O305  1  0.53685289  0.58081936  0.43285674  1
  O  O306  1  0.53704648  0.58326453  0.68321821  1
  O  O307  1  0.53732894  0.58548479  0.93308574  1
  O  O308  1  0.53794724  0.91549497  0.18160565  1
  O  O309  1  0.53802058  0.91578148  0.43308825  1
  O  O310  1  0.53676374  0.91593701  0.68438448  1
  O  O311  1  0.53633968  0.91528666  0.93131420  1
  O  O312  1  0.46176307  0.08343915  0.06643963  1
  O  O313  1  0.46186853  0.08316239  0.31687789  1
  O  O314  1  0.46240631  0.08243732  0.56788853  1
  O  O315  1  0.46204136  0.08190010  0.81621703  1
  O  O316  1  0.46268538  0.41760018  0.06757672  1
  O  O317  1  0.46312346  0.41773314  0.31898216  1
  O  O318  1  0.46277695  0.41637506  0.56635616  1
  O  O319  1  0.46231996  0.41630122  0.81784170  1
  O  O320  1  0.46337324  0.74938287  0.06553034  1
  O  O321  1  0.46171411  0.74884004  0.31685845  1
  O  O322  1  0.46310529  0.74869322  0.56884880  1
  O  O323  1  0.46417261  0.74963090  0.81767129  1
  O  O324  1  0.96283092  0.08579646  0.06748174  1
  O  O325  1  0.96337479  0.08519128  0.31871303  1
  O  O326  1  0.96349453  0.08315892  0.56843178  1
  O  O327  1  0.96346434  0.08497464  0.81705810  1
  O  O328  1  0.96320521  0.41517978  0.06659033  1
  O  O329  1  0.96250033  0.41740029  0.31731219  1
  O  O330  1  0.96300276  0.41648456  0.56833444  1
  O  O331  1  0.96380459  0.41678766  0.81778332  1
  O  O332  1  0.96344603  0.74885414  0.06736151  1
  O  O333  1  0.96254200  0.74944555  0.31648756  1
  O  O334  1  0.96242977  0.75025095  0.56663270  1
  O  O335  1  0.96257255  0.75029595  0.81633348  1
  O  O336  1  0.21249767  0.08288661  0.05855444  1
  O  O337  1  0.21263370  0.08279284  0.30730345  1
  O  O338  1  0.21311854  0.08440488  0.55867411  1
  O  O339  1  0.21270372  0.08520778  0.80727253  1
  O  O340  1  0.21317410  0.41544048  0.05712657  1
  O  O341  1  0.21241622  0.41553172  0.30750525  1
  O  O342  1  0.21293539  0.41520916  0.55793922  1
  O  O343  1  0.21373001  0.41720535  0.80633668  1
  O  O344  1  0.21288544  0.74863428  0.05745717  1
  O  O345  1  0.21300588  0.74886594  0.30624113  1
  O  O346  1  0.21351306  0.74823893  0.55773225  1
  O  O347  1  0.21309581  0.74930510  0.80620673  1
  O  O348  1  0.71289638  0.08191860  0.05781845  1
  O  O349  1  0.71330831  0.08120297  0.30789477  1
  O  O350  1  0.71366892  0.08148967  0.55855693  1
  O  O351  1  0.71320260  0.08186364  0.80830419  1
  O  O352  1  0.71349506  0.41609479  0.05797879  1
  O  O353  1  0.71298481  0.41650742  0.30748713  1
  O  O354  1  0.71319853  0.41654020  0.55925278  1
  O  O355  1  0.71366518  0.41543551  0.80832100  1
  O  O356  1  0.71366053  0.75089109  0.05626877  1
  O  O357  1  0.71320664  0.74887157  0.30737964  1
  O  O358  1  0.71348289  0.74928232  0.55803440  1
  O  O359  1  0.71436312  0.75054543  0.80707859  1
  O  O360  1  0.28672710  0.25204495  0.19239575  1
  O  O361  1  0.28631174  0.25026287  0.44334827  1
  O  O362  1  0.28627431  0.25109042  0.69162737  1
  O  O363  1  0.28700850  0.25214268  0.94224429  1
  O  O364  1  0.28660853  0.58442075  0.19216836  1
  O  O365  1  0.28602848  0.58235634  0.44306297  1
  O  O366  1  0.28675318  0.58473871  0.69178789  1
  O  O367  1  0.28687487  0.58422849  0.94193934  1
  O  O368  1  0.28648189  0.91638121  0.19060043  1
  O  O369  1  0.28757036  0.91418672  0.44260257  1
  O  O370  1  0.28713803  0.91527466  0.69119519  1
  O  O371  1  0.28608960  0.91609428  0.94317636  1
  O  O372  1  0.78724099  0.24984866  0.19176211  1
  O  O373  1  0.78768188  0.25004457  0.44351333  1
  O  O374  1  0.78676947  0.25147015  0.69277373  1
  O  O375  1  0.78612884  0.25157004  0.94235105  1
  O  O376  1  0.78690726  0.58460977  0.19218735  1
  O  O377  1  0.78700636  0.58495852  0.44269796  1
  O  O378  1  0.78705915  0.58502752  0.69241001  1
  O  O379  1  0.78698173  0.58548755  0.94194942  1
  O  O380  1  0.78737369  0.91783663  0.19266004  1
  O  O381  1  0.78686900  0.91666222  0.44374956  1
  O  O382  1  0.78642819  0.91686262  0.69311446  1
  O  O383  1  0.78715101  0.91790311  0.94216629  1
  O  O384  1  0.22775029  0.25169211  0.05782767  1
  O  O385  1  0.22747881  0.25190297  0.30792150  1
  O  O386  1  0.22713086  0.25029358  0.55929853  1
  O  O387  1  0.22757868  0.25237711  0.80774522  1
  O  O388  1  0.22775063  0.58450309  0.05763170  1
  O  O389  1  0.22748622  0.58428929  0.30789020  1
  O  O390  1  0.22684975  0.58343711  0.55905459  1
  O  O391  1  0.22790872  0.58491050  0.80771569  1
  O  O392  1  0.22662346  0.91682134  0.05898547  1
  O  O393  1  0.22818574  0.91571959  0.30675428  1
  O  O394  1  0.22831020  0.91471204  0.55808987  1
  O  O395  1  0.22791084  0.91610789  0.80647156  1
  O  O396  1  0.72753336  0.25139971  0.05847960  1
  O  O397  1  0.72857077  0.24929530  0.30741412  1
  O  O398  1  0.72823591  0.25077014  0.55885276  1
  O  O399  1  0.72784315  0.25115346  0.80858503  1
  O  O400  1  0.72816890  0.58536948  0.05786736  1
  O  O401  1  0.72787680  0.58512256  0.30807199  1
  O  O402  1  0.72821495  0.58514160  0.55864921  1
  O  O403  1  0.72812886  0.58544598  0.80816776  1
  O  O404  1  0.72841908  0.91826776  0.05819107  1
  O  O405  1  0.72838762  0.91776735  0.30851216  1
  O  O406  1  0.72743161  0.91685052  0.55972427  1
  O  O407  1  0.72713882  0.91731353  0.80916407  1
  O  O408  1  0.27182855  0.08256687  0.19175410  1
  O  O409  1  0.27185710  0.08352818  0.44305651  1
  O  O410  1  0.27209262  0.08502859  0.69183271  1
  O  O411  1  0.27139662  0.08377511  0.94309804  1
  O  O412  1  0.27181472  0.41559436  0.19201621  1
  O  O413  1  0.27165717  0.41485491  0.44187515  1
  O  O414  1  0.27281252  0.41629199  0.69028409  1
  O  O415  1  0.27222333  0.41550989  0.94133569  1
  O  O416  1  0.27254125  0.74895329  0.19031804  1
  O  O417  1  0.27207724  0.74716230  0.44161155  1
  O  O418  1  0.27254020  0.74921615  0.69046016  1
  O  O419  1  0.27192377  0.74799277  0.94160350  1
  O  O420  1  0.77207619  0.08152411  0.19192492  1
  O  O421  1  0.77250574  0.08090452  0.44264204  1
  O  O422  1  0.77222732  0.08173538  0.69264986  1
  O  O423  1  0.77188606  0.08196639  0.94207461  1
  O  O424  1  0.77204901  0.41564676  0.19181956  1
  O  O425  1  0.77199809  0.41725257  0.44370796  1
  O  O426  1  0.77260071  0.41591947  0.69254250  1
  O  O427  1  0.77260399  0.41655619  0.94221966  1
  O  O428  1  0.77227153  0.74892855  0.19160883  1
  O  O429  1  0.77196219  0.74848380  0.44171025  1
  O  O430  1  0.77326917  0.74998241  0.69072695  1
  O  O431  1  0.77333402  0.75041887  0.94050656  1
  O  O432  1  0.02188009  0.08617450  0.18315395  1
  O  O433  1  0.02274917  0.08446730  0.43455477  1
  O  O434  1  0.02245123  0.08397675  0.68461201  1
  O  O435  1  0.02202174  0.08609520  0.93315038  1
  O  O436  1  0.02186674  0.41495615  0.18267892  1
  O  O437  1  0.02176799  0.41768420  0.43288153  1
  O  O438  1  0.02282647  0.41666073  0.68388798  1
  O  O439  1  0.02308563  0.41698635  0.93379990  1
  O  O440  1  0.02264323  0.74833313  0.18295247  1
  O  O441  1  0.02150054  0.75036292  0.43179100  1
  O  O442  1  0.02194358  0.75020229  0.68151046  1
  O  O443  1  0.02182100  0.74973218  0.93129983  1
  O  O444  1  0.52152826  0.08350727  0.18124822  1
  O  O445  1  0.52110988  0.08303292  0.43183019  1
  O  O446  1  0.52185603  0.08118494  0.68313068  1
  O  O447  1  0.52090420  0.08271485  0.93150619  1
  O  O448  1  0.52204044  0.41873506  0.18298678  1
  O  O449  1  0.52245348  0.41725512  0.43490228  1
  O  O450  1  0.52158876  0.41703470  0.68197102  1
  O  O451  1  0.52178143  0.41592972  0.93299977  1
  O  O452  1  0.52205236  0.74892944  0.18126672  1
  O  O453  1  0.52112007  0.74857228  0.43171635  1
  O  O454  1  0.52316311  0.74852050  0.68422129  1
  O  O455  1  0.52326556  0.75051536  0.93367162  1
  O  O456  1  0.47773043  0.25214570  0.06707484  1
  O  O457  1  0.47846422  0.25083864  0.31871223  1
  O  O458  1  0.47787163  0.25116538  0.56762257  1
  O  O459  1  0.47863209  0.24977297  0.81858739  1
  O  O460  1  0.47835378  0.58478189  0.06687690  1
  O  O461  1  0.47783918  0.58125433  0.31723132  1
  O  O462  1  0.47781599  0.58118121  0.56767944  1
  O  O463  1  0.47821610  0.58529082  0.81755111  1
  O  O464  1  0.47817597  0.91423829  0.06655170  1
  O  O465  1  0.47883791  0.91611208  0.31804880  1
  O  O466  1  0.47805284  0.91576093  0.56870965  1
  O  O467  1  0.47684957  0.91609459  0.81566216  1
  O  O468  1  0.97686331  0.24977003  0.06532893  1
  O  O469  1  0.97710144  0.25026291  0.31549877  1
  O  O470  1  0.97751121  0.24899789  0.56707939  1
  O  O471  1  0.97711279  0.24990001  0.81546150  1
  O  O472  1  0.97803945  0.58092338  0.06638991  1
  O  O473  1  0.97796429  0.58454774  0.31657664  1
  O  O474  1  0.97774716  0.58119009  0.56690236  1
  O  O475  1  0.97831066  0.58113915  0.81665369  1
  O  O476  1  0.97854494  0.91742138  0.06833607  1
  O  O477  1  0.97868786  0.91771165  0.31841531  1
  O  O478  1  0.97766474  0.91925264  0.56719121  1
  O  O479  1  0.97806202  0.91881155  0.81706779  1
  O  O480  1  0.07134737  0.31376029  0.07267195  1
  O  O481  1  0.07157933  0.31416012  0.32315667  1
  O  O482  1  0.07286942  0.31222619  0.57511414  1
  O  O483  1  0.07153240  0.31401816  0.82273327  1
  O  O484  1  0.07331538  0.64473415  0.07370425  1
  O  O485  1  0.07287841  0.64766148  0.32372059  1
  O  O486  1  0.07305178  0.64472091  0.57524462  1
  O  O487  1  0.07340996  0.64499800  0.82468819  1
  O  O488  1  0.07398059  0.98056552  0.07560390  1
  O  O489  1  0.07410801  0.98123537  0.32533187  1
  O  O490  1  0.07305245  0.98223137  0.57416787  1
  O  O491  1  0.07306552  0.98234342  0.82428746  1
  O  O492  1  0.57271370  0.31544054  0.07423988  1
  O  O493  1  0.57420123  0.31382569  0.32577953  1
  O  O494  1  0.57301413  0.31427908  0.57426877  1
  O  O495  1  0.57403178  0.31356781  0.82526141  1
  O  O496  1  0.57332874  0.64799818  0.07389222  1
  O  O497  1  0.57315954  0.64476124  0.32533742  1
  O  O498  1  0.57282658  0.64565331  0.57457683  1
  O  O499  1  0.57379453  0.64792491  0.82419632  1
  O  O500  1  0.57304128  0.97891981  0.07354251  1
  O  O501  1  0.57430334  0.97927225  0.32500217  1
  O  O502  1  0.57354958  0.97893099  0.57605732  1
  O  O503  1  0.57185441  0.97961111  0.82346928  1
  O  O504  1  0.42623335  0.01987721  0.17447798  1
  O  O505  1  0.42570196  0.01948146  0.42487016  1
  O  O506  1  0.42631401  0.01866259  0.67593128  1
  O  O507  1  0.42532864  0.01929505  0.92458666  1
  O  O508  1  0.42649331  0.35527574  0.17621605  1
  O  O509  1  0.42801186  0.35292984  0.42677941  1
  O  O510  1  0.42631935  0.35333123  0.67469291  1
  O  O511  1  0.42681231  0.35258143  0.92640493  1
  O  O512  1  0.42629058  0.68642885  0.17391514  1
  O  O513  1  0.42559135  0.68550323  0.42498751  1
  O  O514  1  0.42790085  0.68530429  0.67707343  1
  O  O515  1  0.42864560  0.68622772  0.92631579  1
  O  O516  1  0.92711455  0.02181849  0.17525687  1
  O  O517  1  0.92793112  0.02081824  0.42663700  1
  O  O518  1  0.92758897  0.02018760  0.67718627  1
  O  O519  1  0.92696341  0.02210663  0.92528458  1
  O  O520  1  0.92700499  0.35173422  0.17534938  1
  O  O521  1  0.92605812  0.35465121  0.42539927  1
  O  O522  1  0.92835823  0.35261501  0.67694486  1
  O  O523  1  0.92845396  0.35305373  0.92616353  1
  O  O524  1  0.92771585  0.68494774  0.17543603  1
  O  O525  1  0.92597870  0.68701757  0.42506660  1
  O  O526  1  0.92667874  0.68659214  0.67450456  1
  O  O527  1  0.92627583  0.68664543  0.92404099  1
  O  O528  1  0.17686152  0.01897700  0.19889108  1
  O  O529  1  0.17690004  0.01963826  0.45123568  1
  O  O530  1  0.17675326  0.02156399  0.69958652  1
  O  O531  1  0.17601209  0.02014376  0.94989620  1
  O  O532  1  0.17663136  0.35218834  0.19861195  1
  O  O533  1  0.17672116  0.35137278  0.44942484  1
  O  O534  1  0.17723620  0.35354511  0.69848910  1
  O  O535  1  0.17697218  0.35237162  0.94820247  1
  O  O536  1  0.17721110  0.68577612  0.19777341  1
  O  O537  1  0.17687022  0.68433237  0.44930839  1
  O  O538  1  0.17707355  0.68600840  0.69790813  1
  O  O539  1  0.17674194  0.68504566  0.94858510  1
  O  O540  1  0.67700242  0.01803725  0.19906932  1
  O  O541  1  0.67709891  0.01795704  0.45015689  1
  O  O542  1  0.67713372  0.01830696  0.69967595  1
  O  O543  1  0.67668978  0.01875284  0.94896052  1
  O  O544  1  0.67708163  0.35213160  0.19950242  1
  O  O545  1  0.67677972  0.35333102  0.45098063  1
  O  O546  1  0.67763991  0.35222405  0.69934495  1
  O  O547  1  0.67783185  0.35257576  0.94920009  1
  O  O548  1  0.67715513  0.68558345  0.19854217  1
  O  O549  1  0.67677752  0.68551057  0.44962038  1
  O  O550  1  0.67804326  0.68688215  0.69894629  1
  O  O551  1  0.67796297  0.68729848  0.94797284  1
  O  O552  1  0.32276937  0.31529404  0.05119935  1
  O  O553  1  0.32282262  0.31492903  0.30159128  1
  O  O554  1  0.32234052  0.31369836  0.55153748  1
  O  O555  1  0.32281659  0.31523183  0.79979528  1
  O  O556  1  0.32298250  0.64772190  0.05045918  1
  O  O557  1  0.32251689  0.64778427  0.30098394  1
  O  O558  1  0.32271433  0.64569752  0.55117465  1
  O  O559  1  0.32280237  0.64834804  0.80071032  1
  O  O560  1  0.32197076  0.97978853  0.05125790  1
  O  O561  1  0.32333947  0.97937063  0.29919412  1
  O  O562  1  0.32385505  0.97797000  0.55010026  1
  O  O563  1  0.32301897  0.97976247  0.79894421  1
  O  O564  1  0.82249257  0.31490843  0.05094414  1
  O  O565  1  0.82387251  0.31309197  0.29992882  1
  O  O566  1  0.82312725  0.31456045  0.55164027  1
  O  O567  1  0.82285333  0.31475127  0.80157420  1
  O  O568  1  0.82306074  0.64906333  0.05056558  1
  O  O569  1  0.82314675  0.64807078  0.30076683  1
  O  O570  1  0.82338278  0.64840361  0.55122047  1
  O  O571  1  0.82345563  0.64862544  0.80068160  1
  O  O572  1  0.82355071  0.98157089  0.05077054  1
  O  O573  1  0.82354570  0.98108055  0.30148318  1
  O  O574  1  0.82277086  0.97993858  0.55230113  1
  O  O575  1  0.82246515  0.98042024  0.80152604  1
  O  O576  1  0.42601428  0.14715011  0.17464675  1
  O  O577  1  0.42547667  0.14648786  0.42518733  1
  O  O578  1  0.42692486  0.14605651  0.67587339  1
  O  O579  1  0.42547548  0.14624784  0.92397760  1
  O  O580  1  0.42707150  0.48232912  0.17585401  1
  O  O581  1  0.42691431  0.48039192  0.42772386  1
  O  O582  1  0.42599631  0.48007699  0.67468213  1
  O  O583  1  0.42631735  0.47991637  0.92540348  1
  O  O584  1  0.42692234  0.81314740  0.17374190  1
  O  O585  1  0.42577746  0.81252121  0.42512960  1
  O  O586  1  0.42841794  0.81271773  0.67733370  1
  O  O587  1  0.42769862  0.81343442  0.92590481  1
  O  O588  1  0.92628547  0.14893359  0.17620448  1
  O  O589  1  0.92759532  0.14815630  0.42756835  1
  O  O590  1  0.92721023  0.14736217  0.67641457  1
  O  O591  1  0.92668710  0.14910768  0.92523006  1
  O  O592  1  0.92641780  0.47864788  0.17451534  1
  O  O593  1  0.92716502  0.48179635  0.42586827  1
  O  O594  1  0.92726424  0.47989313  0.67689225  1
  O  O595  1  0.92776983  0.48027186  0.92639558  1
  O  O596  1  0.92726426  0.81237749  0.17520152  1
  O  O597  1  0.92608555  0.81392891  0.42421478  1
  O  O598  1  0.92638745  0.81375423  0.67469779  1
  O  O599  1  0.92655470  0.81377855  0.92462034  1
  O  O600  1  0.07224812  0.18668174  0.07313367  1
  O  O601  1  0.07238654  0.18674386  0.32341593  1
  O  O602  1  0.07241402  0.18532132  0.57418361  1
  O  O603  1  0.07264736  0.18685692  0.82331860  1
  O  O604  1  0.07312342  0.51759521  0.07449559  1
  O  O605  1  0.07345403  0.52052386  0.32406087  1
  O  O606  1  0.07269995  0.51748245  0.57353792  1
  O  O607  1  0.07375853  0.51782537  0.82352376  1
  O  O608  1  0.07378295  0.85338552  0.07516155  1
  O  O609  1  0.07422565  0.85429987  0.32611535  1
  O  O610  1  0.07283445  0.85505989  0.57519096  1
  O  O611  1  0.07367444  0.85505185  0.82445923  1
  O  O612  1  0.57307342  0.18799216  0.07474412  1
  O  O613  1  0.57376573  0.18693301  0.32570734  1
  O  O614  1  0.57330326  0.18692603  0.57481736  1
  O  O615  1  0.57424401  0.18666498  0.82605985  1
  O  O616  1  0.57398074  0.52099973  0.07388366  1
  O  O617  1  0.57303176  0.51766032  0.32391852  1
  O  O618  1  0.57336985  0.51862109  0.57526238  1
  O  O619  1  0.57311517  0.52075577  0.82572715  1
  O  O620  1  0.57388064  0.85170444  0.07305455  1
  O  O621  1  0.57420805  0.85215842  0.32501308  1
  O  O622  1  0.57338335  0.85205647  0.57621212  1
  O  O623  1  0.57184319  0.85219677  0.82257136  1
  O  O624  1  0.32327122  0.18818034  0.04976800  1
  O  O625  1  0.32276728  0.18783662  0.29977108  1
  O  O626  1  0.32207289  0.18635774  0.55148388  1
  O  O627  1  0.32278110  0.18821004  0.79993128  1
  O  O628  1  0.32291541  0.52064844  0.04989170  1
  O  O629  1  0.32277278  0.52068303  0.29996636  1
  O  O630  1  0.32090942  0.51842295  0.55147948  1
  O  O631  1  0.32345991  0.52142201  0.79961091  1
  O  O632  1  0.32094737  0.85210442  0.05125397  1
  O  O633  1  0.32372773  0.85256520  0.29833622  1
  O  O634  1  0.32315816  0.85061846  0.55109587  1
  O  O635  1  0.32355771  0.85280961  0.79983715  1
  O  O636  1  0.82277175  0.18764439  0.04950837  1
  O  O637  1  0.82400901  0.18618309  0.29977302  1
  O  O638  1  0.82378854  0.18723501  0.55158062  1
  O  O639  1  0.82317376  0.18756343  0.80012576  1
  O  O640  1  0.82357999  0.52189590  0.04954441  1
  O  O641  1  0.82295243  0.52086444  0.29991273  1
  O  O642  1  0.82352593  0.52137013  0.55037579  1
  O  O643  1  0.82325741  0.52146866  0.80014800  1
  O  O644  1  0.82384777  0.85464365  0.05019196  1
  O  O645  1  0.82360308  0.85393505  0.30014184  1
  O  O646  1  0.82189736  0.85256230  0.55196903  1
  O  O647  1  0.82184425  0.85321835  0.80161375  1
  O  O648  1  0.17639407  0.14628483  0.19976649  1
  O  O649  1  0.17608633  0.14660450  0.45009818  1
  O  O650  1  0.17712336  0.14891271  0.69894276  1
  O  O651  1  0.17596286  0.14706948  0.95091766  1
  O  O652  1  0.17649196  0.47929519  0.19965970  1
  O  O653  1  0.17620455  0.47834509  0.44987382  1
  O  O654  1  0.17853149  0.48086187  0.69784282  1
  O  O655  1  0.17712657  0.47945044  0.94956046  1
  O  O656  1  0.17801766  0.81317355  0.19802119  1
  O  O657  1  0.17686350  0.81134816  0.44967707  1
  O  O658  1  0.17766891  0.81335192  0.69805595  1
  O  O659  1  0.17656636  0.81201792  0.94947499  1
  O  O660  1  0.67668313  0.14513331  0.20044773  1
  O  O661  1  0.67745810  0.14517143  0.45083609  1
  O  O662  1  0.67679586  0.14540128  0.70069687  1
  O  O663  1  0.67663004  0.14587000  0.95041528  1
  O  O664  1  0.67669572  0.47945639  0.19952111  1
  O  O665  1  0.67642512  0.48024615  0.45136386  1
  O  O666  1  0.67707033  0.47946157  0.70125832  1
  O  O667  1  0.67692678  0.47969576  0.95041902  1
  O  O668  1  0.67704188  0.81272049  0.19977537  1
  O  O669  1  0.67683642  0.81251096  0.45006061  1
  O  O670  1  0.67874108  0.81415654  0.69862211  1
  O  O671  1  0.67884451  0.81464020  0.94765306  1
