# generated using pymatgen
data_Na2MnFe(PO4)2
_symmetry_space_group_name_H-M   'P 1'
_cell_length_a   22.34655478
_cell_length_b   20.09722845
_cell_length_c   19.44739553
_cell_angle_alpha   90.01538761
_cell_angle_beta   90.01259095
_cell_angle_gamma   89.97173684
_symmetry_Int_Tables_number   1
_chemical_formula_structural   Na2MnFe(PO4)2
_chemical_formula_sum   'Na96 Mn48 Fe48 P96 O384'
_cell_volume   8733.89796384
_cell_formula_units_Z   48
loop_
 _symmetry_equiv_pos_site_id
 _symmetry_equiv_pos_as_xyz
  1  'x, y, z'
loop_
 _atom_site_type_symbol
 _atom_site_label
 _atom_site_symmetry_multiplicity
 _atom_site_fract_x
 _atom_site_fract_y
 _atom_site_fract_z
 _atom_site_occupancy
  Na  Na0  1  0.13936578  0.25065940  0.24344450  1
  Na  Na1  1  0.13947734  0.25021422  0.49296980  1
  Na  Na2  1  0.13979293  0.25028031  0.74331570  1
  Na  Na3  1  0.13948843  0.24960210  0.99293123  1
  Na  Na4  1  0.13967254  0.58388278  0.24417958  1
  Na  Na5  1  0.13957646  0.58268885  0.49403973  1
  Na  Na6  1  0.13954887  0.58403772  0.74450860  1
  Na  Na7  1  0.13974991  0.58498070  0.99387160  1
  Na  Na8  1  0.14016213  0.91647992  0.24368860  1
  Na  Na9  1  0.13974554  0.91785248  0.49453788  1
  Na  Na10  1  0.13974416  0.91668572  0.74491427  1
  Na  Na11  1  0.14047205  0.91630994  0.99259020  1
  Na  Na12  1  0.64090462  0.24964321  0.24306106  1
  Na  Na13  1  0.64039747  0.24941913  0.49460586  1
  Na  Na14  1  0.64101173  0.24935275  0.74363828  1
  Na  Na15  1  0.64145975  0.24888769  0.99245831  1
  Na  Na16  1  0.64074923  0.58388175  0.24453761  1
  Na  Na17  1  0.64031526  0.58426336  0.49413702  1
  Na  Na18  1  0.64071340  0.58406083  0.74322755  1
  Na  Na19  1  0.64084040  0.58275642  0.99267010  1
  Na  Na20  1  0.64096326  0.91579564  0.24331901  1
  Na  Na21  1  0.64063927  0.91511321  0.49401635  1
  Na  Na22  1  0.64113480  0.91615942  0.74334423  1
  Na  Na23  1  0.64111409  0.91632858  0.99308935  1
  Na  Na24  1  0.35973350  0.08316146  0.00390128  1
  Na  Na25  1  0.36016783  0.08414246  0.25611617  1
  Na  Na26  1  0.36000544  0.08414807  0.50657775  1
  Na  Na27  1  0.35962273  0.08233919  0.75635514  1
  Na  Na28  1  0.35922516  0.41754019  0.00479521  1
  Na  Na29  1  0.35951062  0.41736746  0.25546464  1
  Na  Na30  1  0.35946964  0.41676699  0.50598936  1
  Na  Na31  1  0.35931734  0.41804258  0.75530687  1
  Na  Na32  1  0.36018044  0.75043219  0.00512305  1
  Na  Na33  1  0.36009842  0.74989248  0.25510344  1
  Na  Na34  1  0.35978794  0.75036332  0.50694331  1
  Na  Na35  1  0.35927782  0.75093316  0.75614681  1
  Na  Na36  1  0.85985918  0.08336506  0.00703079  1
  Na  Na37  1  0.86044885  0.08195501  0.25672506  1
  Na  Na38  1  0.86005192  0.08245296  0.50685148  1
  Na  Na39  1  0.85930483  0.08339698  0.75695443  1
  Na  Na40  1  0.85945030  0.41582159  0.00639784  1
  Na  Na41  1  0.85936343  0.41715503  0.25631213  1
  Na  Na42  1  0.85989920  0.41689864  0.50756663  1
  Na  Na43  1  0.85957648  0.41722134  0.75833435  1
  Na  Na44  1  0.86001509  0.74888832  0.00759063  1
  Na  Na45  1  0.85983863  0.74880031  0.25649084  1
  Na  Na46  1  0.85922921  0.74947332  0.50743661  1
  Na  Na47  1  0.85942231  0.75043248  0.75710240  1
  Na  Na48  1  0.10924337  0.08334309  0.11842335  1
  Na  Na49  1  0.10875227  0.08413436  0.36916945  1
  Na  Na50  1  0.10924370  0.08396046  0.61854577  1
  Na  Na51  1  0.10959159  0.08392871  0.86768915  1
  Na  Na52  1  0.10868942  0.41565609  0.11898120  1
  Na  Na53  1  0.10893615  0.41572012  0.36899709  1
  Na  Na54  1  0.10879545  0.41734882  0.61835660  1
  Na  Na55  1  0.10865546  0.41658319  0.86851697  1
  Na  Na56  1  0.10954828  0.74894827  0.11809136  1
  Na  Na57  1  0.10905061  0.75013187  0.36912713  1
  Na  Na58  1  0.10882793  0.75120058  0.61983796  1
  Na  Na59  1  0.10960831  0.74937106  0.86925183  1
  Na  Na60  1  0.61091265  0.08163863  0.11775560  1
  Na  Na61  1  0.60980416  0.08368330  0.36885020  1
  Na  Na62  1  0.61006605  0.08185298  0.61951744  1
  Na  Na63  1  0.61070614  0.08264838  0.86776093  1
  Na  Na64  1  0.60997134  0.41769512  0.11765476  1
  Na  Na65  1  0.60968031  0.41790432  0.36967121  1
  Na  Na66  1  0.60980085  0.41767157  0.61924153  1
  Na  Na67  1  0.61028864  0.41629384  0.86764929  1
  Na  Na68  1  0.61036667  0.74943372  0.11844402  1
  Na  Na69  1  0.61037282  0.75069083  0.36942095  1
  Na  Na70  1  0.61018153  0.74925059  0.61742086  1
  Na  Na71  1  0.61021190  0.74912210  0.86844431  1
  Na  Na72  1  0.39073324  0.24943155  0.13037750  1
  Na  Na73  1  0.39087804  0.25135322  0.38094769  1
  Na  Na74  1  0.39097331  0.24942860  0.63108220  1
  Na  Na75  1  0.39047175  0.24902639  0.87997548  1
  Na  Na76  1  0.39018490  0.58457276  0.13017467  1
  Na  Na77  1  0.39059264  0.58442893  0.38169856  1
  Na  Na78  1  0.39003065  0.58333635  0.63041680  1
  Na  Na79  1  0.39031375  0.58437872  0.88100918  1
  Na  Na80  1  0.39075242  0.91628063  0.12941757  1
  Na  Na81  1  0.39098266  0.91773448  0.38118941  1
  Na  Na82  1  0.39030984  0.91726426  0.63195974  1
  Na  Na83  1  0.39050402  0.91658560  0.88085811  1
  Na  Na84  1  0.89047081  0.24809958  0.13109006  1
  Na  Na85  1  0.89057405  0.24888123  0.38072910  1
  Na  Na86  1  0.89060185  0.25119291  0.63154244  1
  Na  Na87  1  0.89012036  0.24991001  0.88227034  1
  Na  Na88  1  0.88953744  0.58262084  0.13209306  1
  Na  Na89  1  0.88997937  0.58349391  0.38218190  1
  Na  Na90  1  0.88978539  0.58382462  0.63307675  1
  Na  Na91  1  0.88957948  0.58246745  0.88289532  1
  Na  Na92  1  0.89095937  0.91600953  0.13192401  1
  Na  Na93  1  0.89044054  0.91646621  0.38205720  1
  Na  Na94  1  0.88975099  0.91745741  0.63199728  1
  Na  Na95  1  0.89020191  0.91629563  0.88247375  1
  Mn  Mn96  1  -0.00090457  0.66693498  0.75099666  1
  Mn  Mn97  1  0.24921173  0.50143274  0.12529852  1
  Mn  Mn98  1  0.75035014  0.16575738  0.37500732  1
  Mn  Mn99  1  0.25040934  0.83276664  0.12387922  1
  Mn  Mn100  1  0.50080916  0.33373255  0.50049930  1
  Mn  Mn101  1  0.49982287  0.83422156  0.24959482  1
  Mn  Mn102  1  -0.00043205  0.49889976  0.00108804  1
  Mn  Mn103  1  0.24902108  0.50154611  0.87549411  1
  Mn  Mn104  1  0.74960518  -0.00178695  0.37531868  1
  Mn  Mn105  1  0.74989696  0.33310847  0.12453233  1
  Mn  Mn106  1  -0.00094764  0.50045652  0.50002564  1
  Mn  Mn107  1  0.24998443  0.16616242  0.62450131  1
  Mn  Mn108  1  0.75044845  0.83249273  0.12474757  1
  Mn  Mn109  1  0.24998336  0.16719643  0.12459340  1
  Mn  Mn110  1  0.00028722  -0.00041849  0.00031221  1
  Mn  Mn111  1  0.50029753  0.50105063  0.24925823  1
  Mn  Mn112  1  0.25001297  0.33379031  0.12406252  1
  Mn  Mn113  1  0.25011677  0.49941378  0.37390809  1
  Mn  Mn114  1  0.25012837  0.00028694  0.12409805  1
  Mn  Mn115  1  0.75044054  0.83299011  0.87500742  1
  Mn  Mn116  1  0.25015254  0.83360140  0.37509162  1
  Mn  Mn117  1  -0.00016230  0.83277751  0.25077273  1
  Mn  Mn118  1  0.50043553  0.33293195  -0.00123694  1
  Mn  Mn119  1  -0.00098989  -0.00004776  0.75046791  1
  Mn  Mn120  1  -0.00022967  0.49947043  0.25035804  1
  Mn  Mn121  1  0.24994452  0.00043495  0.37467708  1
  Mn  Mn122  1  0.24990827  0.33400658  0.62471854  1
  Mn  Mn123  1  0.50057069  0.16562606  0.00014312  1
  Mn  Mn124  1  0.49930917  0.66613316  0.74870364  1
  Mn  Mn125  1  0.50045744  0.66779113  0.25025774  1
  Mn  Mn126  1  0.24915258  0.83449819  0.62598942  1
  Mn  Mn127  1  0.50051155  0.33388562  0.25043109  1
  Mn  Mn128  1  0.74991693  0.50112868  0.37589058  1
  Mn  Mn129  1  -0.00066281  0.16808940  0.74922978  1
  Mn  Mn130  1  0.49951190  0.50051531  -0.00075630  1
  Mn  Mn131  1  0.49973742  0.83313731  0.74930016  1
  Mn  Mn132  1  0.74988714  0.33379404  0.37474301  1
  Mn  Mn133  1  0.50142800  0.16615702  0.24997483  1
  Mn  Mn134  1  0.24978386  0.66661515  0.37543662  1
  Mn  Mn135  1  0.24954037  0.16772564  0.37543085  1
  Mn  Mn136  1  0.50013542  0.00054142  0.50038657  1
  Mn  Mn137  1  0.24918411  0.33329976  0.87451311  1
  Mn  Mn138  1  0.75063325  0.16603543  0.62540929  1
  Mn  Mn139  1  0.49991868  0.33315398  0.74928575  1
  Mn  Mn140  1  0.24882594  0.66656689  0.62557573  1
  Mn  Mn141  1  0.75054298  0.33405563  0.62590979  1
  Mn  Mn142  1  0.50019236  -0.00101850  -0.00102509  1
  Mn  Mn143  1  -0.00051190  0.83409058  0.49983420  1
  Fe  Fe144  1  -0.00058027  0.49999335  0.75095676  1
  Fe  Fe145  1  0.50112357  0.83312132  -0.00039437  1
  Fe  Fe146  1  0.75082342  0.83230780  0.37511415  1
  Fe  Fe147  1  0.25008837  0.66739778  0.12453536  1
  Fe  Fe148  1  0.50016038  0.83410034  0.49975273  1
  Fe  Fe149  1  0.24937404  0.50024032  0.62501153  1
  Fe  Fe150  1  0.75101642  -0.00026342  0.87505907  1
  Fe  Fe151  1  -0.00082385  0.33228671  0.24992358  1
  Fe  Fe152  1  0.49981897  0.50059254  0.49969498  1
  Fe  Fe153  1  0.75026142  0.16576783  0.87504370  1
  Fe  Fe154  1  0.75000090  0.50054307  0.87539279  1
  Fe  Fe155  1  -0.00040835  0.33320379  0.49950652  1
  Fe  Fe156  1  0.50069575  0.66690209  -0.00059765  1
  Fe  Fe157  1  0.74993695  -0.00085878  0.62545218  1
  Fe  Fe158  1  -0.00022698  0.00067376  0.50035125  1
  Fe  Fe159  1  0.24985158  0.83358015  0.87486899  1
  Fe  Fe160  1  0.75026855  0.83261014  0.62518754  1
  Fe  Fe161  1  0.75034209  0.66628934  0.87513426  1
  Fe  Fe162  1  0.24972432  0.33365590  0.37492467  1
  Fe  Fe163  1  -0.00030968  0.66586434  0.00021782  1
  Fe  Fe164  1  0.50054110  0.16600662  0.74984995  1
  Fe  Fe165  1  0.75076036  0.66669896  0.37557640  1
  Fe  Fe166  1  -0.00050801  0.33260154  -0.00018750  1
  Fe  Fe167  1  0.75049888  0.16560503  0.12403552  1
  Fe  Fe168  1  0.00003083  0.83238049  0.00117251  1
  Fe  Fe169  1  0.75004596  0.33328567  0.87533457  1
  Fe  Fe170  1  0.25028544  0.66733618  0.87449688  1
  Fe  Fe171  1  0.24955505  0.00009693  0.87471099  1
  Fe  Fe172  1  -0.00030689  0.66624606  0.25022879  1
  Fe  Fe173  1  0.75088052  -0.00056136  0.12438328  1
  Fe  Fe174  1  0.50079881  0.00006923  0.25004192  1
  Fe  Fe175  1  0.50080663  -0.00052696  0.74960669  1
  Fe  Fe176  1  0.25001888  0.16632301  0.87380271  1
  Fe  Fe177  1  -0.00042847  0.83335543  0.75056183  1
  Fe  Fe178  1  0.49997652  0.66709378  0.49988353  1
  Fe  Fe179  1  0.50042959  0.16652279  0.50031217  1
  Fe  Fe180  1  0.74952765  0.49963615  0.12440023  1
  Fe  Fe181  1  -0.00060411  0.16693672  0.49967523  1
  Fe  Fe182  1  0.00036839  0.00002603  0.25038323  1
  Fe  Fe183  1  0.74996665  0.66584420  0.12552224  1
  Fe  Fe184  1  0.75007347  0.66678988  0.62554297  1
  Fe  Fe185  1  0.00005843  0.16631624  0.25018981  1
  Fe  Fe186  1  -0.00048332  0.66712845  0.50109349  1
  Fe  Fe187  1  0.74975056  0.50075775  0.62617555  1
  Fe  Fe188  1  0.00004701  0.16654375  0.00047386  1
  Fe  Fe189  1  0.50010779  0.50035517  0.74924274  1
  Fe  Fe190  1  0.24966140  0.00012557  0.62578699  1
  Fe  Fe191  1  -0.00008095  0.33358800  0.74987739  1
  P  P192  1  0.04104049  0.24985536  0.10215072  1
  P  P193  1  0.04083297  0.24960501  0.35212260  1
  P  P194  1  0.04102106  0.25078257  0.60135461  1
  P  P195  1  0.04176789  0.25153757  0.85273922  1
  P  P196  1  0.04148941  0.58401624  0.10324152  1
  P  P197  1  0.04142283  0.58448556  0.35319970  1
  P  P198  1  0.04126181  0.58452538  0.60335625  1
  P  P199  1  0.04115844  0.58230876  0.85345420  1
  P  P200  1  0.04246530  0.91516232  0.10297042  1
  P  P201  1  0.04194057  0.91826650  0.35303862  1
  P  P202  1  0.04146561  0.91805350  0.60299513  1
  P  P203  1  0.04136633  0.91497809  0.85344278  1
  P  P204  1  0.54381650  0.24980581  0.10269737  1
  P  P205  1  0.54371849  0.25010356  0.35380914  1
  P  P206  1  0.54246369  0.24810528  0.60316506  1
  P  P207  1  0.54276536  0.24856386  0.85167820  1
  P  P208  1  0.54270878  0.58482494  0.10164955  1
  P  P209  1  0.54249909  0.58413743  0.35408074  1
  P  P210  1  0.54125595  0.58323565  0.60141022  1
  P  P211  1  0.54211194  0.58266308  0.85193323  1
  P  P212  1  0.54322755  0.91549677  0.10219444  1
  P  P213  1  0.54271259  0.91796903  0.35270119  1
  P  P214  1  0.54228802  0.91570084  0.60263095  1
  P  P215  1  0.54275088  0.91691139  0.85205994  1
  P  P216  1  0.45835240  0.08151092  0.14738800  1
  P  P217  1  0.45804011  0.08467963  0.39738601  1
  P  P218  1  0.45879188  0.08312091  0.64834106  1
  P  P219  1  0.45815529  0.08290349  0.89534556  1
  P  P220  1  0.45725610  0.41687939  0.14634818  1
  P  P221  1  0.45779080  0.41820973  0.39770735  1
  P  P222  1  0.45804532  0.41840057  0.64674281  1
  P  P223  1  0.45723574  0.41692626  0.89550571  1
  P  P224  1  0.45798941  0.75037513  0.14556363  1
  P  P225  1  0.45858894  0.75091567  0.39857869  1
  P  P226  1  0.45703812  0.75000707  0.64533042  1
  P  P227  1  0.45914550  0.75027643  0.89785477  1
  P  P228  1  0.95907274  0.08299490  0.14850279  1
  P  P229  1  0.95827341  0.08323611  0.39787220  1
  P  P230  1  0.95697372  0.08391937  0.64628440  1
  P  P231  1  0.95797599  0.08445702  0.89810275  1
  P  P232  1  0.95743923  0.41444519  0.14759376  1
  P  P233  1  0.95724040  0.41498984  0.39733250  1
  P  P234  1  0.95815603  0.41698316  0.64871165  1
  P  P235  1  0.95761544  0.41520867  0.89733477  1
  P  P236  1  0.95804571  0.74832792  0.14735413  1
  P  P237  1  0.95763580  0.74858963  0.39785243  1
  P  P238  1  0.95719112  0.75149715  0.64802696  1
  P  P239  1  0.95845251  0.74994117  0.89894945  1
  P  P240  1  0.20703812  0.08381226  0.22769508  1
  P  P241  1  0.20686725  0.08326232  0.47861216  1
  P  P242  1  0.20744702  0.08217884  0.72831479  1
  P  P243  1  0.20816506  0.08360382  0.97575419  1
  P  P244  1  0.20654872  0.41661269  0.22816147  1
  P  P245  1  0.20725259  0.41594960  0.47750783  1
  P  P246  1  0.20698507  0.41835739  0.72732754  1
  P  P247  1  0.20629081  0.41728774  0.97791462  1
  P  P248  1  0.20740648  0.74916677  0.22709705  1
  P  P249  1  0.20663953  0.75044882  0.47862753  1
  P  P250  1  0.20674786  0.75055902  0.72953120  1
  P  P251  1  0.20870826  0.74984840  0.97645770  1
  P  P252  1  0.70948158  0.08221048  0.22600322  1
  P  P253  1  0.70756492  0.08196189  0.47871198  1
  P  P254  1  0.70859789  0.08170660  0.72831370  1
  P  P255  1  0.70927482  0.08256247  0.97699760  1
  P  P256  1  0.70771103  0.41808240  0.22712739  1
  P  P257  1  0.70756912  0.41749507  0.47918194  1
  P  P258  1  0.70831679  0.41847871  0.72890621  1
  P  P259  1  0.70874855  0.41691285  0.97663395  1
  P  P260  1  0.70834781  0.74843536  0.22808845  1
  P  P261  1  0.70913565  0.74973054  0.47753287  1
  P  P262  1  0.70875236  0.74988614  0.72690761  1
  P  P263  1  0.70859034  0.74807083  0.97763571  1
  P  P264  1  0.29271427  0.24965833  0.02039736  1
  P  P265  1  0.29234288  0.25176539  0.27245680  1
  P  P266  1  0.29283638  0.25061833  0.52141890  1
  P  P267  1  0.29192581  0.24900293  0.77190373  1
  P  P268  1  0.29196273  0.58560649  0.02182414  1
  P  P269  1  0.29302563  0.58421496  0.27130099  1
  P  P270  1  0.29164318  0.58211630  0.52270887  1
  P  P271  1  0.29200734  0.58467377  0.77213556  1
  P  P272  1  0.29244761  0.91666517  0.02002026  1
  P  P273  1  0.29318734  0.91663073  0.27138307  1
  P  P274  1  0.29239381  0.91832990  0.52317207  1
  P  P275  1  0.29121111  0.91716325  0.77338266  1
  P  P276  1  0.79180413  0.24834374  0.02159012  1
  P  P277  1  0.79247417  0.24942001  0.27113586  1
  P  P278  1  0.79291286  0.25007527  0.52239248  1
  P  P279  1  0.79149506  0.24973082  0.77409521  1
  P  P280  1  0.79127752  0.58281862  0.02301780  1
  P  P281  1  0.79237993  0.58463845  0.27249992  1
  P  P282  1  0.79149648  0.58368143  0.52428356  1
  P  P283  1  0.79138114  0.58350784  0.77327314  1
  P  P284  1  0.79296942  0.91744348  0.02222300  1
  P  P285  1  0.79266947  0.91452780  0.27243678  1
  P  P286  1  0.79139932  0.91558436  0.52358870  1
  P  P287  1  0.79244473  0.91748096  0.77225294  1
  O  O288  1  0.03587493  0.24984413  0.18201963  1
  O  O289  1  0.03566291  0.24925513  0.43198669  1
  O  O290  1  0.03605865  0.25151203  0.68132669  1
  O  O291  1  0.03662624  0.25102232  0.93259657  1
  O  O292  1  0.03640620  0.58428635  0.18322493  1
  O  O293  1  0.03602856  0.58459375  0.43316936  1
  O  O294  1  0.03595853  0.58378681  0.68330609  1
  O  O295  1  0.03620642  0.58248542  0.93341261  1
  O  O296  1  0.03728798  0.91575348  0.18290986  1
  O  O297  1  0.03641789  0.91857077  0.43296868  1
  O  O298  1  0.03619839  0.91728825  0.68293506  1
  O  O299  1  0.03620432  0.91472725  0.93338666  1
  O  O300  1  0.53896777  0.25005389  0.18273831  1
  O  O301  1  0.53838827  0.24964819  0.43379513  1
  O  O302  1  0.53663740  0.24777937  0.68306504  1
  O  O303  1  0.53811433  0.24880952  0.93168849  1
  O  O304  1  0.53807429  0.58477436  0.18166448  1
  O  O305  1  0.53697769  0.58399111  0.43399868  1
  O  O306  1  0.53614602  0.58286503  0.68139659  1
  O  O307  1  0.53698905  0.58360289  0.93187908  1
  O  O308  1  0.53806183  0.91651705  0.18212968  1
  O  O309  1  0.53739382  0.91743037  0.43264930  1
  O  O310  1  0.53716046  0.91626024  0.68255401  1
  O  O311  1  0.53772655  0.91598326  0.93201769  1
  O  O312  1  0.46324243  0.08152455  0.06736669  1
  O  O313  1  0.46363756  0.08368039  0.31749428  1
  O  O314  1  0.46376263  0.08376930  0.56833520  1
  O  O315  1  0.46345429  0.08294632  0.81545263  1
  O  O316  1  0.46227244  0.41668151  0.06632147  1
  O  O317  1  0.46294559  0.41797902  0.31772750  1
  O  O318  1  0.46358972  0.41849194  0.56681770  1
  O  O319  1  0.46242687  0.41739810  0.81553193  1
  O  O320  1  0.46352400  0.75012246  0.06567418  1
  O  O321  1  0.46343280  0.75108659  0.31854688  1
  O  O322  1  0.46224164  0.75019176  0.56544815  1
  O  O323  1  0.46356548  0.74996097  0.81780862  1
  O  O324  1  0.96385409  0.08349150  0.06853509  1
  O  O325  1  0.96362066  0.08285731  0.31796485  1
  O  O326  1  0.96236295  0.08381148  0.56637323  1
  O  O327  1  0.96257030  0.08438579  0.81813552  1
  O  O328  1  0.96275822  0.41456588  0.06764138  1
  O  O329  1  0.96263772  0.41501526  0.31742028  1
  O  O330  1  0.96260465  0.41728377  0.56872294  1
  O  O331  1  0.96316124  0.41584722  0.81748339  1
  O  O332  1  0.96344853  0.74861395  0.06745503  1
  O  O333  1  0.96298166  0.74822211  0.31790732  1
  O  O334  1  0.96233234  0.75099354  0.56810540  1
  O  O335  1  0.96308063  0.75045422  0.81893244  1
  O  O336  1  0.21304296  0.08374917  0.05576004  1
  O  O337  1  0.21181437  0.08397145  0.30769156  1
  O  O338  1  0.21195933  0.08271925  0.55861089  1
  O  O339  1  0.21306237  0.08268734  0.80823108  1
  O  O340  1  0.21153879  0.41732597  0.05785447  1
  O  O341  1  0.21181775  0.41594712  0.30814594  1
  O  O342  1  0.21243138  0.41679455  0.55748759  1
  O  O343  1  0.21189250  0.41802214  0.80729060  1
  O  O344  1  0.21374579  0.74936268  0.05644511  1
  O  O345  1  0.21222422  0.74961196  0.30711990  1
  O  O346  1  0.21136353  0.75064278  0.55865739  1
  O  O347  1  0.21245030  0.75062178  0.80942347  1
  O  O348  1  0.71462305  0.08272849  0.05691474  1
  O  O349  1  0.71398922  0.08212970  0.30603280  1
  O  O350  1  0.71284110  0.08152608  0.55863180  1
  O  O351  1  0.71423164  0.08211521  0.80819043  1
  O  O352  1  0.71341297  0.41697187  0.05663798  1
  O  O353  1  0.71294641  0.41799324  0.30711469  1
  O  O354  1  0.71294384  0.41798848  0.55914141  1
  O  O355  1  0.71372761  0.41838240  0.80880754  1
  O  O356  1  0.71386499  0.74786631  0.05753043  1
  O  O357  1  0.71391297  0.74891805  0.30795239  1
  O  O358  1  0.71426181  0.74993925  0.55742245  1
  O  O359  1  0.71345849  0.74966909  0.80685991  1
  O  O360  1  0.28747367  0.25138881  0.19240964  1
  O  O361  1  0.28770365  0.25116279  0.44145566  1
  O  O362  1  0.28686856  0.24914534  0.69191975  1
  O  O363  1  0.28719493  0.24888405  0.94043321  1
  O  O364  1  0.28788115  0.58488855  0.19131397  1
  O  O365  1  0.28683712  0.58215762  0.44271700  1
  O  O366  1  0.28654869  0.58367924  0.69223167  1
  O  O367  1  0.28668390  0.58575124  0.94184351  1
  O  O368  1  0.28816516  0.91637714  0.19136446  1
  O  O369  1  0.28761000  0.91781264  0.44315538  1
  O  O370  1  0.28609057  0.91782880  0.69340880  1
  O  O371  1  0.28681305  0.91660578  0.94011565  1
  O  O372  1  0.78707138  0.24895590  0.19115879  1
  O  O373  1  0.78780493  0.25012379  0.44243381  1
  O  O374  1  0.78690714  0.25013027  0.69408959  1
  O  O375  1  0.78633628  0.24814587  0.94170830  1
  O  O376  1  0.78707290  0.58429271  0.19268541  1
  O  O377  1  0.78692452  0.58440453  0.44431096  1
  O  O378  1  0.78613337  0.58349399  0.69340609  1
  O  O379  1  0.78614522  0.58275593  0.94308535  1
  O  O380  1  0.78777594  0.91510664  0.19250270  1
  O  O381  1  0.78645634  0.91468376  0.44360109  1
  O  O382  1  0.78695824  0.91731061  0.69241221  1
  O  O383  1  0.78781539  0.91752866  0.94226881  1
  O  O384  1  0.22833777  0.25007888  0.05570007  1
  O  O385  1  0.22787094  0.25212177  0.30770781  1
  O  O386  1  0.22840208  0.25026796  0.55646000  1
  O  O387  1  0.22758449  0.24876025  0.80723283  1
  O  O388  1  0.22770853  0.58592228  0.05763676  1
  O  O389  1  0.22854928  0.58366119  0.30628763  1
  O  O390  1  0.22723872  0.58196287  0.55803663  1
  O  O391  1  0.22772111  0.58585413  0.80783238  1
  O  O392  1  0.22833196  0.91660684  0.05598737  1
  O  O393  1  0.22864622  0.91666451  0.30623528  1
  O  O394  1  0.22786997  0.91896230  0.55830886  1
  O  O395  1  0.22710617  0.91670440  0.80940222  1
  O  O396  1  0.72783243  0.24828216  0.05792337  1
  O  O397  1  0.72827037  0.24947312  0.30684050  1
  O  O398  1  0.72861799  0.25019546  0.55769695  1
  O  O399  1  0.72728799  0.24919620  0.80964338  1
  O  O400  1  0.72724211  0.58295096  0.05938959  1
  O  O401  1  0.72825096  0.58529921  0.30871035  1
  O  O402  1  0.72723792  0.58311480  0.55997334  1
  O  O403  1  0.72732382  0.58341193  0.80958915  1
  O  O404  1  0.72870812  0.91747241  0.05787159  1
  O  O405  1  0.72833150  0.91377051  0.30800969  1
  O  O406  1  0.72733236  0.91588129  0.55970724  1
  O  O407  1  0.72838065  0.91776702  0.80853090  1
  O  O408  1  0.27160764  0.08373361  0.19299172  1
  O  O409  1  0.27127489  0.08383571  0.44352044  1
  O  O410  1  0.27160998  0.08168129  0.69214425  1
  O  O411  1  0.27237679  0.08326042  0.94004274  1
  O  O412  1  0.27092669  0.41733520  0.19294789  1
  O  O413  1  0.27155202  0.41516567  0.44177203  1
  O  O414  1  0.27141217  0.41860264  0.69206556  1
  O  O415  1  0.27065621  0.41728813  0.94279641  1
  O  O416  1  0.27190047  0.74869182  0.19193657  1
  O  O417  1  0.27124984  0.75032021  0.44399633  1
  O  O418  1  0.27085337  0.75038811  0.69361647  1
  O  O419  1  0.27280909  0.74991811  0.94029170  1
  O  O420  1  0.77374988  0.08215292  0.19047204  1
  O  O421  1  0.77183371  0.08177010  0.44319831  1
  O  O422  1  0.77262139  0.08120650  0.69200490  1
  O  O423  1  0.77331211  0.08274416  0.94060932  1
  O  O424  1  0.77194800  0.41802030  0.19144334  1
  O  O425  1  0.77181377  0.41725401  0.44362139  1
  O  O426  1  0.77245506  0.41883458  0.69281950  1
  O  O427  1  0.77291762  0.41727363  0.94091119  1
  O  O428  1  0.77239207  0.74807275  0.19171345  1
  O  O429  1  0.77315952  0.74971416  0.44099691  1
  O  O430  1  0.77295303  0.74991103  0.69124759  1
  O  O431  1  0.77278798  0.74824775  0.94179898  1
  O  O432  1  0.02318501  0.08264991  0.18444739  1
  O  O433  1  0.02220538  0.08353231  0.43456264  1
  O  O434  1  0.02111392  0.08371540  0.68215172  1
  O  O435  1  0.02234785  0.08445771  0.93337576  1
  O  O436  1  0.02157899  0.41445305  0.18361194  1
  O  O437  1  0.02140537  0.41557215  0.43331807  1
  O  O438  1  0.02239514  0.41642995  0.68445382  1
  O  O439  1  0.02165426  0.41496952  0.93368934  1
  O  O440  1  0.02210011  0.74846541  0.18365452  1
  O  O441  1  0.02178377  0.74888291  0.43382128  1
  O  O442  1  0.02140673  0.75136692  0.68388689  1
  O  O443  1  0.02263709  0.74994612  0.93475378  1
  O  O444  1  0.52284623  0.08135788  0.18260345  1
  O  O445  1  0.52224116  0.08495341  0.43341957  1
  O  O446  1  0.52301072  0.08256375  0.68423873  1
  O  O447  1  0.52239033  0.08259303  0.93103652  1
  O  O448  1  0.52178122  0.41701385  0.18124053  1
  O  O449  1  0.52212292  0.41853576  0.43324231  1
  O  O450  1  0.52219263  0.41816833  0.68278216  1
  O  O451  1  0.52165372  0.41713836  0.93067251  1
  O  O452  1  0.52217003  0.75091641  0.18143588  1
  O  O453  1  0.52282535  0.75057815  0.43429782  1
  O  O454  1  0.52135119  0.74976490  0.68078122  1
  O  O455  1  0.52343538  0.75050734  0.93339111  1
  O  O456  1  0.47923009  0.24978609  0.06797139  1
  O  O457  1  0.47941822  0.24981257  0.31831568  1
  O  O458  1  0.47844237  0.24860360  0.56681810  1
  O  O459  1  0.47833680  0.24870357  0.81657058  1
  O  O460  1  0.47823607  0.58508512  0.06659535  1
  O  O461  1  0.47835150  0.58407661  0.31818823  1
  O  O462  1  0.47715663  0.58367177  0.56533610  1
  O  O463  1  0.47778541  0.58193975  0.81632557  1
  O  O464  1  0.47893844  0.91442613  0.06647106  1
  O  O465  1  0.47842806  0.91873947  0.31693959  1
  O  O466  1  0.47803119  0.91570698  0.56696598  1
  O  O467  1  0.47841757  0.91780899  0.81652519  1
  O  O468  1  0.97702888  0.24968266  0.06561813  1
  O  O469  1  0.97686962  0.24967892  0.31561157  1
  O  O470  1  0.97689103  0.25036009  0.56534573  1
  O  O471  1  0.97751533  0.25234468  0.81682026  1
  O  O472  1  0.97726186  0.58360612  0.06754049  1
  O  O473  1  0.97726891  0.58410861  0.31726206  1
  O  O474  1  0.97705054  0.58486303  0.56741345  1
  O  O475  1  0.97693171  0.58232140  0.81777368  1
  O  O476  1  0.97816734  0.91502154  0.06731095  1
  O  O477  1  0.97781466  0.91799601  0.31697651  1
  O  O478  1  0.97729749  0.91839210  0.56704482  1
  O  O479  1  0.97716150  0.91499098  0.81756402  1
  O  O480  1  0.07198883  0.31332405  0.07363305  1
  O  O481  1  0.07180173  0.31318928  0.32391235  1
  O  O482  1  0.07174835  0.31435022  0.57268599  1
  O  O483  1  0.07308705  0.31462231  0.82391740  1
  O  O484  1  0.07208824  0.64732295  0.07400905  1
  O  O485  1  0.07230382  0.64777384  0.32443043  1
  O  O486  1  0.07189496  0.64836819  0.57542782  1
  O  O487  1  0.07251806  0.64567557  0.82552927  1
  O  O488  1  0.07362202  0.97855545  0.07463702  1
  O  O489  1  0.07288352  0.98146107  0.32418401  1
  O  O490  1  0.07219789  0.98169859  0.57478836  1
  O  O491  1  0.07217403  0.97894625  0.82600872  1
  O  O492  1  0.57477202  0.31310016  0.07407380  1
  O  O493  1  0.57436550  0.31399060  0.32601476  1
  O  O494  1  0.57380590  0.31200262  0.57632308  1
  O  O495  1  0.57380767  0.31213838  0.82375766  1
  O  O496  1  0.57338164  0.64825426  0.07284346  1
  O  O497  1  0.57358587  0.64769684  0.32597705  1
  O  O498  1  0.57212099  0.64709949  0.57363576  1
  O  O499  1  0.57297255  0.64619695  0.82349625  1
  O  O500  1  0.57397169  0.97898444  0.07359634  1
  O  O501  1  0.57366952  0.98144472  0.32432573  1
  O  O502  1  0.57372245  0.97896788  0.57464507  1
  O  O503  1  0.57366148  0.98043742  0.82381912  1
  O  O504  1  0.42771188  0.01800432  0.17589963  1
  O  O505  1  0.42670316  0.02138916  0.42570297  1
  O  O506  1  0.42808578  0.01919887  0.67610820  1
  O  O507  1  0.42680096  0.01961643  0.92366891  1
  O  O508  1  0.42633128  0.35351567  0.17483882  1
  O  O509  1  0.42707883  0.35446212  0.42565475  1
  O  O510  1  0.42689573  0.35453976  0.67398769  1
  O  O511  1  0.42665233  0.35302654  0.92336460  1
  O  O512  1  0.42710864  0.68699428  0.17437280  1
  O  O513  1  0.42752879  0.68732737  0.42642344  1
  O  O514  1  0.42576926  0.68671681  0.67383121  1
  O  O515  1  0.42873954  0.68640283  0.92606980  1
  O  O516  1  0.92819280  0.01923566  0.17643936  1
  O  O517  1  0.92734989  0.01968398  0.42644715  1
  O  O518  1  0.92554051  0.02085046  0.67497970  1
  O  O519  1  0.92708663  0.02076655  0.92594100  1
  O  O520  1  0.92639352  0.35112981  0.17590263  1
  O  O521  1  0.92669484  0.35149045  0.42605733  1
  O  O522  1  0.92686158  0.35363895  0.67691595  1
  O  O523  1  0.92668175  0.35176818  0.92579675  1
  O  O524  1  0.92721498  0.68483457  0.17592132  1
  O  O525  1  0.92680240  0.68548360  0.42711456  1
  O  O526  1  0.92577615  0.68827130  0.67631564  1
  O  O527  1  0.92824960  0.68564382  0.92676234  1
  O  O528  1  0.17621870  0.02032008  0.19929812  1
  O  O529  1  0.17587843  0.02005468  0.44988565  1
  O  O530  1  0.17638367  0.01873018  0.70000468  1
  O  O531  1  0.17716232  0.01986261  0.94798421  1
  O  O532  1  0.17561921  0.35338340  0.19934194  1
  O  O533  1  0.17645454  0.35229531  0.44935002  1
  O  O534  1  0.17614524  0.35464683  0.69941618  1
  O  O535  1  0.17533361  0.35384253  0.94968284  1
  O  O536  1  0.17662079  0.68570257  0.19862132  1
  O  O537  1  0.17578282  0.68687612  0.45051667  1
  O  O538  1  0.17525827  0.68732236  0.70128495  1
  O  O539  1  0.17757537  0.68652988  0.94798827  1
  O  O540  1  0.67879538  0.01844602  0.19777619  1
  O  O541  1  0.67612851  0.01886339  0.45015295  1
  O  O542  1  0.67739988  0.01841955  0.69977285  1
  O  O543  1  0.67846933  0.01882987  0.94878317  1
  O  O544  1  0.67656395  0.35451849  0.19937242  1
  O  O545  1  0.67649973  0.35388277  0.45131930  1
  O  O546  1  0.67732093  0.35470013  0.70107619  1
  O  O547  1  0.67865237  0.35272857  0.94827399  1
  O  O548  1  0.67723744  0.68509547  0.19951981  1
  O  O549  1  0.67829145  0.68604422  0.44932939  1
  O  O550  1  0.67776738  0.68642746  0.69832047  1
  O  O551  1  0.67764109  0.68493839  0.94853760  1
  O  O552  1  0.32385788  0.31331617  0.04802520  1
  O  O553  1  0.32307715  0.31528079  0.30086158  1
  O  O554  1  0.32399532  0.31378553  0.55011946  1
  O  O555  1  0.32281061  0.31285534  0.79935597  1
  O  O556  1  0.32314544  0.64877952  0.05036891  1
  O  O557  1  0.32403043  0.64735303  0.30035805  1
  O  O558  1  0.32248585  0.64586967  0.55041698  1
  O  O559  1  0.32329216  0.64816832  0.80005370  1
  O  O560  1  0.32365190  0.98011160  0.04824334  1
  O  O561  1  0.32405765  0.98017168  0.29950881  1
  O  O562  1  0.32325573  0.98176649  0.55162703  1
  O  O563  1  0.32203689  0.98062675  0.80196153  1
  O  O564  1  0.82304450  0.31198519  0.04926211  1
  O  O565  1  0.82326156  0.31322548  0.29896537  1
  O  O566  1  0.82402279  0.31340844  0.55077327  1
  O  O567  1  0.82161144  0.31376547  0.80255817  1
  O  O568  1  0.82235050  0.64627086  0.05144217  1
  O  O569  1  0.82355489  0.64772159  0.30163561  1
  O  O570  1  0.82190121  0.64734912  0.55321739  1
  O  O571  1  0.82214053  0.64727858  0.80173264  1
  O  O572  1  0.82392661  0.98070193  0.05102989  1
  O  O573  1  0.82334250  0.97816980  0.30088964  1
  O  O574  1  0.82211481  0.97955372  0.55118654  1
  O  O575  1  0.82371538  0.98063658  0.80102078  1
  O  O576  1  0.42748958  0.14533181  0.17509093  1
  O  O577  1  0.42735015  0.14842617  0.42548741  1
  O  O578  1  0.42797320  0.14667341  0.67683130  1
  O  O579  1  0.42712496  0.14628500  0.92403089  1
  O  O580  1  0.42637068  0.48062363  0.17415538  1
  O  O581  1  0.42674153  0.48165795  0.42593308  1
  O  O582  1  0.42717836  0.48171541  0.67550992  1
  O  O583  1  0.42562249  0.47990268  0.92417048  1
  O  O584  1  0.42638982  0.81359482  0.17386813  1
  O  O585  1  0.42809449  0.81487997  0.42660219  1
  O  O586  1  0.42590682  0.81326427  0.67424427  1
  O  O587  1  0.42838197  0.81401343  0.92579873  1
  O  O588  1  0.92838254  0.14656644  0.17726443  1
  O  O589  1  0.92717997  0.14689798  0.42596598  1
  O  O590  1  0.92597467  0.14755539  0.67450124  1
  O  O591  1  0.92740470  0.14800378  0.92679566  1
  O  O592  1  0.92655409  0.47832305  0.17535177  1
  O  O593  1  0.92583219  0.47855824  0.42510399  1
  O  O594  1  0.92812923  0.48103321  0.67758307  1
  O  O595  1  0.92635929  0.47864073  0.92571892  1
  O  O596  1  0.92666041  0.81181489  0.17546467  1
  O  O597  1  0.92653840  0.81257362  0.42498613  1
  O  O598  1  0.92685300  0.81533770  0.67643456  1
  O  O599  1  0.92716813  0.81305697  0.92779313  1
  O  O600  1  0.07187420  0.18608312  0.07367136  1
  O  O601  1  0.07169043  0.18602861  0.32327714  1
  O  O602  1  0.07194872  0.18694458  0.57366431  1
  O  O603  1  0.07237102  0.18779835  0.82411201  1
  O  O604  1  0.07281077  0.52028330  0.07593864  1
  O  O605  1  0.07260448  0.52066365  0.32572746  1
  O  O606  1  0.07248095  0.52123177  0.57485169  1
  O  O607  1  0.07166589  0.51865225  0.82469300  1
  O  O608  1  0.07308707  0.85147167  0.07457681  1
  O  O609  1  0.07306548  0.85436482  0.32573052  1
  O  O610  1  0.07272473  0.85462904  0.57480362  1
  O  O611  1  0.07226230  0.85171325  0.82451637  1
  O  O612  1  0.57453134  0.18598707  0.07483689  1
  O  O613  1  0.57532906  0.18708635  0.32519538  1
  O  O614  1  0.57332569  0.18474955  0.57446244  1
  O  O615  1  0.57337446  0.18493078  0.82325925  1
  O  O616  1  0.57354906  0.52109974  0.07372750  1
  O  O617  1  0.57388820  0.52093407  0.32544445  1
  O  O618  1  0.57223140  0.51973491  0.57314172  1
  O  O619  1  0.57302936  0.51911499  0.82366987  1
  O  O620  1  0.57436680  0.85201733  0.07401397  1
  O  O621  1  0.57356748  0.85432826  0.32458641  1
  O  O622  1  0.57272787  0.85190291  0.57412180  1
  O  O623  1  0.57365596  0.85334239  0.82372363  1
  O  O624  1  0.32391231  0.18648633  0.04923725  1
  O  O625  1  0.32315910  0.18799108  0.30034614  1
  O  O626  1  0.32393525  0.18705874  0.54948119  1
  O  O627  1  0.32276291  0.18543084  0.80015098  1
  O  O628  1  0.32260323  0.52154791  0.04937341  1
  O  O629  1  0.32412287  0.52055230  0.29906678  1
  O  O630  1  0.32225308  0.51854524  0.55130056  1
  O  O631  1  0.32272184  0.52112613  0.80066342  1
  O  O632  1  0.32379931  0.85335254  0.04833210  1
  O  O633  1  0.32406551  0.85313087  0.29979947  1
  O  O634  1  0.32292721  0.85453496  0.55138923  1
  O  O635  1  0.32226582  0.85329551  0.80089858  1
  O  O636  1  0.82275470  0.18500268  0.05063074  1
  O  O637  1  0.82379002  0.18615627  0.29952607  1
  O  O638  1  0.82381431  0.18646565  0.55037502  1
  O  O639  1  0.82283093  0.18620274  0.80175297  1
  O  O640  1  0.82199583  0.51900660  0.05143182  1
  O  O641  1  0.82326161  0.52089135  0.30070491  1
  O  O642  1  0.82255546  0.52006562  0.55231020  1
  O  O643  1  0.82263707  0.52022543  0.80187662  1
  O  O644  1  0.82381495  0.85360906  0.04995933  1
  O  O645  1  0.82365713  0.85112246  0.30095421  1
  O  O646  1  0.82235319  0.85218142  0.55239380  1
  O  O647  1  0.82333166  0.85373657  0.80044455  1
  O  O648  1  0.17614636  0.14734102  0.19939317  1
  O  O649  1  0.17572410  0.14688455  0.45072547  1
  O  O650  1  0.17638807  0.14577499  0.70011004  1
  O  O651  1  0.17751565  0.14730815  0.94740994  1
  O  O652  1  0.17530864  0.48029200  0.20059148  1
  O  O653  1  0.17623960  0.47942873  0.44920336  1
  O  O654  1  0.17633659  0.48197790  0.69897434  1
  O  O655  1  0.17517899  0.48087867  0.95014278  1
  O  O656  1  0.17666912  0.81285596  0.19887140  1
  O  O657  1  0.17585737  0.81399094  0.45023687  1
  O  O658  1  0.17556689  0.81399987  0.70122158  1
  O  O659  1  0.17809204  0.81388974  0.94877608  1
  O  O660  1  0.67880999  0.14595838  0.19774493  1
  O  O661  1  0.67686109  0.14577061  0.45071569  1
  O  O662  1  0.67760742  0.14541617  0.70027217  1
  O  O663  1  0.67809618  0.14598713  0.94845546  1
  O  O664  1  0.67703106  0.48170811  0.19878466  1
  O  O665  1  0.67639822  0.48078724  0.45067837  1
  O  O666  1  0.67713204  0.48167145  0.70000472  1
  O  O667  1  0.67720941  0.48007179  0.94836351  1
  O  O668  1  0.67720378  0.81193691  0.19968095  1
  O  O669  1  0.67823160  0.81324772  0.44886882  1
  O  O670  1  0.67804002  0.81362005  0.69853629  1
  O  O671  1  0.67764619  0.81196757  0.95010060  1
