# generated using pymatgen
data_Na2MnFe(PO4)2
_symmetry_space_group_name_H-M   'P 1'
_cell_length_a   22.34616597
_cell_length_b   20.09666829
_cell_length_c   19.44794711
_cell_angle_alpha   89.96037840
_cell_angle_beta   89.99983897
_cell_angle_gamma   89.98604362
_symmetry_Int_Tables_number   1
_chemical_formula_structural   Na2MnFe(PO4)2
_chemical_formula_sum   'Na96 Mn48 Fe48 P96 O384'
_cell_volume   8733.74951537
_cell_formula_units_Z   48
loop_
 _symmetry_equiv_pos_site_id
 _symmetry_equiv_pos_as_xyz
  1  'x, y, z'
loop_
 _atom_site_type_symbol
 _atom_site_label
 _atom_site_symmetry_multiplicity
 _atom_site_fract_x
 _atom_site_fract_y
 _atom_site_fract_z
 _atom_site_occupancy
  Na  Na0  1  0.14124046  0.25125599  0.24381386  1
  Na  Na1  1  0.14046966  0.24957540  0.49275520  1
  Na  Na2  1  0.14045420  0.24909990  0.74364731  1
  Na  Na3  1  0.14077364  0.25031103  0.99358782  1
  Na  Na4  1  0.14001964  0.58375431  0.24299660  1
  Na  Na5  1  0.14046687  0.58359000  0.49277395  1
  Na  Na6  1  0.14005564  0.58434025  0.74497052  1
  Na  Na7  1  0.13996466  0.58363669  0.99260145  1
  Na  Na8  1  0.14007147  0.91825636  0.24386802  1
  Na  Na9  1  0.13999880  0.91656739  0.49295156  1
  Na  Na10  1  0.13989523  0.91713409  0.74322336  1
  Na  Na11  1  0.14042680  0.91680845  0.99312336  1
  Na  Na12  1  0.64058035  0.24880336  0.24350262  1
  Na  Na13  1  0.64074682  0.24942547  0.49375220  1
  Na  Na14  1  0.64120650  0.24898403  0.74387966  1
  Na  Na15  1  0.64048990  0.24816197  0.99470156  1
  Na  Na16  1  0.64052727  0.58481560  0.24438892  1
  Na  Na17  1  0.64033356  0.58298469  0.49456646  1
  Na  Na18  1  0.63997802  0.58413548  0.74388189  1
  Na  Na19  1  0.64032929  0.58345133  0.99417197  1
  Na  Na20  1  0.64047565  0.91782076  0.24353365  1
  Na  Na21  1  0.63967190  0.91695350  0.49405984  1
  Na  Na22  1  0.63975071  0.91712252  0.74300155  1
  Na  Na23  1  0.64037602  0.91690259  0.99381864  1
  Na  Na24  1  0.35930137  0.08375088  0.00637136  1
  Na  Na25  1  0.36011775  0.08507076  0.25796199  1
  Na  Na26  1  0.36030177  0.08240856  0.50601579  1
  Na  Na27  1  0.35983814  0.08145227  0.75534983  1
  Na  Na28  1  0.35896830  0.41674019  0.00678000  1
  Na  Na29  1  0.35899416  0.41728185  0.25610389  1
  Na  Na30  1  0.35938067  0.41673233  0.50556269  1
  Na  Na31  1  0.35933993  0.41749420  0.75603219  1
  Na  Na32  1  0.35968740  0.74994706  0.00549303  1
  Na  Na33  1  0.35937976  0.75122470  0.25596751  1
  Na  Na34  1  0.35926469  0.75099936  0.50730296  1
  Na  Na35  1  0.35934345  0.75066157  0.75805992  1
  Na  Na36  1  0.85970427  0.08146126  0.00568574  1
  Na  Na37  1  0.86030248  0.08239681  0.25533884  1
  Na  Na38  1  0.86020845  0.08210379  0.50654591  1
  Na  Na39  1  0.86040355  0.08240888  0.75666647  1
  Na  Na40  1  0.85997415  0.41534726  0.00720758  1
  Na  Na41  1  0.85943089  0.41689833  0.25565922  1
  Na  Na42  1  0.85969667  0.41585890  0.50609136  1
  Na  Na43  1  0.85943052  0.41595105  0.75628363  1
  Na  Na44  1  0.85967812  0.74953770  0.00793757  1
  Na  Na45  1  0.86025602  0.75041019  0.25653710  1
  Na  Na46  1  0.85990126  0.74955256  0.50660372  1
  Na  Na47  1  0.85949493  0.75094132  0.75531620  1
  Na  Na48  1  0.11053530  0.08355886  0.11901890  1
  Na  Na49  1  0.11047821  0.08206710  0.36841209  1
  Na  Na50  1  0.10964051  0.08269248  0.61797530  1
  Na  Na51  1  0.10976105  0.08266332  0.86850778  1
  Na  Na52  1  0.10970039  0.41753273  0.11690594  1
  Na  Na53  1  0.10948701  0.41668959  0.36797378  1
  Na  Na54  1  0.10943551  0.41731680  0.61833652  1
  Na  Na55  1  0.10955486  0.41650663  0.86982745  1
  Na  Na56  1  0.10919549  0.75029866  0.11845690  1
  Na  Na57  1  0.10928399  0.75052049  0.36863911  1
  Na  Na58  1  0.10975440  0.75147199  0.61811199  1
  Na  Na59  1  0.10945548  0.75032186  0.86837463  1
  Na  Na60  1  0.61026802  0.08224717  0.11866404  1
  Na  Na61  1  0.61013723  0.08363013  0.36862106  1
  Na  Na62  1  0.60967575  0.08142419  0.61874972  1
  Na  Na63  1  0.61022177  0.08178634  0.86812760  1
  Na  Na64  1  0.60944941  0.41735820  0.11867849  1
  Na  Na65  1  0.60936345  0.41664962  0.36908284  1
  Na  Na66  1  0.60941758  0.41642717  0.61879197  1
  Na  Na67  1  0.60941870  0.41755026  0.86926584  1
  Na  Na68  1  0.60952425  0.75084630  0.11879300  1
  Na  Na69  1  0.60967134  0.75147887  0.36990618  1
  Na  Na70  1  0.60902005  0.75044780  0.61858411  1
  Na  Na71  1  0.60915519  0.75093122  0.86895515  1
  Na  Na72  1  0.38970719  0.24943836  0.13287163  1
  Na  Na73  1  0.39030445  0.24961942  0.38164728  1
  Na  Na74  1  0.39066140  0.24857412  0.62950890  1
  Na  Na75  1  0.39048191  0.24968327  0.88126680  1
  Na  Na76  1  0.38977203  0.58432307  0.13042388  1
  Na  Na77  1  0.38999807  0.58483068  0.38152544  1
  Na  Na78  1  0.39027535  0.58383718  0.63158151  1
  Na  Na79  1  0.38974432  0.58498152  0.88195829  1
  Na  Na80  1  0.39050474  0.91754377  0.13071064  1
  Na  Na81  1  0.39064863  0.91892995  0.38238780  1
  Na  Na82  1  0.38969310  0.91576574  0.63209803  1
  Na  Na83  1  0.38961888  0.91589279  0.88053821  1
  Na  Na84  1  0.89070237  0.24845946  0.13079469  1
  Na  Na85  1  0.89043806  0.24843061  0.38107258  1
  Na  Na86  1  0.89125027  0.24940701  0.63097730  1
  Na  Na87  1  0.89084034  0.24821582  0.88181364  1
  Na  Na88  1  0.89055008  0.58346625  0.13154311  1
  Na  Na89  1  0.89047392  0.58429937  0.38169812  1
  Na  Na90  1  0.89058430  0.58351001  0.63038273  1
  Na  Na91  1  0.89057885  0.58245911  0.88219597  1
  Na  Na92  1  0.89066278  0.91589776  0.13178941  1
  Na  Na93  1  0.89091542  0.91562674  0.38094602  1
  Na  Na94  1  0.88982041  0.91746538  0.63134339  1
  Na  Na95  1  0.88990499  0.91666516  0.88116086  1
  Mn  Mn96  1  0.00005293  0.83353760  0.00005014  1
  Mn  Mn97  1  0.74953712  0.33185155  0.87590329  1
  Mn  Mn98  1  0.74965081  0.50042837  0.37534028  1
  Mn  Mn99  1  0.49988165  0.16582838  0.00022820  1
  Mn  Mn100  1  0.75079420  0.00026462  0.37434714  1
  Mn  Mn101  1  0.24892196  0.66661024  0.12460476  1
  Mn  Mn102  1  0.49944526  0.33313916  0.25039066  1
  Mn  Mn103  1  0.74959804  0.83438059  0.87572328  1
  Mn  Mn104  1  0.75070895  0.33313911  0.62477707  1
  Mn  Mn105  1  -0.00083563  0.83424968  0.74945571  1
  Mn  Mn106  1  0.00122686  0.16518063  0.25042633  1
  Mn  Mn107  1  0.49946630  0.83509480  0.24982525  1
  Mn  Mn108  1  0.49927029  0.50078112  0.75016485  1
  Mn  Mn109  1  0.49931462  -0.00091209  -0.00046269  1
  Mn  Mn110  1  0.49964816  0.66759152  0.50050429  1
  Mn  Mn111  1  0.24976870  0.33309701  0.62479811  1
  Mn  Mn112  1  -0.00004413  0.33296483  0.24954186  1
  Mn  Mn113  1  0.75013327  0.33224434  0.12523038  1
  Mn  Mn114  1  0.50056821  0.16518451  0.75002878  1
  Mn  Mn115  1  0.49996243  0.33325644  0.00038395  1
  Mn  Mn116  1  0.00000654  0.50005459  0.75001729  1
  Mn  Mn117  1  0.00019070  0.16553746  0.00020274  1
  Mn  Mn118  1  0.25058136  0.16582839  0.87439995  1
  Mn  Mn119  1  0.24974257  0.50025699  0.37435888  1
  Mn  Mn120  1  0.49987228  0.33272882  0.74934934  1
  Mn  Mn121  1  0.50010845  0.50100515  0.24977761  1
  Mn  Mn122  1  0.75101937  0.16543864  0.62498738  1
  Mn  Mn123  1  -0.00014206  0.66708995  0.74979505  1
  Mn  Mn124  1  0.75023109  0.49947619  0.87533466  1
  Mn  Mn125  1  0.74973823  0.33246772  0.37491444  1
  Mn  Mn126  1  0.25032210  0.66769028  0.62561240  1
  Mn  Mn127  1  0.50021908  0.33283660  0.49976515  1
  Mn  Mn128  1  0.74999023  0.66676333  0.12535171  1
  Mn  Mn129  1  -0.00026501  0.33272867  0.75012635  1
  Mn  Mn130  1  0.49916489  0.50153113  -0.00065999  1
  Mn  Mn131  1  0.00041310  0.16600371  0.49994238  1
  Mn  Mn132  1  0.49975387  0.66818381  0.25072863  1
  Mn  Mn133  1  -0.00033963  0.50050531  0.24939745  1
  Mn  Mn134  1  0.75065153  0.83300697  0.37504686  1
  Mn  Mn135  1  0.25093360  0.00145810  0.12467908  1
  Mn  Mn136  1  0.00002867  0.50030121  0.49957018  1
  Mn  Mn137  1  0.25007337  0.83394061  0.37503457  1
  Mn  Mn138  1  0.75005379  0.66635748  0.62552291  1
  Mn  Mn139  1  0.75017577  0.66695761  0.87501818  1
  Mn  Mn140  1  0.25069573  0.33372539  0.87494659  1
  Mn  Mn141  1  0.24948151  0.50050378  0.62487459  1
  Mn  Mn142  1  0.25070601  0.16542605  0.62392969  1
  Mn  Mn143  1  0.24994322  0.83402748  0.12503680  1
  Fe  Fe144  1  0.24942935  -0.00047374  0.62486476  1
  Fe  Fe145  1  0.50013763  0.66798998  0.00006053  1
  Fe  Fe146  1  0.50095169  0.16578229  0.50016000  1
  Fe  Fe147  1  0.75050995  0.16592047  0.37468950  1
  Fe  Fe148  1  0.75059838  0.16540901  0.12422506  1
  Fe  Fe149  1  0.50037367  0.16606618  0.25096901  1
  Fe  Fe150  1  0.74985703  0.49991974  0.12556559  1
  Fe  Fe151  1  0.74946819  0.83346863  0.62511926  1
  Fe  Fe152  1  0.75033941  -0.00044406  0.87518850  1
  Fe  Fe153  1  0.49993165  0.66734620  0.75024017  1
  Fe  Fe154  1  0.75033736  -0.00001388  0.12456601  1
  Fe  Fe155  1  0.00030800  -0.00104065  0.24988984  1
  Fe  Fe156  1  0.00026176  0.83285111  0.25026595  1
  Fe  Fe157  1  0.00043283  -0.00001102  0.74968853  1
  Fe  Fe158  1  0.50028626  -0.00006845  0.50011510  1
  Fe  Fe159  1  0.24964841  0.66721328  0.87502595  1
  Fe  Fe160  1  0.00050234  -0.00049597  0.00004137  1
  Fe  Fe161  1  0.49917951  -0.00123288  0.74934004  1
  Fe  Fe162  1  0.74947288  -0.00017481  0.62515051  1
  Fe  Fe163  1  0.24936461  -0.00027124  0.87484432  1
  Fe  Fe164  1  0.50003788  0.83353668  -0.00035793  1
  Fe  Fe165  1  0.74988801  0.49976452  0.62503199  1
  Fe  Fe166  1  0.24970960  0.33375328  0.37408380  1
  Fe  Fe167  1  0.24988720  0.33369124  0.12479255  1
  Fe  Fe168  1  0.24997622  0.16752478  0.12598792  1
  Fe  Fe169  1  0.25046918  0.00040081  0.37505418  1
  Fe  Fe170  1  0.50047822  0.00076090  0.25097931  1
  Fe  Fe171  1  0.49907288  0.83402027  0.50086303  1
  Fe  Fe172  1  0.00034763  0.33257454  -0.00017883  1
  Fe  Fe173  1  0.25020136  0.16710059  0.37491368  1
  Fe  Fe174  1  0.00037721  0.33306570  0.50002364  1
  Fe  Fe175  1  -0.00021363  0.83372002  0.49935210  1
  Fe  Fe176  1  -0.00024287  -0.00064879  0.49957864  1
  Fe  Fe177  1  0.74958683  0.83349819  0.12542701  1
  Fe  Fe178  1  0.24981837  0.66712658  0.37487059  1
  Fe  Fe179  1  -0.00024774  0.50012603  0.00010381  1
  Fe  Fe180  1  0.25009670  0.50046574  0.12479438  1
  Fe  Fe181  1  -0.00062224  0.66705050  0.00024123  1
  Fe  Fe182  1  0.75020641  0.16524061  0.87463417  1
  Fe  Fe183  1  0.24945395  0.50023698  0.87546110  1
  Fe  Fe184  1  0.49962408  0.83310323  0.75003891  1
  Fe  Fe185  1  0.00072988  0.16608571  0.75009015  1
  Fe  Fe186  1  0.75008836  0.66686842  0.37542503  1
  Fe  Fe187  1  0.24950714  0.83388858  0.87459517  1
  Fe  Fe188  1  0.00064172  0.66755566  0.49957621  1
  Fe  Fe189  1  0.49972664  0.50039946  0.50037269  1
  Fe  Fe190  1  0.00018568  0.66693279  0.25000253  1
  Fe  Fe191  1  0.24919681  0.83392527  0.62546774  1
  P  P192  1  0.04276273  0.25043692  0.10220764  1
  P  P193  1  0.04288793  0.24964226  0.35350185  1
  P  P194  1  0.04280840  0.25061990  0.60254703  1
  P  P195  1  0.04237382  0.24847071  0.85283814  1
  P  P196  1  0.04118488  0.58416255  0.10153743  1
  P  P197  1  0.04212880  0.58511171  0.35246755  1
  P  P198  1  0.04272263  0.58509361  0.60179792  1
  P  P199  1  0.04206585  0.58346509  0.85415016  1
  P  P200  1  0.04251707  0.91783687  0.10304398  1
  P  P201  1  0.04131863  0.91614062  0.35211969  1
  P  P202  1  0.04107564  0.91704046  0.60133672  1
  P  P203  1  0.04198121  0.91794868  0.85242691  1
  P  P204  1  0.54239073  0.24905824  0.10412114  1
  P  P205  1  0.54228191  0.24840418  0.35307207  1
  P  P206  1  0.54280042  0.24790128  0.60233903  1
  P  P207  1  0.54320828  0.24948374  0.85307278  1
  P  P208  1  0.54215053  0.58542643  0.10223794  1
  P  P209  1  0.54251914  0.58405860  0.35409468  1
  P  P210  1  0.54170409  0.58295979  0.60297698  1
  P  P211  1  0.54188478  0.58578713  0.85293547  1
  P  P212  1  0.54227810  0.91590831  0.10242094  1
  P  P213  1  0.54249065  0.91877610  0.35337265  1
  P  P214  1  0.54079313  0.91644856  0.60245627  1
  P  P215  1  0.54112858  0.91603838  0.85137465  1
  P  P216  1  0.45856869  0.08288885  0.14909137  1
  P  P217  1  0.45919147  0.08350895  0.39818099  1
  P  P218  1  0.45807729  0.08108092  0.64650009  1
  P  P219  1  0.45695202  0.08229195  0.89626024  1
  P  P220  1  0.45681579  0.41721311  0.14693475  1
  P  P221  1  0.45780665  0.41801767  0.39778421  1
  P  P222  1  0.45707037  0.41691987  0.64620457  1
  P  P223  1  0.45653620  0.41701806  0.89686229  1
  P  P224  1  0.45699944  0.75100365  0.14621336  1
  P  P225  1  0.45718268  0.75264420  0.39820921  1
  P  P226  1  0.45789615  0.75033205  0.64866081  1
  P  P227  1  0.45841365  0.75061555  0.89763504  1
  P  P228  1  0.95859462  0.08117531  0.14736693  1
  P  P229  1  0.95826046  0.08104882  0.39719291  1
  P  P230  1  0.95893609  0.08307272  0.64809290  1
  P  P231  1  0.95830648  0.08126409  0.89692119  1
  P  P232  1  0.95749920  0.41648295  0.14562558  1
  P  P233  1  0.95774990  0.41529942  0.39741000  1
  P  P234  1  0.95732875  0.41647530  0.64647157  1
  P  P235  1  0.95858646  0.41596891  0.89878047  1
  P  P236  1  0.95881125  0.74972984  0.14832068  1
  P  P237  1  0.95860511  0.75036505  0.39756288  1
  P  P238  1  0.95742133  0.75069175  0.64562929  1
  P  P239  1  0.95712377  0.74927360  0.89788235  1
  P  P240  1  0.20863383  0.08526304  0.22856396  1
  P  P241  1  0.20889129  0.08293630  0.47649308  1
  P  P242  1  0.20781612  0.08145792  0.72724374  1
  P  P243  1  0.20783530  0.08262962  0.97756590  1
  P  P244  1  0.20847022  0.41701644  0.22622652  1
  P  P245  1  0.20734767  0.41554757  0.47665958  1
  P  P246  1  0.20697072  0.41717875  0.72857398  1
  P  P247  1  0.20806478  0.41777802  0.97823034  1
  P  P248  1  0.20701213  0.75043743  0.22845589  1
  P  P249  1  0.20781110  0.74959707  0.47755409  1
  P  P250  1  0.20770218  0.75189884  0.72848407  1
  P  P251  1  0.20827405  0.75055668  0.97625417  1
  P  P252  1  0.70910844  0.08333570  0.22637662  1
  P  P253  1  0.70818781  0.08373052  0.47739821  1
  P  P254  1  0.70815778  0.08171016  0.72815435  1
  P  P255  1  0.70870718  0.08255194  0.97702981  1
  P  P256  1  0.70758000  0.41756664  0.22752425  1
  P  P257  1  0.70718684  0.41655898  0.47854647  1
  P  P258  1  0.70758613  0.41737040  0.72752709  1
  P  P259  1  0.70712930  0.41608594  0.97911101  1
  P  P260  1  0.70768540  0.75130597  0.22800881  1
  P  P261  1  0.70806278  0.74907957  0.47818880  1
  P  P262  1  0.70748270  0.75155258  0.72744889  1
  P  P263  1  0.70730177  0.75035620  0.97887476  1
  P  P264  1  0.29155212  0.24987818  0.02380675  1
  P  P265  1  0.29151087  0.25056996  0.27278341  1
  P  P266  1  0.29248050  0.24975815  0.52039119  1
  P  P267  1  0.29332184  0.24961161  0.77155151  1
  P  P268  1  0.29140033  0.58250305  0.02163322  1
  P  P269  1  0.29192995  0.58487602  0.27212139  1
  P  P270  1  0.29258163  0.58421547  0.52150025  1
  P  P271  1  0.29095950  0.58370833  0.77398208  1
  P  P272  1  0.29241243  0.91688850  0.02088088  1
  P  P273  1  0.29268613  0.91871538  0.27282084  1
  P  P274  1  0.29096733  0.91690709  0.52332816  1
  P  P275  1  0.29068312  0.91674369  0.77254134  1
  P  P276  1  0.79244676  0.24729352  0.02204496  1
  P  P277  1  0.79232079  0.24784606  0.27189059  1
  P  P278  1  0.79342720  0.24890460  0.52134926  1
  P  P279  1  0.79278268  0.24812391  0.77286775  1
  P  P280  1  0.79241666  0.58184988  0.02311057  1
  P  P281  1  0.79239009  0.58489049  0.27274605  1
  P  P282  1  0.79224464  0.58219920  0.52250172  1
  P  P283  1  0.79301421  0.58313272  0.77169719  1
  P  P284  1  0.79144470  0.91648906  0.02351634  1
  P  P285  1  0.79292882  0.91647839  0.27089469  1
  P  P286  1  0.79110206  0.91670656  0.52363578  1
  P  P287  1  0.79182364  0.91779254  0.77184962  1
  O  O288  1  0.03779673  0.25011109  0.18216303  1
  O  O289  1  0.03760796  0.25016277  0.43344453  1
  O  O290  1  0.03736681  0.24985921  0.68249392  1
  O  O291  1  0.03701302  0.24876680  0.93278935  1
  O  O292  1  0.03632952  0.58429427  0.18155574  1
  O  O293  1  0.03695918  0.58497972  0.43239819  1
  O  O294  1  0.03755440  0.58463638  0.68177945  1
  O  O295  1  0.03648469  0.58360691  0.93403172  1
  O  O296  1  0.03732990  0.91753083  0.18291905  1
  O  O297  1  0.03607585  0.91576504  0.43199184  1
  O  O298  1  0.03630491  0.91766256  0.68132207  1
  O  O299  1  0.03718136  0.91775021  0.93239995  1
  O  O300  1  0.53710043  0.24873150  0.18410899  1
  O  O301  1  0.53711516  0.24825373  0.43303968  1
  O  O302  1  0.53764781  0.24812352  0.68229327  1
  O  O303  1  0.53796397  0.24947078  0.93308806  1
  O  O304  1  0.53723032  0.58520440  0.18223960  1
  O  O305  1  0.53702978  0.58329986  0.43403563  1
  O  O306  1  0.53661241  0.58348604  0.68294740  1
  O  O307  1  0.53656458  0.58614214  0.93288176  1
  O  O308  1  0.53748690  0.91697314  0.18232107  1
  O  O309  1  0.53712762  0.91869724  0.43321568  1
  O  O310  1  0.53564936  0.91625339  0.68231819  1
  O  O311  1  0.53630886  0.91541499  0.93132225  1
  O  O312  1  0.46302149  0.08284588  0.06905141  1
  O  O313  1  0.46431764  0.08359742  0.31824948  1
  O  O314  1  0.46393288  0.08127927  0.56664087  1
  O  O315  1  0.46191895  0.08179479  0.81631146  1
  O  O316  1  0.46172662  0.41714947  0.06694310  1
  O  O317  1  0.46281179  0.41786090  0.31777219  1
  O  O318  1  0.46271857  0.41745847  0.56625806  1
  O  O319  1  0.46161536  0.41695565  0.81685649  1
  O  O320  1  0.46247235  0.75079513  0.06629431  1
  O  O321  1  0.46217643  0.75266313  0.31826291  1
  O  O322  1  0.46252205  0.75089720  0.56868639  1
  O  O323  1  0.46353875  0.75021957  0.81771679  1
  O  O324  1  0.96363198  0.08141403  0.06742976  1
  O  O325  1  0.96358835  0.08068580  0.31729112  1
  O  O326  1  0.96379087  0.08285920  0.56811192  1
  O  O327  1  0.96398477  0.08167886  0.81707554  1
  O  O328  1  0.96293666  0.41632106  0.06573028  1
  O  O329  1  0.96302298  0.41591982  0.31740318  1
  O  O330  1  0.96266318  0.41607625  0.56652901  1
  O  O331  1  0.96335598  0.41635477  0.81875435  1
  O  O332  1  0.96344712  0.74976480  0.06832623  1
  O  O333  1  0.96390990  0.75020890  0.31765081  1
  O  O334  1  0.96278722  0.75078944  0.56572492  1
  O  O335  1  0.96203708  0.74972129  0.81790549  1
  O  O336  1  0.21299722  0.08362384  0.05748860  1
  O  O337  1  0.21415995  0.08481015  0.30843993  1
  O  O338  1  0.21372693  0.08216562  0.55648484  1
  O  O339  1  0.21293188  0.08122138  0.80718399  1
  O  O340  1  0.21344631  0.41766457  0.05811208  1
  O  O341  1  0.21326640  0.41629076  0.30622310  1
  O  O342  1  0.21229567  0.41589781  0.55662642  1
  O  O343  1  0.21243515  0.41770345  0.80853016  1
  O  O344  1  0.21273269  0.75018125  0.05626852  1
  O  O345  1  0.21253076  0.74988799  0.30837237  1
  O  O346  1  0.21273510  0.75013196  0.55753404  1
  O  O347  1  0.21300559  0.75193017  0.80837754  1
  O  O348  1  0.71407347  0.08259564  0.05692535  1
  O  O349  1  0.71383918  0.08349130  0.30633936  1
  O  O350  1  0.71324913  0.08287775  0.55732198  1
  O  O351  1  0.71334453  0.08187877  0.80803971  1
  O  O352  1  0.71233226  0.41646611  0.05908261  1
  O  O353  1  0.71275079  0.41724031  0.30750672  1
  O  O354  1  0.71253753  0.41682543  0.55849851  1
  O  O355  1  0.71277730  0.41679694  0.80752829  1
  O  O356  1  0.71248131  0.75064184  0.05881626  1
  O  O357  1  0.71309036  0.75056283  0.30795036  1
  O  O358  1  0.71328642  0.74964587  0.55812465  1
  O  O359  1  0.71245831  0.75153683  0.80743497  1
  O  O360  1  0.28618728  0.25034731  0.19284883  1
  O  O361  1  0.28690736  0.24977019  0.44047211  1
  O  O362  1  0.28818746  0.24953897  0.69159047  1
  O  O363  1  0.28723898  0.24999013  0.94378301  1
  O  O364  1  0.28674210  0.58428693  0.19217536  1
  O  O365  1  0.28734911  0.58482423  0.44153237  1
  O  O366  1  0.28642976  0.58420310  0.69395331  1
  O  O367  1  0.28598842  0.58263015  0.94176900  1
  O  O368  1  0.28790943  0.91862764  0.19286229  1
  O  O369  1  0.28618940  0.91725360  0.44335474  1
  O  O370  1  0.28535604  0.91661523  0.69261214  1
  O  O371  1  0.28657196  0.91678263  0.94101175  1
  O  O372  1  0.78688254  0.24783003  0.19193071  1
  O  O373  1  0.78806547  0.24854777  0.44138736  1
  O  O374  1  0.78796843  0.24879245  0.69285004  1
  O  O375  1  0.78686212  0.24719736  0.94214180  1
  O  O376  1  0.78725261  0.58435454  0.19281829  1
  O  O377  1  0.78680250  0.58335482  0.44259174  1
  O  O378  1  0.78771955  0.58259936  0.69173983  1
  O  O379  1  0.78752575  0.58223872  0.94313326  1
  O  O380  1  0.78764563  0.91628092  0.19103991  1
  O  O381  1  0.78670997  0.91663738  0.44362391  1
  O  O382  1  0.78631439  0.91734531  0.69198838  1
  O  O383  1  0.78661360  0.91724618  0.94351945  1
  O  O384  1  0.22726100  0.24925734  0.05928085  1
  O  O385  1  0.22752492  0.25038646  0.30929188  1
  O  O386  1  0.22835631  0.24929482  0.55634927  1
  O  O387  1  0.22895106  0.24979641  0.80671995  1
  O  O388  1  0.22725973  0.58174347  0.05782955  1
  O  O389  1  0.22763565  0.58490931  0.30774475  1
  O  O390  1  0.22824878  0.58437988  0.55686581  1
  O  O391  1  0.22673300  0.58332807  0.80952336  1
  O  O392  1  0.22834778  0.91757750  0.05701983  1
  O  O393  1  0.22822997  0.91867285  0.30793373  1
  O  O394  1  0.22673039  0.91649961  0.55923781  1
  O  O395  1  0.22670677  0.91673238  0.80907630  1
  O  O396  1  0.72831697  0.24737486  0.05810661  1
  O  O397  1  0.72813268  0.24752548  0.30791265  1
  O  O398  1  0.72915737  0.24902861  0.55677399  1
  O  O399  1  0.72835681  0.24763700  0.80811265  1
  O  O400  1  0.72805703  0.58198248  0.05848655  1
  O  O401  1  0.72807639  0.58536518  0.30835924  1
  O  O402  1  0.72805328  0.58157862  0.55850549  1
  O  O403  1  0.72859788  0.58337466  0.80690643  1
  O  O404  1  0.72728566  0.91587537  0.05937520  1
  O  O405  1  0.72876174  0.91650998  0.30669894  1
  O  O406  1  0.72679519  0.91732891  0.55913406  1
  O  O407  1  0.72770357  0.91853536  0.80809904  1
  O  O408  1  0.27273925  0.08590221  0.19232912  1
  O  O409  1  0.27306650  0.08337953  0.44060615  1
  O  O410  1  0.27211643  0.08096266  0.69160732  1
  O  O411  1  0.27210025  0.08174503  0.94186179  1
  O  O412  1  0.27262422  0.41779679  0.19040052  1
  O  O413  1  0.27167837  0.41560837  0.44119153  1
  O  O414  1  0.27128284  0.41705476  0.69310778  1
  O  O415  1  0.27215362  0.41835961  0.94198716  1
  O  O416  1  0.27124348  0.75024177  0.19287434  1
  O  O417  1  0.27209178  0.74945726  0.44197254  1
  O  O418  1  0.27187888  0.75255370  0.69240508  1
  O  O419  1  0.27248152  0.75125385  0.94066129  1
  O  O420  1  0.77329649  0.08338878  0.19054939  1
  O  O421  1  0.77254646  0.08447883  0.44179272  1
  O  O422  1  0.77239718  0.08075879  0.69225523  1
  O  O423  1  0.77271362  0.08229404  0.94043616  1
  O  O424  1  0.77188446  0.41749298  0.19198279  1
  O  O425  1  0.77144800  0.41624829  0.44309065  1
  O  O426  1  0.77194274  0.41803774  0.69195909  1
  O  O427  1  0.77150051  0.41558689  0.94384889  1
  O  O428  1  0.77189500  0.75177594  0.19211195  1
  O  O429  1  0.77229524  0.74838624  0.44230963  1
  O  O430  1  0.77180405  0.75129694  0.69210160  1
  O  O431  1  0.77165752  0.75038211  0.94357322  1
  O  O432  1  0.02287028  0.08082515  0.18309377  1
  O  O433  1  0.02248119  0.08136086  0.43292187  1
  O  O434  1  0.02308836  0.08331600  0.68411934  1
  O  O435  1  0.02238739  0.08103828  0.93328810  1
  O  O436  1  0.02173774  0.41687504  0.18134504  1
  O  O437  1  0.02202633  0.41522433  0.43306352  1
  O  O438  1  0.02164709  0.41636889  0.68185012  1
  O  O439  1  0.02273913  0.41587952  0.93460200  1
  O  O440  1  0.02297124  0.74920750  0.18415595  1
  O  O441  1  0.02261757  0.75085642  0.43409047  1
  O  O442  1  0.02159409  0.75087785  0.68145373  1
  O  O443  1  0.02155256  0.74894236  0.93316516  1
  O  O444  1  0.52295939  0.08269087  0.18449232  1
  O  O445  1  0.52325077  0.08303602  0.43445453  1
  O  O446  1  0.52207288  0.08043046  0.68300226  1
  O  O447  1  0.52139085  0.08243612  0.93133322  1
  O  O448  1  0.52130587  0.41682370  0.18181363  1
  O  O449  1  0.52211917  0.41773568  0.43311403  1
  O  O450  1  0.52130477  0.41703143  0.68184427  1
  O  O451  1  0.52100214  0.41728424  0.93181860  1
  O  O452  1  0.52123267  0.75129420  0.18198761  1
  O  O453  1  0.52151182  0.75253439  0.43365942  1
  O  O454  1  0.52221355  0.74974758  0.68422630  1
  O  O455  1  0.52244772  0.75076119  0.93411866  1
  O  O456  1  0.47804550  0.24929381  0.06876737  1
  O  O457  1  0.47798543  0.24832373  0.31746299  1
  O  O458  1  0.47855472  0.24784779  0.56671263  1
  O  O459  1  0.47876980  0.24913038  0.81800927  1
  O  O460  1  0.47777922  0.58609663  0.06686261  1
  O  O461  1  0.47820367  0.58427565  0.31864999  1
  O  O462  1  0.47746824  0.58323565  0.56733883  1
  O  O463  1  0.47761690  0.58586387  0.81718846  1
  O  O464  1  0.47791803  0.91497480  0.06690032  1
  O  O465  1  0.47822901  0.91950816  0.31743628  1
  O  O466  1  0.47674809  0.91689636  0.56611015  1
  O  O467  1  0.47690432  0.91648263  0.81552186  1
  O  O468  1  0.97839894  0.25045819  0.06683093  1
  O  O469  1  0.97863932  0.24892125  0.31802841  1
  O  O470  1  0.97861372  0.25114227  0.56654112  1
  O  O471  1  0.97819838  0.24773569  0.81689822  1
  O  O472  1  0.97699205  0.58430441  0.06568954  1
  O  O473  1  0.97786267  0.58503421  0.31670230  1
  O  O474  1  0.97842057  0.58516518  0.56628185  1
  O  O475  1  0.97793928  0.58342614  0.81813059  1
  O  O476  1  0.97828681  0.91796818  0.06701391  1
  O  O477  1  0.97739726  0.91652421  0.31560095  1
  O  O478  1  0.97685039  0.91633418  0.56556480  1
  O  O479  1  0.97764632  0.91860301  0.81694310  1
  O  O480  1  0.07327527  0.31407088  0.07366561  1
  O  O481  1  0.07384112  0.31295403  0.32480521  1
  O  O482  1  0.07363821  0.31422438  0.57432591  1
  O  O483  1  0.07331846  0.31217219  0.82503030  1
  O  O484  1  0.07240283  0.64753937  0.07321737  1
  O  O485  1  0.07299881  0.64844258  0.32376609  1
  O  O486  1  0.07338761  0.64875818  0.57352264  1
  O  O487  1  0.07331551  0.64680689  0.82567928  1
  O  O488  1  0.07358077  0.98107250  0.07420269  1
  O  O489  1  0.07275152  0.97955061  0.32405790  1
  O  O490  1  0.07153511  0.98077650  0.57258288  1
  O  O491  1  0.07337889  0.98088160  0.82352299  1
  O  O492  1  0.57347428  0.31265776  0.07614022  1
  O  O493  1  0.57315740  0.31230699  0.32547417  1
  O  O494  1  0.57386317  0.31155500  0.57458189  1
  O  O495  1  0.57392115  0.31315088  0.82491686  1
  O  O496  1  0.57324653  0.64878075  0.07390825  1
  O  O497  1  0.57328095  0.64804152  0.32656081  1
  O  O498  1  0.57330887  0.64629275  0.57507061  1
  O  O499  1  0.57295554  0.64892825  0.82395167  1
  O  O500  1  0.57290069  0.97952278  0.07368649  1
  O  O501  1  0.57383348  0.98185385  0.32432668  1
  O  O502  1  0.57230000  0.97962863  0.57400808  1
  O  O503  1  0.57192559  0.97977539  0.82329497  1
  O  O504  1  0.42776031  0.01925890  0.17730582  1
  O  O505  1  0.42789530  0.02012392  0.42654876  1
  O  O506  1  0.42672531  0.01784675  0.67509227  1
  O  O507  1  0.42588400  0.01905596  0.92498786  1
  O  O508  1  0.42567650  0.35386577  0.17529804  1
  O  O509  1  0.42657070  0.35433795  0.42528524  1
  O  O510  1  0.42632456  0.35291343  0.67368257  1
  O  O511  1  0.42571178  0.35346080  0.92513529  1
  O  O512  1  0.42593961  0.68765131  0.17498558  1
  O  O513  1  0.42608528  0.68903888  0.42594664  1
  O  O514  1  0.42697591  0.68668033  0.67682260  1
  O  O515  1  0.42749041  0.68716194  0.92642444  1
  O  O516  1  0.92741926  0.01801807  0.17597288  1
  O  O517  1  0.92742057  0.01769344  0.42617960  1
  O  O518  1  0.92809874  0.01946690  0.67643352  1
  O  O519  1  0.92724887  0.01797693  0.92570362  1
  O  O520  1  0.92638148  0.35303894  0.17405139  1
  O  O521  1  0.92713037  0.35159929  0.42547991  1
  O  O522  1  0.92591160  0.35337303  0.67514243  1
  O  O523  1  0.92779872  0.35201612  0.92631165  1
  O  O524  1  0.92728402  0.68658893  0.17669171  1
  O  O525  1  0.92804070  0.68660113  0.42610167  1
  O  O526  1  0.92625751  0.68732662  0.67406277  1
  O  O527  1  0.92624006  0.68590356  0.92644934  1
  O  O528  1  0.17772177  0.02167301  0.20030608  1
  O  O529  1  0.17819743  0.01931525  0.44786073  1
  O  O530  1  0.17644967  0.01851847  0.69828459  1
  O  O531  1  0.17686674  0.01908842  0.94944011  1
  O  O532  1  0.17815542  0.35325581  0.19735133  1
  O  O533  1  0.17674807  0.35205343  0.44812939  1
  O  O534  1  0.17608655  0.35343446  0.70080163  1
  O  O535  1  0.17736764  0.35388738  0.95025854  1
  O  O536  1  0.17540544  0.68753265  0.19982274  1
  O  O537  1  0.17731126  0.68595141  0.44895830  1
  O  O538  1  0.17695679  0.68801073  0.70069675  1
  O  O539  1  0.17823917  0.68645740  0.94785933  1
  O  O540  1  0.67888687  0.01927018  0.19794726  1
  O  O541  1  0.67736952  0.02018984  0.44902708  1
  O  O542  1  0.67669550  0.01871587  0.69924041  1
  O  O543  1  0.67764050  0.01894181  0.94887152  1
  O  O544  1  0.67634025  0.35398720  0.19999779  1
  O  O545  1  0.67611227  0.35299422  0.45048321  1
  O  O546  1  0.67696977  0.35347610  0.69971425  1
  O  O547  1  0.67600825  0.35248897  0.95121291  1
  O  O548  1  0.67648972  0.68789587  0.19990092  1
  O  O549  1  0.67716767  0.68556754  0.44989468  1
  O  O550  1  0.67617025  0.68807192  0.69986517  1
  O  O551  1  0.67652899  0.68670774  0.95073234  1
  O  O552  1  0.32155913  0.31396995  0.05224581  1
  O  O553  1  0.32224464  0.31442745  0.30081637  1
  O  O554  1  0.32346113  0.31322702  0.54869648  1
  O  O555  1  0.32446546  0.31295055  0.79975208  1
  O  O556  1  0.32204653  0.64646406  0.04943926  1
  O  O557  1  0.32242905  0.64860570  0.30056392  1
  O  O558  1  0.32410714  0.64710820  0.55038946  1
  O  O559  1  0.32114482  0.64778257  0.80238889  1
  O  O560  1  0.32423770  0.97997254  0.04905137  1
  O  O561  1  0.32326861  0.98220551  0.30155717  1
  O  O562  1  0.32170571  0.98049490  0.55169562  1
  O  O563  1  0.32159158  0.98034217  0.80082645  1
  O  O564  1  0.82347671  0.31097224  0.04979723  1
  O  O565  1  0.82299022  0.31189848  0.29938658  1
  O  O566  1  0.82437738  0.31249841  0.54938171  1
  O  O567  1  0.82353099  0.31176759  0.80108437  1
  O  O568  1  0.82364605  0.64538923  0.05082480  1
  O  O569  1  0.82297240  0.64854596  0.30125125  1
  O  O570  1  0.82333236  0.64561145  0.55077077  1
  O  O571  1  0.82378823  0.64697556  0.79957553  1
  O  O572  1  0.82184907  0.98026456  0.05212951  1
  O  O573  1  0.82404113  0.97991008  0.29925764  1
  O  O574  1  0.82223960  0.98015837  0.55168813  1
  O  O575  1  0.82319280  0.98085130  0.80062106  1
  O  O576  1  0.42809372  0.14666003  0.17755423  1
  O  O577  1  0.42850357  0.14721081  0.42666263  1
  O  O578  1  0.42709513  0.14482238  0.67427881  1
  O  O579  1  0.42601537  0.14585691  0.92452239  1
  O  O580  1  0.42615401  0.48094551  0.17489237  1
  O  O581  1  0.42728312  0.48170105  0.42619924  1
  O  O582  1  0.42542647  0.47989491  0.67474627  1
  O  O583  1  0.42547023  0.48058134  0.92470712  1
  O  O584  1  0.42557620  0.81429492  0.17447988  1
  O  O585  1  0.42657238  0.81620819  0.42679950  1
  O  O586  1  0.42742736  0.81399674  0.67744049  1
  O  O587  1  0.42757663  0.81438819  0.92564815  1
  O  O588  1  0.92801333  0.14514235  0.17526804  1
  O  O589  1  0.92701480  0.14463676  0.42485712  1
  O  O590  1  0.92828591  0.14688935  0.67627021  1
  O  O591  1  0.92715620  0.14481403  0.92504263  1
  O  O592  1  0.92617316  0.47975947  0.17417624  1
  O  O593  1  0.92662141  0.47899973  0.42496110  1
  O  O594  1  0.92656750  0.48023325  0.67446787  1
  O  O595  1  0.92795136  0.47966987  0.92723468  1
  O  O596  1  0.92883167  0.81388417  0.17678866  1
  O  O597  1  0.92726763  0.81379366  0.42580764  1
  O  O598  1  0.92615670  0.81400967  0.67423058  1
  O  O599  1  0.92637978  0.81305562  0.92587010  1
  O  O600  1  0.07385311  0.18681690  0.07451649  1
  O  O601  1  0.07411614  0.18599298  0.32588744  1
  O  O602  1  0.07383654  0.18700399  0.57452136  1
  O  O603  1  0.07340364  0.18506511  0.82431215  1
  O  O604  1  0.07145309  0.52010982  0.07327586  1
  O  O605  1  0.07310284  0.52134997  0.32457165  1
  O  O606  1  0.07389646  0.52154135  0.57392162  1
  O  O607  1  0.07324018  0.52001761  0.82586108  1
  O  O608  1  0.07342645  0.85412692  0.07479351  1
  O  O609  1  0.07186575  0.85240359  0.32332918  1
  O  O610  1  0.07228564  0.85358727  0.57325236  1
  O  O611  1  0.07221058  0.85384832  0.82433361  1
  O  O612  1  0.57352368  0.18572373  0.07566053  1
  O  O613  1  0.57327910  0.18515624  0.32429093  1
  O  O614  1  0.57356464  0.18425053  0.57424368  1
  O  O615  1  0.57444799  0.18607708  0.82508882  1
  O  O616  1  0.57272114  0.52153222  0.07433919  1
  O  O617  1  0.57393164  0.52108324  0.32522685  1
  O  O618  1  0.57197469  0.51912712  0.57442018  1
  O  O619  1  0.57281526  0.52184090  0.82557328  1
  O  O620  1  0.57320071  0.85249126  0.07401965  1
  O  O621  1  0.57315625  0.85497732  0.32524830  1
  O  O622  1  0.57125501  0.85257411  0.57387951  1
  O  O623  1  0.57186458  0.85251105  0.82264637  1
  O  O624  1  0.32280276  0.18651224  0.05210157  1
  O  O625  1  0.32272170  0.18720147  0.30138829  1
  O  O626  1  0.32399704  0.18642372  0.54864052  1
  O  O627  1  0.32417577  0.18595212  0.79963829  1
  O  O628  1  0.32282950  0.51951480  0.05065398  1
  O  O629  1  0.32327820  0.52144353  0.30019849  1
  O  O630  1  0.32315823  0.52026061  0.54935370  1
  O  O631  1  0.32214495  0.52023336  0.80184017  1
  O  O632  1  0.32317761  0.85325868  0.04932025  1
  O  O633  1  0.32368764  0.85507412  0.30072883  1
  O  O634  1  0.32173009  0.85319203  0.55165235  1
  O  O635  1  0.32179974  0.85323246  0.80098350  1
  O  O636  1  0.82359338  0.18394121  0.05045565  1
  O  O637  1  0.82355236  0.18463150  0.30044880  1
  O  O638  1  0.82482177  0.18572049  0.54984686  1
  O  O639  1  0.82351822  0.18444408  0.80095111  1
  O  O640  1  0.82271528  0.51809861  0.05167592  1
  O  O641  1  0.82356387  0.52135652  0.30077260  1
  O  O642  1  0.82308367  0.51844025  0.55033912  1
  O  O643  1  0.82434908  0.52000215  0.80036523  1
  O  O644  1  0.82260761  0.85287367  0.05136098  1
  O  O645  1  0.82420863  0.85329590  0.29975225  1
  O  O646  1  0.82117177  0.85256504  0.55187455  1
  O  O647  1  0.82270122  0.85408471  0.80020254  1
  O  O648  1  0.17735937  0.14858677  0.20006679  1
  O  O649  1  0.17787837  0.14666452  0.44870272  1
  O  O650  1  0.17739448  0.14553795  0.69940559  1
  O  O651  1  0.17700139  0.14616572  0.94895713  1
  O  O652  1  0.17725283  0.48070713  0.19855239  1
  O  O653  1  0.17627133  0.47922107  0.44875344  1
  O  O654  1  0.17572577  0.48042455  0.69991654  1
  O  O655  1  0.17670736  0.48092622  0.94949527  1
  O  O656  1  0.17639644  0.81440844  0.20066303  1
  O  O657  1  0.17657621  0.81307865  0.44943519  1
  O  O658  1  0.17636285  0.81493747  0.69934134  1
  O  O659  1  0.17684380  0.81391488  0.94832578  1
  O  O660  1  0.67781128  0.14651244  0.19781682  1
  O  O661  1  0.67736971  0.14729887  0.44903518  1
  O  O662  1  0.67755723  0.14552598  0.69983953  1
  O  O663  1  0.67785856  0.14615740  0.94852478  1
  O  O664  1  0.67713049  0.48144294  0.19935686  1
  O  O665  1  0.67591703  0.47982002  0.45019246  1
  O  O666  1  0.67656807  0.48086534  0.69935933  1
  O  O667  1  0.67603268  0.47939534  0.95050870  1
  O  O668  1  0.67680283  0.81493485  0.19980903  1
  O  O669  1  0.67716753  0.81275740  0.45012411  1
  O  O670  1  0.67707037  0.81525210  0.69872774  1
  O  O671  1  0.67602319  0.81361409  0.95042021  1
