# generated using pymatgen
data_Na2MnFe(PO4)2
_symmetry_space_group_name_H-M   'P 1'
_cell_length_a   22.34545002
_cell_length_b   20.09783442
_cell_length_c   19.44848980
_cell_angle_alpha   90.01294332
_cell_angle_beta   89.98053071
_cell_angle_gamma   89.99656026
_symmetry_Int_Tables_number   1
_chemical_formula_structural   Na2MnFe(PO4)2
_chemical_formula_sum   'Na96 Mn48 Fe48 P96 O384'
_cell_volume   8734.22179123
_cell_formula_units_Z   48
loop_
 _symmetry_equiv_pos_site_id
 _symmetry_equiv_pos_as_xyz
  1  'x, y, z'
loop_
 _atom_site_type_symbol
 _atom_site_label
 _atom_site_symmetry_multiplicity
 _atom_site_fract_x
 _atom_site_fract_y
 _atom_site_fract_z
 _atom_site_occupancy
  Na  Na0  1  0.14020426  0.25002255  0.24508347  1
  Na  Na1  1  0.14010313  0.25104256  0.49554166  1
  Na  Na2  1  0.14089820  0.25101884  0.74305819  1
  Na  Na3  1  0.14052517  0.24991039  0.99426543  1
  Na  Na4  1  0.13953947  0.58435532  0.24301820  1
  Na  Na5  1  0.14012215  0.58498108  0.49424771  1
  Na  Na6  1  0.14015780  0.58440183  0.74277546  1
  Na  Na7  1  0.13965560  0.58272634  0.99264117  1
  Na  Na8  1  0.13995942  0.91597862  0.24448183  1
  Na  Na9  1  0.13998378  0.91652211  0.49411617  1
  Na  Na10  1  0.14083407  0.91652944  0.74273963  1
  Na  Na11  1  0.14071705  0.91506939  0.99521254  1
  Na  Na12  1  0.64009789  0.24984920  0.24263835  1
  Na  Na13  1  0.63965670  0.25037741  0.49233069  1
  Na  Na14  1  0.64115162  0.24873187  0.74335089  1
  Na  Na15  1  0.64095537  0.24872355  0.99475730  1
  Na  Na16  1  0.63988434  0.58281960  0.24248437  1
  Na  Na17  1  0.64067003  0.58222154  0.49323353  1
  Na  Na18  1  0.64054923  0.58240805  0.74251716  1
  Na  Na19  1  0.63993231  0.58308241  0.99343395  1
  Na  Na20  1  0.64068288  0.91781326  0.24389084  1
  Na  Na21  1  0.64053196  0.91613375  0.49420611  1
  Na  Na22  1  0.64079889  0.91605006  0.74344925  1
  Na  Na23  1  0.64120581  0.91800399  0.99302742  1
  Na  Na24  1  0.36002300  0.08332694  0.00628574  1
  Na  Na25  1  0.35977881  0.08304110  0.25657695  1
  Na  Na26  1  0.35932764  0.08396225  0.50799417  1
  Na  Na27  1  0.35982070  0.08384754  0.75565103  1
  Na  Na28  1  0.35999095  0.41654297  0.00572863  1
  Na  Na29  1  0.36045537  0.41680374  0.25669882  1
  Na  Na30  1  0.35972050  0.41682840  0.50727498  1
  Na  Na31  1  0.35982831  0.41800085  0.75552538  1
  Na  Na32  1  0.36014018  0.74848543  0.00549317  1
  Na  Na33  1  0.36031633  0.75008566  0.25576483  1
  Na  Na34  1  0.35921090  0.75074068  0.50667975  1
  Na  Na35  1  0.35964684  0.75022910  0.75505307  1
  Na  Na36  1  0.85930489  0.08365291  0.00646432  1
  Na  Na37  1  0.85926616  0.08385118  0.25643753  1
  Na  Na38  1  0.85853533  0.08385894  0.50636783  1
  Na  Na39  1  0.85902627  0.08193057  0.75641891  1
  Na  Na40  1  0.85973466  0.41648296  0.00767634  1
  Na  Na41  1  0.85938890  0.41712751  0.25668160  1
  Na  Na42  1  0.85871091  0.41673282  0.50665642  1
  Na  Na43  1  0.85933076  0.41632919  0.75573136  1
  Na  Na44  1  0.85953242  0.75027683  0.00665551  1
  Na  Na45  1  0.86002036  0.74986759  0.25718769  1
  Na  Na46  1  0.85948461  0.74924624  0.50754258  1
  Na  Na47  1  0.85951386  0.74965987  0.75574513  1
  Na  Na48  1  0.10931580  0.08237010  0.12007952  1
  Na  Na49  1  0.10899230  0.08268699  0.37019062  1
  Na  Na50  1  0.10964601  0.08347398  0.61807320  1
  Na  Na51  1  0.10992352  0.08310778  0.86874181  1
  Na  Na52  1  0.10921315  0.41811515  0.11899763  1
  Na  Na53  1  0.10930498  0.41792604  0.37011754  1
  Na  Na54  1  0.10982686  0.41872722  0.61873163  1
  Na  Na55  1  0.10961224  0.41793232  0.86804624  1
  Na  Na56  1  0.10962383  0.74938627  0.11938794  1
  Na  Na57  1  0.10918123  0.75059350  0.36878880  1
  Na  Na58  1  0.10979115  0.74985867  0.61782699  1
  Na  Na59  1  0.10984072  0.74822648  0.86846816  1
  Na  Na60  1  0.61038146  0.08381206  0.11837460  1
  Na  Na61  1  0.60961389  0.08495365  0.36810677  1
  Na  Na62  1  0.60974244  0.08256167  0.61801086  1
  Na  Na63  1  0.61050954  0.08373017  0.86872623  1
  Na  Na64  1  0.61000451  0.41612405  0.11863476  1
  Na  Na65  1  0.60931224  0.41540162  0.36696297  1
  Na  Na66  1  0.61002662  0.41563096  0.61711180  1
  Na  Na67  1  0.61013364  0.41680207  0.86954835  1
  Na  Na68  1  0.60966615  0.74873882  0.11852913  1
  Na  Na69  1  0.60990723  0.74911826  0.36894057  1
  Na  Na70  1  0.61040088  0.74968577  0.61788044  1
  Na  Na71  1  0.60987604  0.74974865  0.86784147  1
  Na  Na72  1  0.39106148  0.25046404  0.13107800  1
  Na  Na73  1  0.39056238  0.25011947  0.38137506  1
  Na  Na74  1  0.39015308  0.25054729  0.63197849  1
  Na  Na75  1  0.39047551  0.25134110  0.88048235  1
  Na  Na76  1  0.39107591  0.58219287  0.13032549  1
  Na  Na77  1  0.39080265  0.58322560  0.38098996  1
  Na  Na78  1  0.39017947  0.58356131  0.63158859  1
  Na  Na79  1  0.39059772  0.58321441  0.88026693  1
  Na  Na80  1  0.39090475  0.91581665  0.13147427  1
  Na  Na81  1  0.39042833  0.91687120  0.38180708  1
  Na  Na82  1  0.39008889  0.91667799  0.63114394  1
  Na  Na83  1  0.39078829  0.91706396  0.88066498  1
  Na  Na84  1  0.89009595  0.25048269  0.13275143  1
  Na  Na85  1  0.88934507  0.25042882  0.38178659  1
  Na  Na86  1  0.88972201  0.25185903  0.63111770  1
  Na  Na87  1  0.89023685  0.25056351  0.88194165  1
  Na  Na88  1  0.89040338  0.58423936  0.13154307  1
  Na  Na89  1  0.88994292  0.58390418  0.38152982  1
  Na  Na90  1  0.88964988  0.58385845  0.63156390  1
  Na  Na91  1  0.89022438  0.58335556  0.88031733  1
  Na  Na92  1  0.89024985  0.91619417  0.13183752  1
  Na  Na93  1  0.89048086  0.91554260  0.38130298  1
  Na  Na94  1  0.88957121  0.91503400  0.63225696  1
  Na  Na95  1  0.88973935  0.91561255  0.88173207  1
  Mn  Mn96  1  0.24975824  0.16670898  0.37626218  1
  Mn  Mn97  1  0.50078855  0.83246465  0.24998220  1
  Mn  Mn98  1  0.75040092  0.83272558  0.37519056  1
  Mn  Mn99  1  0.00045151  0.83141768  0.75083941  1
  Mn  Mn100  1  0.24969996  0.50091791  0.37571579  1
  Mn  Mn101  1  0.50124030  0.33412628  0.75029611  1
  Mn  Mn102  1  0.50047711  0.33366686  0.00018186  1
  Mn  Mn103  1  0.25042252  0.66808101  0.37465458  1
  Mn  Mn104  1  0.25058832  0.16621422  0.12511089  1
  Mn  Mn105  1  0.50050569  0.66665727  0.50002439  1
  Mn  Mn106  1  0.25064926  0.66697698  0.12469338  1
  Mn  Mn107  1  -0.00025524  0.16751402  0.74987626  1
  Mn  Mn108  1  0.50069491  0.00110145  0.00070324  1
  Mn  Mn109  1  0.49999148  0.00003015  0.49942439  1
  Mn  Mn110  1  0.00053902  0.83171803  0.00071630  1
  Mn  Mn111  1  0.74952032  0.33198257  0.87572784  1
  Mn  Mn112  1  0.00006103  0.33454246  0.25038559  1
  Mn  Mn113  1  0.50042204  0.00097702  0.25089477  1
  Mn  Mn114  1  0.74975201  0.16628861  0.62490387  1
  Mn  Mn115  1  0.25067699  0.83225675  0.87375156  1
  Mn  Mn116  1  0.74929813  0.66680751  0.12460101  1
  Mn  Mn117  1  0.00027561  0.16641721  0.25113550  1
  Mn  Mn118  1  0.24975755  0.49974687  0.12412294  1
  Mn  Mn119  1  0.25037016  -0.00036819  0.87484495  1
  Mn  Mn120  1  0.00045947  0.33509737  0.00088531  1
  Mn  Mn121  1  0.24993446  0.16733257  0.87497577  1
  Mn  Mn122  1  0.00025348  -0.00075604  0.00044694  1
  Mn  Mn123  1  0.74960980  0.83445273  0.12537713  1
  Mn  Mn124  1  0.49992881  0.83363762  0.74994525  1
  Mn  Mn125  1  -0.00056409  0.50107392  0.49982691  1
  Mn  Mn126  1  0.74962728  0.49969059  0.37502940  1
  Mn  Mn127  1  0.25012169  0.33323767  0.12520495  1
  Mn  Mn128  1  0.25014772  -0.00160528  0.12600225  1
  Mn  Mn129  1  -0.00119607  0.16753422  0.49978200  1
  Mn  Mn130  1  0.50103451  0.83250769  0.00031209  1
  Mn  Mn131  1  -0.00012484  0.16670296  0.00084920  1
  Mn  Mn132  1  0.75024510  0.00093193  0.37487937  1
  Mn  Mn133  1  0.25010650  0.50008945  0.87395641  1
  Mn  Mn134  1  0.24955185  -0.00076905  0.37606070  1
  Mn  Mn135  1  0.24983410  0.33378523  0.37611800  1
  Mn  Mn136  1  0.00007794  -0.00076819  0.74981558  1
  Mn  Mn137  1  0.00029060  0.33539363  0.75132433  1
  Mn  Mn138  1  0.50035673  0.49910139  0.49930692  1
  Mn  Mn139  1  0.75036878  0.66708827  0.87435014  1
  Mn  Mn140  1  0.74985109  0.49918295  0.87453299  1
  Mn  Mn141  1  0.50084967  0.16643585  0.74968055  1
  Mn  Mn142  1  0.50027928  0.66582673  0.74945141  1
  Mn  Mn143  1  -0.00139362  -0.00129044  0.49979093  1
  Fe  Fe144  1  0.24978074  0.16733213  0.62580581  1
  Fe  Fe145  1  -0.00043179  0.66634754  0.74944734  1
  Fe  Fe146  1  0.50026747  0.00026164  0.74969035  1
  Fe  Fe147  1  0.24970793  0.66746668  0.62423648  1
  Fe  Fe148  1  0.74967210  0.83354472  0.87466432  1
  Fe  Fe149  1  0.75001335  0.83314687  0.62530626  1
  Fe  Fe150  1  0.74981147  0.33241678  0.62455564  1
  Fe  Fe151  1  0.74960101  0.66634184  0.62509306  1
  Fe  Fe152  1  0.75012015  -0.00033400  0.87482573  1
  Fe  Fe153  1  0.75022555  0.16677999  0.12490799  1
  Fe  Fe154  1  0.49989082  0.33281561  0.24937135  1
  Fe  Fe155  1  -0.00054307  0.50124024  0.74959717  1
  Fe  Fe156  1  -0.00036037  0.50124039  0.24997253  1
  Fe  Fe157  1  0.50064221  0.66548932  -0.00054936  1
  Fe  Fe158  1  0.24982752  0.00032772  0.62481336  1
  Fe  Fe159  1  0.24975537  0.83377843  0.62514327  1
  Fe  Fe160  1  0.75046076  0.49986318  0.12539473  1
  Fe  Fe161  1  0.25048742  0.83253010  0.12458116  1
  Fe  Fe162  1  0.24972062  0.33425256  0.62540353  1
  Fe  Fe163  1  0.50002464  0.49974070  0.24954088  1
  Fe  Fe164  1  0.49980620  0.16686310  0.49938516  1
  Fe  Fe165  1  0.49950306  0.33281120  0.49885553  1
  Fe  Fe166  1  0.75079528  0.00090453  0.12423429  1
  Fe  Fe167  1  -0.00065133  0.33465981  0.50045847  1
  Fe  Fe168  1  -0.00038901  0.66672505  0.25020674  1
  Fe  Fe169  1  0.75102182  0.16606745  0.87524839  1
  Fe  Fe170  1  0.49979222  0.66600691  0.24955948  1
  Fe  Fe171  1  0.74929028  0.16741595  0.37479832  1
  Fe  Fe172  1  0.25024790  0.50096498  0.62555774  1
  Fe  Fe173  1  0.25035074  0.33375807  0.87421339  1
  Fe  Fe174  1  -0.00042768  0.50147905  -0.00020878  1
  Fe  Fe175  1  0.75051463  0.33278678  0.12550648  1
  Fe  Fe176  1  0.25009623  0.83367085  0.37571320  1
  Fe  Fe177  1  0.25005765  0.66655095  0.87402373  1
  Fe  Fe178  1  0.74939629  0.33333844  0.37452392  1
  Fe  Fe179  1  -0.00068011  -0.00086296  0.25048641  1
  Fe  Fe180  1  -0.00021822  0.83247459  0.25025885  1
  Fe  Fe181  1  0.50010110  0.16708274  -0.00027824  1
  Fe  Fe182  1  0.50012395  0.49987834  0.00041114  1
  Fe  Fe183  1  0.49995714  0.83332950  0.49978679  1
  Fe  Fe184  1  0.50077931  0.49977208  0.74992120  1
  Fe  Fe185  1  -0.00035369  0.66605196  0.00031311  1
  Fe  Fe186  1  0.74954045  0.49904734  0.62425411  1
  Fe  Fe187  1  -0.00021333  0.66690405  0.49947691  1
  Fe  Fe188  1  0.49947676  0.16707006  0.24981767  1
  Fe  Fe189  1  0.74970703  0.66614638  0.37548448  1
  Fe  Fe190  1  -0.00027886  0.83255661  0.49983995  1
  Fe  Fe191  1  0.74971682  -0.00072787  0.62583450  1
  P  P192  1  0.04286012  0.25069727  0.10388659  1
  P  P193  1  0.04228150  0.25120529  0.35432105  1
  P  P194  1  0.04136295  0.25233083  0.60264845  1
  P  P195  1  0.04318114  0.25084562  0.85352405  1
  P  P196  1  0.04169565  0.58370446  0.10230936  1
  P  P197  1  0.04118458  0.58421161  0.35189454  1
  P  P198  1  0.04152436  0.58541841  0.60261411  1
  P  P199  1  0.04122312  0.58368375  0.85165530  1
  P  P200  1  0.04239235  0.91557606  0.10460243  1
  P  P201  1  0.04087463  0.91553597  0.35203934  1
  P  P202  1  0.04164941  0.91466833  0.60228903  1
  P  P203  1  0.04325944  0.91559527  0.85330127  1
  P  P204  1  0.54217564  0.24879703  0.10301240  1
  P  P205  1  0.54113466  0.24989372  0.35155097  1
  P  P206  1  0.54108435  0.24982723  0.60081100  1
  P  P207  1  0.54343487  0.24995221  0.85337456  1
  P  P208  1  0.54181961  0.58276680  0.10219586  1
  P  P209  1  0.54158418  0.58291407  0.35100796  1
  P  P210  1  0.54315113  0.58242539  0.60294106  1
  P  P211  1  0.54290958  0.58174741  0.85281739  1
  P  P212  1  0.54358872  0.91663330  0.10337729  1
  P  P213  1  0.54302998  0.91635880  0.35363921  1
  P  P214  1  0.54203313  0.91571988  0.60238961  1
  P  P215  1  0.54257022  0.91826273  0.85229733  1
  P  P216  1  0.45799721  0.08488616  0.14745071  1
  P  P217  1  0.45736106  0.08519990  0.39735802  1
  P  P218  1  0.45819669  0.08232113  0.64693816  1
  P  P219  1  0.45804055  0.08468003  0.89716477  1
  P  P220  1  0.45902818  0.41679068  0.14804598  1
  P  P221  1  0.45778865  0.41502199  0.39640973  1
  P  P222  1  0.45836029  0.41752165  0.64720839  1
  P  P223  1  0.45836865  0.41837830  0.89736484  1
  P  P224  1  0.45841480  0.74774184  0.14681056  1
  P  P225  1  0.45792924  0.75059120  0.39728669  1
  P  P226  1  0.45770660  0.75025505  0.64621013  1
  P  P227  1  0.45844073  0.74833469  0.89749394  1
  P  P228  1  0.95773496  0.08205989  0.14838859  1
  P  P229  1  0.95644430  0.08255693  0.39663866  1
  P  P230  1  0.95685544  0.08331901  0.64679456  1
  P  P231  1  0.95724307  0.08307947  0.89716099  1
  P  P232  1  0.95762409  0.41940190  0.14751300  1
  P  P233  1  0.95702818  0.41667739  0.39758754  1
  P  P234  1  0.95778468  0.41867147  0.64737013  1
  P  P235  1  0.95757656  0.41928771  0.89771926  1
  P  P236  1  0.95820231  0.74924847  0.14848598  1
  P  P237  1  0.95818059  0.74983334  0.39779672  1
  P  P238  1  0.95786549  0.74849055  0.64673025  1
  P  P239  1  0.95771911  0.74752863  0.89759556  1
  P  P240  1  0.20707986  0.08273654  0.22888617  1
  P  P241  1  0.20715000  0.08326617  0.48001559  1
  P  P242  1  0.20841947  0.08342998  0.72658811  1
  P  P243  1  0.20744407  0.08278993  0.97830613  1
  P  P244  1  0.20694340  0.41704638  0.22837583  1
  P  P245  1  0.20727358  0.41762031  0.47995987  1
  P  P246  1  0.20858324  0.41727850  0.72684881  1
  P  P247  1  0.20762217  0.41545880  0.97658697  1
  P  P248  1  0.20805706  0.75170929  0.22770368  1
  P  P249  1  0.20774526  0.75172684  0.47835521  1
  P  P250  1  0.20854404  0.74990881  0.72627230  1
  P  P251  1  0.20802940  0.74850828  0.97701616  1
  P  P252  1  0.70881059  0.08381131  0.22640406  1
  P  P253  1  0.70730026  0.08492841  0.47730627  1
  P  P254  1  0.70785733  0.08142974  0.72803244  1
  P  P255  1  0.70915942  0.08324929  0.97700639  1
  P  P256  1  0.70883295  0.41608000  0.22675227  1
  P  P257  1  0.70740115  0.41504833  0.47756122  1
  P  P258  1  0.70842936  0.41540659  0.72606370  1
  P  P259  1  0.70790912  0.41616891  0.97933440  1
  P  P260  1  0.70714557  0.74996225  0.22861757  1
  P  P261  1  0.70821833  0.74823537  0.47851413  1
  P  P262  1  0.70862242  0.75006887  0.72673877  1
  P  P263  1  0.70772282  0.75146127  0.97695312  1
  P  P264  1  0.29327232  0.25029941  0.02130284  1
  P  P265  1  0.29290823  0.25001141  0.27266301  1
  P  P266  1  0.29123077  0.25071756  0.52447525  1
  P  P267  1  0.29214066  0.25178907  0.77142997  1
  P  P268  1  0.29280511  0.58327999  0.02073025  1
  P  P269  1  0.29285264  0.58390585  0.27181789  1
  P  P270  1  0.29157015  0.58395110  0.52354949  1
  P  P271  1  0.29200635  0.58498832  0.77091887  1
  P  P272  1  0.29306599  0.91460169  0.02249399  1
  P  P273  1  0.29254461  0.91483016  0.27283759  1
  P  P274  1  0.29129569  0.91654127  0.52346700  1
  P  P275  1  0.29291173  0.91677493  0.77046151  1
  P  P276  1  0.79195067  0.24962624  0.02352080  1
  P  P277  1  0.79110054  0.25031301  0.27283556  1
  P  P278  1  0.79154363  0.25088612  0.52159737  1
  P  P279  1  0.79216444  0.24844988  0.77241886  1
  P  P280  1  0.79196636  0.58220981  0.02268261  1
  P  P281  1  0.79154329  0.58409397  0.27246962  1
  P  P282  1  0.79081699  0.58315550  0.52333601  1
  P  P283  1  0.79190060  0.58292112  0.77053830  1
  P  P284  1  0.79226787  0.91831544  0.02175630  1
  P  P285  1  0.79279121  0.91729521  0.27182287  1
  P  P286  1  0.79115242  0.91677129  0.52381895  1
  P  P287  1  0.79142645  0.91609699  0.77278960  1
  O  O288  1  0.03769391  0.25076978  0.18388946  1
  O  O289  1  0.03649521  0.25182352  0.43424209  1
  O  O290  1  0.03647148  0.25223204  0.68266226  1
  O  O291  1  0.03826982  0.25075808  0.93352490  1
  O  O292  1  0.03663041  0.58357261  0.18221017  1
  O  O293  1  0.03614495  0.58465749  0.43182864  1
  O  O294  1  0.03637802  0.58536494  0.68246477  1
  O  O295  1  0.03610775  0.58358185  0.93155513  1
  O  O296  1  0.03667928  0.91571692  0.18449759  1
  O  O297  1  0.03539053  0.91490177  0.43198758  1
  O  O298  1  0.03706573  0.91475728  0.68228457  1
  O  O299  1  0.03840017  0.91552546  0.93331031  1
  O  O300  1  0.53646322  0.24882775  0.18285275  1
  O  O301  1  0.53611005  0.25011914  0.43147653  1
  O  O302  1  0.53678341  0.25026427  0.68082700  1
  O  O303  1  0.53808721  0.24963198  0.93326845  1
  O  O304  1  0.53636063  0.58320542  0.18208320  1
  O  O305  1  0.53681713  0.58266539  0.43099332  1
  O  O306  1  0.53823413  0.58204182  0.68289879  1
  O  O307  1  0.53742776  0.58214467  0.93272877  1
  O  O308  1  0.53847575  0.91670939  0.18334666  1
  O  O309  1  0.53756414  0.91587566  0.43359051  1
  O  O310  1  0.53695562  0.91650080  0.68234958  1
  O  O311  1  0.53773551  0.91800220  0.93227618  1
  O  O312  1  0.46329882  0.08498849  0.06748854  1
  O  O313  1  0.46249257  0.08536775  0.31739874  1
  O  O314  1  0.46311751  0.08281820  0.56700641  1
  O  O315  1  0.46346983  0.08361345  0.81721318  1
  O  O316  1  0.46382283  0.41715329  0.06807665  1
  O  O317  1  0.46276402  0.41520222  0.31652719  1
  O  O318  1  0.46311616  0.41658680  0.56724592  1
  O  O319  1  0.46393012  0.41843684  0.81746644  1
  O  O320  1  0.46407664  0.74760978  0.06690207  1
  O  O321  1  0.46301792  0.74984428  0.31731472  1
  O  O322  1  0.46294761  0.75083096  0.56627376  1
  O  O323  1  0.46339311  0.74874277  0.81749113  1
  O  O324  1  0.96295729  0.08236250  0.06841712  1
  O  O325  1  0.96210692  0.08199187  0.31673041  1
  O  O326  1  0.96160374  0.08332731  0.56675303  1
  O  O327  1  0.96224726  0.08322655  0.81715536  1
  O  O328  1  0.96307346  0.41958944  0.06757093  1
  O  O329  1  0.96205941  0.41721582  0.31767319  1
  O  O330  1  0.96305081  0.41768262  0.56743611  1
  O  O331  1  0.96265591  0.41946186  0.81772609  1
  O  O332  1  0.96310652  0.74840772  0.06853082  1
  O  O333  1  0.96341265  0.75020119  0.31790743  1
  O  O334  1  0.96294576  0.74909205  0.56682624  1
  O  O335  1  0.96278777  0.74747103  0.81762368  1
  O  O336  1  0.21266957  0.08263782  0.05829003  1
  O  O337  1  0.21204563  0.08269399  0.30893299  1
  O  O338  1  0.21254001  0.08317762  0.55994825  1
  O  O339  1  0.21314621  0.08358166  0.80661593  1
  O  O340  1  0.21249245  0.41590676  0.05658258  1
  O  O341  1  0.21183957  0.41736314  0.30840504  1
  O  O342  1  0.21279590  0.41794733  0.55987060  1
  O  O343  1  0.21384157  0.41663419  0.80679896  1
  O  O344  1  0.21327761  0.74926381  0.05695051  1
  O  O345  1  0.21316139  0.75201306  0.30766450  1
  O  O346  1  0.21311247  0.75135481  0.55823348  1
  O  O347  1  0.21352983  0.74886254  0.80621808  1
  O  O348  1  0.71435440  0.08316094  0.05688884  1
  O  O349  1  0.71357015  0.08473239  0.30635004  1
  O  O350  1  0.71226791  0.08444765  0.55714800  1
  O  O351  1  0.71345701  0.08153793  0.80781494  1
  O  O352  1  0.71362341  0.41645211  0.05917095  1
  O  O353  1  0.71339137  0.41607370  0.30677974  1
  O  O354  1  0.71258416  0.41507021  0.55743980  1
  O  O355  1  0.71319681  0.41559515  0.80607043  1
  O  O356  1  0.71260266  0.75126655  0.05693474  1
  O  O357  1  0.71243983  0.74923188  0.30857444  1
  O  O358  1  0.71369376  0.74819473  0.55840414  1
  O  O359  1  0.71353685  0.75095595  0.80670827  1
  O  O360  1  0.28811725  0.24985563  0.19265923  1
  O  O361  1  0.28647895  0.25033895  0.44450672  1
  O  O362  1  0.28648681  0.25159870  0.69156114  1
  O  O363  1  0.28815563  0.25095557  0.94130031  1
  O  O364  1  0.28796748  0.58363516  0.19182877  1
  O  O365  1  0.28690412  0.58424615  0.44353803  1
  O  O366  1  0.28642661  0.58473030  0.69104902  1
  O  O367  1  0.28761933  0.58362363  0.94074922  1
  O  O368  1  0.28759413  0.91461852  0.19284125  1
  O  O369  1  0.28624840  0.91604259  0.44346668  1
  O  O370  1  0.28731519  0.91703127  0.69058437  1
  O  O371  1  0.28811541  0.91496065  0.94249081  1
  O  O372  1  0.78624384  0.25047345  0.19291026  1
  O  O373  1  0.78612793  0.25070337  0.44173421  1
  O  O374  1  0.78660474  0.24927947  0.69252862  1
  O  O375  1  0.78715513  0.24885615  0.94355385  1
  O  O376  1  0.78643583  0.58350896  0.19253789  1
  O  O377  1  0.78599687  0.58318054  0.44333372  1
  O  O378  1  0.78619453  0.58297829  0.69070311  1
  O  O379  1  0.78726451  0.58221821  0.94269878  1
  O  O380  1  0.78777645  0.91776020  0.19189428  1
  O  O381  1  0.78656796  0.91649629  0.44385661  1
  O  O382  1  0.78609476  0.91594792  0.69288793  1
  O  O383  1  0.78670151  0.91794583  0.94187118  1
  O  O384  1  0.22886823  0.24993406  0.05651861  1
  O  O385  1  0.22839964  0.25018760  0.30757462  1
  O  O386  1  0.22700510  0.25144010  0.56007237  1
  O  O387  1  0.22809869  0.25219064  0.80784930  1
  O  O388  1  0.22843334  0.58349841  0.05601524  1
  O  O389  1  0.22834858  0.58435072  0.30672237  1
  O  O390  1  0.22733289  0.58312552  0.55911662  1
  O  O391  1  0.22794338  0.58508753  0.80730715  1
  O  O392  1  0.22865230  0.91430625  0.05790216  1
  O  O393  1  0.22814032  0.91472967  0.30838527  1
  O  O394  1  0.22713851  0.91698878  0.55948448  1
  O  O395  1  0.22870721  0.91638373  0.80626084  1
  O  O396  1  0.72778536  0.25053256  0.05946073  1
  O  O397  1  0.72691059  0.25025664  0.30900875  1
  O  O398  1  0.72739642  0.25101779  0.55776722  1
  O  O399  1  0.72800078  0.24763710  0.80846473  1
  O  O400  1  0.72757194  0.58223125  0.05785678  1
  O  O401  1  0.72731395  0.58447000  0.30831223  1
  O  O402  1  0.72673337  0.58350689  0.55927777  1
  O  O403  1  0.72788526  0.58323854  0.80676962  1
  O  O404  1  0.72817874  0.91899100  0.05811370  1
  O  O405  1  0.72850691  0.91678467  0.30725423  1
  O  O406  1  0.72693508  0.91708165  0.55946121  1
  O  O407  1  0.72741962  0.91615964  0.80935443  1
  O  O408  1  0.27157154  0.08251428  0.19391718  1
  O  O409  1  0.27138687  0.08288914  0.44432710  1
  O  O410  1  0.27264289  0.08282478  0.69096840  1
  O  O411  1  0.27181710  0.08327793  0.94304019  1
  O  O412  1  0.27150562  0.41702164  0.19355831  1
  O  O413  1  0.27154395  0.41760434  0.44427847  1
  O  O414  1  0.27269952  0.41736362  0.69071585  1
  O  O415  1  0.27204388  0.41549048  0.94125464  1
  O  O416  1  0.27239456  0.75149079  0.19205644  1
  O  O417  1  0.27196687  0.75225028  0.44231032  1
  O  O418  1  0.27263299  0.75082940  0.69030344  1
  O  O419  1  0.27231215  0.74773579  0.94117784  1
  O  O420  1  0.77298432  0.08294936  0.19048487  1
  O  O421  1  0.77162279  0.08563812  0.44166032  1
  O  O422  1  0.77191224  0.08159801  0.69164011  1
  O  O423  1  0.77308462  0.08286567  0.94029699  1
  O  O424  1  0.77303592  0.41573822  0.19100056  1
  O  O425  1  0.77158938  0.41493440  0.44158137  1
  O  O426  1  0.77257814  0.41476671  0.69019808  1
  O  O427  1  0.77194570  0.41571780  0.94311716  1
  O  O428  1  0.77142940  0.75017709  0.19315977  1
  O  O429  1  0.77230738  0.74778802  0.44216019  1
  O  O430  1  0.77271427  0.74930178  0.69074807  1
  O  O431  1  0.77209765  0.75193678  0.94156263  1
  O  O432  1  0.02195487  0.08165260  0.18406220  1
  O  O433  1  0.02059721  0.08278315  0.43232436  1
  O  O434  1  0.02141012  0.08343549  0.68149522  1
  O  O435  1  0.02171472  0.08323240  0.93208710  1
  O  O436  1  0.02180976  0.41946412  0.18340774  1
  O  O437  1  0.02133385  0.41669495  0.43310519  1
  O  O438  1  0.02198447  0.41956501  0.68324046  1
  O  O439  1  0.02192236  0.41944537  0.93324030  1
  O  O440  1  0.02234730  0.74966233  0.18444108  1
  O  O441  1  0.02227204  0.74994899  0.43412027  1
  O  O442  1  0.02212296  0.74793525  0.68254208  1
  O  O443  1  0.02204425  0.74718617  0.93316894  1
  O  O444  1  0.52225406  0.08514121  0.18321597  1
  O  O445  1  0.52175754  0.08504691  0.43267995  1
  O  O446  1  0.52252890  0.08182350  0.68248347  1
  O  O447  1  0.52230851  0.08541430  0.93303101  1
  O  O448  1  0.52309931  0.41669474  0.18400901  1
  O  O449  1  0.52208245  0.41478309  0.43208692  1
  O  O450  1  0.52280517  0.41830368  0.68256105  1
  O  O451  1  0.52247263  0.41841169  0.93348653  1
  O  O452  1  0.52251625  0.74745514  0.18295180  1
  O  O453  1  0.52226253  0.75096673  0.43279576  1
  O  O454  1  0.52196789  0.74996871  0.68164589  1
  O  O455  1  0.52278345  0.74806587  0.93287536  1
  O  O456  1  0.47821194  0.24868691  0.06644037  1
  O  O457  1  0.47702664  0.24966466  0.31548585  1
  O  O458  1  0.47676869  0.24941132  0.56542249  1
  O  O459  1  0.47920199  0.25025669  0.81787255  1
  O  O460  1  0.47788199  0.58282234  0.06548284  1
  O  O461  1  0.47732980  0.58314374  0.31541600  1
  O  O462  1  0.47875210  0.58271930  0.56788441  1
  O  O463  1  0.47872567  0.58124139  0.81664593  1
  O  O464  1  0.47923043  0.91653113  0.06826664  1
  O  O465  1  0.47877713  0.91659191  0.31820081  1
  O  O466  1  0.47779518  0.91561026  0.56666375  1
  O  O467  1  0.47819455  0.91839812  0.81695894  1
  O  O468  1  0.97842923  0.25108799  0.06887320  1
  O  O469  1  0.97810986  0.25076078  0.31860909  1
  O  O470  1  0.97703065  0.25229139  0.56724646  1
  O  O471  1  0.97859100  0.25109520  0.81886818  1
  O  O472  1  0.97748826  0.58377052  0.06613207  1
  O  O473  1  0.97703065  0.58372196  0.31586977  1
  O  O474  1  0.97734383  0.58550931  0.56663786  1
  O  O475  1  0.97710943  0.58349103  0.81532293  1
  O  O476  1  0.97829477  0.91535441  0.06858317  1
  O  O477  1  0.97688975  0.91553061  0.31567533  1
  O  O478  1  0.97717186  0.91409011  0.56725214  1
  O  O479  1  0.97870721  0.91543702  0.81858128  1
  O  O480  1  0.07407736  0.31411587  0.07584842  1
  O  O481  1  0.07367260  0.31430966  0.32586433  1
  O  O482  1  0.07190871  0.31605325  0.57436277  1
  O  O483  1  0.07413240  0.31440491  0.82541676  1
  O  O484  1  0.07250359  0.64734479  0.07384181  1
  O  O485  1  0.07192094  0.64780738  0.32336546  1
  O  O486  1  0.07250410  0.64857318  0.57338722  1
  O  O487  1  0.07203787  0.64725877  0.82308563  1
  O  O488  1  0.07369152  0.97889029  0.07624317  1
  O  O489  1  0.07152574  0.97968377  0.32467808  1
  O  O490  1  0.07218369  0.97857229  0.57439719  1
  O  O491  1  0.07411757  0.97906501  0.82487851  1
  O  O492  1  0.57329370  0.31258038  0.07546615  1
  O  O493  1  0.57170090  0.31352375  0.32251759  1
  O  O494  1  0.57135122  0.31360301  0.57202469  1
  O  O495  1  0.57458518  0.31356980  0.82551095  1
  O  O496  1  0.57295232  0.64610918  0.07339507  1
  O  O497  1  0.57241382  0.64660492  0.32311251  1
  O  O498  1  0.57410130  0.64606748  0.57494069  1
  O  O499  1  0.57386048  0.64538623  0.82455283  1
  O  O500  1  0.57455574  0.98016431  0.07532043  1
  O  O501  1  0.57397827  0.98022279  0.32601799  1
  O  O502  1  0.57348346  0.97892549  0.57410642  1
  O  O503  1  0.57309213  0.98181498  0.82364825  1
  O  O504  1  0.42730082  0.02088757  0.17518742  1
  O  O505  1  0.42634567  0.02141500  0.42498506  1
  O  O506  1  0.42753076  0.01878860  0.67561293  1
  O  O507  1  0.42698641  0.02129955  0.92571915  1
  O  O508  1  0.42837595  0.35287408  0.17600824  1
  O  O509  1  0.42696624  0.35172867  0.42570834  1
  O  O510  1  0.42765678  0.35401337  0.67591638  1
  O  O511  1  0.42745454  0.35447883  0.92491159  1
  O  O512  1  0.42711790  0.68461808  0.17543871  1
  O  O513  1  0.42675458  0.68712727  0.42549826  1
  O  O514  1  0.42670114  0.68654031  0.67392213  1
  O  O515  1  0.42769567  0.68474328  0.92567188  1
  O  O516  1  0.92678786  0.01854346  0.17652678  1
  O  O517  1  0.92505310  0.01935384  0.42499914  1
  O  O518  1  0.92617030  0.01960520  0.67490697  1
  O  O519  1  0.92646949  0.01942024  0.92516729  1
  O  O520  1  0.92666180  0.35549338  0.17491271  1
  O  O521  1  0.92652821  0.35306117  0.42631828  1
  O  O522  1  0.92681695  0.35528565  0.67593060  1
  O  O523  1  0.92683734  0.35533980  0.92548338  1
  O  O524  1  0.92742647  0.68580209  0.17742050  1
  O  O525  1  0.92748998  0.68599467  0.42594453  1
  O  O526  1  0.92675104  0.68523068  0.67542150  1
  O  O527  1  0.92644759  0.68450726  0.92639245  1
  O  O528  1  0.17612763  0.01916319  0.20088704  1
  O  O529  1  0.17567007  0.02008889  0.45146302  1
  O  O530  1  0.17690706  0.02018942  0.69855491  1
  O  O531  1  0.17676767  0.01904903  0.95027155  1
  O  O532  1  0.17603189  0.35347473  0.20040097  1
  O  O533  1  0.17622551  0.35411976  0.45173043  1
  O  O534  1  0.17730556  0.35403190  0.69837686  1
  O  O535  1  0.17706907  0.35189328  0.94815689  1
  O  O536  1  0.17710889  0.68783117  0.20015440  1
  O  O537  1  0.17704236  0.68794905  0.45003220  1
  O  O538  1  0.17812876  0.68629682  0.69716171  1
  O  O539  1  0.17705028  0.68501758  0.94867047  1
  O  O540  1  0.67760353  0.02024754  0.19865028  1
  O  O541  1  0.67657836  0.02120733  0.44909807  1
  O  O542  1  0.67722826  0.01790388  0.69907624  1
  O  O543  1  0.67767196  0.02005418  0.94851867  1
  O  O544  1  0.67749347  0.35281638  0.19851998  1
  O  O545  1  0.67636231  0.35195543  0.44829571  1
  O  O546  1  0.67704240  0.35196742  0.69824491  1
  O  O547  1  0.67640789  0.35277680  0.95130239  1
  O  O548  1  0.67584265  0.68687585  0.19983805  1
  O  O549  1  0.67705368  0.68501905  0.44962339  1
  O  O550  1  0.67726405  0.68648447  0.69919429  1
  O  O551  1  0.67719038  0.68752871  0.94908800  1
  O  O552  1  0.32440109  0.31354164  0.05003839  1
  O  O553  1  0.32379922  0.31356640  0.30084076  1
  O  O554  1  0.32273354  0.31407907  0.55221440  1
  O  O555  1  0.32334495  0.31513394  0.79991628  1
  O  O556  1  0.32430195  0.64622697  0.04938212  1
  O  O557  1  0.32395037  0.64740656  0.29981841  1
  O  O558  1  0.32153910  0.64819489  0.55167659  1
  O  O559  1  0.32304858  0.64832017  0.79953052  1
  O  O560  1  0.32394740  0.97821987  0.05062946  1
  O  O561  1  0.32322970  0.97876246  0.30072024  1
  O  O562  1  0.32229898  0.98034332  0.55112366  1
  O  O563  1  0.32400101  0.98006438  0.79920303  1
  O  O564  1  0.82321129  0.31312106  0.05147258  1
  O  O565  1  0.82200421  0.31388333  0.30142219  1
  O  O566  1  0.82247368  0.31428286  0.55039094  1
  O  O567  1  0.82311739  0.31197727  0.80078567  1
  O  O568  1  0.82304314  0.64595235  0.05024489  1
  O  O569  1  0.82232885  0.64763157  0.30095239  1
  O  O570  1  0.82237985  0.64623574  0.55164386  1
  O  O571  1  0.82331836  0.64621025  0.79892846  1
  O  O572  1  0.82351326  0.98154391  0.05036494  1
  O  O573  1  0.82364148  0.98061804  0.30054136  1
  O  O574  1  0.82204220  0.98040544  0.55187319  1
  O  O575  1  0.82249926  0.97960407  0.80105475  1
  O  O576  1  0.42669919  0.14797996  0.17608909  1
  O  O577  1  0.42653552  0.14840507  0.42651522  1
  O  O578  1  0.42728304  0.14593348  0.67509664  1
  O  O579  1  0.42720704  0.14846044  0.92495994  1
  O  O580  1  0.42794119  0.48021357  0.17656054  1
  O  O581  1  0.42670235  0.47862197  0.42462996  1
  O  O582  1  0.42751976  0.48110000  0.67547850  1
  O  O583  1  0.42715834  0.48148684  0.92609423  1
  O  O584  1  0.42764774  0.81173672  0.17436850  1
  O  O585  1  0.42737879  0.81432830  0.42574057  1
  O  O586  1  0.42640544  0.81333331  0.67490760  1
  O  O587  1  0.42757285  0.81213374  0.92526139  1
  O  O588  1  0.92686404  0.14592573  0.17599144  1
  O  O589  1  0.92533336  0.14626731  0.42422686  1
  O  O590  1  0.92584810  0.14684937  0.67484466  1
  O  O591  1  0.92618208  0.14652279  0.92552383  1
  O  O592  1  0.92662842  0.48260002  0.17640514  1
  O  O593  1  0.92571210  0.48012131  0.42572457  1
  O  O594  1  0.92681766  0.48233561  0.67522550  1
  O  O595  1  0.92644485  0.48242664  0.92652783  1
  O  O596  1  0.92718993  0.81298169  0.17625442  1
  O  O597  1  0.92699933  0.81317164  0.42653915  1
  O  O598  1  0.92696667  0.81198119  0.67547100  1
  O  O599  1  0.92718023  0.81152034  0.92552321  1
  O  O600  1  0.07362977  0.18696681  0.07602781  1
  O  O601  1  0.07350609  0.18740085  0.32697186  1
  O  O602  1  0.07243356  0.18862832  0.57502231  1
  O  O603  1  0.07404183  0.18743718  0.82491395  1
  O  O604  1  0.07257060  0.52028954  0.07337015  1
  O  O605  1  0.07208266  0.52044012  0.32404931  1
  O  O606  1  0.07264261  0.52182178  0.57456664  1
  O  O607  1  0.07220938  0.52020376  0.82293685  1
  O  O608  1  0.07368485  0.85217601  0.07625532  1
  O  O609  1  0.07214860  0.85224602  0.32360072  1
  O  O610  1  0.07263506  0.85139979  0.57359766  1
  O  O611  1  0.07424502  0.85204908  0.82519767  1
  O  O612  1  0.57329867  0.18556793  0.07422951  1
  O  O613  1  0.57233735  0.18645631  0.32317666  1
  O  O614  1  0.57204462  0.18609686  0.57297322  1
  O  O615  1  0.57463632  0.18681947  0.82461218  1
  O  O616  1  0.57263984  0.51891093  0.07427606  1
  O  O617  1  0.57218652  0.51908937  0.32269670  1
  O  O618  1  0.57425170  0.51929501  0.57407142  1
  O  O619  1  0.57400006  0.51839700  0.82418906  1
  O  O620  1  0.57464214  0.85312694  0.07532834  1
  O  O621  1  0.57449077  0.85331045  0.32513944  1
  O  O622  1  0.57244910  0.85182896  0.57411815  1
  O  O623  1  0.57351191  0.85449573  0.82453067  1
  O  O624  1  0.32422815  0.18666164  0.04924806  1
  O  O625  1  0.32366814  0.18649625  0.30104267  1
  O  O626  1  0.32128083  0.18662108  0.55291193  1
  O  O627  1  0.32316260  0.18803295  0.79925445  1
  O  O628  1  0.32348046  0.51944074  0.04871406  1
  O  O629  1  0.32363627  0.52049514  0.30036050  1
  O  O630  1  0.32312541  0.52072866  0.55155929  1
  O  O631  1  0.32319834  0.52136517  0.79878903  1
  O  O632  1  0.32372216  0.85094490  0.05074197  1
  O  O633  1  0.32361029  0.85174733  0.30182147  1
  O  O634  1  0.32210022  0.85301392  0.55189251  1
  O  O635  1  0.32426217  0.85335374  0.79857654  1
  O  O636  1  0.82219959  0.18587173  0.05244332  1
  O  O637  1  0.82188627  0.18665432  0.30126998  1
  O  O638  1  0.82280667  0.18748343  0.54986833  1
  O  O639  1  0.82315886  0.18487655  0.80043216  1
  O  O640  1  0.82243623  0.51873544  0.05174236  1
  O  O641  1  0.82257197  0.52058957  0.30069654  1
  O  O642  1  0.82086937  0.51881083  0.55139574  1
  O  O643  1  0.82299898  0.51942241  0.79870838  1
  O  O644  1  0.82311009  0.85453533  0.04983431  1
  O  O645  1  0.82394726  0.85375448  0.29983135  1
  O  O646  1  0.82153026  0.85284425  0.55222906  1
  O  O647  1  0.82233879  0.85242824  0.80114888  1
  O  O648  1  0.17622758  0.14626360  0.20075892  1
  O  O649  1  0.17615311  0.14685167  0.45188731  1
  O  O650  1  0.17836774  0.14770435  0.69853969  1
  O  O651  1  0.17610477  0.14609741  0.95021542  1
  O  O652  1  0.17600678  0.48043730  0.19980328  1
  O  O653  1  0.17595644  0.48087829  0.45137217  1
  O  O654  1  0.17795548  0.48136857  0.69938056  1
  O  O655  1  0.17658092  0.47908072  0.94864824  1
  O  O656  1  0.17724658  0.81485768  0.19856582  1
  O  O657  1  0.17655261  0.81492393  0.44976111  1
  O  O658  1  0.17721791  0.81357121  0.69883409  1
  O  O659  1  0.17717147  0.81207340  0.94870346  1
  O  O660  1  0.67856344  0.14758282  0.19736950  1
  O  O661  1  0.67638770  0.14832187  0.44858378  1
  O  O662  1  0.67635803  0.14480631  0.69998905  1
  O  O663  1  0.67876718  0.14727196  0.94876663  1
  O  O664  1  0.67883385  0.48031364  0.19850251  1
  O  O665  1  0.67641611  0.47875548  0.44946179  1
  O  O666  1  0.67839673  0.47949988  0.69765566  1
  O  O667  1  0.67676028  0.47942483  0.95057079  1
  O  O668  1  0.67616095  0.81366301  0.20088420  1
  O  O669  1  0.67734164  0.81210839  0.45083936  1
  O  O670  1  0.67821302  0.81376350  0.69774410  1
  O  O671  1  0.67669121  0.81479583  0.94855552  1
