# generated using pymatgen
data_Na2MnFe(PO4)2
_symmetry_space_group_name_H-M   'P 1'
_cell_length_a   22.34599246
_cell_length_b   20.09722836
_cell_length_c   19.44738895
_cell_angle_alpha   90.01203669
_cell_angle_beta   89.99685983
_cell_angle_gamma   90.01103656
_symmetry_Int_Tables_number   1
_chemical_formula_structural   Na2MnFe(PO4)2
_chemical_formula_sum   'Na96 Mn48 Fe48 P96 O384'
_cell_volume   8733.67641122
_cell_formula_units_Z   48
loop_
 _symmetry_equiv_pos_site_id
 _symmetry_equiv_pos_as_xyz
  1  'x, y, z'
loop_
 _atom_site_type_symbol
 _atom_site_label
 _atom_site_symmetry_multiplicity
 _atom_site_fract_x
 _atom_site_fract_y
 _atom_site_fract_z
 _atom_site_occupancy
  Na  Na0  1  0.13946967  0.25048999  0.24416943  1
  Na  Na1  1  0.14032832  0.24848903  0.49334916  1
  Na  Na2  1  0.14052821  0.24907595  0.74262164  1
  Na  Na3  1  0.13994756  0.25010225  0.99325809  1
  Na  Na4  1  0.13984988  0.58281698  0.24338459  1
  Na  Na5  1  0.14041564  0.58165907  0.49424907  1
  Na  Na6  1  0.14006694  0.58540638  0.74443462  1
  Na  Na7  1  0.13975021  0.58479520  0.99279772  1
  Na  Na8  1  0.14012297  0.91738535  0.24527532  1
  Na  Na9  1  0.14027073  0.91697201  0.49537276  1
  Na  Na10  1  0.14095199  0.91793756  0.74430944  1
  Na  Na11  1  0.14059659  0.91697907  0.99255990  1
  Na  Na12  1  0.64008556  0.24941182  0.24449731  1
  Na  Na13  1  0.64028958  0.24936309  0.49311477  1
  Na  Na14  1  0.64117265  0.24890192  0.74240949  1
  Na  Na15  1  0.64069482  0.25028942  0.99335780  1
  Na  Na16  1  0.64012669  0.58327317  0.24408367  1
  Na  Na17  1  0.64062544  0.58220783  0.49268307  1
  Na  Na18  1  0.64045641  0.58120057  0.74335558  1
  Na  Na19  1  0.64017045  0.58334728  0.99379626  1
  Na  Na20  1  0.64036447  0.91569947  0.24425769  1
  Na  Na21  1  0.64076625  0.91729122  0.49281904  1
  Na  Na22  1  0.64069415  0.91813793  0.74327995  1
  Na  Na23  1  0.64075131  0.91859788  0.99405673  1
  Na  Na24  1  0.36060548  0.08324086  0.00481236  1
  Na  Na25  1  0.35980862  0.08407385  0.25648899  1
  Na  Na26  1  0.36031670  0.08211455  0.50783179  1
  Na  Na27  1  0.36033965  0.08299354  0.75627493  1
  Na  Na28  1  0.35997091  0.41707227  0.00543591  1
  Na  Na29  1  0.35982016  0.41606294  0.25599611  1
  Na  Na30  1  0.35950050  0.41566581  0.50639688  1
  Na  Na31  1  0.35964518  0.41771903  0.75568045  1
  Na  Na32  1  0.35980538  0.75062053  0.00558292  1
  Na  Na33  1  0.36005871  0.75089948  0.25661662  1
  Na  Na34  1  0.35919011  0.75022029  0.50584824  1
  Na  Na35  1  0.35901717  0.75140302  0.75616487  1
  Na  Na36  1  0.85975479  0.08440615  0.00604839  1
  Na  Na37  1  0.85929881  0.08340223  0.25793161  1
  Na  Na38  1  0.85993964  0.08412740  0.50686238  1
  Na  Na39  1  0.86026370  0.08396957  0.75460067  1
  Na  Na40  1  0.85997984  0.41794562  0.00722477  1
  Na  Na41  1  0.85953865  0.41628711  0.25830010  1
  Na  Na42  1  0.85910655  0.41514446  0.50564430  1
  Na  Na43  1  0.85944028  0.41540647  0.75585667  1
  Na  Na44  1  0.85976245  0.75065319  0.00723151  1
  Na  Na45  1  0.85893518  0.74950323  0.25688372  1
  Na  Na46  1  0.85866099  0.74958570  0.50606951  1
  Na  Na47  1  0.85941042  0.74874993  0.75704835  1
  Na  Na48  1  0.10912271  0.08447653  0.11897392  1
  Na  Na49  1  0.10978537  0.08397244  0.36983604  1
  Na  Na50  1  0.11016374  0.08432796  0.61805110  1
  Na  Na51  1  0.11034792  0.08356799  0.86773174  1
  Na  Na52  1  0.10857640  0.41753845  0.11949439  1
  Na  Na53  1  0.10930895  0.41492889  0.36835234  1
  Na  Na54  1  0.10959017  0.41615029  0.61822741  1
  Na  Na55  1  0.10889835  0.41690284  0.86904511  1
  Na  Na56  1  0.10916685  0.74962570  0.11777696  1
  Na  Na57  1  0.10908802  0.74941964  0.36962336  1
  Na  Na58  1  0.10914664  0.75059908  0.61990991  1
  Na  Na59  1  0.10976920  0.75021574  0.86917819  1
  Na  Na60  1  0.61016835  0.08299097  0.11902524  1
  Na  Na61  1  0.61028593  0.08306322  0.36857037  1
  Na  Na62  1  0.61041401  0.08335176  0.61778628  1
  Na  Na63  1  0.61041417  0.08380059  0.86842445  1
  Na  Na64  1  0.60957227  0.41556715  0.11932256  1
  Na  Na65  1  0.60982652  0.41741634  0.36863587  1
  Na  Na66  1  0.61043339  0.41600406  0.61777505  1
  Na  Na67  1  0.61005908  0.41625584  0.86792864  1
  Na  Na68  1  0.60962967  0.74944919  0.11962645  1
  Na  Na69  1  0.60961625  0.74990178  0.36752267  1
  Na  Na70  1  0.60920654  0.74981652  0.61785126  1
  Na  Na71  1  0.60946067  0.74994885  0.86873810  1
  Na  Na72  1  0.39071542  0.24932619  0.13000886  1
  Na  Na73  1  0.39049751  0.25054311  0.38209110  1
  Na  Na74  1  0.39067933  0.24894125  0.63159299  1
  Na  Na75  1  0.39098097  0.24878603  0.88055175  1
  Na  Na76  1  0.39085753  0.58275717  0.13067833  1
  Na  Na77  1  0.39037705  0.58372060  0.38107494  1
  Na  Na78  1  0.39023924  0.58250030  0.63099655  1
  Na  Na79  1  0.39027990  0.58318617  0.88037199  1
  Na  Na80  1  0.39060828  0.91676118  0.13039357  1
  Na  Na81  1  0.39039169  0.91735394  0.38225611  1
  Na  Na82  1  0.39019869  0.91804282  0.63214864  1
  Na  Na83  1  0.39039388  0.91819361  0.88094071  1
  Na  Na84  1  0.89059673  0.25122415  0.13186180  1
  Na  Na85  1  0.88992197  0.24915551  0.38233501  1
  Na  Na86  1  0.88962600  0.24979198  0.63034737  1
  Na  Na87  1  0.89046242  0.25027311  0.88060342  1
  Na  Na88  1  0.89005968  0.58305618  0.13156559  1
  Na  Na89  1  0.88957494  0.58130093  0.38166849  1
  Na  Na90  1  0.88963878  0.58233432  0.63116304  1
  Na  Na91  1  0.89042932  0.58339080  0.88254698  1
  Na  Na92  1  0.89040577  0.91726776  0.13199728  1
  Na  Na93  1  0.88974701  0.91774406  0.38260517  1
  Na  Na94  1  0.89012388  0.91789464  0.63106431  1
  Na  Na95  1  0.89059172  0.91638200  0.88157133  1
  Mn  Mn96  1  0.24964186  0.66715174  0.62505664  1
  Mn  Mn97  1  0.50025779  0.33293740  0.74977368  1
  Mn  Mn98  1  0.49959784  0.66643858  0.49936321  1
  Mn  Mn99  1  -0.00026096  0.66586217  0.49988950  1
  Mn  Mn100  1  0.24994023  0.16673984  0.12494189  1
  Mn  Mn101  1  0.49966894  0.66570965  -0.00067975  1
  Mn  Mn102  1  0.49909664  -0.00024763  0.24987209  1
  Mn  Mn103  1  0.74958780  0.83358990  0.62460010  1
  Mn  Mn104  1  0.49955345  0.16712358  0.24994841  1
  Mn  Mn105  1  -0.00006743  0.83292545  0.75058292  1
  Mn  Mn106  1  0.50033380  0.33253500  -0.00107672  1
  Mn  Mn107  1  0.50005895  0.33361586  0.50056965  1
  Mn  Mn108  1  0.24939428  0.66637090  0.37579286  1
  Mn  Mn109  1  0.75002013  0.33341961  0.12535751  1
  Mn  Mn110  1  0.00052052  0.00105043  0.75061548  1
  Mn  Mn111  1  0.74934099  0.66592878  0.87530271  1
  Mn  Mn112  1  0.49949065  0.49956737  0.24961597  1
  Mn  Mn113  1  0.25002639  0.66746019  0.12483320  1
  Mn  Mn114  1  0.75104438  0.00143626  0.87398961  1
  Mn  Mn115  1  0.25020822  0.49857665  0.37445989  1
  Mn  Mn116  1  -0.00038311  0.83337293  0.25036966  1
  Mn  Mn117  1  0.75020593  0.83403657  0.87541665  1
  Mn  Mn118  1  0.50013511  0.83390556  -0.00054876  1
  Mn  Mn119  1  0.25019364  0.16602019  0.37521491  1
  Mn  Mn120  1  0.74948367  0.66526858  0.62548204  1
  Mn  Mn121  1  -0.00052698  0.00016582  0.00008579  1
  Mn  Mn122  1  0.75000800  0.83346816  0.12575336  1
  Mn  Mn123  1  -0.00127326  0.83346451  0.50054448  1
  Mn  Mn124  1  0.24997547  0.83406820  0.12496544  1
  Mn  Mn125  1  -0.00017151  0.16790817  -0.00005858  1
  Mn  Mn126  1  0.25013610  0.33323607  0.12430405  1
  Mn  Mn127  1  0.24986517  0.33319228  0.87427685  1
  Mn  Mn128  1  0.50013775  0.83455364  0.74919449  1
  Mn  Mn129  1  0.24944187  0.50139002  0.87513190  1
  Mn  Mn130  1  0.75044803  0.33327979  0.87454457  1
  Mn  Mn131  1  -0.00005550  0.33277568  0.74972783  1
  Mn  Mn132  1  0.24984989  0.00066362  0.12431208  1
  Mn  Mn133  1  -0.00098500  0.66538304  0.24935758  1
  Mn  Mn134  1  0.00028377  0.49867206  0.50046813  1
  Mn  Mn135  1  0.49940135  0.83420390  0.49966527  1
  Mn  Mn136  1  0.74928168  0.50076455  0.12651032  1
  Mn  Mn137  1  0.24990823  0.50040241  0.12458466  1
  Mn  Mn138  1  0.24996100  0.33271640  0.62530740  1
  Mn  Mn139  1  0.75061109  0.16624503  0.12536525  1
  Mn  Mn140  1  0.24913708  0.83436683  0.37599598  1
  Mn  Mn141  1  -0.00051762  0.50046683  0.75012195  1
  Mn  Mn142  1  0.49994532  0.66562771  0.74897157  1
  Mn  Mn143  1  0.00033577  0.00098343  0.25045826  1
  Fe  Fe144  1  0.75028914  0.49959810  0.87500491  1
  Fe  Fe145  1  -0.00056768  0.33323543  0.25019475  1
  Fe  Fe146  1  0.50120310  0.16614262  0.00005522  1
  Fe  Fe147  1  0.74965440  0.66669123  0.12586108  1
  Fe  Fe148  1  0.50099276  0.00031593  0.00005013  1
  Fe  Fe149  1  0.50112595  0.00095700  0.75027468  1
  Fe  Fe150  1  0.75006127  0.16650980  0.62403012  1
  Fe  Fe151  1  0.75028750  0.49885506  0.62417541  1
  Fe  Fe152  1  0.50030729  0.49904680  0.00005173  1
  Fe  Fe153  1  -0.00017521  0.49940934  0.24977581  1
  Fe  Fe154  1  0.50059531  0.00054178  0.50031991  1
  Fe  Fe155  1  0.24972379  0.49987124  0.62507020  1
  Fe  Fe156  1  0.49989785  0.66650169  0.24963317  1
  Fe  Fe157  1  0.25036051  -0.00001342  0.62597129  1
  Fe  Fe158  1  0.74975643  0.33282622  0.62438299  1
  Fe  Fe159  1  0.75025644  0.16669100  0.87403496  1
  Fe  Fe160  1  0.00008313  0.16730251  0.49952214  1
  Fe  Fe161  1  0.74962903  0.66596774  0.37570168  1
  Fe  Fe162  1  0.75027515  -0.00014342  0.12605293  1
  Fe  Fe163  1  0.50102953  0.16590814  0.75019614  1
  Fe  Fe164  1  0.00016414  0.00102203  0.50056494  1
  Fe  Fe165  1  0.25073049  0.16586683  0.62458739  1
  Fe  Fe166  1  0.50018939  0.16655397  0.50046713  1
  Fe  Fe167  1  0.24945718  0.83418194  0.62598439  1
  Fe  Fe168  1  0.00002168  0.33425707  0.00122491  1
  Fe  Fe169  1  0.49991842  0.50012865  0.49899969  1
  Fe  Fe170  1  0.75092097  0.00048103  0.62391477  1
  Fe  Fe171  1  0.49994044  0.33311343  0.24977060  1
  Fe  Fe172  1  0.25071924  0.66795980  0.87395694  1
  Fe  Fe173  1  0.25043446  0.83423020  0.87461178  1
  Fe  Fe174  1  0.00040072  0.83312369  0.00028163  1
  Fe  Fe175  1  0.74987436  0.16626789  0.37538782  1
  Fe  Fe176  1  -0.00043613  0.66682802  0.75115464  1
  Fe  Fe177  1  0.24960351  0.33241059  0.37532947  1
  Fe  Fe178  1  0.25036801  -0.00013014  0.37636675  1
  Fe  Fe179  1  0.74966587  0.49942591  0.37525098  1
  Fe  Fe180  1  0.50011989  0.83354017  0.24984926  1
  Fe  Fe181  1  -0.00074939  0.16712382  0.25056093  1
  Fe  Fe182  1  0.74978522  0.83311152  0.37501955  1
  Fe  Fe183  1  0.50055008  0.49939059  0.74950653  1
  Fe  Fe184  1  -0.00050368  0.66673850  0.00059047  1
  Fe  Fe185  1  0.00057850  0.16730738  0.74919937  1
  Fe  Fe186  1  0.75022102  0.00000983  0.37520595  1
  Fe  Fe187  1  -0.00046197  0.33243096  0.49934153  1
  Fe  Fe188  1  0.25039644  0.00075450  0.87405021  1
  Fe  Fe189  1  -0.00044019  0.49996763  0.00037651  1
  Fe  Fe190  1  0.25052795  0.16657708  0.87384709  1
  Fe  Fe191  1  0.74953252  0.33270792  0.37582208  1
  P  P192  1  0.04197698  0.25202740  0.10348163  1
  P  P193  1  0.04084169  0.24973704  0.35234942  1
  P  P194  1  0.04163886  0.24987807  0.60127934  1
  P  P195  1  0.04274101  0.24919539  0.85238671  1
  P  P196  1  0.04092535  0.58287097  0.10184516  1
  P  P197  1  0.04193448  0.58118626  0.35221231  1
  P  P198  1  0.04257740  0.58332460  0.60384972  1
  P  P199  1  0.04159011  0.58469088  0.85381554  1
  P  P200  1  0.04234741  0.91600885  0.10248421  1
  P  P201  1  0.04194251  0.91751216  0.35432037  1
  P  P202  1  0.04170556  0.91818037  0.60281448  1
  P  P203  1  0.04271302  0.91625812  0.85389491  1
  P  P204  1  0.54285935  0.24890360  0.10250673  1
  P  P205  1  0.54189449  0.25123884  0.35296274  1
  P  P206  1  0.54227814  0.24819299  0.60284336  1
  P  P207  1  0.54294109  0.24831269  0.85230368  1
  P  P208  1  0.54209194  0.58181916  0.10262155  1
  P  P209  1  0.54176906  0.58419703  0.35207299  1
  P  P210  1  0.54222653  0.58143070  0.60195081  1
  P  P211  1  0.54224020  0.58135740  0.85229540  1
  P  P212  1  0.54240869  0.91740174  0.10276985  1
  P  P213  1  0.54195999  0.91608214  0.35262481  1
  P  P214  1  0.54237097  0.91865438  0.60257104  1
  P  P215  1  0.54280342  0.91867220  0.85258711  1
  P  P216  1  0.45739754  0.08335676  0.14607544  1
  P  P217  1  0.45891303  0.08365706  0.39891835  1
  P  P218  1  0.45928363  0.08338769  0.64792096  1
  P  P219  1  0.45994705  0.08344714  0.89767339  1
  P  P220  1  0.45770789  0.41485713  0.14676682  1
  P  P221  1  0.45761086  0.41753176  0.39717206  1
  P  P222  1  0.45825975  0.41745631  0.64695881  1
  P  P223  1  0.45819295  0.41765295  0.89666648  1
  P  P224  1  0.45871943  0.75012069  0.14819661  1
  P  P225  1  0.45722659  0.75040296  0.39572086  1
  P  P226  1  0.45688388  0.75022571  0.64657124  1
  P  P227  1  0.45734704  0.75014540  0.89630951  1
  P  P228  1  0.95733316  0.08521753  0.14803238  1
  P  P229  1  0.95860118  0.08418759  0.39843950  1
  P  P230  1  0.95873352  0.08502218  0.64646439  1
  P  P231  1  0.95737162  0.08425201  0.89640859  1
  P  P232  1  0.95776027  0.41670954  0.14831727  1
  P  P233  1  0.95776122  0.41451500  0.39687114  1
  P  P234  1  0.95715245  0.41587538  0.64657053  1
  P  P235  1  0.95851707  0.41637567  0.89882240  1
  P  P236  1  0.95716148  0.74991077  0.14613281  1
  P  P237  1  0.95635053  0.74937015  0.39700430  1
  P  P238  1  0.95706385  0.74860180  0.64826352  1
  P  P239  1  0.95824069  0.74968693  0.89881853  1
  P  P240  1  0.20704881  0.08330974  0.22863942  1
  P  P241  1  0.20849893  0.08176386  0.47894378  1
  P  P242  1  0.20915221  0.08354546  0.72713557  1
  P  P243  1  0.20874013  0.08377768  0.97557595  1
  P  P244  1  0.20712705  0.41612401  0.22816684  1
  P  P245  1  0.20751551  0.41458251  0.47778281  1
  P  P246  1  0.20742983  0.41804130  0.72730498  1
  P  P247  1  0.20692886  0.41692677  0.97766147  1
  P  P248  1  0.20664923  0.75072655  0.22830915  1
  P  P249  1  0.20651459  0.75041208  0.47934523  1
  P  P250  1  0.20791873  0.75212186  0.72847843  1
  P  P251  1  0.20886089  0.75071292  0.97595647  1
  P  P252  1  0.70810120  0.08186097  0.22860985  1
  P  P253  1  0.70927865  0.08308595  0.47712390  1
  P  P254  1  0.70907680  0.08354101  0.72572894  1
  P  P255  1  0.70829743  0.08498084  0.97727901  1
  P  P256  1  0.70723016  0.41610010  0.22967050  1
  P  P257  1  0.70850792  0.41607686  0.47722298  1
  P  P258  1  0.70903834  0.41618525  0.72627644  1
  P  P259  1  0.70778590  0.41796591  0.97728519  1
  P  P260  1  0.70797206  0.74856510  0.22885680  1
  P  P261  1  0.70802402  0.74968407  0.47648918  1
  P  P262  1  0.70674500  0.74960300  0.72794624  1
  P  P263  1  0.70712950  0.75033208  0.97876782  1
  P  P264  1  0.29282936  0.24931392  0.02058615  1
  P  P265  1  0.29248428  0.25091727  0.27286532  1
  P  P266  1  0.29240526  0.24840863  0.52240014  1
  P  P267  1  0.29247182  0.24857206  0.77149144  1
  P  P268  1  0.29279212  0.58455158  0.02095885  1
  P  P269  1  0.29284263  0.58346674  0.27192285  1
  P  P270  1  0.29208051  0.58161477  0.52274323  1
  P  P271  1  0.29199897  0.58488582  0.77174395  1
  P  P272  1  0.29271060  0.91710717  0.02055051  1
  P  P273  1  0.29248086  0.91840646  0.27333243  1
  P  P274  1  0.29153365  0.91685930  0.52419833  1
  P  P275  1  0.29163603  0.91732958  0.77266972  1
  P  P276  1  0.79300747  0.25028926  0.02175899  1
  P  P277  1  0.79101729  0.24979189  0.27419985  1
  P  P278  1  0.79063579  0.24973371  0.52229421  1
  P  P279  1  0.79207395  0.24846726  0.77110380  1
  P  P280  1  0.79166307  0.58457963  0.02316174  1
  P  P281  1  0.79087413  0.58341218  0.27396672  1
  P  P282  1  0.79164954  0.58156045  0.52174131  1
  P  P283  1  0.79228454  0.58094133  0.77238411  1
  P  P284  1  0.79250507  0.91852755  0.02317225  1
  P  P285  1  0.79128684  0.91676799  0.27366070  1
  P  P286  1  0.79209666  0.91792254  0.52138173  1
  P  P287  1  0.79333427  0.91716210  0.77109630  1
  O  O288  1  0.03626542  0.25165982  0.18332775  1
  O  O289  1  0.03563484  0.24978436  0.43228578  1
  O  O290  1  0.03689920  0.24938997  0.68126497  1
  O  O291  1  0.03780710  0.24998737  0.93226259  1
  O  O292  1  0.03597719  0.58199849  0.18182944  1
  O  O293  1  0.03710364  0.58123177  0.43219851  1
  O  O294  1  0.03725567  0.58403556  0.68381191  1
  O  O295  1  0.03612391  0.58447463  0.93369976  1
  O  O296  1  0.03740414  0.91626346  0.18253288  1
  O  O297  1  0.03630855  0.91809207  0.43423764  1
  O  O298  1  0.03694581  0.91803933  0.68282155  1
  O  O299  1  0.03740340  0.91576304  0.93384299  1
  O  O300  1  0.53727362  0.24979305  0.18243296  1
  O  O301  1  0.53672494  0.25071505  0.43291204  1
  O  O302  1  0.53722052  0.24797624  0.68278479  1
  O  O303  1  0.53781751  0.24833787  0.93226802  1
  O  O304  1  0.53625051  0.58280962  0.18251518  1
  O  O305  1  0.53682272  0.58379285  0.43201619  1
  O  O306  1  0.53716252  0.58100956  0.68195680  1
  O  O307  1  0.53698535  0.58111554  0.93227027  1
  O  O308  1  0.53675660  0.91661978  0.18269498  1
  O  O309  1  0.53692013  0.91677820  0.43257733  1
  O  O310  1  0.53750595  0.91887192  0.68256282  1
  O  O311  1  0.53753314  0.91873459  0.93255753  1
  O  O312  1  0.46316043  0.08321849  0.06623189  1
  O  O313  1  0.46293446  0.08364354  0.31889611  1
  O  O314  1  0.46419293  0.08345622  0.56797918  1
  O  O315  1  0.46543483  0.08352043  0.81775205  1
  O  O316  1  0.46312843  0.41543267  0.06682302  1
  O  O317  1  0.46269407  0.41654759  0.31722519  1
  O  O318  1  0.46332301  0.41757341  0.56699143  1
  O  O319  1  0.46367203  0.41777283  0.81669753  1
  O  O320  1  0.46370391  0.74988855  0.06816931  1
  O  O321  1  0.46272609  0.75042627  0.31580482  1
  O  O322  1  0.46177442  0.75038610  0.56657355  1
  O  O323  1  0.46250631  0.75016888  0.81638657  1
  O  O324  1  0.96244222  0.08496636  0.06807902  1
  O  O325  1  0.96331901  0.08456634  0.31844191  1
  O  O326  1  0.96438241  0.08452538  0.56657829  1
  O  O327  1  0.96278604  0.08462718  0.81645362  1
  O  O328  1  0.96299373  0.41684515  0.06839429  1
  O  O329  1  0.96304264  0.41467909  0.31698694  1
  O  O330  1  0.96234927  0.41522155  0.56664833  1
  O  O331  1  0.96328961  0.41670364  0.81884159  1
  O  O332  1  0.96277239  0.75020172  0.06620468  1
  O  O333  1  0.96139057  0.74938670  0.31702181  1
  O  O334  1  0.96208651  0.74899068  0.56828094  1
  O  O335  1  0.96307855  0.74919829  0.81880156  1
  O  O336  1  0.21318504  0.08372111  0.05562902  1
  O  O337  1  0.21216065  0.08300983  0.30860028  1
  O  O338  1  0.21400740  0.08223998  0.55882627  1
  O  O339  1  0.21426866  0.08392543  0.80705421  1
  O  O340  1  0.21211413  0.41680382  0.05761367  1
  O  O341  1  0.21227370  0.41532194  0.30816153  1
  O  O342  1  0.21265949  0.41527846  0.55773289  1
  O  O343  1  0.21258762  0.41782771  0.80722621  1
  O  O344  1  0.21357396  0.75062818  0.05600384  1
  O  O345  1  0.21126829  0.75056826  0.30836211  1
  O  O346  1  0.21186558  0.75089148  0.55929537  1
  O  O347  1  0.21409502  0.75188514  0.80831266  1
  O  O348  1  0.71319589  0.08432231  0.05718239  1
  O  O349  1  0.71341367  0.08199141  0.30850964  1
  O  O350  1  0.71452344  0.08337759  0.55699173  1
  O  O351  1  0.71404063  0.08419426  0.80567875  1
  O  O352  1  0.71247423  0.41784254  0.05727305  1
  O  O353  1  0.71246490  0.41565275  0.30956543  1
  O  O354  1  0.71363140  0.41658968  0.55712021  1
  O  O355  1  0.71394829  0.41630397  0.80622515  1
  O  O356  1  0.71240677  0.75005243  0.05875457  1
  O  O357  1  0.71352161  0.74854968  0.30871999  1
  O  O358  1  0.71273608  0.75000628  0.55650190  1
  O  O359  1  0.71186176  0.74968582  0.80793212  1
  O  O360  1  0.28768800  0.25059117  0.19285527  1
  O  O361  1  0.28703559  0.24919100  0.44248192  1
  O  O362  1  0.28724015  0.24824893  0.69152270  1
  O  O363  1  0.28768196  0.24887923  0.94059558  1
  O  O364  1  0.28792830  0.58365539  0.19189258  1
  O  O365  1  0.28681528  0.58157736  0.44278803  1
  O  O366  1  0.28652243  0.58402545  0.69183327  1
  O  O367  1  0.28771218  0.58530004  0.94095681  1
  O  O368  1  0.28761763  0.91821323  0.19333378  1
  O  O369  1  0.28638778  0.91736893  0.44424389  1
  O  O370  1  0.28628303  0.91723167  0.69277424  1
  O  O371  1  0.28765823  0.91691622  0.94061372  1
  O  O372  1  0.78652840  0.24955974  0.19420210  1
  O  O373  1  0.78563221  0.25011644  0.44243105  1
  O  O374  1  0.78650607  0.24864783  0.69123724  1
  O  O375  1  0.78808171  0.25009217  0.94178785  1
  O  O376  1  0.78611414  0.58371749  0.19399914  1
  O  O377  1  0.78604852  0.58222383  0.44188637  1
  O  O378  1  0.78713516  0.58067412  0.69239800  1
  O  O379  1  0.78669613  0.58380028  0.94323411  1
  O  O380  1  0.78646861  0.91700754  0.19366212  1
  O  O381  1  0.78640482  0.91757946  0.44151764  1
  O  O382  1  0.78820482  0.91732094  0.69111323  1
  O  O383  1  0.78764325  0.91836839  0.94315832  1
  O  O384  1  0.22844937  0.24962866  0.05587089  1
  O  O385  1  0.22802559  0.25074757  0.30807104  1
  O  O386  1  0.22819071  0.24796178  0.55820639  1
  O  O387  1  0.22818317  0.24859975  0.80708063  1
  O  O388  1  0.22834138  0.58419075  0.05608152  1
  O  O389  1  0.22833003  0.58288731  0.30677407  1
  O  O390  1  0.22778587  0.58185030  0.55831035  1
  O  O391  1  0.22784260  0.58575313  0.80768882  1
  O  O392  1  0.22836065  0.91706859  0.05605700  1
  O  O393  1  0.22801444  0.91904153  0.30862075  1
  O  O394  1  0.22739485  0.91697498  0.56032461  1
  O  O395  1  0.22774265  0.91715996  0.80925535  1
  O  O396  1  0.72861699  0.24991920  0.05695701  1
  O  O397  1  0.72675892  0.25024499  0.30970812  1
  O  O398  1  0.72672319  0.24918259  0.55871283  1
  O  O399  1  0.72808049  0.24861247  0.80761702  1
  O  O400  1  0.72737258  0.58498144  0.05887613  1
  O  O401  1  0.72669980  0.58360857  0.30975838  1
  O  O402  1  0.72758792  0.58097700  0.55804596  1
  O  O403  1  0.72792960  0.58078644  0.80792743  1
  O  O404  1  0.72817078  0.91846458  0.05867145  1
  O  O405  1  0.72715668  0.91734010  0.30954741  1
  O  O406  1  0.72805507  0.91861455  0.55776995  1
  O  O407  1  0.72898097  0.91734973  0.80639167  1
  O  O408  1  0.27149690  0.08347436  0.19349921  1
  O  O409  1  0.27260349  0.08173974  0.44272123  1
  O  O410  1  0.27325773  0.08339531  0.69091260  1
  O  O411  1  0.27310601  0.08380371  0.94021204  1
  O  O412  1  0.27154019  0.41669025  0.19300288  1
  O  O413  1  0.27183136  0.41411879  0.44214147  1
  O  O414  1  0.27176844  0.41795673  0.69180712  1
  O  O415  1  0.27133729  0.41709134  0.94259017  1
  O  O416  1  0.27130098  0.75078707  0.19376393  1
  O  O417  1  0.27081485  0.75037259  0.44390254  1
  O  O418  1  0.27182174  0.75227405  0.69177911  1
  O  O419  1  0.27306993  0.75073225  0.94018644  1
  O  O420  1  0.77231323  0.08167554  0.19260665  1
  O  O421  1  0.77326367  0.08267448  0.44077085  1
  O  O422  1  0.77322061  0.08339682  0.68966541  1
  O  O423  1  0.77261426  0.08567834  0.94155939  1
  O  O424  1  0.77149572  0.41660752  0.19403453  1
  O  O425  1  0.77245684  0.41542541  0.44077116  1
  O  O426  1  0.77309056  0.41634758  0.69015704  1
  O  O427  1  0.77224781  0.41781605  0.94206436  1
  O  O428  1  0.77197275  0.74853322  0.19235823  1
  O  O429  1  0.77224578  0.74914245  0.44092352  1
  O  O430  1  0.77114947  0.74962471  0.69286890  1
  O  O431  1  0.77146745  0.74998582  0.94336177  1
  O  O432  1  0.02171708  0.08581666  0.18341829  1
  O  O433  1  0.02277749  0.08441145  0.43427536  1
  O  O434  1  0.02275014  0.08548026  0.68297223  1
  O  O435  1  0.02163087  0.08388496  0.93187965  1
  O  O436  1  0.02182769  0.41662872  0.18467207  1
  O  O437  1  0.02190507  0.41411342  0.43298955  1
  O  O438  1  0.02144198  0.41654582  0.68196211  1
  O  O439  1  0.02265148  0.41602266  0.93467400  1
  O  O440  1  0.02132361  0.74950856  0.18196178  1
  O  O441  1  0.02079702  0.74993753  0.43196675  1
  O  O442  1  0.02146842  0.74813386  0.68366735  1
  O  O443  1  0.02245813  0.74955163  0.93469093  1
  O  O444  1  0.52147026  0.08328800  0.18212879  1
  O  O445  1  0.52333786  0.08367007  0.43397080  1
  O  O446  1  0.52350251  0.08327396  0.68390731  1
  O  O447  1  0.52382542  0.08347582  0.93452467  1
  O  O448  1  0.52183727  0.41483317  0.18284679  1
  O  O449  1  0.52194556  0.41794116  0.43276294  1
  O  O450  1  0.52259326  0.41685640  0.68246081  1
  O  O451  1  0.52237784  0.41768820  0.93266523  1
  O  O452  1  0.52282186  0.75051330  0.18418578  1
  O  O453  1  0.52142705  0.75047585  0.43151600  1
  O  O454  1  0.52139384  0.75005980  0.68136309  1
  O  O455  1  0.52167309  0.74993243  0.93156833  1
  O  O456  1  0.47878609  0.24809589  0.06626658  1
  O  O457  1  0.47766576  0.25172368  0.31712064  1
  O  O458  1  0.47802604  0.24854378  0.56721346  1
  O  O459  1  0.47867117  0.24839258  0.81663803  1
  O  O460  1  0.47801942  0.58086233  0.06631781  1
  O  O461  1  0.47754597  0.58426262  0.31644433  1
  O  O462  1  0.47788328  0.58153941  0.56640506  1
  O  O463  1  0.47799454  0.58148726  0.81655403  1
  O  O464  1  0.47831354  0.91821613  0.06663707  1
  O  O465  1  0.47766397  0.91512906  0.31703173  1
  O  O466  1  0.47797674  0.91868069  0.56728711  1
  O  O467  1  0.47856136  0.91904564  0.81680547  1
  O  O468  1  0.97786884  0.25229137  0.06718733  1
  O  O469  1  0.97678593  0.24950743  0.31597577  1
  O  O470  1  0.97733736  0.25004363  0.56552518  1
  O  O471  1  0.97836801  0.24828371  0.81678062  1
  O  O472  1  0.97678331  0.58373821  0.06594888  1
  O  O473  1  0.97748707  0.58081994  0.31697615  1
  O  O474  1  0.97823713  0.58252125  0.56851581  1
  O  O475  1  0.97747720  0.58493105  0.81749520  1
  O  O476  1  0.97793166  0.91575611  0.06728185  1
  O  O477  1  0.97777746  0.91750634  0.31851959  1
  O  O478  1  0.97739970  0.91842571  0.56745055  1
  O  O479  1  0.97846805  0.91696688  0.81843884  1
  O  O480  1  0.07286109  0.31546537  0.07480145  1
  O  O481  1  0.07166287  0.31330460  0.32386621  1
  O  O482  1  0.07228400  0.31368673  0.57317774  1
  O  O483  1  0.07340177  0.31288159  0.82393735  1
  O  O484  1  0.07234237  0.64641775  0.07420163  1
  O  O485  1  0.07262158  0.64504737  0.32439708  1
  O  O486  1  0.07349173  0.64661795  0.57505460  1
  O  O487  1  0.07249432  0.64813430  0.82515478  1
  O  O488  1  0.07325014  0.97983233  0.07480132  1
  O  O489  1  0.07340640  0.98064451  0.32583635  1
  O  O490  1  0.07253233  0.98171629  0.57444741  1
  O  O491  1  0.07416961  0.97967549  0.82609278  1
  O  O492  1  0.57391086  0.31236292  0.07415924  1
  O  O493  1  0.57264419  0.31476466  0.32443531  1
  O  O494  1  0.57344081  0.31189799  0.57527157  1
  O  O495  1  0.57383446  0.31216777  0.82455001  1
  O  O496  1  0.57294886  0.64544428  0.07444160  1
  O  O497  1  0.57227994  0.64789908  0.32346654  1
  O  O498  1  0.57311549  0.64544016  0.57462449  1
  O  O499  1  0.57324404  0.64522057  0.82472007  1
  O  O500  1  0.57353369  0.98096048  0.07479669  1
  O  O501  1  0.57266001  0.97979031  0.32445840  1
  O  O502  1  0.57317931  0.98192590  0.57347014  1
  O  O503  1  0.57410676  0.98181184  0.82393851  1
  O  O504  1  0.42587009  0.02018317  0.17454466  1
  O  O505  1  0.42841819  0.01989996  0.42744944  1
  O  O506  1  0.42836350  0.01989497  0.67662170  1
  O  O507  1  0.42894712  0.01978430  0.92576241  1
  O  O508  1  0.42729155  0.35105180  0.17514394  1
  O  O509  1  0.42646788  0.35433538  0.42595162  1
  O  O510  1  0.42698718  0.35377884  0.67460188  1
  O  O511  1  0.42726383  0.35360464  0.92386824  1
  O  O512  1  0.42830926  0.68608920  0.17619874  1
  O  O513  1  0.42601122  0.68701318  0.42411329  1
  O  O514  1  0.42589084  0.68665360  0.67443898  1
  O  O515  1  0.42625412  0.68670234  0.92442226  1
  O  O516  1  0.92677275  0.02132526  0.17594824  1
  O  O517  1  0.92824529  0.02025625  0.42675809  1
  O  O518  1  0.92751978  0.02155141  0.67460592  1
  O  O519  1  0.92618910  0.02065686  0.92434041  1
  O  O520  1  0.92672322  0.35322652  0.17676643  1
  O  O521  1  0.92667241  0.35120100  0.42566209  1
  O  O522  1  0.92629712  0.35244242  0.67516084  1
  O  O523  1  0.92745812  0.35281151  0.92671168  1
  O  O524  1  0.92575944  0.68648374  0.17418439  1
  O  O525  1  0.92583294  0.68557462  0.42505598  1
  O  O526  1  0.92617350  0.68519816  0.67671181  1
  O  O527  1  0.92688828  0.68648564  0.92734776  1
  O  O528  1  0.17581542  0.02021882  0.19981381  1
  O  O529  1  0.17767941  0.01824526  0.45048657  1
  O  O530  1  0.17813553  0.01978331  0.69923557  1
  O  O531  1  0.17816556  0.01996049  0.94728929  1
  O  O532  1  0.17609495  0.35289445  0.19945427  1
  O  O533  1  0.17692721  0.35081194  0.44945848  1
  O  O534  1  0.17632923  0.35432407  0.69968599  1
  O  O535  1  0.17605675  0.35343906  0.94932693  1
  O  O536  1  0.17574597  0.68728444  0.19980393  1
  O  O537  1  0.17565845  0.68661290  0.45145077  1
  O  O538  1  0.17651526  0.68863405  0.70065726  1
  O  O539  1  0.17811919  0.68698394  0.94777524  1
  O  O540  1  0.67728591  0.01846654  0.19962967  1
  O  O541  1  0.67768916  0.01994329  0.44877617  1
  O  O542  1  0.67846061  0.01962546  0.69780226  1
  O  O543  1  0.67750158  0.02137964  0.94886858  1
  O  O544  1  0.67628618  0.35281343  0.20065423  1
  O  O545  1  0.67698511  0.35259613  0.44949058  1
  O  O546  1  0.67865035  0.35206255  0.69809795  1
  O  O547  1  0.67671296  0.35440603  0.94922535  1
  O  O548  1  0.67704379  0.68521912  0.19997002  1
  O  O549  1  0.67671038  0.68616989  0.44876464  1
  O  O550  1  0.67586636  0.68591239  0.69996899  1
  O  O551  1  0.67547932  0.68731891  0.95030623  1
  O  O552  1  0.32386399  0.31300191  0.04844094  1
  O  O553  1  0.32292142  0.31450117  0.30154189  1
  O  O554  1  0.32363436  0.31174297  0.55076752  1
  O  O555  1  0.32334062  0.31257944  0.79884972  1
  O  O556  1  0.32401382  0.64766768  0.04975700  1
  O  O557  1  0.32336884  0.64708133  0.30046090  1
  O  O558  1  0.32339349  0.64524459  0.55013094  1
  O  O559  1  0.32303590  0.64854987  0.79961179  1
  O  O560  1  0.32372370  0.98057226  0.04896943  1
  O  O561  1  0.32348332  0.98170088  0.30209231  1
  O  O562  1  0.32273139  0.98021666  0.55266555  1
  O  O563  1  0.32231908  0.98126326  0.80081706  1
  O  O564  1  0.82345634  0.31418824  0.05002271  1
  O  O565  1  0.82225973  0.31313094  0.30230058  1
  O  O566  1  0.82101712  0.31350803  0.55132134  1
  O  O567  1  0.82346969  0.31198036  0.79908532  1
  O  O568  1  0.82227011  0.64824644  0.05158983  1
  O  O569  1  0.82240297  0.64645764  0.30248309  1
  O  O570  1  0.82256968  0.64518639  0.55016260  1
  O  O571  1  0.82298044  0.64488362  0.80012738  1
  O  O572  1  0.82309521  0.98213553  0.05169695  1
  O  O573  1  0.82303262  0.97978452  0.30205567  1
  O  O574  1  0.82347995  0.98119595  0.54981891  1
  O  O575  1  0.82474298  0.98041431  0.79932499  1
  O  O576  1  0.42621066  0.14677116  0.17450042  1
  O  O577  1  0.42830399  0.14739339  0.42726567  1
  O  O578  1  0.42845810  0.14694100  0.67661783  1
  O  O579  1  0.42893733  0.14705430  0.92585350  1
  O  O580  1  0.42617504  0.47815515  0.17473603  1
  O  O581  1  0.42705748  0.48141432  0.42514807  1
  O  O582  1  0.42764491  0.48083457  0.67588986  1
  O  O583  1  0.42707900  0.48070834  0.92560296  1
  O  O584  1  0.42761431  0.81373968  0.17604060  1
  O  O585  1  0.42585595  0.81364035  0.42427597  1
  O  O586  1  0.42613180  0.81380298  0.67484005  1
  O  O587  1  0.42650397  0.81373934  0.92441498  1
  O  O588  1  0.92626549  0.14852430  0.17652575  1
  O  O589  1  0.92730554  0.14748690  0.42683720  1
  O  O590  1  0.92771573  0.14856001  0.67468060  1
  O  O591  1  0.92616086  0.14745179  0.92487327  1
  O  O592  1  0.92692060  0.48038099  0.17680842  1
  O  O593  1  0.92678174  0.47813515  0.42497459  1
  O  O594  1  0.92583382  0.47922505  0.67463635  1
  O  O595  1  0.92817388  0.48030888  0.92729086  1
  O  O596  1  0.92599114  0.81324333  0.17469245  1
  O  O597  1  0.92504875  0.81265114  0.42520250  1
  O  O598  1  0.92643794  0.81254066  0.67606585  1
  O  O599  1  0.92792896  0.81385487  0.92673855  1
  O  O600  1  0.07322508  0.18852751  0.07531487  1
  O  O601  1  0.07195276  0.18616117  0.32413322  1
  O  O602  1  0.07258232  0.18648936  0.57260697  1
  O  O603  1  0.07368618  0.18583021  0.82368774  1
  O  O604  1  0.07120725  0.51909780  0.07296238  1
  O  O605  1  0.07281893  0.51778377  0.32369450  1
  O  O606  1  0.07385293  0.51979453  0.57598959  1
  O  O607  1  0.07270674  0.52107436  0.82575588  1
  O  O608  1  0.07308842  0.85249788  0.07394143  1
  O  O609  1  0.07291327  0.85375308  0.32665372  1
  O  O610  1  0.07249944  0.85431143  0.57523602  1
  O  O611  1  0.07349483  0.85284441  0.82523444  1
  O  O612  1  0.57401042  0.18533423  0.07469559  1
  O  O613  1  0.57289881  0.18760226  0.32498432  1
  O  O614  1  0.57298653  0.18491020  0.57367428  1
  O  O615  1  0.57394696  0.18511279  0.82353952  1
  O  O616  1  0.57326327  0.51818166  0.07500927  1
  O  O617  1  0.57313396  0.52081191  0.32415699  1
  O  O618  1  0.57306793  0.51827309  0.57269665  1
  O  O619  1  0.57318886  0.51812766  0.82328885  1
  O  O620  1  0.57344676  0.85385628  0.07466070  1
  O  O621  1  0.57305912  0.85269971  0.32421207  1
  O  O622  1  0.57331821  0.85488235  0.57478844  1
  O  O623  1  0.57353106  0.85475776  0.82479013  1
  O  O624  1  0.32387769  0.18612147  0.04937956  1
  O  O625  1  0.32368397  0.18740347  0.30083573  1
  O  O626  1  0.32329010  0.18473837  0.55039813  1
  O  O627  1  0.32352248  0.18539470  0.80031956  1
  O  O628  1  0.32364600  0.52075675  0.04873926  1
  O  O629  1  0.32418788  0.52005472  0.29972518  1
  O  O630  1  0.32253920  0.51794507  0.55129797  1
  O  O631  1  0.32298129  0.52136985  0.79995641  1
  O  O632  1  0.32379284  0.85382209  0.04946149  1
  O  O633  1  0.32292788  0.85452268  0.30136778  1
  O  O634  1  0.32208567  0.85290404  0.55204290  1
  O  O635  1  0.32305266  0.85407492  0.80099546  1
  O  O636  1  0.82451051  0.18736929  0.05053937  1
  O  O637  1  0.82117229  0.18573447  0.30259544  1
  O  O638  1  0.82222684  0.18641324  0.55025998  1
  O  O639  1  0.82283142  0.18502568  0.79982171  1
  O  O640  1  0.82271121  0.52112043  0.05152872  1
  O  O641  1  0.82099783  0.51914749  0.30210223  1
  O  O642  1  0.82294783  0.51815424  0.54984175  1
  O  O643  1  0.82330064  0.51777840  0.80142088  1
  O  O644  1  0.82350364  0.85490650  0.05100630  1
  O  O645  1  0.82119419  0.85241504  0.30174394  1
  O  O646  1  0.82294940  0.85415294  0.54935415  1
  O  O647  1  0.82405084  0.85354522  0.79960215  1
  O  O648  1  0.17624072  0.14700718  0.20045815  1
  O  O649  1  0.17717429  0.14515492  0.45069138  1
  O  O650  1  0.17820587  0.14690286  0.69822113  1
  O  O651  1  0.17786870  0.14736732  0.94739285  1
  O  O652  1  0.17608886  0.47981382  0.20035940  1
  O  O653  1  0.17633694  0.47795629  0.44952998  1
  O  O654  1  0.17683766  0.48168005  0.69898711  1
  O  O655  1  0.17575698  0.48042647  0.94991256  1
  O  O656  1  0.17590307  0.81430487  0.19998152  1
  O  O657  1  0.17519115  0.81359129  0.45093034  1
  O  O658  1  0.17679512  0.81559004  0.70023722  1
  O  O659  1  0.17805768  0.81446352  0.94810286  1
  O  O660  1  0.67700447  0.14548050  0.20062531  1
  O  O661  1  0.67877892  0.14698684  0.44855834  1
  O  O662  1  0.67803996  0.14687411  0.69704873  1
  O  O663  1  0.67757163  0.14845903  0.94855286  1
  O  O664  1  0.67588310  0.47952228  0.20161264  1
  O  O665  1  0.67816546  0.47985517  0.44825079  1
  O  O666  1  0.67768080  0.47932367  0.69777151  1
  O  O667  1  0.67740598  0.48155539  0.94851016  1
  O  O668  1  0.67678721  0.81222069  0.20110444  1
  O  O669  1  0.67792925  0.81373993  0.44802351  1
  O  O670  1  0.67561172  0.81294379  0.69968377  1
  O  O671  1  0.67657424  0.81425638  0.95081979  1
