# generated using pymatgen
data_Na2MnFe(PO4)2
_symmetry_space_group_name_H-M   'P 1'
_cell_length_a   22.33969303
_cell_length_b   20.08915677
_cell_length_c   19.45285608
_cell_angle_alpha   90.00626227
_cell_angle_beta   89.98569561
_cell_angle_gamma   89.95873923
_symmetry_Int_Tables_number   1
_chemical_formula_structural   Na2MnFe(PO4)2
_chemical_formula_sum   'Na96 Mn48 Fe48 P96 O384'
_cell_volume   8730.15901085
_cell_formula_units_Z   48
loop_
 _symmetry_equiv_pos_site_id
 _symmetry_equiv_pos_as_xyz
  1  'x, y, z'
loop_
 _atom_site_type_symbol
 _atom_site_label
 _atom_site_symmetry_multiplicity
 _atom_site_fract_x
 _atom_site_fract_y
 _atom_site_fract_z
 _atom_site_occupancy
  Na  Na0  1  0.14063808  0.24955188  0.24332069  1
  Na  Na1  1  0.14057607  0.24948632  0.49401803  1
  Na  Na2  1  0.14041810  0.24927421  0.74304139  1
  Na  Na3  1  0.14049994  0.24943385  0.99334878  1
  Na  Na4  1  0.14060680  0.58481689  0.24410004  1
  Na  Na5  1  0.14081641  0.58330016  0.49414564  1
  Na  Na6  1  0.14045035  0.58410963  0.74386844  1
  Na  Na7  1  0.14043232  0.58511126  0.99234610  1
  Na  Na8  1  0.14047577  0.91856658  0.24425215  1
  Na  Na9  1  0.13941647  0.91711743  0.49396579  1
  Na  Na10  1  0.13986184  0.91645165  0.74368353  1
  Na  Na11  1  0.14043607  0.91720642  0.99310392  1
  Na  Na12  1  0.64039734  0.25057195  0.24224530  1
  Na  Na13  1  0.64027004  0.25063664  0.49364710  1
  Na  Na14  1  0.64036918  0.24951574  0.74426950  1
  Na  Na15  1  0.64029819  0.25051628  0.99479592  1
  Na  Na16  1  0.64027231  0.58244563  0.24361193  1
  Na  Na17  1  0.64044598  0.58171849  0.49375053  1
  Na  Na18  1  0.64038907  0.58070483  0.74364898  1
  Na  Na19  1  0.64010004  0.58406509  0.99401020  1
  Na  Na20  1  0.64059493  0.91653634  0.24410501  1
  Na  Na21  1  0.63970667  0.91540186  0.49312706  1
  Na  Na22  1  0.64015692  0.91476054  0.74356737  1
  Na  Na23  1  0.64111066  0.91796193  0.99420556  1
  Na  Na24  1  0.35957119  0.08368811  0.00646637  1
  Na  Na25  1  0.35975916  0.08404699  0.25626206  1
  Na  Na26  1  0.35940078  0.08244541  0.50622376  1
  Na  Na27  1  0.35923825  0.08230102  0.75569342  1
  Na  Na28  1  0.35909867  0.41700702  0.00581212  1
  Na  Na29  1  0.36021378  0.41673954  0.25726229  1
  Na  Na30  1  0.36014921  0.41632681  0.50700783  1
  Na  Na31  1  0.35988827  0.41756712  0.75569449  1
  Na  Na32  1  0.35934596  0.75063750  0.00525001  1
  Na  Na33  1  0.35941587  0.75130040  0.25648117  1
  Na  Na34  1  0.35923292  0.75101775  0.50736517  1
  Na  Na35  1  0.35897004  0.75051056  0.75682313  1
  Na  Na36  1  0.85983180  0.08416345  0.00724233  1
  Na  Na37  1  0.86032827  0.08410224  0.25590028  1
  Na  Na38  1  0.85976942  0.08298928  0.50669499  1
  Na  Na39  1  0.85969017  0.08174060  0.75747198  1
  Na  Na40  1  0.85929335  0.41691259  0.00727900  1
  Na  Na41  1  0.85953923  0.41762128  0.25501429  1
  Na  Na42  1  0.85954308  0.41664035  0.50561638  1
  Na  Na43  1  0.85949292  0.41472801  0.75671867  1
  Na  Na44  1  0.85958975  0.75009949  0.00633141  1
  Na  Na45  1  0.85989779  0.74927361  0.25536892  1
  Na  Na46  1  0.85994913  0.74966457  0.50620631  1
  Na  Na47  1  0.85956474  0.74795697  0.75698296  1
  Na  Na48  1  0.11063424  0.08406178  0.11832333  1
  Na  Na49  1  0.10957369  0.08263905  0.36863984  1
  Na  Na50  1  0.10917964  0.08182354  0.61923776  1
  Na  Na51  1  0.10968528  0.08132636  0.86831011  1
  Na  Na52  1  0.10952821  0.41768669  0.11841022  1
  Na  Na53  1  0.11012535  0.41668102  0.36885880  1
  Na  Na54  1  0.11019755  0.41671049  0.61855583  1
  Na  Na55  1  0.10955700  0.41638688  0.86780668  1
  Na  Na56  1  0.10979732  0.75112781  0.11855780  1
  Na  Na57  1  0.10978799  0.75254794  0.36922597  1
  Na  Na58  1  0.10960398  0.75197439  0.61939432  1
  Na  Na59  1  0.10957119  0.75060931  0.86734616  1
  Na  Na60  1  0.61044584  0.08456519  0.11859635  1
  Na  Na61  1  0.60938847  0.08353912  0.36853690  1
  Na  Na62  1  0.60923417  0.08329473  0.61876279  1
  Na  Na63  1  0.61000139  0.08506334  0.86964730  1
  Na  Na64  1  0.60976225  0.41702282  0.11884536  1
  Na  Na65  1  0.60978681  0.41518180  0.36809075  1
  Na  Na66  1  0.60985824  0.41586086  0.61892923  1
  Na  Na67  1  0.60986418  0.41663827  0.86906471  1
  Na  Na68  1  0.60949646  0.74948788  0.11882876  1
  Na  Na69  1  0.60935503  0.74879948  0.36921033  1
  Na  Na70  1  0.60946145  0.74877170  0.61777642  1
  Na  Na71  1  0.60962261  0.74876149  0.86863142  1
  Na  Na72  1  0.39042969  0.25035339  0.13207780  1
  Na  Na73  1  0.39045936  0.25056726  0.38113351  1
  Na  Na74  1  0.39044439  0.25181394  0.63065195  1
  Na  Na75  1  0.39024562  0.25077914  0.88038930  1
  Na  Na76  1  0.39009356  0.58329807  0.13060393  1
  Na  Na77  1  0.39084625  0.58219015  0.38203561  1
  Na  Na78  1  0.39036705  0.58192392  0.63172199  1
  Na  Na79  1  0.38965591  0.58278746  0.88100232  1
  Na  Na80  1  0.39038269  0.91810842  0.13127601  1
  Na  Na81  1  0.38998261  0.91669065  0.38264310  1
  Na  Na82  1  0.38936920  0.91679849  0.63084228  1
  Na  Na83  1  0.38981751  0.91705100  0.88205200  1
  Na  Na84  1  0.89037210  0.24993355  0.13188150  1
  Na  Na85  1  0.89019849  0.24929501  0.38048002  1
  Na  Na86  1  0.89030472  0.24899671  0.63159800  1
  Na  Na87  1  0.89058075  0.24811044  0.88192858  1
  Na  Na88  1  0.89017099  0.58391988  0.13088690  1
  Na  Na89  1  0.89050920  0.58551047  0.38082846  1
  Na  Na90  1  0.89043232  0.58409915  0.63154533  1
  Na  Na91  1  0.89022964  0.58255709  0.88185324  1
  Na  Na92  1  0.89077650  0.91783753  0.13122666  1
  Na  Na93  1  0.89061020  0.91721239  0.38057137  1
  Na  Na94  1  0.89056903  0.91601338  0.63171772  1
  Na  Na95  1  0.89008236  0.91530973  0.88152995  1
  Mn  Mn96  1  0.49985232  0.00043891  0.75005136  1
  Mn  Mn97  1  0.00064595  0.50039176  -0.00033327  1
  Mn  Mn98  1  0.25003857  0.50052544  0.12480567  1
  Mn  Mn99  1  0.75042296  0.83178732  0.37392856  1
  Mn  Mn100  1  0.00014957  0.50099618  0.49974058  1
  Mn  Mn101  1  0.49915317  0.50021987  -0.00018985  1
  Mn  Mn102  1  0.75018413  0.33277997  0.87611674  1
  Mn  Mn103  1  0.74978113  -0.00001438  0.87529149  1
  Mn  Mn104  1  0.25050186  0.66774370  0.37559029  1
  Mn  Mn105  1  0.49985116  0.66555405  0.50005419  1
  Mn  Mn106  1  0.75010384  0.83343245  0.12522506  1
  Mn  Mn107  1  0.00013032  0.83447130  0.24928539  1
  Mn  Mn108  1  -0.00059777  0.50017519  0.75019584  1
  Mn  Mn109  1  0.25001166  0.66734881  0.62530608  1
  Mn  Mn110  1  0.50078901  0.00086988  0.25046972  1
  Mn  Mn111  1  0.49988142  0.83341740  0.25020091  1
  Mn  Mn112  1  0.75049560  0.49995101  0.37508443  1
  Mn  Mn113  1  0.49965285  0.83302433  0.75022093  1
  Mn  Mn114  1  0.00007880  0.16514368  0.50061391  1
  Mn  Mn115  1  0.74944487  -0.00130671  0.62566711  1
  Mn  Mn116  1  0.00087925  0.66864458  0.50067343  1
  Mn  Mn117  1  0.50061899  0.83276512  0.00049960  1
  Mn  Mn118  1  0.74957894  0.16775756  0.37524913  1
  Mn  Mn119  1  -0.00012038  0.33204370  0.74977146  1
  Mn  Mn120  1  0.00013857  0.16588422  -0.00001026  1
  Mn  Mn121  1  0.50035142  0.00145049  0.00069834  1
  Mn  Mn122  1  0.50008465  0.16710623  0.49974641  1
  Mn  Mn123  1  0.49909605  0.16820066  0.74861978  1
  Mn  Mn124  1  0.74989868  0.66571566  0.87540153  1
  Mn  Mn125  1  0.49917729  0.33308376  0.00022569  1
  Mn  Mn126  1  0.75036047  0.49850683  0.62428587  1
  Mn  Mn127  1  0.24928872  0.33316114  0.12450944  1
  Mn  Mn128  1  0.49954705  0.66524063  0.74875173  1
  Mn  Mn129  1  0.25040847  0.33391208  0.87430825  1
  Mn  Mn130  1  0.25002547  0.66783054  0.12454799  1
  Mn  Mn131  1  0.24969544  0.83500517  0.12523544  1
  Mn  Mn132  1  0.74977638  0.16666868  0.62535358  1
  Mn  Mn133  1  0.49900094  0.66579343  0.25049718  1
  Mn  Mn134  1  0.24995248  0.16682073  0.37548089  1
  Mn  Mn135  1  0.00018652  0.33276031  0.49973823  1
  Mn  Mn136  1  0.25036054  0.49952615  0.37496112  1
  Mn  Mn137  1  0.24984183  0.16599208  0.62430063  1
  Mn  Mn138  1  0.00010797  0.50157381  0.24893850  1
  Mn  Mn139  1  0.75015061  0.00008065  0.37476223  1
  Mn  Mn140  1  0.74991582  0.83076757  0.62408041  1
  Mn  Mn141  1  0.00022379  0.83333428  -0.00005488  1
  Mn  Mn142  1  -0.00022959  0.33308598  0.24983473  1
  Mn  Mn143  1  0.25028724  0.16569054  0.87381272  1
  Fe  Fe144  1  0.24933393  -0.00077544  0.62514352  1
  Fe  Fe145  1  0.25001379  0.00032258  0.37516712  1
  Fe  Fe146  1  0.25057192  0.16653611  0.12478873  1
  Fe  Fe147  1  0.50059390  0.33357068  0.49952113  1
  Fe  Fe148  1  0.75039250  0.33237722  0.62549386  1
  Fe  Fe149  1  0.00032026  0.16524394  0.75066352  1
  Fe  Fe150  1  0.24968208  -0.00027837  0.87514434  1
  Fe  Fe151  1  0.50023928  0.49933607  0.75029595  1
  Fe  Fe152  1  0.74943507  0.66655283  0.12455154  1
  Fe  Fe153  1  0.49942843  -0.00013011  0.49963866  1
  Fe  Fe154  1  0.24930657  0.50058151  0.87458091  1
  Fe  Fe155  1  0.25016755  0.33372557  0.62473089  1
  Fe  Fe156  1  0.24974428  0.33342147  0.37514569  1
  Fe  Fe157  1  -0.00034497  -0.00109391  0.74969754  1
  Fe  Fe158  1  0.25021305  0.83445340  0.87498855  1
  Fe  Fe159  1  0.75056191  0.00076625  0.12453585  1
  Fe  Fe160  1  0.00013206  0.66707880  -0.00033005  1
  Fe  Fe161  1  0.74997152  0.49949679  0.87548123  1
  Fe  Fe162  1  0.24946821  0.83422735  0.62559447  1
  Fe  Fe163  1  -0.00086701  0.00000085  0.50033572  1
  Fe  Fe164  1  0.74984537  0.33405482  0.12433704  1
  Fe  Fe165  1  -0.00071039  0.83325097  0.75032134  1
  Fe  Fe166  1  0.00038062  0.66795966  0.25011675  1
  Fe  Fe167  1  0.24993406  0.66756903  0.87418258  1
  Fe  Fe168  1  0.25060467  0.00037018  0.12497857  1
  Fe  Fe169  1  0.49931516  0.83316727  0.49989693  1
  Fe  Fe170  1  0.49967086  0.66616746  -0.00002377  1
  Fe  Fe171  1  -0.00009172  -0.00004849  -0.00014628  1
  Fe  Fe172  1  0.74995569  0.50062204  0.12552997  1
  Fe  Fe173  1  0.75053941  0.16733611  0.12546932  1
  Fe  Fe174  1  0.49986340  0.33328286  0.25030244  1
  Fe  Fe175  1  0.24981378  0.83458275  0.37561947  1
  Fe  Fe176  1  0.00014720  0.66696694  0.74999539  1
  Fe  Fe177  1  -0.00064188  0.83440258  0.50001228  1
  Fe  Fe178  1  0.74992954  0.66495733  0.62553747  1
  Fe  Fe179  1  0.74986804  0.66582669  0.37451739  1
  Fe  Fe180  1  0.50007794  0.16769626  -0.00012773  1
  Fe  Fe181  1  0.75052085  0.33347701  0.37409940  1
  Fe  Fe182  1  0.00029105  0.33273812  -0.00012708  1
  Fe  Fe183  1  0.75012790  0.16658446  0.87581038  1
  Fe  Fe184  1  0.25013578  0.50023758  0.62517794  1
  Fe  Fe185  1  0.74944556  0.83264077  0.87540379  1
  Fe  Fe186  1  0.49993134  0.16693447  0.25038301  1
  Fe  Fe187  1  0.00029618  0.00068657  0.25030136  1
  Fe  Fe188  1  0.00071381  0.16664598  0.24967006  1
  Fe  Fe189  1  0.50048680  0.33406088  0.75004899  1
  Fe  Fe190  1  0.50024429  0.49863582  0.50039338  1
  Fe  Fe191  1  0.50046222  0.49941956  0.25037841  1
  P  P192  1  0.04232188  0.25064407  0.10247644  1
  P  P193  1  0.04255193  0.24834062  0.35235554  1
  P  P194  1  0.04287822  0.24871798  0.60368237  1
  P  P195  1  0.04251556  0.24795140  0.85270274  1
  P  P196  1  0.04262180  0.58572671  0.10235660  1
  P  P197  1  0.04260584  0.58565609  0.35233143  1
  P  P198  1  0.04296112  0.58449630  0.60377420  1
  P  P199  1  0.04191023  0.58487595  0.85260283  1
  P  P200  1  0.04232238  0.91868348  0.10246469  1
  P  P201  1  0.04194313  0.91833584  0.35294165  1
  P  P202  1  0.04072974  0.91697283  0.60239067  1
  P  P203  1  0.04101569  0.91643122  0.85168729  1
  P  P204  1  0.54184244  0.24921270  0.10344870  1
  P  P205  1  0.54165281  0.25004611  0.35167016  1
  P  P206  1  0.54228382  0.25197328  0.60231415  1
  P  P207  1  0.54214420  0.25124448  0.85245104  1
  P  P208  1  0.54190948  0.58391872  0.10279383  1
  P  P209  1  0.54221586  0.58097642  0.35305010  1
  P  P210  1  0.54223253  0.58075418  0.60261340  1
  P  P211  1  0.54207653  0.58206019  0.85247305  1
  P  P212  1  0.54344057  0.91719215  0.10329525  1
  P  P213  1  0.54249451  0.91658649  0.35429219  1
  P  P214  1  0.54098379  0.91663342  0.60130679  1
  P  P215  1  0.54282483  0.91692818  0.85336752  1
  P  P216  1  0.45824158  0.08548570  0.14750346  1
  P  P217  1  0.45771926  0.08286509  0.39733900  1
  P  P218  1  0.45690637  0.08332069  0.64584719  1
  P  P219  1  0.45756914  0.08555566  0.89751489  1
  P  P220  1  0.45842232  0.41689813  0.14886004  1
  P  P221  1  0.45884915  0.41627603  0.39786123  1
  P  P222  1  0.45893784  0.41676652  0.64783927  1
  P  P223  1  0.45696228  0.41654705  0.89622434  1
  P  P224  1  0.45689436  0.74961392  0.14670889  1
  P  P225  1  0.45725392  0.75027809  0.39800373  1
  P  P226  1  0.45690579  0.75004091  0.64616982  1
  P  P227  1  0.45782532  0.74828715  0.89750585  1
  P  P228  1  0.95913109  0.08351004  0.14815150  1
  P  P229  1  0.95768378  0.08182582  0.39698081  1
  P  P230  1  0.95800339  0.08234381  0.64876316  1
  P  P231  1  0.95784511  0.08111549  0.89695076  1
  P  P232  1  0.95764932  0.41681202  0.14598687  1
  P  P233  1  0.95734232  0.41703839  0.39651447  1
  P  P234  1  0.95710399  0.41642890  0.64683159  1
  P  P235  1  0.95792765  0.41487997  0.89783847  1
  P  P236  1  0.95811437  0.74922175  0.14702040  1
  P  P237  1  0.95796389  0.75217274  0.39733855  1
  P  P238  1  0.95847042  0.75055878  0.64853437  1
  P  P239  1  0.95780851  0.74874158  0.89699953  1
  P  P240  1  0.20911781  0.08334774  0.22679136  1
  P  P241  1  0.20763756  0.08169265  0.47779927  1
  P  P242  1  0.20765412  0.08130527  0.72744147  1
  P  P243  1  0.20817069  0.08226903  0.97783969  1
  P  P244  1  0.20705856  0.41664358  0.22827867  1
  P  P245  1  0.20809371  0.41524543  0.47834065  1
  P  P246  1  0.20864490  0.41741911  0.72680687  1
  P  P247  1  0.20728039  0.41792824  0.97685864  1
  P  P248  1  0.20736138  0.75158100  0.22863393  1
  P  P249  1  0.20797128  0.75232427  0.47830720  1
  P  P250  1  0.20814083  0.75193006  0.72840282  1
  P  P251  1  0.20833798  0.75124458  0.97589333  1
  P  P252  1  0.70894776  0.08378838  0.22648739  1
  P  P253  1  0.70677917  0.08340952  0.47814687  1
  P  P254  1  0.70687714  0.08292813  0.72887506  1
  P  P255  1  0.70829897  0.08508153  0.97876016  1
  P  P256  1  0.70889834  0.41676655  0.22665296  1
  P  P257  1  0.70809850  0.41481723  0.47720303  1
  P  P258  1  0.70812613  0.41458532  0.72779071  1
  P  P259  1  0.70787817  0.41814582  0.97863459  1
  P  P260  1  0.70751807  0.74799938  0.22745342  1
  P  P261  1  0.70792200  0.74732654  0.47733496  1
  P  P262  1  0.70735586  0.74722650  0.72768687  1
  P  P263  1  0.70771722  0.75071346  0.97797341  1
  P  P264  1  0.29247240  0.24879600  0.02228691  1
  P  P265  1  0.29199521  0.25097416  0.27250438  1
  P  P266  1  0.29211476  0.25116651  0.52217033  1
  P  P267  1  0.29250101  0.25025248  0.77064155  1
  P  P268  1  0.29224168  0.58412732  0.02050982  1
  P  P269  1  0.29329253  0.58402136  0.27219853  1
  P  P270  1  0.29238598  0.58240577  0.52308806  1
  P  P271  1  0.29091661  0.58330787  0.77282744  1
  P  P272  1  0.29233752  0.91834334  0.02188254  1
  P  P273  1  0.29189904  0.91786353  0.27356675  1
  P  P274  1  0.29074511  0.91686039  0.52284868  1
  P  P275  1  0.29135648  0.91698194  0.77285140  1
  P  P276  1  0.79163570  0.25001395  0.02356802  1
  P  P277  1  0.79196659  0.25145806  0.27128210  1
  P  P278  1  0.79244614  0.25130252  0.52223292  1
  P  P279  1  0.79238742  0.24827749  0.77310850  1
  P  P280  1  0.79131106  0.58309321  0.02325116  1
  P  P281  1  0.79203558  0.58422322  0.27151093  1
  P  P282  1  0.79261968  0.58408565  0.52229186  1
  P  P283  1  0.79228698  0.58092612  0.77264727  1
  P  P284  1  0.79243164  0.91800452  0.02240748  1
  P  P285  1  0.79284028  0.91673155  0.27095174  1
  P  P286  1  0.79265023  0.91571224  0.52182930  1
  P  P287  1  0.79172049  0.91417537  0.77297398  1
  O  O288  1  0.03710015  0.25001831  0.18239084  1
  O  O289  1  0.03747816  0.24828708  0.43232252  1
  O  O290  1  0.03772651  0.24808865  0.68362544  1
  O  O291  1  0.03726801  0.24872427  0.93264860  1
  O  O292  1  0.03723600  0.58598103  0.18229892  1
  O  O293  1  0.03738584  0.58528272  0.43230680  1
  O  O294  1  0.03750899  0.58447460  0.68369407  1
  O  O295  1  0.03682777  0.58493945  0.93256136  1
  O  O296  1  0.03705799  0.91889496  0.18235446  1
  O  O297  1  0.03634301  0.91796839  0.43274756  1
  O  O298  1  0.03530564  0.91681716  0.68222893  1
  O  O299  1  0.03664551  0.91633292  0.93162818  1
  O  O300  1  0.53652166  0.24918003  0.18329815  1
  O  O301  1  0.53700959  0.25069573  0.43162318  1
  O  O302  1  0.53692447  0.25229887  0.68220028  1
  O  O303  1  0.53677449  0.25035737  0.93237713  1
  O  O304  1  0.53670794  0.58315498  0.18270633  1
  O  O305  1  0.53703243  0.58072261  0.43298041  1
  O  O306  1  0.53692539  0.58074670  0.68253515  1
  O  O307  1  0.53687134  0.58316292  0.93239994  1
  O  O308  1  0.53852462  0.91713242  0.18326886  1
  O  O309  1  0.53677514  0.91654086  0.43419536  1
  O  O310  1  0.53623416  0.91658600  0.68135847  1
  O  O311  1  0.53797782  0.91698508  0.93333877  1
  O  O312  1  0.46344109  0.08586426  0.06757559  1
  O  O313  1  0.46306889  0.08341864  0.31740748  1
  O  O314  1  0.46227764  0.08257572  0.56593411  1
  O  O315  1  0.46252548  0.08512706  0.81751959  1
  O  O316  1  0.46285823  0.41655060  0.06888129  1
  O  O317  1  0.46390478  0.41632071  0.31798940  1
  O  O318  1  0.46421746  0.41684014  0.56795752  1
  O  O319  1  0.46240289  0.41659376  0.81637631  1
  O  O320  1  0.46241648  0.74913397  0.06678270  1
  O  O321  1  0.46208483  0.75015538  0.31802492  1
  O  O322  1  0.46204657  0.75048853  0.56622500  1
  O  O323  1  0.46283514  0.74844861  0.81751410  1
  O  O324  1  0.96378575  0.08326345  0.06819248  1
  O  O325  1  0.96320545  0.08231242  0.31715631  1
  O  O326  1  0.96297387  0.08205768  0.56878414  1
  O  O327  1  0.96310690  0.08140360  0.81711243  1
  O  O328  1  0.96320069  0.41629970  0.06608762  1
  O  O329  1  0.96248470  0.41720777  0.31652375  1
  O  O330  1  0.96232791  0.41661928  0.56688583  1
  O  O331  1  0.96276482  0.41497327  0.81785101  1
  O  O332  1  0.96354471  0.74915673  0.06711697  1
  O  O333  1  0.96316568  0.75135452  0.31743485  1
  O  O334  1  0.96330655  0.75151387  0.56859088  1
  O  O335  1  0.96293704  0.74879936  0.81713034  1
  O  O336  1  0.21370662  0.08283353  0.05769706  1
  O  O337  1  0.21408872  0.08317056  0.30673576  1
  O  O338  1  0.21275504  0.08160204  0.55769645  1
  O  O339  1  0.21300307  0.08129385  0.80734978  1
  O  O340  1  0.21232179  0.41752988  0.05682960  1
  O  O341  1  0.21210089  0.41611476  0.30825867  1
  O  O342  1  0.21370005  0.41550228  0.55823367  1
  O  O343  1  0.21369474  0.41796066  0.80678047  1
  O  O344  1  0.21293957  0.75110206  0.05591331  1
  O  O345  1  0.21271361  0.75193680  0.30854876  1
  O  O346  1  0.21325544  0.75247272  0.55826183  1
  O  O347  1  0.21365097  0.75183116  0.80823045  1
  O  O348  1  0.71408239  0.08489062  0.05861066  1
  O  O349  1  0.71380069  0.08393847  0.30647120  1
  O  O350  1  0.71156357  0.08332233  0.55813124  1
  O  O351  1  0.71210833  0.08342417  0.80883364  1
  O  O352  1  0.71327818  0.41829959  0.05848332  1
  O  O353  1  0.71395019  0.41611310  0.30657267  1
  O  O354  1  0.71348258  0.41456166  0.55710904  1
  O  O355  1  0.71314205  0.41524562  0.80769689  1
  O  O356  1  0.71307757  0.75015677  0.05784755  1
  O  O357  1  0.71284733  0.74783332  0.30738705  1
  O  O358  1  0.71317254  0.74706213  0.55729634  1
  O  O359  1  0.71231099  0.74802492  0.80761482  1
  O  O360  1  0.28681733  0.25025378  0.19257037  1
  O  O361  1  0.28685444  0.25138218  0.44222323  1
  O  O362  1  0.28696578  0.25073151  0.69076769  1
  O  O363  1  0.28764961  0.24892472  0.94231908  1
  O  O364  1  0.28817734  0.58415610  0.19221430  1
  O  O365  1  0.28733798  0.58260076  0.44317743  1
  O  O366  1  0.28606749  0.58306862  0.69285854  1
  O  O367  1  0.28665546  0.58381038  0.94061907  1
  O  O368  1  0.28701011  0.91818781  0.19359033  1
  O  O369  1  0.28561949  0.91691910  0.44296530  1
  O  O370  1  0.28590202  0.91686632  0.69297598  1
  O  O371  1  0.28696392  0.91784807  0.94202943  1
  O  O372  1  0.78655358  0.25097270  0.19141810  1
  O  O373  1  0.78715931  0.25161057  0.44226774  1
  O  O374  1  0.78729729  0.24889069  0.69318493  1
  O  O375  1  0.78692919  0.24955383  0.94360372  1
  O  O376  1  0.78641954  0.58399355  0.19166780  1
  O  O377  1  0.78751227  0.58436500  0.44234348  1
  O  O378  1  0.78723879  0.58143101  0.69271917  1
  O  O379  1  0.78626588  0.58242137  0.94328815  1
  O  O380  1  0.78747037  0.91745273  0.19102532  1
  O  O381  1  0.78779015  0.91587049  0.44186516  1
  O  O382  1  0.78658596  0.91399200  0.69304916  1
  O  O383  1  0.78686065  0.91745661  0.94255199  1
  O  O384  1  0.22805652  0.24847690  0.05758342  1
  O  O385  1  0.22778334  0.25140221  0.30845208  1
  O  O386  1  0.22792020  0.25098747  0.55798655  1
  O  O387  1  0.22834248  0.24999876  0.80643169  1
  O  O388  1  0.22805707  0.58403706  0.05647224  1
  O  O389  1  0.22885760  0.58402183  0.30725923  1
  O  O390  1  0.22807581  0.58244012  0.55861548  1
  O  O391  1  0.22681444  0.58323132  0.80885744  1
  O  O392  1  0.22813144  0.91924974  0.05797050  1
  O  O393  1  0.22762940  0.91782854  0.30945514  1
  O  O394  1  0.22666706  0.91684716  0.55932171  1
  O  O395  1  0.22726065  0.91673782  0.80930498  1
  O  O396  1  0.72745131  0.24949288  0.05932554  1
  O  O397  1  0.72779935  0.25199874  0.30746780  1
  O  O398  1  0.72813508  0.25138667  0.55796957  1
  O  O399  1  0.72810699  0.24831306  0.80886693  1
  O  O400  1  0.72713381  0.58319004  0.05927868  1
  O  O401  1  0.72796242  0.58425252  0.30792990  1
  O  O402  1  0.72829620  0.58374325  0.55799558  1
  O  O403  1  0.72795330  0.58089854  0.80827796  1
  O  O404  1  0.72829067  0.91838697  0.05845410  1
  O  O405  1  0.72857452  0.91616786  0.30646885  1
  O  O406  1  0.72812239  0.91530991  0.55670582  1
  O  O407  1  0.72743201  0.91467513  0.80861444  1
  O  O408  1  0.27321729  0.08307369  0.19055336  1
  O  O409  1  0.27193332  0.08189519  0.44212498  1
  O  O410  1  0.27179765  0.08126421  0.69144126  1
  O  O411  1  0.27227470  0.08160793  0.94156044  1
  O  O412  1  0.27147899  0.41653899  0.19313296  1
  O  O413  1  0.27223260  0.41489220  0.44205112  1
  O  O414  1  0.27279061  0.41744123  0.69070927  1
  O  O415  1  0.27166317  0.41874958  0.94145553  1
  O  O416  1  0.27163862  0.75147782  0.19309239  1
  O  O417  1  0.27219536  0.75240255  0.44244064  1
  O  O418  1  0.27214588  0.75220545  0.69200250  1
  O  O419  1  0.27256575  0.75162693  0.94021388  1
  O  O420  1  0.77320239  0.08373302  0.19072205  1
  O  O421  1  0.77132539  0.08387914  0.44338138  1
  O  O422  1  0.77126793  0.08266970  0.69359532  1
  O  O423  1  0.77232928  0.08484415  0.94228540  1
  O  O424  1  0.77290542  0.41748009  0.19043967  1
  O  O425  1  0.77233217  0.41482417  0.44129688  1
  O  O426  1  0.77239083  0.41431259  0.69196079  1
  O  O427  1  0.77200461  0.41794575  0.94237628  1
  O  O428  1  0.77176335  0.74815454  0.19163248  1
  O  O429  1  0.77220389  0.74727569  0.44153953  1
  O  O430  1  0.77180411  0.74681863  0.69226343  1
  O  O431  1  0.77192153  0.75085418  0.94201009  1
  O  O432  1  0.02331741  0.08392898  0.18407252  1
  O  O433  1  0.02182024  0.08095306  0.43320132  1
  O  O434  1  0.02221896  0.08240740  0.68472406  1
  O  O435  1  0.02208909  0.08118544  0.93289931  1
  O  O436  1  0.02181410  0.41698696  0.18171344  1
  O  O437  1  0.02178319  0.41695687  0.43159799  1
  O  O438  1  0.02149651  0.41644253  0.68195068  1
  O  O439  1  0.02235651  0.41502472  0.93300560  1
  O  O440  1  0.02229145  0.74945555  0.18299657  1
  O  O441  1  0.02220499  0.75307115  0.43319154  1
  O  O442  1  0.02263628  0.75012202  0.68440187  1
  O  O443  1  0.02211222  0.74874322  0.93282264  1
  O  O444  1  0.52253538  0.08562300  0.18321391  1
  O  O445  1  0.52192869  0.08237675  0.43307303  1
  O  O446  1  0.52119396  0.08385821  0.68128440  1
  O  O447  1  0.52195677  0.08598474  0.93297765  1
  O  O448  1  0.52272829  0.41718896  0.18435559  1
  O  O449  1  0.52303212  0.41652574  0.43400856  1
  O  O450  1  0.52296131  0.41671828  0.68445416  1
  O  O451  1  0.52114732  0.41642085  0.93200406  1
  O  O452  1  0.52118356  0.74940609  0.18221253  1
  O  O453  1  0.52163658  0.75020364  0.43322562  1
  O  O454  1  0.52129851  0.74951696  0.68133531  1
  O  O455  1  0.52215363  0.74784343  0.93300647  1
  O  O456  1  0.47765293  0.24856878  0.06732611  1
  O  O457  1  0.47736113  0.24960309  0.31607957  1
  O  O458  1  0.47810080  0.25185366  0.56642081  1
  O  O459  1  0.47793293  0.25246742  0.81652225  1
  O  O460  1  0.47762417  0.58478523  0.06700168  1
  O  O461  1  0.47789402  0.58060524  0.31742167  1
  O  O462  1  0.47799437  0.58074097  0.56685107  1
  O  O463  1  0.47777972  0.58130026  0.81679046  1
  O  O464  1  0.47896589  0.91712311  0.06840861  1
  O  O465  1  0.47830369  0.91716298  0.31848912  1
  O  O466  1  0.47671779  0.91670373  0.56566178  1
  O  O467  1  0.47824954  0.91688885  0.81860259  1
  O  O468  1  0.97805864  0.25086625  0.06672361  1
  O  O469  1  0.97820067  0.24798601  0.31692962  1
  O  O470  1  0.97852646  0.24900852  0.56839284  1
  O  O471  1  0.97820484  0.24730350  0.81708453  1
  O  O472  1  0.97836024  0.58534661  0.06655315  1
  O  O473  1  0.97830445  0.58597154  0.31665879  1
  O  O474  1  0.97865508  0.58474011  0.56838353  1
  O  O475  1  0.97759794  0.58504609  0.81704302  1
  O  O476  1  0.97807390  0.91808803  0.06664833  1
  O  O477  1  0.97794595  0.91860714  0.31642405  1
  O  O478  1  0.97679540  0.91704904  0.56559203  1
  O  O479  1  0.97673770  0.91692959  0.81614198  1
  O  O480  1  0.07294109  0.31434556  0.07408288  1
  O  O481  1  0.07336221  0.31214814  0.32473848  1
  O  O482  1  0.07384542  0.31239175  0.57578710  1
  O  O483  1  0.07356057  0.31144652  0.82442312  1
  O  O484  1  0.07352177  0.64896257  0.07341004  1
  O  O485  1  0.07336869  0.64937745  0.32442448  1
  O  O486  1  0.07442158  0.64779144  0.57570427  1
  O  O487  1  0.07299472  0.64802251  0.82374550  1
  O  O488  1  0.07283413  0.98207792  0.07345942  1
  O  O489  1  0.07300857  0.98168606  0.32424748  1
  O  O490  1  0.07169228  0.98054999  0.57408798  1
  O  O491  1  0.07246473  0.97950149  0.82313571  1
  O  O492  1  0.57245006  0.31322281  0.07557510  1
  O  O493  1  0.57202437  0.31364621  0.32245513  1
  O  O494  1  0.57327201  0.31511314  0.57333080  1
  O  O495  1  0.57345072  0.31473154  0.82462800  1
  O  O496  1  0.57281322  0.64740212  0.07438583  1
  O  O497  1  0.57270205  0.64506544  0.32541588  1
  O  O498  1  0.57304257  0.64465672  0.57489538  1
  O  O499  1  0.57312218  0.64533974  0.82375342  1
  O  O500  1  0.57428841  0.98080787  0.07525756  1
  O  O501  1  0.57422200  0.97971407  0.32595296  1
  O  O502  1  0.57185888  0.98030813  0.57326762  1
  O  O503  1  0.57368049  0.98046741  0.82512694  1
  O  O504  1  0.42755145  0.02139990  0.17490472  1
  O  O505  1  0.42678154  0.01933560  0.42567617  1
  O  O506  1  0.42582278  0.02020602  0.67484279  1
  O  O507  1  0.42692410  0.02173576  0.92554323  1
  O  O508  1  0.42817088  0.35296392  0.17739434  1
  O  O509  1  0.42831198  0.35244728  0.42639866  1
  O  O510  1  0.42802632  0.35316237  0.67611701  1
  O  O511  1  0.42561102  0.35332013  0.92478915  1
  O  O512  1  0.42532124  0.68663312  0.17526519  1
  O  O513  1  0.42618495  0.68659531  0.42565484  1
  O  O514  1  0.42581586  0.68633110  0.67393865  1
  O  O515  1  0.42696407  0.68478432  0.92576290  1
  O  O516  1  0.92841018  0.01992077  0.17657524  1
  O  O517  1  0.92626084  0.01876442  0.42577042  1
  O  O518  1  0.92699156  0.01879959  0.67692772  1
  O  O519  1  0.92714744  0.01766054  0.92584784  1
  O  O520  1  0.92623722  0.35369384  0.17440600  1
  O  O521  1  0.92645447  0.35337883  0.42444529  1
  O  O522  1  0.92607116  0.35290485  0.67483331  1
  O  O523  1  0.92745427  0.35119666  0.92634892  1
  O  O524  1  0.92722487  0.68597991  0.17586184  1
  O  O525  1  0.92720337  0.68862261  0.42586670  1
  O  O526  1  0.92761059  0.68670504  0.67626195  1
  O  O527  1  0.92681246  0.68549137  0.92598923  1
  O  O528  1  0.17789101  0.02004995  0.19840724  1
  O  O529  1  0.17676524  0.01850186  0.44886290  1
  O  O530  1  0.17658788  0.01797437  0.69900268  1
  O  O531  1  0.17694597  0.01893298  0.94934304  1
  O  O532  1  0.17564506  0.35358402  0.19957745  1
  O  O533  1  0.17699061  0.35194104  0.44965521  1
  O  O534  1  0.17814506  0.35332503  0.69908017  1
  O  O535  1  0.17698120  0.35383988  0.94899626  1
  O  O536  1  0.17639102  0.68805477  0.20037755  1
  O  O537  1  0.17716551  0.68828075  0.45096084  1
  O  O538  1  0.17715414  0.68821215  0.70045391  1
  O  O539  1  0.17818319  0.68731336  0.94729033  1
  O  O540  1  0.67818119  0.02001971  0.19854777  1
  O  O541  1  0.67612949  0.01986640  0.44971436  1
  O  O542  1  0.67592837  0.01915844  0.70105507  1
  O  O543  1  0.67671642  0.02172180  0.95086946  1
  O  O544  1  0.67841681  0.35310816  0.19771740  1
  O  O545  1  0.67697580  0.35185490  0.44807852  1
  O  O546  1  0.67761372  0.35082601  0.69948676  1
  O  O547  1  0.67665365  0.35442019  0.95100500  1
  O  O548  1  0.67658399  0.68473575  0.19862261  1
  O  O549  1  0.67680548  0.68411255  0.44869457  1
  O  O550  1  0.67687469  0.68342959  0.69934486  1
  O  O551  1  0.67644025  0.68732113  0.94990013  1
  O  O552  1  0.32327856  0.31266785  0.05000136  1
  O  O553  1  0.32278677  0.31459034  0.30077584  1
  O  O554  1  0.32301274  0.31441359  0.55112835  1
  O  O555  1  0.32370317  0.31348871  0.79916795  1
  O  O556  1  0.32322185  0.64772297  0.04867051  1
  O  O557  1  0.32431734  0.64738610  0.30056694  1
  O  O558  1  0.32339365  0.64610457  0.55078156  1
  O  O559  1  0.32117803  0.64755216  0.80079701  1
  O  O560  1  0.32378233  0.98142133  0.05051965  1
  O  O561  1  0.32289454  0.98132960  0.30199822  1
  O  O562  1  0.32165870  0.98048288  0.55122080  1
  O  O563  1  0.32212625  0.98066445  0.80122275  1
  O  O564  1  0.82140492  0.31450060  0.05151035  1
  O  O565  1  0.82324120  0.31478501  0.29961150  1
  O  O566  1  0.82349528  0.31437788  0.55127318  1
  O  O567  1  0.82379855  0.31152450  0.80141696  1
  O  O568  1  0.82189118  0.64722726  0.05075472  1
  O  O569  1  0.82301189  0.64758428  0.30014621  1
  O  O570  1  0.82338241  0.64727821  0.55150229  1
  O  O571  1  0.82350581  0.64427860  0.80100054  1
  O  O572  1  0.82325112  0.98166605  0.05064586  1
  O  O573  1  0.82392030  0.97998163  0.29955182  1
  O  O574  1  0.82331340  0.97924989  0.55039213  1
  O  O575  1  0.82314981  0.97770422  0.80039015  1
  O  O576  1  0.42699919  0.14846139  0.17668746  1
  O  O577  1  0.42658222  0.14649002  0.42523652  1
  O  O578  1  0.42576295  0.14715169  0.67326222  1
  O  O579  1  0.42665806  0.14908431  0.92572406  1
  O  O580  1  0.42738460  0.48049979  0.17680260  1
  O  O581  1  0.42757400  0.47955020  0.42664348  1
  O  O582  1  0.42798128  0.48035899  0.67638432  1
  O  O583  1  0.42576687  0.47992696  0.92477702  1
  O  O584  1  0.42611593  0.81356616  0.17450404  1
  O  O585  1  0.42666166  0.81395273  0.42651009  1
  O  O586  1  0.42584406  0.81326344  0.67505726  1
  O  O587  1  0.42702932  0.81218295  0.92520323  1
  O  O588  1  0.92829174  0.14732915  0.17625894  1
  O  O589  1  0.92687968  0.14560355  0.42531857  1
  O  O590  1  0.92746227  0.14625209  0.67694804  1
  O  O591  1  0.92662551  0.14459131  0.92538215  1
  O  O592  1  0.92663059  0.48063843  0.17363375  1
  O  O593  1  0.92635729  0.48066888  0.42453753  1
  O  O594  1  0.92598881  0.47989992  0.67505137  1
  O  O595  1  0.92681972  0.47861872  0.92544838  1
  O  O596  1  0.92699486  0.81313563  0.17436749  1
  O  O597  1  0.92686432  0.81568896  0.42551698  1
  O  O598  1  0.92766082  0.81404809  0.67752410  1
  O  O599  1  0.92681902  0.81243282  0.92521548  1
  O  O600  1  0.07361505  0.18721170  0.07433041  1
  O  O601  1  0.07344168  0.18486511  0.32374374  1
  O  O602  1  0.07406521  0.18541733  0.57508516  1
  O  O603  1  0.07336968  0.18423654  0.82458873  1
  O  O604  1  0.07374392  0.52185302  0.07487409  1
  O  O605  1  0.07359415  0.52194932  0.32443620  1
  O  O606  1  0.07383297  0.52087757  0.57541367  1
  O  O607  1  0.07265837  0.52080738  0.82508559  1
  O  O608  1  0.07361700  0.85494869  0.07488264  1
  O  O609  1  0.07316710  0.85486573  0.32459000  1
  O  O610  1  0.07163851  0.85332957  0.57394743  1
  O  O611  1  0.07101707  0.85230106  0.82293832  1
  O  O612  1  0.57326043  0.18627790  0.07427917  1
  O  O613  1  0.57264726  0.18624746  0.32393035  1
  O  O614  1  0.57330873  0.18805316  0.57484621  1
  O  O615  1  0.57280341  0.18763990  0.82384568  1
  O  O616  1  0.57270120  0.52024564  0.07449302  1
  O  O617  1  0.57348260  0.51792416  0.32400374  1
  O  O618  1  0.57345679  0.51756257  0.57403577  1
  O  O619  1  0.57300170  0.51828210  0.82459592  1
  O  O620  1  0.57452990  0.85370014  0.07516208  1
  O  O621  1  0.57346713  0.85296274  0.32598806  1
  O  O622  1  0.57161549  0.85267128  0.57329047  1
  O  O623  1  0.57367366  0.85329617  0.82508555  1
  O  O624  1  0.32322004  0.18539786  0.05111907  1
  O  O625  1  0.32306950  0.18744654  0.30074949  1
  O  O626  1  0.32321121  0.18721619  0.54939085  1
  O  O627  1  0.32364171  0.18652161  0.79823552  1
  O  O628  1  0.32367962  0.52086332  0.04911389  1
  O  O629  1  0.32425214  0.52039270  0.30020496  1
  O  O630  1  0.32311368  0.51880722  0.55148727  1
  O  O631  1  0.32224124  0.52004882  0.80119360  1
  O  O632  1  0.32299535  0.85452569  0.05023853  1
  O  O633  1  0.32240260  0.85393761  0.30183902  1
  O  O634  1  0.32172541  0.85336111  0.55146578  1
  O  O635  1  0.32268723  0.85359847  0.80129839  1
  O  O636  1  0.82347841  0.18711803  0.05216933  1
  O  O637  1  0.82285234  0.18779067  0.29971641  1
  O  O638  1  0.82328553  0.18727556  0.54977713  1
  O  O639  1  0.82281777  0.18444098  0.80147919  1
  O  O640  1  0.82250372  0.51983317  0.05190822  1
  O  O641  1  0.82326085  0.52064641  0.29962243  1
  O  O642  1  0.82368269  0.52016371  0.54968774  1
  O  O643  1  0.82283616  0.51722771  0.80119534  1
  O  O644  1  0.82371006  0.85447450  0.05028872  1
  O  O645  1  0.82392739  0.85289381  0.29843164  1
  O  O646  1  0.82383189  0.85222257  0.54982868  1
  O  O647  1  0.82201920  0.85040643  0.80169600  1
  O  O648  1  0.17881057  0.14746216  0.19862037  1
  O  O649  1  0.17668878  0.14554542  0.45000882  1
  O  O650  1  0.17669211  0.14510947  0.69972228  1
  O  O651  1  0.17717222  0.14585033  0.94939360  1
  O  O652  1  0.17625589  0.48048948  0.20036310  1
  O  O653  1  0.17696685  0.47900006  0.45046281  1
  O  O654  1  0.17742829  0.48080848  0.69830719  1
  O  O655  1  0.17596804  0.48117942  0.94857938  1
  O  O656  1  0.17612293  0.81491429  0.20016179  1
  O  O657  1  0.17686504  0.81549669  0.44943317  1
  O  O658  1  0.17686209  0.81518049  0.69971006  1
  O  O659  1  0.17710150  0.81482893  0.94812232  1
  O  O660  1  0.67814170  0.14759209  0.19857106  1
  O  O661  1  0.67564435  0.14691396  0.44995583  1
  O  O662  1  0.67563357  0.14614286  0.70026109  1
  O  O663  1  0.67756142  0.14869852  0.95016132  1
  O  O664  1  0.67752828  0.48041568  0.19911672  1
  O  O665  1  0.67739535  0.47894689  0.44976182  1
  O  O666  1  0.67695193  0.47795356  0.69934644  1
  O  O667  1  0.67708072  0.48148833  0.94951727  1
  O  O668  1  0.67641135  0.81186744  0.20003565  1
  O  O669  1  0.67708395  0.81128690  0.44971290  1
  O  O670  1  0.67615761  0.81058283  0.69913356  1
  O  O671  1  0.67715523  0.81454934  0.94973587  1
