# generated using pymatgen
data_Na2MnFe(PO4)2
_symmetry_space_group_name_H-M   'P 1'
_cell_length_a   22.34601832
_cell_length_b   20.09819188
_cell_length_c   19.44831194
_cell_angle_alpha   90.03780482
_cell_angle_beta   89.99813067
_cell_angle_gamma   90.04363125
_symmetry_Int_Tables_number   1
_chemical_formula_structural   Na2MnFe(PO4)2
_chemical_formula_sum   'Na96 Mn48 Fe48 P96 O384'
_cell_volume   8734.51570168
_cell_formula_units_Z   48
loop_
 _symmetry_equiv_pos_site_id
 _symmetry_equiv_pos_as_xyz
  1  'x, y, z'
loop_
 _atom_site_type_symbol
 _atom_site_label
 _atom_site_symmetry_multiplicity
 _atom_site_fract_x
 _atom_site_fract_y
 _atom_site_fract_z
 _atom_site_occupancy
  Na  Na0  1  0.14050214  0.25012748  0.24405230  1
  Na  Na1  1  0.14014744  0.25080710  0.49480598  1
  Na  Na2  1  0.14010492  0.24924504  0.74408663  1
  Na  Na3  1  0.14025786  0.24958851  0.99523468  1
  Na  Na4  1  0.14057660  0.58370958  0.24393020  1
  Na  Na5  1  0.14010376  0.58403419  0.49392301  1
  Na  Na6  1  0.14020018  0.58344800  0.74452524  1
  Na  Na7  1  0.14061828  0.58564439  0.99464974  1
  Na  Na8  1  0.14093208  0.91739951  0.24277748  1
  Na  Na9  1  0.14059440  0.91746780  0.49479684  1
  Na  Na10  1  0.14075634  0.91692488  0.74524352  1
  Na  Na11  1  0.14074040  0.91757942  0.99490048  1
  Na  Na12  1  0.64006535  0.24907203  0.24217543  1
  Na  Na13  1  0.64013779  0.24731334  0.49310112  1
  Na  Na14  1  0.63987341  0.24848722  0.74366319  1
  Na  Na15  1  0.64036917  0.25018160  0.99363815  1
  Na  Na16  1  0.64033531  0.58207974  0.24318579  1
  Na  Na17  1  0.63979544  0.58283813  0.49196752  1
  Na  Na18  1  0.63972451  0.58361708  0.74286238  1
  Na  Na19  1  0.64017005  0.58220691  0.99219823  1
  Na  Na20  1  0.64051971  0.91659701  0.24419166  1
  Na  Na21  1  0.64035902  0.91535551  0.49239119  1
  Na  Na22  1  0.64040294  0.91664767  0.74163044  1
  Na  Na23  1  0.64070928  0.91736427  0.99367759  1
  Na  Na24  1  0.35995975  0.08350704  0.00691268  1
  Na  Na25  1  0.36092158  0.08318415  0.25629099  1
  Na  Na26  1  0.36080835  0.08459999  0.50706097  1
  Na  Na27  1  0.36017253  0.08363041  0.75602848  1
  Na  Na28  1  0.35996278  0.41690667  0.00666957  1
  Na  Na29  1  0.36059430  0.41682933  0.25657445  1
  Na  Na30  1  0.35981170  0.41693544  0.50605605  1
  Na  Na31  1  0.35949152  0.41569598  0.75578781  1
  Na  Na32  1  0.35999453  0.75140005  0.00580069  1
  Na  Na33  1  0.35956205  0.74953829  0.25598260  1
  Na  Na34  1  0.36078940  0.75005389  0.50659727  1
  Na  Na35  1  0.36094987  0.75022323  0.75619002  1
  Na  Na36  1  0.85860001  0.08455074  0.00655421  1
  Na  Na37  1  0.85936220  0.08273921  0.25661844  1
  Na  Na38  1  0.85921692  0.08246078  0.50682953  1
  Na  Na39  1  0.85889478  0.08393847  0.75548097  1
  Na  Na40  1  0.85863305  0.41689670  0.00653002  1
  Na  Na41  1  0.85954237  0.41667392  0.25652565  1
  Na  Na42  1  0.85865395  0.41557350  0.50508702  1
  Na  Na43  1  0.85830305  0.41656038  0.75717100  1
  Na  Na44  1  0.85932659  0.75004928  0.00621616  1
  Na  Na45  1  0.85881389  0.75022988  0.25614311  1
  Na  Na46  1  0.85964553  0.75026588  0.50623645  1
  Na  Na47  1  0.85937510  0.75051371  0.75655614  1
  Na  Na48  1  0.11014441  0.08258653  0.11896403  1
  Na  Na49  1  0.10971461  0.08504035  0.36921108  1
  Na  Na50  1  0.10982759  0.08458915  0.61987251  1
  Na  Na51  1  0.10990841  0.08330904  0.86947971  1
  Na  Na52  1  0.10912591  0.41795141  0.12031779  1
  Na  Na53  1  0.10941721  0.41758572  0.36919094  1
  Na  Na54  1  0.10892735  0.41669211  0.61865182  1
  Na  Na55  1  0.10906791  0.41597017  0.86907800  1
  Na  Na56  1  0.11001647  0.75042219  0.11819822  1
  Na  Na57  1  0.10947605  0.75018636  0.36830748  1
  Na  Na58  1  0.10959119  0.75113517  0.62025622  1
  Na  Na59  1  0.11002871  0.75086532  0.87078299  1
  Na  Na60  1  0.61048516  0.08305835  0.11848708  1
  Na  Na61  1  0.60968267  0.08307094  0.36847997  1
  Na  Na62  1  0.60967302  0.08256815  0.61717242  1
  Na  Na63  1  0.60988567  0.08366014  0.86827384  1
  Na  Na64  1  0.60977662  0.41455682  0.11797791  1
  Na  Na65  1  0.60908180  0.41519457  0.36785367  1
  Na  Na66  1  0.60933558  0.41700697  0.61875621  1
  Na  Na67  1  0.60973190  0.41675869  0.86771278  1
  Na  Na68  1  0.60985100  0.74812737  0.11840657  1
  Na  Na69  1  0.61026100  0.74932481  0.36782159  1
  Na  Na70  1  0.60946077  0.74991578  0.61723358  1
  Na  Na71  1  0.60962160  0.74865353  0.86668868  1
  Na  Na72  1  0.39119673  0.24855466  0.13240249  1
  Na  Na73  1  0.39118650  0.24981212  0.38123588  1
  Na  Na74  1  0.39016838  0.25030182  0.63184227  1
  Na  Na75  1  0.39022215  0.24957982  0.88114001  1
  Na  Na76  1  0.39078831  0.58179994  0.13156020  1
  Na  Na77  1  0.39120738  0.58318730  0.38142337  1
  Na  Na78  1  0.39118160  0.58413021  0.63051776  1
  Na  Na79  1  0.39079298  0.58316021  0.88045468  1
  Na  Na80  1  0.39061821  0.91696298  0.13210544  1
  Na  Na81  1  0.39129340  0.91717966  0.38131362  1
  Na  Na82  1  0.39147304  0.91652769  0.63129775  1
  Na  Na83  1  0.39099637  0.91637678  0.88161924  1
  Na  Na84  1  0.88964745  0.25031585  0.13250591  1
  Na  Na85  1  0.88978144  0.25072909  0.38050395  1
  Na  Na86  1  0.88949027  0.24935087  0.63133571  1
  Na  Na87  1  0.88899082  0.24941575  0.88161026  1
  Na  Na88  1  0.88992528  0.58384744  0.13082282  1
  Na  Na89  1  0.89009105  0.58361855  0.38052399  1
  Na  Na90  1  0.88992902  0.58478609  0.63107540  1
  Na  Na91  1  0.88953371  0.58443937  0.88232087  1
  Na  Na92  1  0.88973749  0.91640519  0.13175347  1
  Na  Na93  1  0.88978063  0.91749183  0.38200009  1
  Na  Na94  1  0.88986732  0.91741769  0.63138755  1
  Na  Na95  1  0.89023464  0.91579756  0.88070080  1
  Mn  Mn96  1  0.24986505  0.50090115  0.12542410  1
  Mn  Mn97  1  0.25022968  0.49930788  0.62493196  1
  Mn  Mn98  1  0.25049829  0.16708869  0.37552375  1
  Mn  Mn99  1  0.25069076  0.33402500  0.37489541  1
  Mn  Mn100  1  0.74946719  0.49902469  0.37420201  1
  Mn  Mn101  1  0.00057411  0.00174585  0.50139905  1
  Mn  Mn102  1  0.50003702  0.33327717  0.74969799  1
  Mn  Mn103  1  0.25016250  0.33300945  0.12569859  1
  Mn  Mn104  1  0.25052966  0.83364909  0.62525253  1
  Mn  Mn105  1  0.50080116  0.83275820  -0.00021005  1
  Mn  Mn106  1  0.75008866  0.66710871  0.62414783  1
  Mn  Mn107  1  -0.00117420  0.33339370  0.49990520  1
  Mn  Mn108  1  0.24958452  0.33209415  0.87621667  1
  Mn  Mn109  1  0.74874032  0.33177667  0.62587290  1
  Mn  Mn110  1  -0.00078175  0.83411413  0.25037209  1
  Mn  Mn111  1  -0.00127639  0.33249512  0.74934368  1
  Mn  Mn112  1  0.49996218  0.83312035  0.25019091  1
  Mn  Mn113  1  0.00065088  0.83388833  0.50005860  1
  Mn  Mn114  1  0.50027573  0.00005792  0.74946374  1
  Mn  Mn115  1  0.49984119  0.33238880  -0.00035767  1
  Mn  Mn116  1  -0.00019996  0.16677370  0.25023582  1
  Mn  Mn117  1  -0.00059126  0.33335665  0.00025522  1
  Mn  Mn118  1  0.74964056  0.49994882  0.12458834  1
  Mn  Mn119  1  -0.00076321  0.50056289  0.00002162  1
  Mn  Mn120  1  0.25059135  0.83348805  0.37442020  1
  Mn  Mn121  1  0.24966760  0.49988575  0.87515924  1
  Mn  Mn122  1  0.74977906  0.83326265  0.87468546  1
  Mn  Mn123  1  0.25077831  0.66801686  0.87518006  1
  Mn  Mn124  1  0.25059059  0.00062428  0.87568459  1
  Mn  Mn125  1  -0.00049079  0.66670994  0.24933236  1
  Mn  Mn126  1  0.24988593  0.66648268  0.37530981  1
  Mn  Mn127  1  -0.00074100  0.50086886  0.74993774  1
  Mn  Mn128  1  0.25039933  0.00065514  0.37473137  1
  Mn  Mn129  1  0.24984813  0.66683590  0.62535912  1
  Mn  Mn130  1  -0.00125957  -0.00119721  -0.00080608  1
  Mn  Mn131  1  0.00008293  0.66826693  0.75113703  1
  Mn  Mn132  1  0.50028270  0.66498274  0.24945547  1
  Mn  Mn133  1  0.74949580  0.49951678  0.62474328  1
  Mn  Mn134  1  0.74921425  0.83311767  0.12475761  1
  Mn  Mn135  1  -0.00000640  0.00028318  0.75035995  1
  Mn  Mn136  1  -0.00109913  0.50121655  0.49978235  1
  Mn  Mn137  1  0.25104689  0.00072002  0.62553985  1
  Mn  Mn138  1  0.49964533  0.66490474  -0.00126844  1
  Mn  Mn139  1  0.75007058  0.16573003  0.37428181  1
  Mn  Mn140  1  -0.00021175  0.16613334  0.00118800  1
  Mn  Mn141  1  0.50079461  0.00012398  -0.00012450  1
  Mn  Mn142  1  0.74995648  0.00111037  0.87380491  1
  Mn  Mn143  1  0.50029560  0.33321690  0.49979564  1
  Fe  Fe144  1  0.50090279  0.66641683  0.49986371  1
  Fe  Fe145  1  0.00006332  0.66728476  0.00054140  1
  Fe  Fe146  1  -0.00001486  0.50080768  0.25021113  1
  Fe  Fe147  1  -0.00012368  0.83352038  0.75056750  1
  Fe  Fe148  1  0.75035437  0.83307510  0.37459625  1
  Fe  Fe149  1  0.24926745  0.33338731  0.62537953  1
  Fe  Fe150  1  -0.00044894  0.16763771  0.49936007  1
  Fe  Fe151  1  0.25034921  0.50029901  0.37536100  1
  Fe  Fe152  1  0.25110726  0.66724127  0.12511817  1
  Fe  Fe153  1  0.74979195  0.83317248  0.62427116  1
  Fe  Fe154  1  0.75036554  0.00003741  0.12488339  1
  Fe  Fe155  1  0.25093810  0.16658043  0.12511735  1
  Fe  Fe156  1  0.74979225  0.33341542  0.12435100  1
  Fe  Fe157  1  0.50011497  0.49977218  0.49943657  1
  Fe  Fe158  1  0.49999321  0.16637060  0.74967592  1
  Fe  Fe159  1  0.25017599  0.16656886  0.87546373  1
  Fe  Fe160  1  0.50013821  0.33252923  0.24983319  1
  Fe  Fe161  1  0.74911860  0.66687701  0.87465480  1
  Fe  Fe162  1  0.25041109  0.83442085  0.87603033  1
  Fe  Fe163  1  0.74935519  0.33209666  0.37459613  1
  Fe  Fe164  1  0.00006691  0.00023443  0.25040152  1
  Fe  Fe165  1  0.00012777  0.83330544  0.00084455  1
  Fe  Fe166  1  -0.00001819  0.66744651  0.50015154  1
  Fe  Fe167  1  0.74925393  0.16707811  0.87556698  1
  Fe  Fe168  1  0.50011243  0.00016204  0.50019952  1
  Fe  Fe169  1  0.75010906  0.66634321  0.37459122  1
  Fe  Fe170  1  0.50072875  0.83316283  0.74913814  1
  Fe  Fe171  1  0.74954619  0.50019326  0.87523950  1
  Fe  Fe172  1  0.74931396  0.66648019  0.12465376  1
  Fe  Fe173  1  0.50044896  0.83321965  0.49967118  1
  Fe  Fe174  1  0.50011708  0.49872981  -0.00048416  1
  Fe  Fe175  1  0.50031677  0.16608844  0.00059349  1
  Fe  Fe176  1  0.50025901  0.66639699  0.74870382  1
  Fe  Fe177  1  0.50063166  0.16560025  0.25054595  1
  Fe  Fe178  1  0.74962188  0.33272752  0.87518462  1
  Fe  Fe179  1  0.24978073  0.16719525  0.62579992  1
  Fe  Fe180  1  -0.00062897  0.16675262  0.75044081  1
  Fe  Fe181  1  0.25077861  0.00058522  0.12470498  1
  Fe  Fe182  1  0.74984273  -0.00088473  0.37523320  1
  Fe  Fe183  1  0.50055185  0.49887343  0.24995960  1
  Fe  Fe184  1  0.50026604  0.16684825  0.49936068  1
  Fe  Fe185  1  0.25048964  0.83370102  0.12487894  1
  Fe  Fe186  1  0.00022884  0.33405514  0.25085924  1
  Fe  Fe187  1  0.74997923  0.16587554  0.62471682  1
  Fe  Fe188  1  0.75010497  0.16694929  0.12502471  1
  Fe  Fe189  1  0.49956896  0.50018191  0.74878044  1
  Fe  Fe190  1  0.74950123  -0.00069140  0.62427166  1
  Fe  Fe191  1  0.50120691  -0.00003591  0.25076596  1
  P  P192  1  0.04233756  0.25064424  0.10438374  1
  P  P193  1  0.04220564  0.25134168  0.35286686  1
  P  P194  1  0.04145061  0.24878976  0.60271645  1
  P  P195  1  0.04172512  0.24876432  0.85268112  1
  P  P196  1  0.04197865  0.58453331  0.10286098  1
  P  P197  1  0.04212732  0.58326451  0.35274080  1
  P  P198  1  0.04199201  0.58551342  0.60265347  1
  P  P199  1  0.04240778  0.58417275  0.85405921  1
  P  P200  1  0.04184062  0.91615661  0.10302444  1
  P  P201  1  0.04258378  0.91860283  0.35267703  1
  P  P202  1  0.04290213  0.91715914  0.60423007  1
  P  P203  1  0.04216394  0.91503689  0.85322897  1
  P  P204  1  0.54208850  0.24824063  0.10323248  1
  P  P205  1  0.54165198  0.24924236  0.35156400  1
  P  P206  1  0.54199348  0.24850274  0.60244690  1
  P  P207  1  0.54171854  0.24843103  0.85251314  1
  P  P208  1  0.54231970  0.58048217  0.10189328  1
  P  P209  1  0.54250036  0.58136902  0.35273992  1
  P  P210  1  0.54154463  0.58288334  0.60146898  1
  P  P211  1  0.54123089  0.58257015  0.85060459  1
  P  P212  1  0.54317355  0.91672537  0.10368982  1
  P  P213  1  0.54224772  0.91754365  0.35348694  1
  P  P214  1  0.54158553  0.91618204  0.60130590  1
  P  P215  1  0.54286428  0.91560355  0.85159996  1
  P  P216  1  0.45963891  0.08280555  0.14864218  1
  P  P217  1  0.45934658  0.08329371  0.39791813  1
  P  P218  1  0.45837070  0.08447541  0.64654825  1
  P  P219  1  0.45819863  0.08468348  0.89739411  1
  P  P220  1  0.45910307  0.41589219  0.14807146  1
  P  P221  1  0.45813005  0.41728978  0.39670818  1
  P  P222  1  0.45781876  0.41793319  0.64669663  1
  P  P223  1  0.45778977  0.41737525  0.89684735  1
  P  P224  1  0.45755452  0.74894770  0.14683586  1
  P  P225  1  0.45936104  0.74974532  0.39846742  1
  P  P226  1  0.45952842  0.75017438  0.64703932  1
  P  P227  1  0.45801084  0.74966377  0.89543239  1
  P  P228  1  0.95747034  0.08173055  0.14799515  1
  P  P229  1  0.95754839  0.08469356  0.39747339  1
  P  P230  1  0.95761177  0.08525501  0.64752937  1
  P  P231  1  0.95669262  0.08357529  0.89660862  1
  P  P232  1  0.95816528  0.41729410  0.14899084  1
  P  P233  1  0.95691913  0.41717996  0.39591985  1
  P  P234  1  0.95584068  0.41712036  0.64679777  1
  P  P235  1  0.95618701  0.41650257  0.89691523  1
  P  P236  1  0.95697160  0.75054046  0.14618810  1
  P  P237  1  0.95757018  0.74933861  0.39773477  1
  P  P238  1  0.95738353  0.75174522  0.64763895  1
  P  P239  1  0.95835569  0.75084261  0.89887001  1
  P  P240  1  0.20920396  0.08376153  0.22647540  1
  P  P241  1  0.20769073  0.08413565  0.47900429  1
  P  P242  1  0.20812339  0.08471046  0.72836221  1
  P  P243  1  0.20817647  0.08481154  0.97870591  1
  P  P244  1  0.20758252  0.41727799  0.22898337  1
  P  P245  1  0.20771696  0.41775418  0.47788383  1
  P  P246  1  0.20705232  0.41512114  0.72786245  1
  P  P247  1  0.20680369  0.41677849  0.97875811  1
  P  P248  1  0.20870854  0.75010604  0.22633710  1
  P  P249  1  0.20721148  0.75053353  0.47808118  1
  P  P250  1  0.20758373  0.75085161  0.72925604  1
  P  P251  1  0.20869455  0.75255962  0.97889252  1
  P  P252  1  0.70912745  0.08277628  0.22655471  1
  P  P253  1  0.70813598  0.08104811  0.47764443  1
  P  P254  1  0.70805120  0.08312827  0.72603045  1
  P  P255  1  0.70780231  0.08473142  0.97796496  1
  P  P256  1  0.70793559  0.41490710  0.22721284  1
  P  P257  1  0.70700620  0.41411295  0.47692687  1
  P  P258  1  0.70689345  0.41650090  0.72914672  1
  P  P259  1  0.70847393  0.41599967  0.97650018  1
  P  P260  1  0.70766277  0.74841807  0.22783399  1
  P  P261  1  0.70893519  0.75003574  0.47610955  1
  P  P262  1  0.70767168  0.75090617  0.72688696  1
  P  P263  1  0.70711746  0.74864519  0.97727697  1
  P  P264  1  0.29287714  0.24859663  0.02285033  1
  P  P265  1  0.29340041  0.24964995  0.27171166  1
  P  P266  1  0.29166026  0.25062763  0.52400996  1
  P  P267  1  0.29191587  0.24852938  0.77229153  1
  P  P268  1  0.29278226  0.58523128  0.02268806  1
  P  P269  1  0.29273711  0.58258501  0.27258575  1
  P  P270  1  0.29293458  0.58312266  0.52163096  1
  P  P271  1  0.29294267  0.58317642  0.77200746  1
  P  P272  1  0.29206372  0.91697051  0.02341718  1
  P  P273  1  0.29319572  0.91705308  0.27061536  1
  P  P274  1  0.29382195  0.91719578  0.52192244  1
  P  P275  1  0.29309884  0.91603277  0.77328760  1
  P  P276  1  0.79112566  0.25038090  0.02291240  1
  P  P277  1  0.79159305  0.25087106  0.27144063  1
  P  P278  1  0.79156657  0.24816125  0.52225192  1
  P  P279  1  0.79054052  0.24931639  0.77334047  1
  P  P280  1  0.79126278  0.58465481  0.02159741  1
  P  P281  1  0.79164389  0.58432834  0.27184924  1
  P  P282  1  0.79207249  0.58309446  0.52093352  1
  P  P283  1  0.79081002  0.58365245  0.77353234  1
  P  P284  1  0.79195373  0.91784316  0.02245403  1
  P  P285  1  0.79114895  0.91681600  0.27302109  1
  P  P286  1  0.79135445  0.91604294  0.52248178  1
  P  P287  1  0.79219176  0.91683432  0.77061429  1
  O  O288  1  0.03716878  0.25128427  0.18433837  1
  O  O289  1  0.03679804  0.25067994  0.43280177  1
  O  O290  1  0.03608701  0.24850971  0.68267839  1
  O  O291  1  0.03697758  0.24917365  0.93271006  1
  O  O292  1  0.03676693  0.58377551  0.18282137  1
  O  O293  1  0.03669771  0.58423977  0.43266603  1
  O  O294  1  0.03686638  0.58520836  0.68265509  1
  O  O295  1  0.03718354  0.58448306  0.93401666  1
  O  O296  1  0.03674773  0.91714732  0.18298111  1
  O  O297  1  0.03794914  0.91848223  0.43270359  1
  O  O298  1  0.03749557  0.91651030  0.68413679  1
  O  O299  1  0.03658823  0.91470212  0.93315755  1
  O  O300  1  0.53693642  0.24871707  0.18311677  1
  O  O301  1  0.53674135  0.24949159  0.43154803  1
  O  O302  1  0.53656756  0.24841187  0.68237139  1
  O  O303  1  0.53640602  0.24826570  0.93247631  1
  O  O304  1  0.53730997  0.58041274  0.18185996  1
  O  O305  1  0.53728968  0.58183385  0.43260499  1
  O  O306  1  0.53635769  0.58325369  0.68134709  1
  O  O307  1  0.53641177  0.58230411  0.93054114  1
  O  O308  1  0.53792539  0.91735797  0.18365100  1
  O  O309  1  0.53655401  0.91723693  0.43334040  1
  O  O310  1  0.53681601  0.91611556  0.68130584  1
  O  O311  1  0.53798562  0.91608865  0.93161813  1
  O  O312  1  0.46443452  0.08317529  0.06867025  1
  O  O313  1  0.46464152  0.08270967  0.31803310  1
  O  O314  1  0.46360227  0.08438131  0.56667574  1
  O  O315  1  0.46331813  0.08483818  0.81742356  1
  O  O316  1  0.46373553  0.41569173  0.06807292  1
  O  O317  1  0.46365670  0.41679826  0.31683554  1
  O  O318  1  0.46339785  0.41761325  0.56679884  1
  O  O319  1  0.46288398  0.41753412  0.81691100  1
  O  O320  1  0.46269773  0.74886177  0.06689812  1
  O  O321  1  0.46403894  0.74924601  0.31849718  1
  O  O322  1  0.46471943  0.75013179  0.56714292  1
  O  O323  1  0.46345113  0.75004712  0.81550959  1
  O  O324  1  0.96224073  0.08188134  0.06800471  1
  O  O325  1  0.96286235  0.08356059  0.31752429  1
  O  O326  1  0.96282183  0.08575210  0.56757875  1
  O  O327  1  0.96204084  0.08413950  0.81666749  1
  O  O328  1  0.96313884  0.41701930  0.06896951  1
  O  O329  1  0.96269490  0.41711203  0.31604592  1
  O  O330  1  0.96082756  0.41714686  0.56678006  1
  O  O331  1  0.96096711  0.41648957  0.81693040  1
  O  O332  1  0.96235086  0.75058830  0.06629007  1
  O  O333  1  0.96235467  0.74963801  0.31774005  1
  O  O334  1  0.96273247  0.75097172  0.56771722  1
  O  O335  1  0.96329726  0.75136299  0.81886785  1
  O  O336  1  0.21383098  0.08448692  0.05856774  1
  O  O337  1  0.21365597  0.08342019  0.30651288  1
  O  O338  1  0.21284864  0.08468998  0.55896543  1
  O  O339  1  0.21321887  0.08463966  0.80834863  1
  O  O340  1  0.21206523  0.41678244  0.05871838  1
  O  O341  1  0.21299470  0.41784205  0.30891120  1
  O  O342  1  0.21283184  0.41677836  0.55787457  1
  O  O343  1  0.21200164  0.41523807  0.80786404  1
  O  O344  1  0.21446194  0.75225639  0.05876531  1
  O  O345  1  0.21362774  0.74985766  0.30635888  1
  O  O346  1  0.21207367  0.75042570  0.55807447  1
  O  O347  1  0.21293301  0.75142685  0.80922120  1
  O  O348  1  0.71341788  0.08432527  0.05776900  1
  O  O349  1  0.71397914  0.08268811  0.30651113  1
  O  O350  1  0.71351996  0.08132430  0.55748300  1
  O  O351  1  0.71270716  0.08347646  0.80598983  1
  O  O352  1  0.71349378  0.41600403  0.05649976  1
  O  O353  1  0.71315688  0.41465943  0.30712106  1
  O  O354  1  0.71218831  0.41448891  0.55690554  1
  O  O355  1  0.71232802  0.41687202  0.80901464  1
  O  O356  1  0.71221927  0.74847961  0.05724929  1
  O  O357  1  0.71333119  0.74847605  0.30767638  1
  O  O358  1  0.71369634  0.75100836  0.55608075  1
  O  O359  1  0.71251494  0.75025972  0.80684762  1
  O  O360  1  0.28843687  0.24906321  0.19176727  1
  O  O361  1  0.28697237  0.25077134  0.44397536  1
  O  O362  1  0.28619718  0.24908150  0.69241773  1
  O  O363  1  0.28757793  0.24845646  0.94288733  1
  O  O364  1  0.28761748  0.58354673  0.19261136  1
  O  O365  1  0.28775054  0.58271726  0.44165886  1
  O  O366  1  0.28772924  0.58302183  0.69204737  1
  O  O367  1  0.28750987  0.58493353  0.94275960  1
  O  O368  1  0.28785113  0.91697687  0.19068877  1
  O  O369  1  0.28887993  0.91728213  0.44190755  1
  O  O370  1  0.28803642  0.91651746  0.69333239  1
  O  O371  1  0.28713513  0.91694745  0.94342709  1
  O  O372  1  0.78635275  0.25100416  0.19156961  1
  O  O373  1  0.78637606  0.24850559  0.44231213  1
  O  O374  1  0.78545481  0.24853198  0.69340723  1
  O  O375  1  0.78608705  0.25010718  0.94301600  1
  O  O376  1  0.78614773  0.58446461  0.19191186  1
  O  O377  1  0.78687650  0.58340514  0.44100084  1
  O  O378  1  0.78623623  0.58323239  0.69348667  1
  O  O379  1  0.78577464  0.58446273  0.94172657  1
  O  O380  1  0.78624580  0.91697952  0.19306967  1
  O  O381  1  0.78630031  0.91599513  0.44254467  1
  O  O382  1  0.78676373  0.91647056  0.69070491  1
  O  O383  1  0.78684548  0.91770382  0.94252695  1
  O  O384  1  0.22857442  0.24839947  0.05848635  1
  O  O385  1  0.22898319  0.25014644  0.30677072  1
  O  O386  1  0.22737385  0.25062346  0.55965125  1
  O  O387  1  0.22782299  0.24788046  0.80868352  1
  O  O388  1  0.22846777  0.58567432  0.05826146  1
  O  O389  1  0.22839489  0.58188024  0.30815591  1
  O  O390  1  0.22854609  0.58314915  0.55685054  1
  O  O391  1  0.22856714  0.58378816  0.80716201  1
  O  O392  1  0.22797132  0.91670113  0.05938345  1
  O  O393  1  0.22890172  0.91701706  0.30625411  1
  O  O394  1  0.22934001  0.91735433  0.55681749  1
  O  O395  1  0.22877841  0.91603895  0.80886540  1
  O  O396  1  0.72706506  0.25073419  0.05914265  1
  O  O397  1  0.72743617  0.25045916  0.30752672  1
  O  O398  1  0.72730327  0.24742916  0.55801774  1
  O  O399  1  0.72645741  0.25020902  0.80954430  1
  O  O400  1  0.72718294  0.58437738  0.05787467  1
  O  O401  1  0.72753080  0.58412994  0.30792570  1
  O  O402  1  0.72775540  0.58323728  0.55633546  1
  O  O403  1  0.72652423  0.58418349  0.80903354  1
  O  O404  1  0.72770228  0.91822620  0.05812287  1
  O  O405  1  0.72705408  0.91692696  0.30907351  1
  O  O406  1  0.72723377  0.91597930  0.55873907  1
  O  O407  1  0.72801402  0.91691868  0.80641371  1
  O  O408  1  0.27353801  0.08415164  0.19112902  1
  O  O409  1  0.27213437  0.08375414  0.44384817  1
  O  O410  1  0.27240099  0.08513476  0.69269151  1
  O  O411  1  0.27227862  0.08509950  0.94236877  1
  O  O412  1  0.27187141  0.41719017  0.19352709  1
  O  O413  1  0.27205934  0.41859734  0.44222924  1
  O  O414  1  0.27148434  0.41468743  0.69258591  1
  O  O415  1  0.27125674  0.41647941  0.94376365  1
  O  O416  1  0.27298935  0.75021194  0.19071589  1
  O  O417  1  0.27178721  0.75020530  0.44339264  1
  O  O418  1  0.27194821  0.75015094  0.69390271  1
  O  O419  1  0.27268882  0.75286117  0.94237684  1
  O  O420  1  0.77319224  0.08271671  0.19049183  1
  O  O421  1  0.77221086  0.08109137  0.44137617  1
  O  O422  1  0.77225368  0.08298616  0.69013924  1
  O  O423  1  0.77185235  0.08503320  0.94160412  1
  O  O424  1  0.77210739  0.41512798  0.19128743  1
  O  O425  1  0.77126130  0.41412040  0.44122646  1
  O  O426  1  0.77104064  0.41601266  0.69320023  1
  O  O427  1  0.77248645  0.41540449  0.94037121  1
  O  O428  1  0.77163441  0.74839817  0.19129143  1
  O  O429  1  0.77307933  0.74940550  0.44026671  1
  O  O430  1  0.77205676  0.75145020  0.69151496  1
  O  O431  1  0.77143893  0.74834906  0.94163127  1
  O  O432  1  0.02190057  0.08194538  0.18320168  1
  O  O433  1  0.02185579  0.08577739  0.43318763  1
  O  O434  1  0.02182360  0.08523260  0.68335981  1
  O  O435  1  0.02100947  0.08301648  0.93198493  1
  O  O436  1  0.02234252  0.41772211  0.18494197  1
  O  O437  1  0.02096121  0.41723437  0.43205696  1
  O  O438  1  0.02034267  0.41684678  0.68164579  1
  O  O439  1  0.02072313  0.41682667  0.93166314  1
  O  O440  1  0.02123160  0.75077021  0.18173959  1
  O  O441  1  0.02201521  0.74906404  0.43291912  1
  O  O442  1  0.02168958  0.75231943  0.68339428  1
  O  O443  1  0.02251511  0.75059059  0.93490914  1
  O  O444  1  0.52380095  0.08271788  0.18466488  1
  O  O445  1  0.52326769  0.08399280  0.43444360  1
  O  O446  1  0.52250552  0.08446633  0.68266320  1
  O  O447  1  0.52251439  0.08477582  0.93303875  1
  O  O448  1  0.52323582  0.41628443  0.18396757  1
  O  O449  1  0.52223021  0.41736520  0.43296153  1
  O  O450  1  0.52193901  0.41812702  0.68280043  1
  O  O451  1  0.52209231  0.41705023  0.93254392  1
  O  O452  1  0.52191907  0.74915305  0.18200072  1
  O  O453  1  0.52359444  0.75047590  0.43409772  1
  O  O454  1  0.52346739  0.75052554  0.68356345  1
  O  O455  1  0.52217938  0.74906322  0.93130985  1
  O  O456  1  0.47795600  0.24802969  0.06710811  1
  O  O457  1  0.47758248  0.24858955  0.31559328  1
  O  O458  1  0.47784071  0.24866257  0.56641943  1
  O  O459  1  0.47760708  0.24860914  0.81650185  1
  O  O460  1  0.47797700  0.58036488  0.06631137  1
  O  O461  1  0.47833804  0.58068942  0.31665588  1
  O  O462  1  0.47760944  0.58254353  0.56501826  1
  O  O463  1  0.47715351  0.58266789  0.81450415  1
  O  O464  1  0.47889265  0.91658915  0.06821569  1
  O  O465  1  0.47827321  0.91803347  0.31698252  1
  O  O466  1  0.47748469  0.91564419  0.56540540  1
  O  O467  1  0.47852156  0.91523082  0.81618777  1
  O  O468  1  0.97792769  0.25018175  0.06918417  1
  O  O469  1  0.97801015  0.25146271  0.31708718  1
  O  O470  1  0.97716626  0.24856880  0.56694402  1
  O  O471  1  0.97721265  0.24841088  0.81758778  1
  O  O472  1  0.97770822  0.58522410  0.06721436  1
  O  O473  1  0.97789008  0.58241615  0.31689325  1
  O  O474  1  0.97761570  0.58594968  0.56722212  1
  O  O475  1  0.97801250  0.58432444  0.81880962  1
  O  O476  1  0.97751225  0.91501161  0.06746637  1
  O  O477  1  0.97798314  0.91882425  0.31780391  1
  O  O478  1  0.97869411  0.91734051  0.56860614  1
  O  O479  1  0.97801113  0.91531256  0.81718801  1
  O  O480  1  0.07350113  0.31377592  0.07559447  1
  O  O481  1  0.07292220  0.31508816  0.32478123  1
  O  O482  1  0.07216863  0.31285283  0.57523937  1
  O  O483  1  0.07249064  0.31243593  0.82446267  1
  O  O484  1  0.07280437  0.64821572  0.07469687  1
  O  O485  1  0.07318078  0.64668854  0.32430645  1
  O  O486  1  0.07293299  0.64899572  0.57440047  1
  O  O487  1  0.07387721  0.64740331  0.82590229  1
  O  O488  1  0.07255530  0.97966123  0.07432913  1
  O  O489  1  0.07329180  0.98207696  0.32397575  1
  O  O490  1  0.07390059  0.98102705  0.57678843  1
  O  O491  1  0.07331288  0.97895420  0.82603439  1
  O  O492  1  0.57315477  0.31169822  0.07463963  1
  O  O493  1  0.57171581  0.31329805  0.32300927  1
  O  O494  1  0.57311833  0.31235034  0.57508675  1
  O  O495  1  0.57272501  0.31230517  0.82505286  1
  O  O496  1  0.57312092  0.64430900  0.07401933  1
  O  O497  1  0.57321312  0.64515864  0.32441824  1
  O  O498  1  0.57217035  0.64674676  0.57283252  1
  O  O499  1  0.57172989  0.64649232  0.82222116  1
  O  O500  1  0.57449974  0.97978037  0.07486483  1
  O  O501  1  0.57353358  0.98087343  0.32506521  1
  O  O502  1  0.57152149  0.98047837  0.57308550  1
  O  O503  1  0.57360419  0.97943489  0.82364516  1
  O  O504  1  0.42895195  0.01902184  0.17677109  1
  O  O505  1  0.42881701  0.01960753  0.42685924  1
  O  O506  1  0.42725520  0.02079970  0.67462713  1
  O  O507  1  0.42748152  0.02058386  0.92491427  1
  O  O508  1  0.42885983  0.35184287  0.17657813  1
  O  O509  1  0.42687319  0.35373506  0.42482379  1
  O  O510  1  0.42702309  0.35409359  0.67461049  1
  O  O511  1  0.42664377  0.35370790  0.92469463  1
  O  O512  1  0.42670216  0.68538250  0.17503542  1
  O  O513  1  0.42930313  0.68570862  0.42702722  1
  O  O514  1  0.42900831  0.68623270  0.67544981  1
  O  O515  1  0.42644517  0.68633032  0.92345298  1
  O  O516  1  0.92697938  0.01816892  0.17666750  1
  O  O517  1  0.92681560  0.02123795  0.42628773  1
  O  O518  1  0.92679097  0.02119732  0.67477205  1
  O  O519  1  0.92547089  0.01981653  0.92399666  1
  O  O520  1  0.92763587  0.35349150  0.17724390  1
  O  O521  1  0.92551651  0.35381053  0.42412556  1
  O  O522  1  0.92466637  0.35362572  0.67474776  1
  O  O523  1  0.92552043  0.35288850  0.92525301  1
  O  O524  1  0.92581826  0.68711220  0.17448337  1
  O  O525  1  0.92685067  0.68583847  0.42619351  1
  O  O526  1  0.92630091  0.68830980  0.67610349  1
  O  O527  1  0.92773930  0.68683302  0.92667243  1
  O  O528  1  0.17894022  0.01987034  0.19774623  1
  O  O529  1  0.17656761  0.02061143  0.45089085  1
  O  O530  1  0.17745944  0.02065787  0.70074620  1
  O  O531  1  0.17708984  0.02110187  0.95064446  1
  O  O532  1  0.17667388  0.35348126  0.20126168  1
  O  O533  1  0.17687928  0.35409878  0.44962875  1
  O  O534  1  0.17615132  0.35169437  0.69927327  1
  O  O535  1  0.17559367  0.35328012  0.95078027  1
  O  O536  1  0.17813454  0.68624180  0.19813545  1
  O  O537  1  0.17600389  0.68720821  0.44972865  1
  O  O538  1  0.17620924  0.68733356  0.70141068  1
  O  O539  1  0.17750045  0.68891432  0.95102822  1
  O  O540  1  0.67795123  0.01934512  0.19827251  1
  O  O541  1  0.67722698  0.01757203  0.44899440  1
  O  O542  1  0.67734648  0.01932634  0.69767605  1
  O  O543  1  0.67652580  0.02132750  0.94953858  1
  O  O544  1  0.67689668  0.35172339  0.19831247  1
  O  O545  1  0.67632195  0.35040238  0.44873488  1
  O  O546  1  0.67536893  0.35307870  0.70118806  1
  O  O547  1  0.67673291  0.35286509  0.94839747  1
  O  O548  1  0.67648323  0.68512671  0.19909262  1
  O  O549  1  0.67778207  0.68623253  0.44861022  1
  O  O550  1  0.67682136  0.68730131  0.69841190  1
  O  O551  1  0.67588976  0.68559233  0.94822280  1
  O  O552  1  0.32370823  0.31258010  0.05043418  1
  O  O553  1  0.32447922  0.31324648  0.29971296  1
  O  O554  1  0.32228228  0.31448266  0.55210766  1
  O  O555  1  0.32288003  0.31223881  0.80053369  1
  O  O556  1  0.32376257  0.64871840  0.05097007  1
  O  O557  1  0.32375523  0.64616673  0.30086812  1
  O  O558  1  0.32375852  0.64691246  0.54960690  1
  O  O559  1  0.32446998  0.64645205  0.79986009  1
  O  O560  1  0.32230605  0.98122554  0.05153129  1
  O  O561  1  0.32431306  0.98044846  0.29915852  1
  O  O562  1  0.32489829  0.98056084  0.55034055  1
  O  O563  1  0.32417731  0.97972808  0.80111956  1
  O  O564  1  0.82251421  0.31382574  0.05108862  1
  O  O565  1  0.82221682  0.31428012  0.30064275  1
  O  O566  1  0.82240535  0.31178254  0.55050394  1
  O  O567  1  0.82184347  0.31294515  0.80101274  1
  O  O568  1  0.82208044  0.64806095  0.05045298  1
  O  O569  1  0.82268561  0.64761043  0.30058470  1
  O  O570  1  0.82342511  0.64627136  0.54957076  1
  O  O571  1  0.82202036  0.64728657  0.80128121  1
  O  O572  1  0.82299897  0.98121691  0.05093401  1
  O  O573  1  0.82244693  0.98001588  0.30167117  1
  O  O574  1  0.82222741  0.97972342  0.55089336  1
  O  O575  1  0.82342826  0.98034992  0.79868825  1
  O  O576  1  0.42873821  0.14625637  0.17726956  1
  O  O577  1  0.42788886  0.14683767  0.42570290  1
  O  O578  1  0.42742983  0.14774985  0.67546312  1
  O  O579  1  0.42718390  0.14768012  0.92660233  1
  O  O580  1  0.42780475  0.47920043  0.17632715  1
  O  O581  1  0.42731537  0.48069895  0.42538957  1
  O  O582  1  0.42664782  0.48120900  0.67497382  1
  O  O583  1  0.42713666  0.48069883  0.92594923  1
  O  O584  1  0.42648103  0.81233875  0.17503789  1
  O  O585  1  0.42788014  0.81316650  0.42607753  1
  O  O586  1  0.42817423  0.81348798  0.67545010  1
  O  O587  1  0.42717712  0.81309026  0.92429454  1
  O  O588  1  0.92636255  0.14535125  0.17570840  1
  O  O589  1  0.92647103  0.14838192  0.42506852  1
  O  O590  1  0.92647234  0.14826191  0.67666903  1
  O  O591  1  0.92566904  0.14667777  0.92566734  1
  O  O592  1  0.92728816  0.48116552  0.17651734  1
  O  O593  1  0.92554062  0.48051441  0.42409833  1
  O  O594  1  0.92514205  0.48077451  0.67496095  1
  O  O595  1  0.92513872  0.47987361  0.92525946  1
  O  O596  1  0.92560748  0.81370149  0.17495429  1
  O  O597  1  0.92684620  0.81317883  0.42551039  1
  O  O598  1  0.92659669  0.81530006  0.67598610  1
  O  O599  1  0.92735698  0.81423849  0.92737899  1
  O  O600  1  0.07322365  0.18680289  0.07671287  1
  O  O601  1  0.07363406  0.18802387  0.32474964  1
  O  O602  1  0.07264698  0.18581315  0.57371913  1
  O  O603  1  0.07244363  0.18520155  0.82432889  1
  O  O604  1  0.07301806  0.52105939  0.07471864  1
  O  O605  1  0.07301539  0.51965383  0.32467182  1
  O  O606  1  0.07271894  0.52169518  0.57480765  1
  O  O607  1  0.07312355  0.52049655  0.82574370  1
  O  O608  1  0.07298578  0.85267577  0.07497236  1
  O  O609  1  0.07324078  0.85479408  0.32468410  1
  O  O610  1  0.07429469  0.85419769  0.57535731  1
  O  O611  1  0.07306101  0.85181929  0.82444054  1
  O  O612  1  0.57299451  0.18478705  0.07468870  1
  O  O613  1  0.57325121  0.18594864  0.32363603  1
  O  O614  1  0.57294041  0.18532217  0.57346336  1
  O  O615  1  0.57266421  0.18520362  0.82364958  1
  O  O616  1  0.57316738  0.51716600  0.07298390  1
  O  O617  1  0.57374102  0.51817388  0.32405911  1
  O  O618  1  0.57290053  0.51954570  0.57318637  1
  O  O619  1  0.57226812  0.51915820  0.82218399  1
  O  O620  1  0.57407843  0.85294209  0.07595680  1
  O  O621  1  0.57323421  0.85388052  0.32543622  1
  O  O622  1  0.57319501  0.85310240  0.57295995  1
  O  O623  1  0.57377144  0.85221449  0.82322239  1
  O  O624  1  0.32395438  0.18545107  0.05161800  1
  O  O625  1  0.32435906  0.18645721  0.30057515  1
  O  O626  1  0.32235136  0.18690629  0.55204714  1
  O  O627  1  0.32321429  0.18533334  0.80075730  1
  O  O628  1  0.32354860  0.52143687  0.05044178  1
  O  O629  1  0.32354064  0.51902354  0.30074634  1
  O  O630  1  0.32425871  0.52001110  0.55005129  1
  O  O631  1  0.32341849  0.51937613  0.80009375  1
  O  O632  1  0.32356763  0.85387270  0.05165578  1
  O  O633  1  0.32433681  0.85363254  0.29895425  1
  O  O634  1  0.32461795  0.85362443  0.55002118  1
  O  O635  1  0.32371248  0.85251812  0.80161627  1
  O  O636  1  0.82156346  0.18665449  0.05185028  1
  O  O637  1  0.82301589  0.18738403  0.29925380  1
  O  O638  1  0.82250803  0.18471973  0.55068641  1
  O  O639  1  0.82087006  0.18561156  0.80210391  1
  O  O640  1  0.82265920  0.52112937  0.04950121  1
  O  O641  1  0.82266799  0.52048895  0.29918584  1
  O  O642  1  0.82280147  0.51936289  0.54891753  1
  O  O643  1  0.82101548  0.51979838  0.80220800  1
  O  O644  1  0.82254655  0.85397091  0.05022593  1
  O  O645  1  0.82151158  0.85277037  0.30119250  1
  O  O646  1  0.82234733  0.85255759  0.55095629  1
  O  O647  1  0.82339799  0.85368635  0.79952448  1
  O  O648  1  0.17809208  0.14732236  0.19877132  1
  O  O649  1  0.17671970  0.14741687  0.45027541  1
  O  O650  1  0.17693973  0.14777165  0.69957357  1
  O  O651  1  0.17700355  0.14799119  0.95010312  1
  O  O652  1  0.17616862  0.48033561  0.20048538  1
  O  O653  1  0.17687284  0.48133002  0.44978167  1
  O  O654  1  0.17631377  0.47890474  0.70007015  1
  O  O655  1  0.17600321  0.48036150  0.95068966  1
  O  O656  1  0.17781967  0.81379413  0.19858871  1
  O  O657  1  0.17655894  0.81411951  0.44979010  1
  O  O658  1  0.17676229  0.81421789  0.70067739  1
  O  O659  1  0.17769600  0.81595003  0.95039125  1
  O  O660  1  0.67875281  0.14676808  0.19833942  1
  O  O661  1  0.67689313  0.14441398  0.44928788  1
  O  O662  1  0.67727554  0.14665237  0.69754420  1
  O  O663  1  0.67696872  0.14824516  0.94928314  1
  O  O664  1  0.67703991  0.47875100  0.19963450  1
  O  O665  1  0.67600101  0.47769595  0.44907737  1
  O  O666  1  0.67602960  0.47981701  0.70009636  1
  O  O667  1  0.67844134  0.48023687  0.94837446  1
  O  O668  1  0.67652043  0.81212951  0.20006037  1
  O  O669  1  0.67848688  0.81357933  0.44700561  1
  O  O670  1  0.67689637  0.81434466  0.69833037  1
  O  O671  1  0.67659350  0.81274179  0.94978146  1
