# generated using pymatgen
data_Na2MnFe(PO4)2
_symmetry_space_group_name_H-M   'P 1'
_cell_length_a   22.34163345
_cell_length_b   20.09594450
_cell_length_c   19.45223889
_cell_angle_alpha   89.98369922
_cell_angle_beta   90.08686118
_cell_angle_gamma   90.04201628
_symmetry_Int_Tables_number   1
_chemical_formula_structural   Na2MnFe(PO4)2
_chemical_formula_sum   'Na96 Mn48 Fe48 P96 O384'
_cell_volume   8733.58006336
_cell_formula_units_Z   48
loop_
 _symmetry_equiv_pos_site_id
 _symmetry_equiv_pos_as_xyz
  1  'x, y, z'
loop_
 _atom_site_type_symbol
 _atom_site_label
 _atom_site_symmetry_multiplicity
 _atom_site_fract_x
 _atom_site_fract_y
 _atom_site_fract_z
 _atom_site_occupancy
  Na  Na0  1  0.14000965  0.25046533  0.24394418  1
  Na  Na1  1  0.13956875  0.24899784  0.49364137  1
  Na  Na2  1  0.13942703  0.24959949  0.74336929  1
  Na  Na3  1  0.13999718  0.24885367  0.99418841  1
  Na  Na4  1  0.13980293  0.58393625  0.24297944  1
  Na  Na5  1  0.13994868  0.58301262  0.49422982  1
  Na  Na6  1  0.13977789  0.58405434  0.74425996  1
  Na  Na7  1  0.13964434  0.58331127  0.99326098  1
  Na  Na8  1  0.13923146  0.91778507  0.24288344  1
  Na  Na9  1  0.13897892  0.91611815  0.49290522  1
  Na  Na10  1  0.13924268  0.91634792  0.74402929  1
  Na  Na11  1  0.13970102  0.91547772  0.99339968  1
  Na  Na12  1  0.64087887  0.24979634  0.24144584  1
  Na  Na13  1  0.64054613  0.25010125  0.49400025  1
  Na  Na14  1  0.64052955  0.25146328  0.74331456  1
  Na  Na15  1  0.64058296  0.24998430  0.99401828  1
  Na  Na16  1  0.64043848  0.58285001  0.24290061  1
  Na  Na17  1  0.64055043  0.58334195  0.49464395  1
  Na  Na18  1  0.64074158  0.58370111  0.74339786  1
  Na  Na19  1  0.64023936  0.58327623  0.99425863  1
  Na  Na20  1  0.64012310  0.91632000  0.24323530  1
  Na  Na21  1  0.63976085  0.91607864  0.49398159  1
  Na  Na22  1  0.64023665  0.91764787  0.74379150  1
  Na  Na23  1  0.64021880  0.91764042  0.99413941  1
  Na  Na24  1  0.36025272  0.08203132  0.00677249  1
  Na  Na25  1  0.36012131  0.08376687  0.25507908  1
  Na  Na26  1  0.35976119  0.08112041  0.50526205  1
  Na  Na27  1  0.35942348  0.08191092  0.75602088  1
  Na  Na28  1  0.35973427  0.41635059  0.00614312  1
  Na  Na29  1  0.35977104  0.41671701  0.25465579  1
  Na  Na30  1  0.36005496  0.41639577  0.50545851  1
  Na  Na31  1  0.35997416  0.41683853  0.75637660  1
  Na  Na32  1  0.35945375  0.74885191  0.00572286  1
  Na  Na33  1  0.36001863  0.75133682  0.25648421  1
  Na  Na34  1  0.36028605  0.75016887  0.50653664  1
  Na  Na35  1  0.35981887  0.75023599  0.75572729  1
  Na  Na36  1  0.86019531  0.08414603  0.00721088  1
  Na  Na37  1  0.86028190  0.08319965  0.25598063  1
  Na  Na38  1  0.86011443  0.08345624  0.50836854  1
  Na  Na39  1  0.86021054  0.08453989  0.75678500  1
  Na  Na40  1  0.85961680  0.41801725  0.00730543  1
  Na  Na41  1  0.86022945  0.41717845  0.25603966  1
  Na  Na42  1  0.86014833  0.41569761  0.50829793  1
  Na  Na43  1  0.86042024  0.41701111  0.75643749  1
  Na  Na44  1  0.85995276  0.75037877  0.00755772  1
  Na  Na45  1  0.86016263  0.75019947  0.25544100  1
  Na  Na46  1  0.86008996  0.74997798  0.50667351  1
  Na  Na47  1  0.85932890  0.75103222  0.75685492  1
  Na  Na48  1  0.10914796  0.08233018  0.11830778  1
  Na  Na49  1  0.10911864  0.08212889  0.36881075  1
  Na  Na50  1  0.10845409  0.08294199  0.61827101  1
  Na  Na51  1  0.10873586  0.08398260  0.86954510  1
  Na  Na52  1  0.10922694  0.41773294  0.11794817  1
  Na  Na53  1  0.10902609  0.41657711  0.36946927  1
  Na  Na54  1  0.10910020  0.41564058  0.61916862  1
  Na  Na55  1  0.10860548  0.41616981  0.86905767  1
  Na  Na56  1  0.10888215  0.75096566  0.11688883  1
  Na  Na57  1  0.10870174  0.75086402  0.36821431  1
  Na  Na58  1  0.10903669  0.75032335  0.61856000  1
  Na  Na59  1  0.10948903  0.75009758  0.86838535  1
  Na  Na60  1  0.61031127  0.08334467  0.11772123  1
  Na  Na61  1  0.60960501  0.08223823  0.36821249  1
  Na  Na62  1  0.60949246  0.08309827  0.61889434  1
  Na  Na63  1  0.60981030  0.08325950  0.86945040  1
  Na  Na64  1  0.61019099  0.41572115  0.11790038  1
  Na  Na65  1  0.60988602  0.41672864  0.36810277  1
  Na  Na66  1  0.61011267  0.41718716  0.61848159  1
  Na  Na67  1  0.60997703  0.41849540  0.86855286  1
  Na  Na68  1  0.60926091  0.74923893  0.11921166  1
  Na  Na69  1  0.60955541  0.74977310  0.36977820  1
  Na  Na70  1  0.60942672  0.75119207  0.61906983  1
  Na  Na71  1  0.60949185  0.75048246  0.86900200  1
  Na  Na72  1  0.39093786  0.24902929  0.13098374  1
  Na  Na73  1  0.39123845  0.24888689  0.37927330  1
  Na  Na74  1  0.39070505  0.24969949  0.63060137  1
  Na  Na75  1  0.39124001  0.25022803  0.88120140  1
  Na  Na76  1  0.39049366  0.58260391  0.13119010  1
  Na  Na77  1  0.39063951  0.58417902  0.38033114  1
  Na  Na78  1  0.39111507  0.58442234  0.63138652  1
  Na  Na79  1  0.39061393  0.58401822  0.88077456  1
  Na  Na80  1  0.39057664  0.91639740  0.13148736  1
  Na  Na81  1  0.39054434  0.91558005  0.38163218  1
  Na  Na82  1  0.39026767  0.91523098  0.63069400  1
  Na  Na83  1  0.39042975  0.91605383  0.88107071  1
  Na  Na84  1  0.89024838  0.24967826  0.13241420  1
  Na  Na85  1  0.89066466  0.24995126  0.38288094  1
  Na  Na86  1  0.89086210  0.24994937  0.63255405  1
  Na  Na87  1  0.89057212  0.25051741  0.88128137  1
  Na  Na88  1  0.89026927  0.58431474  0.13164771  1
  Na  Na89  1  0.89075391  0.58259846  0.38108719  1
  Na  Na90  1  0.89073062  0.58150293  0.63225614  1
  Na  Na91  1  0.89028434  0.58339349  0.88254278  1
  Na  Na92  1  0.89076994  0.91726181  0.13072371  1
  Na  Na93  1  0.89067053  0.91763249  0.38117947  1
  Na  Na94  1  0.89031805  0.91725800  0.63166717  1
  Na  Na95  1  0.89043956  0.91829833  0.88219243  1
  Mn  Mn96  1  0.24993356  0.33254719  0.87549071  1
  Mn  Mn97  1  0.25000397  0.16537615  0.62434708  1
  Mn  Mn98  1  0.49945717  0.83357817  0.00021749  1
  Mn  Mn99  1  0.24987458  0.66743361  0.37426279  1
  Mn  Mn100  1  0.00009013  0.66730308  0.24984380  1
  Mn  Mn101  1  -0.00019204  0.66638978  0.49947015  1
  Mn  Mn102  1  -0.00085506  0.66596262  0.74952515  1
  Mn  Mn103  1  0.75031855  0.33305070  0.37498070  1
  Mn  Mn104  1  0.49974014  0.50099749  0.49913283  1
  Mn  Mn105  1  0.25001588  0.50038977  0.37479670  1
  Mn  Mn106  1  0.25006400  0.50049410  0.62532668  1
  Mn  Mn107  1  0.24908155  -0.00198098  0.62587067  1
  Mn  Mn108  1  -0.00093991  0.83399532  0.74991198  1
  Mn  Mn109  1  0.75052739  0.66605623  0.37573518  1
  Mn  Mn110  1  0.74987048  0.66665999  0.87541385  1
  Mn  Mn111  1  0.50038812  0.49972595  0.25018891  1
  Mn  Mn112  1  0.74997304  0.83372005  0.12500397  1
  Mn  Mn113  1  0.75062917  0.16699302  0.87533614  1
  Mn  Mn114  1  0.24916101  -0.00176251  0.87565813  1
  Mn  Mn115  1  0.24925913  0.50034162  0.87508168  1
  Mn  Mn116  1  0.75040046  0.16671914  0.37491470  1
  Mn  Mn117  1  0.24896479  0.83430308  0.37485790  1
  Mn  Mn118  1  0.00031534  0.16569203  0.25156730  1
  Mn  Mn119  1  0.24978487  0.66707014  0.12466241  1
  Mn  Mn120  1  0.50028082  -0.00068398  0.24991510  1
  Mn  Mn121  1  0.50041067  0.33339588  -0.00016281  1
  Mn  Mn122  1  0.24994224  0.33339194  0.37420764  1
  Mn  Mn123  1  0.24998252  0.33326024  0.12477334  1
  Mn  Mn124  1  0.25013069  -0.00052944  0.12435784  1
  Mn  Mn125  1  0.74969897  0.00036426  0.62523028  1
  Mn  Mn126  1  0.49938271  -0.00066722  0.74969249  1
  Mn  Mn127  1  0.25011357  0.66777157  0.62470877  1
  Mn  Mn128  1  0.49973255  0.16700738  0.74946267  1
  Mn  Mn129  1  0.25041652  0.16570501  0.37445512  1
  Mn  Mn130  1  0.75005456  0.83282964  0.37439772  1
  Mn  Mn131  1  0.25015887  0.16568506  0.87472443  1
  Mn  Mn132  1  0.74968634  0.83486460  0.87640555  1
  Mn  Mn133  1  0.50015259  0.50085969  0.74914522  1
  Mn  Mn134  1  0.75025832  0.33461206  0.87485436  1
  Mn  Mn135  1  0.50046440  0.33289457  0.49894468  1
  Mn  Mn136  1  -0.00022662  0.33335535  0.00023627  1
  Mn  Mn137  1  0.75045807  0.66662864  0.62584156  1
  Mn  Mn138  1  0.00021242  0.33398057  0.25088679  1
  Mn  Mn139  1  0.25010190  0.33289856  0.62477667  1
  Mn  Mn140  1  0.75018625  0.49943837  0.37467290  1
  Mn  Mn141  1  0.50098621  0.16575211  0.49972503  1
  Mn  Mn142  1  0.75009967  0.00000380  0.37557585  1
  Mn  Mn143  1  0.49951259  0.66617774  -0.00002609  1
  Fe  Fe144  1  -0.00006066  0.50036632  0.25034269  1
  Fe  Fe145  1  -0.00044781  -0.00002834  0.50012784  1
  Fe  Fe146  1  -0.00057192  -0.00060169  0.24954224  1
  Fe  Fe147  1  -0.00034558  0.16626755  0.50126350  1
  Fe  Fe148  1  0.75006031  0.83385391  0.62568597  1
  Fe  Fe149  1  0.50053566  0.66753091  0.75018501  1
  Fe  Fe150  1  0.75028086  0.50035923  0.87548129  1
  Fe  Fe151  1  -0.00039893  0.83413363  -0.00057789  1
  Fe  Fe152  1  0.24981325  0.83290666  0.12434062  1
  Fe  Fe153  1  0.24992619  0.66676913  0.87506161  1
  Fe  Fe154  1  -0.00019836  0.66713915  -0.00014652  1
  Fe  Fe155  1  0.49973824  -0.00097679  0.49936323  1
  Fe  Fe156  1  0.00018904  0.49947484  0.75052045  1
  Fe  Fe157  1  0.24910205  0.83302545  0.62487959  1
  Fe  Fe158  1  0.50032640  0.33262643  0.24883250  1
  Fe  Fe159  1  0.24995110  0.83236128  0.87470006  1
  Fe  Fe160  1  0.75012803  0.00115401  0.87497340  1
  Fe  Fe161  1  -0.00031421  0.00074620  0.75054066  1
  Fe  Fe162  1  -0.00020408  0.33310199  0.50110640  1
  Fe  Fe163  1  0.24998477  -0.00026991  0.37426256  1
  Fe  Fe164  1  -0.00059702  0.50052150  -0.00013693  1
  Fe  Fe165  1  0.50020563  0.49991548  -0.00021309  1
  Fe  Fe166  1  0.75025202  0.50031474  0.12499204  1
  Fe  Fe167  1  0.50049195  0.00012598  0.00039385  1
  Fe  Fe168  1  -0.00013979  0.00057440  -0.00013704  1
  Fe  Fe169  1  0.75074002  0.33373628  0.12463536  1
  Fe  Fe170  1  0.50019383  0.66681696  0.25057092  1
  Fe  Fe171  1  0.49998734  0.83278805  0.50011526  1
  Fe  Fe172  1  0.50069864  0.16570478  0.24932296  1
  Fe  Fe173  1  -0.00083829  0.83394423  0.49918816  1
  Fe  Fe174  1  0.75058788  0.16650639  0.12449581  1
  Fe  Fe175  1  0.50041085  0.33397716  0.75020552  1
  Fe  Fe176  1  0.50038266  0.66754897  0.50031807  1
  Fe  Fe177  1  -0.00014105  0.16691730  0.00015185  1
  Fe  Fe178  1  0.75049571  0.00034796  0.12497585  1
  Fe  Fe179  1  0.75051550  0.49987805  0.62508314  1
  Fe  Fe180  1  0.00006148  0.49932672  0.50072334  1
  Fe  Fe181  1  -0.00010762  0.33297180  0.75038903  1
  Fe  Fe182  1  -0.00034794  0.83395357  0.24893122  1
  Fe  Fe183  1  0.74981087  0.66647075  0.12518008  1
  Fe  Fe184  1  -0.00007171  0.16663033  0.75015930  1
  Fe  Fe185  1  0.74945323  0.16699414  0.62581239  1
  Fe  Fe186  1  0.24980691  0.16623388  0.12498287  1
  Fe  Fe187  1  0.50032972  0.83260549  0.25100539  1
  Fe  Fe188  1  0.74997104  0.33370949  0.62549407  1
  Fe  Fe189  1  0.50042608  0.16691998  -0.00021735  1
  Fe  Fe190  1  0.24954035  0.50030985  0.12454303  1
  Fe  Fe191  1  0.50041473  0.83353938  0.74983886  1
  P  P192  1  0.04187557  0.24872585  0.10278563  1
  P  P193  1  0.04249072  0.25011458  0.35472089  1
  P  P194  1  0.04096977  0.24969336  0.60283301  1
  P  P195  1  0.04106064  0.24966702  0.85211706  1
  P  P196  1  0.04091382  0.58375266  0.10155813  1
  P  P197  1  0.04206583  0.58216871  0.35271885  1
  P  P198  1  0.04178158  0.58161612  0.60279582  1
  P  P199  1  0.04141267  0.58230154  0.85318917  1
  P  P200  1  0.04092314  0.91692874  0.10141999  1
  P  P201  1  0.04069180  0.91664790  0.35157116  1
  P  P202  1  0.04074766  0.91670218  0.60147598  1
  P  P203  1  0.04128445  0.91847077  0.85309235  1
  P  P204  1  0.54234950  0.24854546  0.10278308  1
  P  P205  1  0.54236835  0.24936996  0.35047664  1
  P  P206  1  0.54307467  0.25022461  0.60321241  1
  P  P207  1  0.54254869  0.25123219  0.85261173  1
  P  P208  1  0.54205634  0.58192284  0.10280285  1
  P  P209  1  0.54266379  0.58513525  0.35278198  1
  P  P210  1  0.54224063  0.58541788  0.60264873  1
  P  P211  1  0.54246542  0.58467675  0.85238902  1
  P  P212  1  0.54242909  0.91751954  0.10289904  1
  P  P213  1  0.54225563  0.91473875  0.35330859  1
  P  P214  1  0.54129675  0.91623973  0.60165373  1
  P  P215  1  0.54221262  0.91587919  0.85275513  1
  P  P216  1  0.45863106  0.08396232  0.14656476  1
  P  P217  1  0.45830182  0.08175855  0.39676110  1
  P  P218  1  0.45699151  0.08246525  0.64612791  1
  P  P219  1  0.45883922  0.08314096  0.89853236  1
  P  P220  1  0.45839863  0.41549663  0.14681322  1
  P  P221  1  0.45759006  0.41628953  0.39563948  1
  P  P222  1  0.45791372  0.41577455  0.64726738  1
  P  P223  1  0.45800017  0.41806089  0.89709312  1
  P  P224  1  0.45871681  0.74984130  0.14886153  1
  P  P225  1  0.45846074  0.74983216  0.39801193  1
  P  P226  1  0.45898111  0.75043450  0.64788592  1
  P  P227  1  0.45748306  0.75011191  0.89615269  1
  P  P228  1  0.95833613  0.08220660  0.14719727  1
  P  P229  1  0.95834333  0.08323412  0.39907182  1
  P  P230  1  0.95848068  0.08318424  0.64824325  1
  P  P231  1  0.95835430  0.08420322  0.89818292  1
  P  P232  1  0.95829808  0.41857350  0.14758244  1
  P  P233  1  0.95829626  0.41652325  0.39918007  1
  P  P234  1  0.95925702  0.41607585  0.64837298  1
  P  P235  1  0.95760624  0.41775459  0.89744487  1
  P  P236  1  0.95795685  0.75152879  0.14631626  1
  P  P237  1  0.95765878  0.75165860  0.39670371  1
  P  P238  1  0.95674255  0.75027799  0.64632865  1
  P  P239  1  0.95834878  0.75027006  0.89838527  1
  P  P240  1  0.20755842  0.08387985  0.22727971  1
  P  P241  1  0.20743474  0.08102141  0.47704720  1
  P  P242  1  0.20641880  0.08233284  0.72814707  1
  P  P243  1  0.20721477  0.08261620  0.97869324  1
  P  P244  1  0.20727719  0.41817715  0.22689292  1
  P  P245  1  0.20698788  0.41652448  0.47803416  1
  P  P246  1  0.20701666  0.41665089  0.72832006  1
  P  P247  1  0.20686495  0.41660336  0.97863698  1
  P  P248  1  0.20690343  0.75187306  0.22681538  1
  P  P249  1  0.20645020  0.75039647  0.47806405  1
  P  P250  1  0.20722117  0.75146214  0.72815334  1
  P  P251  1  0.20825489  0.74970459  0.97672113  1
  P  P252  1  0.70900266  0.08325724  0.22623721  1
  P  P253  1  0.70733666  0.08383229  0.47875413  1
  P  P254  1  0.70763009  0.08466239  0.72811566  1
  P  P255  1  0.70850540  0.08270776  0.97833844  1
  P  P256  1  0.70888421  0.41665940  0.22597604  1
  P  P257  1  0.70766427  0.41640605  0.47888641  1
  P  P258  1  0.70899323  0.41756709  0.72696365  1
  P  P259  1  0.70823940  0.41831246  0.97834178  1
  P  P260  1  0.70793428  0.74869781  0.22729969  1
  P  P261  1  0.70780292  0.75010762  0.47906550  1
  P  P262  1  0.70794841  0.75167001  0.72794864  1
  P  P263  1  0.70730661  0.74980913  0.97906489  1
  P  P264  1  0.29251133  0.24812559  0.02265359  1
  P  P265  1  0.29269592  0.24957448  0.27077378  1
  P  P266  1  0.29306281  0.24910205  0.52127488  1
  P  P267  1  0.29317379  0.24950090  0.77174716  1
  P  P268  1  0.29205618  0.58256077  0.02211377  1
  P  P269  1  0.29268025  0.58363419  0.27082674  1
  P  P270  1  0.29337648  0.58381045  0.52181794  1
  P  P271  1  0.29217416  0.58507313  0.77269591  1
  P  P272  1  0.29233647  0.91407304  0.02195912  1
  P  P273  1  0.29221112  0.91791804  0.27185380  1
  P  P274  1  0.29167775  0.91507990  0.52227563  1
  P  P275  1  0.29185140  0.91445690  0.77249903  1
  P  P276  1  0.79176177  0.25057950  0.02351673  1
  P  P277  1  0.79326043  0.24996692  0.27100930  1
  P  P278  1  0.79146881  0.24983135  0.52442453  1
  P  P279  1  0.79243573  0.25066019  0.77141490  1
  P  P280  1  0.79150161  0.58334589  0.02341935  1
  P  P281  1  0.79275202  0.58331805  0.27102135  1
  P  P282  1  0.79300652  0.58199768  0.52319626  1
  P  P283  1  0.79238668  0.58209725  0.77273372  1
  P  P284  1  0.79226664  0.91878417  0.02241818  1
  P  P285  1  0.79266812  0.91723159  0.27136856  1
  P  P286  1  0.79216830  0.91559470  0.52305977  1
  P  P287  1  0.79223186  0.91856318  0.77286054  1
  O  O288  1  0.03696084  0.24898375  0.18269868  1
  O  O289  1  0.03713903  0.25049919  0.43457114  1
  O  O290  1  0.03601123  0.24916236  0.68273136  1
  O  O291  1  0.03619092  0.24976241  0.93207828  1
  O  O292  1  0.03638923  0.58395597  0.18151921  1
  O  O293  1  0.03672608  0.58211889  0.43259956  1
  O  O294  1  0.03640866  0.58162557  0.68271717  1
  O  O295  1  0.03602631  0.58288991  0.93305508  1
  O  O296  1  0.03602425  0.91624300  0.18125654  1
  O  O297  1  0.03558450  0.91659885  0.43139340  1
  O  O298  1  0.03590081  0.91703890  0.68137538  1
  O  O299  1  0.03578159  0.91839492  0.93290144  1
  O  O300  1  0.53710336  0.24856088  0.18261784  1
  O  O301  1  0.53750731  0.24919109  0.43048880  1
  O  O302  1  0.53775470  0.25082684  0.68311957  1
  O  O303  1  0.53719295  0.25065160  0.93256131  1
  O  O304  1  0.53711098  0.58240644  0.18268870  1
  O  O305  1  0.53732291  0.58532363  0.43270307  1
  O  O306  1  0.53688253  0.58546478  0.68257884  1
  O  O307  1  0.53706790  0.58361561  0.93228691  1
  O  O308  1  0.53758889  0.91706256  0.18280540  1
  O  O309  1  0.53664702  0.91502859  0.43313597  1
  O  O310  1  0.53620704  0.91595258  0.68159575  1
  O  O311  1  0.53696605  0.91665217  0.93264808  1
  O  O312  1  0.46393114  0.08382596  0.06671948  1
  O  O313  1  0.46381646  0.08231473  0.31685819  1
  O  O314  1  0.46234079  0.08181049  0.56623032  1
  O  O315  1  0.46344713  0.08330163  0.81852801  1
  O  O316  1  0.46374278  0.41623401  0.06690551  1
  O  O317  1  0.46316698  0.41574872  0.31572611  1
  O  O318  1  0.46294852  0.41608695  0.56730996  1
  O  O319  1  0.46316113  0.41759029  0.81716705  1
  O  O320  1  0.46352052  0.74987906  0.06890841  1
  O  O321  1  0.46370248  0.74989654  0.31814178  1
  O  O322  1  0.46430893  0.75036082  0.56800440  1
  O  O323  1  0.46310858  0.75022229  0.81634182  1
  O  O324  1  0.96371020  0.08263361  0.06738716  1
  O  O325  1  0.96286640  0.08326416  0.31918080  1
  O  O326  1  0.96339042  0.08317194  0.56839866  1
  O  O327  1  0.96368342  0.08448400  0.81835614  1
  O  O328  1  0.96346356  0.41856395  0.06769122  1
  O  O329  1  0.96320936  0.41700352  0.31921934  1
  O  O330  1  0.96424792  0.41555540  0.56852235  1
  O  O331  1  0.96318085  0.41732923  0.81764499  1
  O  O332  1  0.96311585  0.75112438  0.06644436  1
  O  O333  1  0.96337801  0.75174985  0.31678502  1
  O  O334  1  0.96202663  0.75050898  0.56640949  1
  O  O335  1  0.96263539  0.75018778  0.81836468  1
  O  O336  1  0.21252660  0.08310303  0.05862518  1
  O  O337  1  0.21294746  0.08293773  0.30721624  1
  O  O338  1  0.21224727  0.08098080  0.55704363  1
  O  O339  1  0.21146067  0.08227580  0.80811058  1
  O  O340  1  0.21210408  0.41712106  0.05859192  1
  O  O341  1  0.21240353  0.41779539  0.30687265  1
  O  O342  1  0.21209628  0.41647498  0.55801884  1
  O  O343  1  0.21191522  0.41655696  0.80834717  1
  O  O344  1  0.21343658  0.75019906  0.05667583  1
  O  O345  1  0.21163490  0.75165928  0.30679119  1
  O  O346  1  0.21134765  0.75070140  0.55805560  1
  O  O347  1  0.21269301  0.75093331  0.80806391  1
  O  O348  1  0.71406477  0.08277320  0.05820907  1
  O  O349  1  0.71347805  0.08358401  0.30628405  1
  O  O350  1  0.71219799  0.08435395  0.55872843  1
  O  O351  1  0.71307694  0.08395704  0.80803143  1
  O  O352  1  0.71374322  0.41802381  0.05818114  1
  O  O353  1  0.71342211  0.41618731  0.30600373  1
  O  O354  1  0.71274382  0.41655827  0.55881004  1
  O  O355  1  0.71357394  0.41775174  0.80697329  1
  O  O356  1  0.71254908  0.74917535  0.05897873  1
  O  O357  1  0.71283324  0.74875745  0.30729303  1
  O  O358  1  0.71316397  0.75078935  0.55901912  1
  O  O359  1  0.71304330  0.75158195  0.80792303  1
  O  O360  1  0.28723824  0.24907412  0.19084294  1
  O  O361  1  0.28794451  0.24925899  0.44126222  1
  O  O362  1  0.28821845  0.24949253  0.69173666  1
  O  O363  1  0.28755014  0.24845666  0.94265329  1
  O  O364  1  0.28725110  0.58311968  0.19087420  1
  O  O365  1  0.28841558  0.58395498  0.44181074  1
  O  O366  1  0.28721602  0.58504879  0.69273047  1
  O  O367  1  0.28664103  0.58349761  0.94220469  1
  O  O368  1  0.28744064  0.91720361  0.19191619  1
  O  O369  1  0.28661189  0.91626710  0.44234522  1
  O  O370  1  0.28677965  0.91436060  0.69255541  1
  O  O371  1  0.28703678  0.91372524  0.94203042  1
  O  O372  1  0.78846188  0.24986999  0.19107836  1
  O  O373  1  0.78705134  0.25006517  0.44433893  1
  O  O374  1  0.78688690  0.25030955  0.69159644  1
  O  O375  1  0.78723137  0.25056580  0.94353835  1
  O  O376  1  0.78725546  0.58347932  0.19110906  1
  O  O377  1  0.78795994  0.58222745  0.44321161  1
  O  O378  1  0.78720369  0.58203386  0.69278889  1
  O  O379  1  0.78669002  0.58312306  0.94341629  1
  O  O380  1  0.78741046  0.91785540  0.19142148  1
  O  O381  1  0.78731908  0.91587466  0.44306639  1
  O  O382  1  0.78673392  0.91742391  0.69291421  1
  O  O383  1  0.78704900  0.91923134  0.94249451  1
  O  O384  1  0.22812927  0.24810351  0.05790158  1
  O  O385  1  0.22843193  0.24940695  0.30619473  1
  O  O386  1  0.22855260  0.24913007  0.55613089  1
  O  O387  1  0.22856706  0.24933580  0.80632754  1
  O  O388  1  0.22779738  0.58233090  0.05784913  1
  O  O389  1  0.22831186  0.58384940  0.30604870  1
  O  O390  1  0.22882847  0.58382063  0.55651299  1
  O  O391  1  0.22778951  0.58526775  0.80796713  1
  O  O392  1  0.22802376  0.91443193  0.05746754  1
  O  O393  1  0.22771020  0.91857111  0.30695985  1
  O  O394  1  0.22725985  0.91413085  0.55767566  1
  O  O395  1  0.22749366  0.91445829  0.80786158  1
  O  O396  1  0.72757008  0.25072198  0.05894191  1
  O  O397  1  0.72879250  0.24982257  0.30612625  1
  O  O398  1  0.72717725  0.24948786  0.55972203  1
  O  O399  1  0.72837688  0.25061197  0.80742187  1
  O  O400  1  0.72733169  0.58285733  0.05924861  1
  O  O401  1  0.72851529  0.58315546  0.30666071  1
  O  O402  1  0.72863468  0.58198532  0.55852816  1
  O  O403  1  0.72809173  0.58203883  0.80832075  1
  O  O404  1  0.72802562  0.91859578  0.05803329  1
  O  O405  1  0.72831002  0.91696490  0.30658644  1
  O  O406  1  0.72776019  0.91582621  0.55817962  1
  O  O407  1  0.72798939  0.91920068  0.80864041  1
  O  O408  1  0.27181768  0.08449668  0.19154388  1
  O  O409  1  0.27188461  0.08083185  0.44189543  1
  O  O410  1  0.27094875  0.08209257  0.69345113  1
  O  O411  1  0.27153905  0.08199246  0.94347260  1
  O  O412  1  0.27163313  0.41835950  0.19155376  1
  O  O413  1  0.27147801  0.41662355  0.44317481  1
  O  O414  1  0.27154100  0.41664915  0.69358807  1
  O  O415  1  0.27122612  0.41660437  0.94347412  1
  O  O416  1  0.27149657  0.75165922  0.19208062  1
  O  O417  1  0.27093470  0.75063084  0.44316526  1
  O  O418  1  0.27144179  0.75220450  0.69216070  1
  O  O419  1  0.27239319  0.74927306  0.94076960  1
  O  O420  1  0.77330507  0.08285025  0.19094614  1
  O  O421  1  0.77188167  0.08359029  0.44398450  1
  O  O422  1  0.77180698  0.08501133  0.69228684  1
  O  O423  1  0.77263008  0.08218188  0.94222103  1
  O  O424  1  0.77317114  0.41754390  0.19059298  1
  O  O425  1  0.77203235  0.41633449  0.44355976  1
  O  O426  1  0.77319225  0.41779661  0.69128312  1
  O  O427  1  0.77239396  0.41870988  0.94225945  1
  O  O428  1  0.77222785  0.74912835  0.19201313  1
  O  O429  1  0.77209113  0.75001920  0.44365551  1
  O  O430  1  0.77228150  0.75137542  0.69265515  1
  O  O431  1  0.77160309  0.75030098  0.94376677  1
  O  O432  1  0.02234198  0.08162932  0.18375172  1
  O  O433  1  0.02256671  0.08312123  0.43486329  1
  O  O434  1  0.02254553  0.08288207  0.68463362  1
  O  O435  1  0.02237584  0.08406412  0.93481213  1
  O  O436  1  0.02247410  0.41866477  0.18366536  1
  O  O437  1  0.02248394  0.41597360  0.43522391  1
  O  O438  1  0.02315313  0.41666043  0.68504612  1
  O  O439  1  0.02168961  0.41800568  0.93384093  1
  O  O440  1  0.02207702  0.75174849  0.18258275  1
  O  O441  1  0.02171384  0.75167076  0.43307998  1
  O  O442  1  0.02101179  0.75019603  0.68195901  1
  O  O443  1  0.02265039  0.75011907  0.93376946  1
  O  O444  1  0.52277400  0.08369176  0.18280057  1
  O  O445  1  0.52245688  0.08083416  0.43293039  1
  O  O446  1  0.52130591  0.08283018  0.68164805  1
  O  O447  1  0.52308320  0.08285417  0.93430048  1
  O  O448  1  0.52257887  0.41516533  0.18285699  1
  O  O449  1  0.52186200  0.41704388  0.43129451  1
  O  O450  1  0.52228922  0.41591103  0.68287495  1
  O  O451  1  0.52231369  0.41825836  0.93286006  1
  O  O452  1  0.52294895  0.74997186  0.18470825  1
  O  O453  1  0.52253120  0.75014180  0.43455080  1
  O  O454  1  0.52295998  0.75064326  0.68467568  1
  O  O455  1  0.52158514  0.75008586  0.93226231  1
  O  O456  1  0.47823342  0.24868308  0.06654939  1
  O  O457  1  0.47813126  0.24961121  0.31462299  1
  O  O458  1  0.47882946  0.24953115  0.56755789  1
  O  O459  1  0.47831798  0.25180350  0.81663586  1
  O  O460  1  0.47776131  0.58143854  0.06699115  1
  O  O461  1  0.47841367  0.58466438  0.31689352  1
  O  O462  1  0.47806420  0.58546361  0.56655249  1
  O  O463  1  0.47826579  0.58516838  0.81640472  1
  O  O464  1  0.47805576  0.91816989  0.06733233  1
  O  O465  1  0.47813132  0.91467885  0.31698361  1
  O  O466  1  0.47722301  0.91647197  0.56527907  1
  O  O467  1  0.47794376  0.91473723  0.81685891  1
  O  O468  1  0.97753946  0.24876151  0.06716295  1
  O  O469  1  0.97831134  0.24993499  0.31876296  1
  O  O470  1  0.97689780  0.25024037  0.56646030  1
  O  O471  1  0.97698042  0.24928320  0.81596254  1
  O  O472  1  0.97670348  0.58365002  0.06567539  1
  O  O473  1  0.97787593  0.58247897  0.31663647  1
  O  O474  1  0.97762338  0.58184152  0.56675663  1
  O  O475  1  0.97729012  0.58156571  0.81691006  1
  O  O476  1  0.97688772  0.91767551  0.06506218  1
  O  O477  1  0.97666461  0.91645512  0.31497432  1
  O  O478  1  0.97660099  0.91641894  0.56528587  1
  O  O479  1  0.97720932  0.91879213  0.81665639  1
  O  O480  1  0.07294426  0.31238542  0.07496135  1
  O  O481  1  0.07363511  0.31336446  0.32573381  1
  O  O482  1  0.07249124  0.31302509  0.57482132  1
  O  O483  1  0.07134236  0.31373387  0.82372964  1
  O  O484  1  0.07127674  0.64776727  0.07308201  1
  O  O485  1  0.07327452  0.64587929  0.32502069  1
  O  O486  1  0.07300530  0.64530347  0.57508547  1
  O  O487  1  0.07215492  0.64605737  0.82477985  1
  O  O488  1  0.07254374  0.98025491  0.07348811  1
  O  O489  1  0.07122741  0.98053670  0.32303340  1
  O  O490  1  0.07147341  0.98038235  0.57296931  1
  O  O491  1  0.07243041  0.98175663  0.82440910  1
  O  O492  1  0.57380071  0.31200606  0.07487705  1
  O  O493  1  0.57324211  0.31310964  0.32250613  1
  O  O494  1  0.57411865  0.31350547  0.57455792  1
  O  O495  1  0.57337793  0.31499557  0.82456450  1
  O  O496  1  0.57298585  0.64556130  0.07470349  1
  O  O497  1  0.57328639  0.64857420  0.32387473  1
  O  O498  1  0.57336004  0.64873862  0.57426250  1
  O  O499  1  0.57334363  0.64841980  0.82452415  1
  O  O500  1  0.57324186  0.98103224  0.07425862  1
  O  O501  1  0.57371307  0.97811784  0.32519885  1
  O  O502  1  0.57215280  0.98002989  0.57367619  1
  O  O503  1  0.57284167  0.97960900  0.82441978  1
  O  O504  1  0.42696055  0.02066187  0.17461411  1
  O  O505  1  0.42709983  0.01826392  0.42479288  1
  O  O506  1  0.42577255  0.01924364  0.67485451  1
  O  O507  1  0.42785136  0.01944263  0.92644845  1
  O  O508  1  0.42772619  0.35159460  0.17465243  1
  O  O509  1  0.42656322  0.35286402  0.42395631  1
  O  O510  1  0.42746394  0.35218581  0.67598054  1
  O  O511  1  0.42664057  0.35470317  0.92524916  1
  O  O512  1  0.42813262  0.68591384  0.17675988  1
  O  O513  1  0.42770910  0.68611472  0.42639048  1
  O  O514  1  0.42806465  0.68679270  0.67621940  1
  O  O515  1  0.42623879  0.68671095  0.92457449  1
  O  O516  1  0.92731145  0.01871517  0.17575710  1
  O  O517  1  0.92721806  0.01972845  0.42732504  1
  O  O518  1  0.92736795  0.01971302  0.67680041  1
  O  O519  1  0.92726582  0.02065195  0.92638462  1
  O  O520  1  0.92747243  0.35464735  0.17526527  1
  O  O521  1  0.92712156  0.35294591  0.42725071  1
  O  O522  1  0.92875389  0.35225779  0.67719464  1
  O  O523  1  0.92643583  0.35413810  0.92559904  1
  O  O524  1  0.92681213  0.68806661  0.17475213  1
  O  O525  1  0.92661825  0.68773686  0.42404876  1
  O  O526  1  0.92577164  0.68663598  0.67442683  1
  O  O527  1  0.92740094  0.68671355  0.92671383  1
  O  O528  1  0.17654687  0.02039573  0.19888748  1
  O  O529  1  0.17677815  0.01754916  0.44819537  1
  O  O530  1  0.17528252  0.01883947  0.70011700  1
  O  O531  1  0.17598063  0.01897330  0.95096147  1
  O  O532  1  0.17619996  0.35445360  0.19921606  1
  O  O533  1  0.17609159  0.35298765  0.44976099  1
  O  O534  1  0.17600254  0.35317271  0.70012169  1
  O  O535  1  0.17603870  0.35270028  0.95087439  1
  O  O536  1  0.17572115  0.68836345  0.19876710  1
  O  O537  1  0.17579679  0.68664561  0.44974591  1
  O  O538  1  0.17632747  0.68776869  0.69988528  1
  O  O539  1  0.17739135  0.68585333  0.94885698  1
  O  O540  1  0.67770096  0.01971899  0.19847467  1
  O  O541  1  0.67650233  0.02007695  0.45066060  1
  O  O542  1  0.67626915  0.02126945  0.69993192  1
  O  O543  1  0.67710501  0.01965460  0.94946986  1
  O  O544  1  0.67896147  0.35257119  0.19731772  1
  O  O545  1  0.67654987  0.35302459  0.45011407  1
  O  O546  1  0.67882995  0.35339732  0.69863261  1
  O  O547  1  0.67722948  0.35460015  0.95022127  1
  O  O548  1  0.67752407  0.68499555  0.19865755  1
  O  O549  1  0.67700561  0.68620375  0.45136578  1
  O  O550  1  0.67666694  0.68806353  0.70038220  1
  O  O551  1  0.67612150  0.68665318  0.95022080  1
  O  O552  1  0.32358633  0.31188867  0.05027301  1
  O  O553  1  0.32346593  0.31349801  0.29841769  1
  O  O554  1  0.32421716  0.31249937  0.54950976  1
  O  O555  1  0.32397748  0.31300976  0.80025648  1
  O  O556  1  0.32345691  0.64590819  0.05038614  1
  O  O557  1  0.32348872  0.64752259  0.29864657  1
  O  O558  1  0.32425989  0.64733902  0.55018154  1
  O  O559  1  0.32291227  0.64857921  0.80126357  1
  O  O560  1  0.32349488  0.97784174  0.04949502  1
  O  O561  1  0.32296618  0.98152962  0.30033432  1
  O  O562  1  0.32258369  0.97846683  0.55101352  1
  O  O563  1  0.32280635  0.97830195  0.80038267  1
  O  O564  1  0.82280683  0.31420281  0.05158708  1
  O  O565  1  0.82415135  0.31346123  0.29979710  1
  O  O566  1  0.82175672  0.31379856  0.55292593  1
  O  O567  1  0.82359219  0.31416690  0.79965299  1
  O  O568  1  0.82156565  0.64761503  0.05154128  1
  O  O569  1  0.82404196  0.64658758  0.29965669  1
  O  O570  1  0.82414304  0.64555552  0.55108724  1
  O  O571  1  0.82327623  0.64604584  0.80044346  1
  O  O572  1  0.82333685  0.98185980  0.05148423  1
  O  O573  1  0.82384359  0.98036340  0.30032082  1
  O  O574  1  0.82340502  0.97914765  0.55095352  1
  O  O575  1  0.82310599  0.98233917  0.80067163  1
  O  O576  1  0.42809669  0.14750777  0.17544104  1
  O  O577  1  0.42755867  0.14549951  0.42461334  1
  O  O578  1  0.42594706  0.14601428  0.67407605  1
  O  O579  1  0.42846877  0.14707023  0.92670254  1
  O  O580  1  0.42702530  0.47873007  0.17493764  1
  O  O581  1  0.42633371  0.47984891  0.42336041  1
  O  O582  1  0.42670021  0.47943392  0.67476220  1
  O  O583  1  0.42748854  0.48177882  0.92547685  1
  O  O584  1  0.42792707  0.81350219  0.17693185  1
  O  O585  1  0.42724152  0.81319681  0.42647965  1
  O  O586  1  0.42802213  0.81403960  0.67605958  1
  O  O587  1  0.42615878  0.81329045  0.92469447  1
  O  O588  1  0.92731434  0.14566833  0.17552641  1
  O  O589  1  0.92794053  0.14700156  0.42787862  1
  O  O590  1  0.92787549  0.14690963  0.67676766  1
  O  O591  1  0.92753124  0.14780643  0.92684078  1
  O  O592  1  0.92738008  0.48184053  0.17631098  1
  O  O593  1  0.92781600  0.48028345  0.42766760  1
  O  O594  1  0.92784091  0.47946644  0.67632347  1
  O  O595  1  0.92656034  0.48104765  0.92607726  1
  O  O596  1  0.92694519  0.81495403  0.17473120  1
  O  O597  1  0.92655100  0.81489707  0.42518382  1
  O  O598  1  0.92550972  0.81343574  0.67488513  1
  O  O599  1  0.92791961  0.81422805  0.92642974  1
  O  O600  1  0.07247505  0.18519995  0.07425909  1
  O  O601  1  0.07378432  0.18668052  0.32668654  1
  O  O602  1  0.07123791  0.18579387  0.57402962  1
  O  O603  1  0.07252870  0.18647376  0.82399982  1
  O  O604  1  0.07201686  0.52039410  0.07327816  1
  O  O605  1  0.07272401  0.51875813  0.32396077  1
  O  O606  1  0.07259394  0.51816718  0.57433415  1
  O  O607  1  0.07276543  0.51906533  0.82485125  1
  O  O608  1  0.07115679  0.85314881  0.07220227  1
  O  O609  1  0.07200155  0.85341092  0.32299346  1
  O  O610  1  0.07155710  0.85305269  0.57327135  1
  O  O611  1  0.07218938  0.85471784  0.82519392  1
  O  O612  1  0.57303823  0.18514192  0.07376027  1
  O  O613  1  0.57288428  0.18543748  0.32250914  1
  O  O614  1  0.57425296  0.18663351  0.57545693  1
  O  O615  1  0.57351309  0.18762629  0.82474338  1
  O  O616  1  0.57277711  0.51840729  0.07424439  1
  O  O617  1  0.57398798  0.52151963  0.32526887  1
  O  O618  1  0.57305263  0.52153394  0.57503564  1
  O  O619  1  0.57370691  0.52142078  0.82395712  1
  O  O620  1  0.57329170  0.85393004  0.07481221  1
  O  O621  1  0.57311029  0.85128799  0.32471139  1
  O  O622  1  0.57221088  0.85268275  0.57352133  1
  O  O623  1  0.57346345  0.85258731  0.82449548  1
  O  O624  1  0.32309010  0.18450912  0.05100582  1
  O  O625  1  0.32425338  0.18653769  0.29927096  1
  O  O626  1  0.32378428  0.18532057  0.54916465  1
  O  O627  1  0.32424661  0.18600036  0.79985438  1
  O  O628  1  0.32264839  0.51879434  0.05026481  1
  O  O629  1  0.32404953  0.52054769  0.29939886  1
  O  O630  1  0.32434392  0.52034102  0.55004286  1
  O  O631  1  0.32310628  0.52129889  0.80031797  1
  O  O632  1  0.32306214  0.85078546  0.05108473  1
  O  O633  1  0.32301331  0.85443846  0.30050385  1
  O  O634  1  0.32254355  0.85147575  0.55045817  1
  O  O635  1  0.32279641  0.85127521  0.80140558  1
  O  O636  1  0.82220908  0.18668879  0.05182703  1
  O  O637  1  0.82439813  0.18674905  0.30008568  1
  O  O638  1  0.82248706  0.18628708  0.55249328  1
  O  O639  1  0.82384993  0.18748693  0.80004946  1
  O  O640  1  0.82299136  0.52024805  0.05189598  1
  O  O641  1  0.82391646  0.51987971  0.29940495  1
  O  O642  1  0.82359912  0.51837423  0.55158621  1
  O  O643  1  0.82327376  0.51890855  0.80172049  1
  O  O644  1  0.82309351  0.85472553  0.04967130  1
  O  O645  1  0.82357021  0.85343614  0.29900489  1
  O  O646  1  0.82255784  0.85196765  0.55175351  1
  O  O647  1  0.82335496  0.85521087  0.80142950  1
  O  O648  1  0.17666001  0.14755240  0.19929726  1
  O  O649  1  0.17662332  0.14479678  0.44932341  1
  O  O650  1  0.17569280  0.14582576  0.69964527  1
  O  O651  1  0.17617415  0.14589647  0.95012650  1
  O  O652  1  0.17663965  0.48176326  0.19845448  1
  O  O653  1  0.17603406  0.48007483  0.44995141  1
  O  O654  1  0.17627354  0.48036940  0.70034782  1
  O  O655  1  0.17546739  0.47965454  0.95001379  1
  O  O656  1  0.17655986  0.81549340  0.19801927  1
  O  O657  1  0.17501988  0.81345872  0.44946638  1
  O  O658  1  0.17598666  0.81468275  0.69945273  1
  O  O659  1  0.17741258  0.81321654  0.94823701  1
  O  O660  1  0.67894467  0.14718782  0.19736007  1
  O  O661  1  0.67626128  0.14692182  0.44969081  1
  O  O662  1  0.67680004  0.14831004  0.70002937  1
  O  O663  1  0.67771604  0.14658712  0.95043211  1
  O  O664  1  0.67739496  0.48001947  0.19823507  1
  O  O665  1  0.67654204  0.47972528  0.45011365  1
  O  O666  1  0.67764244  0.48075981  0.69845850  1
  O  O667  1  0.67723125  0.48156276  0.94937837  1
  O  O668  1  0.67658159  0.81222387  0.19969188  1
  O  O669  1  0.67645560  0.81309783  0.45015690  1
  O  O670  1  0.67757965  0.81541200  0.69940192  1
  O  O671  1  0.67618712  0.81352350  0.95142637  1
