# generated using pymatgen
data_Na2MnFe(PO4)2
_symmetry_space_group_name_H-M   'P 1'
_cell_length_a   22.34316030
_cell_length_b   20.09247635
_cell_length_c   19.44981084
_cell_angle_alpha   89.96248563
_cell_angle_beta   89.99828731
_cell_angle_gamma   89.98434077
_symmetry_Int_Tables_number   1
_chemical_formula_structural   Na2MnFe(PO4)2
_chemical_formula_sum   'Na96 Mn48 Fe48 P96 O384'
_cell_volume   8731.59009458
_cell_formula_units_Z   48
loop_
 _symmetry_equiv_pos_site_id
 _symmetry_equiv_pos_as_xyz
  1  'x, y, z'
loop_
 _atom_site_type_symbol
 _atom_site_label
 _atom_site_symmetry_multiplicity
 _atom_site_fract_x
 _atom_site_fract_y
 _atom_site_fract_z
 _atom_site_occupancy
  Na  Na0  1  0.14010143  0.24812218  0.24347299  1
  Na  Na1  1  0.14003716  0.25012828  0.49419879  1
  Na  Na2  1  0.13944569  0.25027298  0.74264988  1
  Na  Na3  1  0.13987919  0.24958794  0.99376510  1
  Na  Na4  1  0.14045236  0.58456458  0.24366665  1
  Na  Na5  1  0.14072520  0.58373447  0.49415558  1
  Na  Na6  1  0.14002210  0.58459492  0.74360761  1
  Na  Na7  1  0.13969821  0.58446695  0.99412035  1
  Na  Na8  1  0.14044075  0.91603900  0.24216400  1
  Na  Na9  1  0.14027279  0.91601847  0.49284263  1
  Na  Na10  1  0.14033927  0.91640618  0.74334348  1
  Na  Na11  1  0.14032754  0.91621063  0.99529243  1
  Na  Na12  1  0.64088443  0.25087369  0.24325436  1
  Na  Na13  1  0.64049422  0.25221069  0.49347818  1
  Na  Na14  1  0.63993718  0.25060226  0.74319506  1
  Na  Na15  1  0.64018732  0.25068222  0.99457043  1
  Na  Na16  1  0.64053155  0.58237888  0.24391027  1
  Na  Na17  1  0.64115037  0.58239215  0.49285192  1
  Na  Na18  1  0.64037916  0.58203796  0.74335697  1
  Na  Na19  1  0.64041072  0.58310349  0.99453804  1
  Na  Na20  1  0.64052076  0.91714960  0.24291745  1
  Na  Na21  1  0.64054674  0.91656539  0.49300501  1
  Na  Na22  1  0.64082412  0.91622018  0.74420864  1
  Na  Na23  1  0.64065427  0.91779457  0.99446611  1
  Na  Na24  1  0.35914317  0.08227409  0.00664026  1
  Na  Na25  1  0.35958011  0.08182397  0.25577405  1
  Na  Na26  1  0.35933465  0.08306683  0.50553622  1
  Na  Na27  1  0.35950350  0.08334864  0.75518465  1
  Na  Na28  1  0.35985733  0.41657173  0.00691177  1
  Na  Na29  1  0.35929610  0.41581319  0.25613467  1
  Na  Na30  1  0.35976101  0.41636316  0.50629959  1
  Na  Na31  1  0.36040245  0.41830753  0.75680678  1
  Na  Na32  1  0.35924458  0.74990654  0.00656878  1
  Na  Na33  1  0.35995207  0.74963521  0.25661852  1
  Na  Na34  1  0.36010854  0.75026763  0.50594431  1
  Na  Na35  1  0.35965569  0.75059496  0.75454672  1
  Na  Na36  1  0.85931428  0.08442968  0.00743006  1
  Na  Na37  1  0.85982903  0.08457705  0.25599890  1
  Na  Na38  1  0.85951586  0.08469282  0.50533313  1
  Na  Na39  1  0.85953786  0.08293017  0.75691958  1
  Na  Na40  1  0.85962929  0.41648157  0.00795847  1
  Na  Na41  1  0.85931904  0.41704735  0.25716391  1
  Na  Na42  1  0.86011214  0.41615718  0.50649334  1
  Na  Na43  1  0.86009864  0.41522593  0.75665923  1
  Na  Na44  1  0.85923925  0.75032952  0.00707493  1
  Na  Na45  1  0.85959565  0.74921914  0.25668521  1
  Na  Na46  1  0.86010739  0.74902130  0.50588593  1
  Na  Na47  1  0.85996460  0.74907592  0.75628221  1
  Na  Na48  1  0.10999121  0.08403344  0.11851025  1
  Na  Na49  1  0.10953263  0.08290659  0.36729868  1
  Na  Na50  1  0.10916811  0.08331443  0.61812741  1
  Na  Na51  1  0.10918464  0.08301177  0.86931357  1
  Na  Na52  1  0.10871155  0.41802743  0.11900407  1
  Na  Na53  1  0.10944260  0.41555738  0.36914946  1
  Na  Na54  1  0.10967418  0.41701300  0.61996120  1
  Na  Na55  1  0.10865016  0.41620726  0.86823551  1
  Na  Na56  1  0.11008191  0.75136895  0.11883519  1
  Na  Na57  1  0.11032662  0.75059080  0.36747218  1
  Na  Na58  1  0.10970889  0.74956199  0.61824642  1
  Na  Na59  1  0.10956379  0.74842753  0.86944631  1
  Na  Na60  1  0.61003963  0.08403351  0.11837256  1
  Na  Na61  1  0.60978052  0.08493295  0.36759251  1
  Na  Na62  1  0.60947069  0.08467623  0.61879472  1
  Na  Na63  1  0.60964794  0.08486891  0.86884731  1
  Na  Na64  1  0.60999313  0.41604188  0.11899059  1
  Na  Na65  1  0.61037693  0.41722646  0.36840731  1
  Na  Na66  1  0.61044182  0.41757252  0.61815481  1
  Na  Na67  1  0.60912657  0.41564660  0.86942245  1
  Na  Na68  1  0.60995453  0.74814070  0.11888409  1
  Na  Na69  1  0.61001540  0.75012438  0.36868790  1
  Na  Na70  1  0.60976579  0.74998800  0.61826583  1
  Na  Na71  1  0.60985852  0.74923585  0.86900423  1
  Na  Na72  1  0.38996853  0.24906579  0.13114290  1
  Na  Na73  1  0.39027119  0.24988164  0.38025713  1
  Na  Na74  1  0.39093468  0.25165943  0.63104927  1
  Na  Na75  1  0.39039015  0.25068781  0.88044825  1
  Na  Na76  1  0.39033437  0.58225308  0.13150619  1
  Na  Na77  1  0.39050091  0.58433542  0.38181949  1
  Na  Na78  1  0.39092401  0.58308283  0.63119188  1
  Na  Na79  1  0.39045403  0.58237606  0.88133178  1
  Na  Na80  1  0.39019077  0.91547399  0.13252927  1
  Na  Na81  1  0.39036549  0.91578620  0.38090545  1
  Na  Na82  1  0.39018873  0.91707451  0.63046714  1
  Na  Na83  1  0.39022506  0.91661859  0.88043175  1
  Na  Na84  1  0.88997523  0.25094896  0.13261480  1
  Na  Na85  1  0.88994666  0.24977379  0.38122128  1
  Na  Na86  1  0.89014940  0.25103643  0.63180365  1
  Na  Na87  1  0.89021525  0.24871658  0.88158967  1
  Na  Na88  1  0.88971689  0.58483521  0.13259240  1
  Na  Na89  1  0.88989183  0.58265855  0.38165444  1
  Na  Na90  1  0.89069888  0.58198007  0.63159786  1
  Na  Na91  1  0.89038104  0.58200895  0.88135720  1
  Na  Na92  1  0.89045689  0.91862027  0.13174674  1
  Na  Na93  1  0.89073760  0.91691906  0.37959801  1
  Na  Na94  1  0.89075542  0.91574005  0.63132697  1
  Na  Na95  1  0.89032199  0.91583017  0.88204352  1
  Mn  Mn96  1  0.74988976  0.66527689  0.62554045  1
  Mn  Mn97  1  0.24936874  0.33235307  0.37542001  1
  Mn  Mn98  1  0.25027241  0.16598445  0.62452507  1
  Mn  Mn99  1  0.24941979  0.50170562  0.87623503  1
  Mn  Mn100  1  0.00000660  0.66739354  0.25050450  1
  Mn  Mn101  1  0.74945175  0.16774266  0.62506314  1
  Mn  Mn102  1  -0.00037298  0.16713743  0.49978528  1
  Mn  Mn103  1  0.49951618  0.66450169  -0.00078967  1
  Mn  Mn104  1  0.75016595  0.00119273  0.37428736  1
  Mn  Mn105  1  0.50006253  0.16837517  0.49870672  1
  Mn  Mn106  1  0.50056907  0.83268816  0.25038709  1
  Mn  Mn107  1  0.00073969  0.66676038  0.49984996  1
  Mn  Mn108  1  0.75041550  0.83272295  0.62453186  1
  Mn  Mn109  1  0.24965314  -0.00082545  0.37436422  1
  Mn  Mn110  1  0.50045269  0.83233745  0.00059889  1
  Mn  Mn111  1  -0.00025665  0.16693236  0.00014149  1
  Mn  Mn112  1  0.24997187  -0.00085833  0.87528540  1
  Mn  Mn113  1  0.49973785  0.50025836  0.49956238  1
  Mn  Mn114  1  0.24969370  0.50067134  0.37496864  1
  Mn  Mn115  1  0.24941274  0.50089184  0.12559820  1
  Mn  Mn116  1  0.74950646  0.33267488  0.87619451  1
  Mn  Mn117  1  0.50015010  0.16712223  0.24968758  1
  Mn  Mn118  1  -0.00053815  -0.00079101  0.49911933  1
  Mn  Mn119  1  0.24976559  0.33382265  0.87502342  1
  Mn  Mn120  1  0.25049609  0.83280686  0.87474062  1
  Mn  Mn121  1  0.00055468  0.49883164  0.50127925  1
  Mn  Mn122  1  0.25035013  0.66734109  0.62444875  1
  Mn  Mn123  1  0.24901249  0.16606695  0.87450548  1
  Mn  Mn124  1  -0.00020783  0.33392801  0.25027392  1
  Mn  Mn125  1  0.00044753  0.83178335  0.75113814  1
  Mn  Mn126  1  0.25063868  0.33426366  0.62437625  1
  Mn  Mn127  1  0.24899722  0.33226451  0.12571472  1
  Mn  Mn128  1  -0.00057671  0.50043952  -0.00036246  1
  Mn  Mn129  1  0.75013519  0.00016435  0.62497582  1
  Mn  Mn130  1  0.74983449  0.83343143  0.12532658  1
  Mn  Mn131  1  0.50005471  0.83320815  0.74959330  1
  Mn  Mn132  1  0.50081595  0.00103740  0.74970400  1
  Mn  Mn133  1  -0.00029871  0.83360723  -0.00002716  1
  Mn  Mn134  1  0.49914142  0.16747946  -0.00051584  1
  Mn  Mn135  1  0.49985699  0.00042103  0.49994130  1
  Mn  Mn136  1  0.49963949  0.49947696  0.25039458  1
  Mn  Mn137  1  0.74985433  0.00060031  0.87535134  1
  Mn  Mn138  1  0.49982716  -0.00006771  -0.00045378  1
  Mn  Mn139  1  0.75073792  0.83258541  0.37403924  1
  Mn  Mn140  1  0.75056749  0.66699670  0.87492822  1
  Mn  Mn141  1  0.00035971  -0.00006851  0.74981960  1
  Mn  Mn142  1  0.74977746  0.49950739  0.87563700  1
  Mn  Mn143  1  0.49968586  0.66557759  0.74958892  1
  Fe  Fe144  1  0.75059184  0.49949589  0.37456575  1
  Fe  Fe145  1  -0.00025009  0.83411706  0.24917653  1
  Fe  Fe146  1  0.50000800  0.33424688  0.75016835  1
  Fe  Fe147  1  0.50080539  0.49934496  0.74990350  1
  Fe  Fe148  1  0.25033086  0.50100148  0.62529203  1
  Fe  Fe149  1  0.25004965  0.16574906  0.12478385  1
  Fe  Fe150  1  0.75007266  0.50008534  0.12614091  1
  Fe  Fe151  1  -0.00026721  0.00057743  0.00063405  1
  Fe  Fe152  1  0.25012157  -0.00090757  0.12540192  1
  Fe  Fe153  1  0.24984769  0.16551928  0.37465205  1
  Fe  Fe154  1  0.74955237  0.16708649  0.87566653  1
  Fe  Fe155  1  0.75034238  0.33377737  0.37468939  1
  Fe  Fe156  1  0.24953719  0.83344754  0.62432698  1
  Fe  Fe157  1  0.75014607  0.33337796  0.12579154  1
  Fe  Fe158  1  -0.00049920  0.66664812  0.00036512  1
  Fe  Fe159  1  0.74959138  0.66648763  0.12541895  1
  Fe  Fe160  1  -0.00024295  0.33269860  0.75056992  1
  Fe  Fe161  1  -0.00047854  0.66594485  0.74981740  1
  Fe  Fe162  1  0.75027889  0.66545422  0.37531841  1
  Fe  Fe163  1  0.00002801  0.49922970  0.75083869  1
  Fe  Fe164  1  -0.00067489  0.16665619  0.75022101  1
  Fe  Fe165  1  0.25034302  0.66714481  0.12538576  1
  Fe  Fe166  1  0.00016077  0.16732032  0.24994061  1
  Fe  Fe167  1  0.24942272  -0.00037206  0.62406034  1
  Fe  Fe168  1  0.75007651  0.00126692  0.12447417  1
  Fe  Fe169  1  0.00014579  0.33323275  0.50069536  1
  Fe  Fe170  1  0.00048409  0.00053105  0.24981305  1
  Fe  Fe171  1  0.50043713  -0.00009089  0.25009066  1
  Fe  Fe172  1  0.25022955  0.83239675  0.12487355  1
  Fe  Fe173  1  0.25024744  0.83299026  0.37423955  1
  Fe  Fe174  1  0.00009793  0.83317350  0.49948863  1
  Fe  Fe175  1  0.50079310  0.83383381  0.49958090  1
  Fe  Fe176  1  0.75008809  0.16770146  0.12566193  1
  Fe  Fe177  1  0.74963429  0.16765523  0.37466795  1
  Fe  Fe178  1  0.49983335  0.33356504  0.24948941  1
  Fe  Fe179  1  0.50022210  0.33433088  0.50039061  1
  Fe  Fe180  1  0.50024273  0.66622235  0.25055359  1
  Fe  Fe181  1  0.49973982  0.33328826  -0.00049481  1
  Fe  Fe182  1  0.75105528  0.49907003  0.62418845  1
  Fe  Fe183  1  0.25070507  0.66709827  0.37493003  1
  Fe  Fe184  1  -0.00020210  0.50053059  0.25009294  1
  Fe  Fe185  1  0.74981820  0.83360897  0.87579428  1
  Fe  Fe186  1  0.24989378  0.66754643  0.87469018  1
  Fe  Fe187  1  0.75053478  0.33385928  0.62419747  1
  Fe  Fe188  1  0.49944709  0.16790630  0.74946786  1
  Fe  Fe189  1  0.50102026  0.66701503  0.50032067  1
  Fe  Fe190  1  0.49990569  0.49854125  0.00042639  1
  Fe  Fe191  1  -0.00039491  0.33307438  -0.00013521  1
  P  P192  1  0.04170042  0.25152409  0.10288127  1
  P  P193  1  0.04225193  0.24914357  0.35264941  1
  P  P194  1  0.04185733  0.25122875  0.60350880  1
  P  P195  1  0.04133963  0.24953707  0.85202978  1
  P  P196  1  0.04165499  0.58487931  0.10290688  1
  P  P197  1  0.04233715  0.58209145  0.35259157  1
  P  P198  1  0.04279817  0.58304716  0.60424774  1
  P  P199  1  0.04098116  0.58329087  0.85201825  1
  P  P200  1  0.04161491  0.91853343  0.10330891  1
  P  P201  1  0.04181598  0.91638417  0.35104277  1
  P  P202  1  0.04219391  0.91516850  0.60197147  1
  P  P203  1  0.04281501  0.91652904  0.85384227  1
  P  P204  1  0.54181548  0.25157854  0.10234156  1
  P  P205  1  0.54247685  0.25236273  0.35220754  1
  P  P206  1  0.54220695  0.25215081  0.60295102  1
  P  P207  1  0.54128290  0.25090010  0.85146238  1
  P  P208  1  0.54198891  0.58103455  0.10284078  1
  P  P209  1  0.54214544  0.58455952  0.35307877  1
  P  P210  1  0.54281426  0.58391938  0.60229330  1
  P  P211  1  0.54233994  0.58079097  0.85267207  1
  P  P212  1  0.54270419  0.91667126  0.10387906  1
  P  P213  1  0.54255933  0.91767932  0.35265062  1
  P  P214  1  0.54280943  0.91604003  0.60207673  1
  P  P215  1  0.54310544  0.91674692  0.85305595  1
  P  P216  1  0.45806034  0.08221336  0.14761714  1
  P  P217  1  0.45739541  0.08339611  0.39594482  1
  P  P218  1  0.45787159  0.08549598  0.64704173  1
  P  P219  1  0.45677240  0.08421192  0.89598687  1
  P  P220  1  0.45742804  0.41509445  0.14696672  1
  P  P221  1  0.45763614  0.41528998  0.39715714  1
  P  P222  1  0.45881040  0.41690418  0.64810117  1
  P  P223  1  0.45818525  0.41632746  0.89774291  1
  P  P224  1  0.45814811  0.74772440  0.14793801  1
  P  P225  1  0.45934756  0.74997498  0.39837342  1
  P  P226  1  0.45780673  0.74979542  0.64552213  1
  P  P227  1  0.45694329  0.74920174  0.89681946  1
  P  P228  1  0.95895925  0.08399100  0.14835799  1
  P  P229  1  0.95759729  0.08322179  0.39564982  1
  P  P230  1  0.95725198  0.08463067  0.64766236  1
  P  P231  1  0.95742681  0.08221083  0.89773958  1
  P  P232  1  0.95723314  0.41865098  0.14767224  1
  P  P233  1  0.95800786  0.41526415  0.39793740  1
  P  P234  1  0.95883544  0.41591537  0.64888486  1
  P  P235  1  0.95741696  0.41485395  0.89723081  1
  P  P236  1  0.95767341  0.75161221  0.14735798  1
  P  P237  1  0.95831600  0.75155010  0.39685723  1
  P  P238  1  0.95788848  0.74871460  0.64726427  1
  P  P239  1  0.95741478  0.74789876  0.89762234  1
  P  P240  1  0.20882138  0.08283283  0.22673343  1
  P  P241  1  0.20731671  0.08342943  0.47711603  1
  P  P242  1  0.20715050  0.08163437  0.72677649  1
  P  P243  1  0.20723339  0.08254286  0.97916603  1
  P  P244  1  0.20654352  0.41671147  0.22847570  1
  P  P245  1  0.20726334  0.41735170  0.47865522  1
  P  P246  1  0.20829895  0.41883775  0.72755392  1
  P  P247  1  0.20645649  0.41697912  0.97854269  1
  P  P248  1  0.20887198  0.75003605  0.22724863  1
  P  P249  1  0.20870901  0.75032532  0.47620503  1
  P  P250  1  0.20744363  0.75119069  0.72707557  1
  P  P251  1  0.20782815  0.74896578  0.97822096  1
  P  P252  1  0.70868208  0.08461018  0.22677817  1
  P  P253  1  0.70739681  0.08556593  0.47692870  1
  P  P254  1  0.70699894  0.08370396  0.72860677  1
  P  P255  1  0.70778067  0.08535366  0.97861855  1
  P  P256  1  0.70906345  0.41652834  0.22758934  1
  P  P257  1  0.70924864  0.41680921  0.47663128  1
  P  P258  1  0.70911004  0.41618845  0.72620241  1
  P  P259  1  0.70738392  0.41670825  0.97982493  1
  P  P260  1  0.70807904  0.74800079  0.22808252  1
  P  P261  1  0.70831076  0.74816710  0.47704293  1
  P  P262  1  0.70722824  0.74988184  0.72859249  1
  P  P263  1  0.70773494  0.75092085  0.97813809  1
  P  P264  1  0.29182821  0.24854290  0.02263530  1
  P  P265  1  0.29164629  0.24758672  0.27215931  1
  P  P266  1  0.29297535  0.24933836  0.52116512  1
  P  P267  1  0.29231541  0.25028220  0.77160847  1
  P  P268  1  0.29194931  0.58533677  0.02272063  1
  P  P269  1  0.29243566  0.58523463  0.27230853  1
  P  P270  1  0.29284473  0.58282440  0.52228881  1
  P  P271  1  0.29206406  0.58525951  0.77237260  1
  P  P272  1  0.29183823  0.91580866  0.02386015  1
  P  P273  1  0.29203820  0.91480127  0.27141666  1
  P  P274  1  0.29127139  0.91613204  0.52244265  1
  P  P275  1  0.29260024  0.91655924  0.77060826  1
  P  P276  1  0.79139705  0.25007411  0.02393913  1
  P  P277  1  0.79137437  0.25041974  0.27277472  1
  P  P278  1  0.79223179  0.25176714  0.52166627  1
  P  P279  1  0.79185210  0.24903131  0.77293808  1
  P  P280  1  0.79140842  0.58322046  0.02423059  1
  P  P281  1  0.79123488  0.58301159  0.27286664  1
  P  P282  1  0.79266334  0.58161809  0.52181558  1
  P  P283  1  0.79280429  0.58211224  0.77179881  1
  P  P284  1  0.79200649  0.91818619  0.02271577  1
  P  P285  1  0.79247401  0.91749345  0.27073017  1
  P  P286  1  0.79320025  0.91692087  0.52133277  1
  P  P287  1  0.79263340  0.91535354  0.77308413  1
  O  O288  1  0.03655112  0.25088919  0.18280585  1
  O  O289  1  0.03734813  0.24949530  0.43257594  1
  O  O290  1  0.03631982  0.25073882  0.68338490  1
  O  O291  1  0.03630970  0.24990095  0.93201745  1
  O  O292  1  0.03657614  0.58431704  0.18283668  1
  O  O293  1  0.03751935  0.58216808  0.43255472  1
  O  O294  1  0.03739337  0.58333262  0.68411963  1
  O  O295  1  0.03597642  0.58361910  0.93200715  1
  O  O296  1  0.03604376  0.91839028  0.18318179  1
  O  O297  1  0.03674551  0.91579921  0.43102009  1
  O  O298  1  0.03729722  0.91534053  0.68193264  1
  O  O299  1  0.03734995  0.91719012  0.93375135  1
  O  O300  1  0.53682994  0.25138265  0.18226782  1
  O  O301  1  0.53713727  0.25249223  0.43214070  1
  O  O302  1  0.53652212  0.25172548  0.68280225  1
  O  O303  1  0.53607697  0.25114781  0.93140481  1
  O  O304  1  0.53685192  0.58178303  0.18278160  1
  O  O305  1  0.53691455  0.58471870  0.43300466  1
  O  O306  1  0.53773071  0.58307417  0.68223058  1
  O  O307  1  0.53682735  0.58022728  0.93259518  1
  O  O308  1  0.53754090  0.91716580  0.18389347  1
  O  O309  1  0.53759979  0.91726291  0.43262402  1
  O  O310  1  0.53776607  0.91635122  0.68204336  1
  O  O311  1  0.53782854  0.91655757  0.93305318  1
  O  O312  1  0.46265505  0.08248465  0.06759846  1
  O  O313  1  0.46284930  0.08266918  0.31600815  1
  O  O314  1  0.46308133  0.08527504  0.56706149  1
  O  O315  1  0.46206505  0.08483125  0.81602939  1
  O  O316  1  0.46264774  0.41552122  0.06707859  1
  O  O317  1  0.46271468  0.41530896  0.31721537  1
  O  O318  1  0.46373213  0.41686038  0.56814016  1
  O  O319  1  0.46362781  0.41659723  0.81786470  1
  O  O320  1  0.46298244  0.74790469  0.06799127  1
  O  O321  1  0.46443909  0.74925734  0.31838721  1
  O  O322  1  0.46359823  0.75005096  0.56563658  1
  O  O323  1  0.46189136  0.74928113  0.81684369  1
  O  O324  1  0.96368510  0.08376290  0.06835000  1
  O  O325  1  0.96331916  0.08337870  0.31578282  1
  O  O326  1  0.96221577  0.08460938  0.56768005  1
  O  O327  1  0.96248178  0.08279455  0.81781148  1
  O  O328  1  0.96209380  0.41840481  0.06778919  1
  O  O329  1  0.96280942  0.41604444  0.31802717  1
  O  O330  1  0.96382647  0.41565251  0.56893198  1
  O  O331  1  0.96285382  0.41479887  0.81737387  1
  O  O332  1  0.96268808  0.75073273  0.06743396  1
  O  O333  1  0.96344786  0.75174815  0.31688927  1
  O  O334  1  0.96317550  0.74965937  0.56731443  1
  O  O335  1  0.96282668  0.74744144  0.81768023  1
  O  O336  1  0.21280228  0.08272809  0.05907208  1
  O  O337  1  0.21358827  0.08304785  0.30672485  1
  O  O338  1  0.21264518  0.08257192  0.55702733  1
  O  O339  1  0.21207931  0.08177861  0.80678246  1
  O  O340  1  0.21120110  0.41672173  0.05854166  1
  O  O341  1  0.21176284  0.41665839  0.30841952  1
  O  O342  1  0.21293324  0.41805558  0.55857705  1
  O  O343  1  0.21311195  0.41855721  0.80756314  1
  O  O344  1  0.21336084  0.74910651  0.05809339  1
  O  O345  1  0.21404379  0.75013726  0.30713911  1
  O  O346  1  0.21355534  0.75090995  0.55615192  1
  O  O347  1  0.21264382  0.75034632  0.80699796  1
  O  O348  1  0.71334948  0.08518513  0.05850475  1
  O  O349  1  0.71353339  0.08490345  0.30675535  1
  O  O350  1  0.71242562  0.08517995  0.55689892  1
  O  O351  1  0.71209956  0.08394513  0.80858250  1
  O  O352  1  0.71273063  0.41689526  0.05966423  1
  O  O353  1  0.71419692  0.41583142  0.30744591  1
  O  O354  1  0.71427654  0.41713057  0.55650081  1
  O  O355  1  0.71354889  0.41593661  0.80621747  1
  O  O356  1  0.71301131  0.75022080  0.05810850  1
  O  O357  1  0.71356562  0.74768154  0.30797656  1
  O  O358  1  0.71338527  0.74834081  0.55700789  1
  O  O359  1  0.71238545  0.75063515  0.80857582  1
  O  O360  1  0.28610090  0.24743978  0.19221825  1
  O  O361  1  0.28757945  0.24876350  0.44123113  1
  O  O362  1  0.28757460  0.25049571  0.69160763  1
  O  O363  1  0.28661013  0.24919728  0.94268090  1
  O  O364  1  0.28701064  0.58547633  0.19238139  1
  O  O365  1  0.28765411  0.58333774  0.44237103  1
  O  O366  1  0.28684346  0.58418114  0.69241738  1
  O  O367  1  0.28679702  0.58573244  0.94275428  1
  O  O368  1  0.28688802  0.91495412  0.19155387  1
  O  O369  1  0.28622151  0.91572818  0.44243719  1
  O  O370  1  0.28714107  0.91670578  0.69071445  1
  O  O371  1  0.28726817  0.91607028  0.94384235  1
  O  O372  1  0.78623688  0.25025747  0.19287451  1
  O  O373  1  0.78689793  0.25174526  0.44180668  1
  O  O374  1  0.78706293  0.24974659  0.69303638  1
  O  O375  1  0.78641773  0.24980440  0.94401066  1
  O  O376  1  0.78613011  0.58297824  0.19299003  1
  O  O377  1  0.78753631  0.58206200  0.44190554  1
  O  O378  1  0.78772118  0.58143806  0.69184745  1
  O  O379  1  0.78660941  0.58343872  0.94424618  1
  O  O380  1  0.78677135  0.91805531  0.19085320  1
  O  O381  1  0.78811467  0.91702734  0.44133427  1
  O  O382  1  0.78764937  0.91563300  0.69305226  1
  O  O383  1  0.78689801  0.91756667  0.94278154  1
  O  O384  1  0.22748056  0.24789585  0.05812742  1
  O  O385  1  0.22749143  0.24741212  0.30821325  1
  O  O386  1  0.22868846  0.24984101  0.55657329  1
  O  O387  1  0.22777203  0.25041668  0.80641006  1
  O  O388  1  0.22766002  0.58545071  0.05839376  1
  O  O389  1  0.22819081  0.58564478  0.30809594  1
  O  O390  1  0.22856480  0.58240867  0.55803408  1
  O  O391  1  0.22776560  0.58589567  0.80819831  1
  O  O392  1  0.22760213  0.91542941  0.05948949  1
  O  O393  1  0.22785041  0.91461724  0.30738547  1
  O  O394  1  0.22711416  0.91627016  0.55856038  1
  O  O395  1  0.22840858  0.91610532  0.80651093  1
  O  O396  1  0.72723625  0.24964961  0.05986681  1
  O  O397  1  0.72735623  0.25078679  0.30917461  1
  O  O398  1  0.72803647  0.25227959  0.55769955  1
  O  O399  1  0.72746541  0.24865400  0.80850437  1
  O  O400  1  0.72717655  0.58239467  0.05995382  1
  O  O401  1  0.72726413  0.58338120  0.30926149  1
  O  O402  1  0.72845791  0.58100080  0.55781674  1
  O  O403  1  0.72844838  0.58296283  0.80709725  1
  O  O404  1  0.72780344  0.91817047  0.05841766  1
  O  O405  1  0.72837394  0.91689472  0.30659421  1
  O  O406  1  0.72870752  0.91680586  0.55631009  1
  O  O407  1  0.72827980  0.91534438  0.80859529  1
  O  O408  1  0.27292508  0.08315855  0.19079373  1
  O  O409  1  0.27158893  0.08369344  0.44132054  1
  O  O410  1  0.27155105  0.08105258  0.69141422  1
  O  O411  1  0.27139596  0.08297240  0.94327748  1
  O  O412  1  0.27091970  0.41651135  0.19335398  1
  O  O413  1  0.27146531  0.41683047  0.44302086  1
  O  O414  1  0.27265872  0.41905782  0.69212177  1
  O  O415  1  0.27104408  0.41738008  0.94391181  1
  O  O416  1  0.27295799  0.74997571  0.19094317  1
  O  O417  1  0.27296821  0.74988563  0.44031797  1
  O  O418  1  0.27169800  0.75207045  0.69126381  1
  O  O419  1  0.27199482  0.74837273  0.94199497  1
  O  O420  1  0.77282556  0.08505788  0.19077057  1
  O  O421  1  0.77178054  0.08581075  0.44153954  1
  O  O422  1  0.77135679  0.08377958  0.69324461  1
  O  O423  1  0.77187968  0.08546624  0.94234574  1
  O  O424  1  0.77301217  0.41734402  0.19113942  1
  O  O425  1  0.77330618  0.41618931  0.44039051  1
  O  O426  1  0.77344536  0.41640073  0.69064893  1
  O  O427  1  0.77162456  0.41625760  0.94413170  1
  O  O428  1  0.77220735  0.74848690  0.19213563  1
  O  O429  1  0.77262304  0.74798669  0.44149469  1
  O  O430  1  0.77163767  0.74926996  0.69340599  1
  O  O431  1  0.77202418  0.75145532  0.94237583  1
  O  O432  1  0.02315290  0.08402035  0.18414850  1
  O  O433  1  0.02164971  0.08321095  0.43176757  1
  O  O434  1  0.02163492  0.08504566  0.68308496  1
  O  O435  1  0.02172798  0.08209295  0.93343923  1
  O  O436  1  0.02158111  0.41868973  0.18324646  1
  O  O437  1  0.02234057  0.41473062  0.43349762  1
  O  O438  1  0.02285262  0.41545547  0.68509127  1
  O  O439  1  0.02155373  0.41514394  0.93339488  1
  O  O440  1  0.02198432  0.75170336  0.18294397  1
  O  O441  1  0.02259888  0.75159003  0.43255813  1
  O  O442  1  0.02213757  0.74792404  0.68306651  1
  O  O443  1  0.02164335  0.74815983  0.93346611  1
  O  O444  1  0.52246784  0.08276334  0.18275893  1
  O  O445  1  0.52167533  0.08375274  0.43135361  1
  O  O446  1  0.52212506  0.08602456  0.68270499  1
  O  O447  1  0.52113171  0.08408963  0.93131786  1
  O  O448  1  0.52168534  0.41510453  0.18292045  1
  O  O449  1  0.52196538  0.41567319  0.43276958  1
  O  O450  1  0.52302404  0.41666913  0.68409912  1
  O  O451  1  0.52223478  0.41611702  0.93428822  1
  O  O452  1  0.52252600  0.74785646  0.18329588  1
  O  O453  1  0.52346653  0.75044748  0.43444504  1
  O  O454  1  0.52188932  0.74930120  0.68158471  1
  O  O455  1  0.52144222  0.74885592  0.93173205  1
  O  O456  1  0.47749695  0.25192966  0.06671883  1
  O  O457  1  0.47820738  0.25197343  0.31643561  1
  O  O458  1  0.47812974  0.25242070  0.56653231  1
  O  O459  1  0.47721596  0.25111402  0.81520162  1
  O  O460  1  0.47773364  0.58041375  0.06705105  1
  O  O461  1  0.47790745  0.58438200  0.31729597  1
  O  O462  1  0.47850151  0.58452769  0.56672873  1
  O  O463  1  0.47815176  0.58057982  0.81668553  1
  O  O464  1  0.47834578  0.91618227  0.06861214  1
  O  O465  1  0.47826652  0.91739812  0.31715116  1
  O  O466  1  0.47839820  0.91551330  0.56674121  1
  O  O467  1  0.47874282  0.91725108  0.81785899  1
  O  O468  1  0.97741655  0.25151402  0.06717107  1
  O  O469  1  0.97791523  0.24898268  0.31712751  1
  O  O470  1  0.97774200  0.25160028  0.56724917  1
  O  O471  1  0.97711138  0.24943845  0.81610781  1
  O  O472  1  0.97734761  0.58491371  0.06723780  1
  O  O473  1  0.97791352  0.58236522  0.31730527  1
  O  O474  1  0.97866668  0.58320287  0.56834670  1
  O  O475  1  0.97689811  0.58342503  0.81597736  1
  O  O476  1  0.97759117  0.91856004  0.06688856  1
  O  O477  1  0.97765605  0.91686493  0.31506001  1
  O  O478  1  0.97782007  0.91473127  0.56652888  1
  O  O479  1  0.97858973  0.91622750  0.81825471  1
  O  O480  1  0.07199455  0.31539940  0.07441267  1
  O  O481  1  0.07347810  0.31254719  0.32451768  1
  O  O482  1  0.07277928  0.31474997  0.57495566  1
  O  O483  1  0.07243007  0.31296840  0.82366035  1
  O  O484  1  0.07207884  0.64874834  0.07458610  1
  O  O485  1  0.07347124  0.64577040  0.32491964  1
  O  O486  1  0.07424137  0.64613472  0.57530200  1
  O  O487  1  0.07239699  0.64639302  0.82344867  1
  O  O488  1  0.07247012  0.98201036  0.07469289  1
  O  O489  1  0.07274889  0.98026680  0.32330145  1
  O  O490  1  0.07270130  0.97911405  0.57399013  1
  O  O491  1  0.07409985  0.97962070  0.82503325  1
  O  O492  1  0.57293270  0.31474645  0.07360972  1
  O  O493  1  0.57327442  0.31564566  0.32331668  1
  O  O494  1  0.57309097  0.31573632  0.57449359  1
  O  O495  1  0.57265694  0.31429089  0.82330051  1
  O  O496  1  0.57296713  0.64454028  0.07443472  1
  O  O497  1  0.57299703  0.64784332  0.32418976  1
  O  O498  1  0.57376366  0.64749280  0.57408070  1
  O  O499  1  0.57305553  0.64487035  0.82532887  1
  O  O500  1  0.57379209  0.97990731  0.07518085  1
  O  O501  1  0.57285888  0.98152364  0.32394514  1
  O  O502  1  0.57357437  0.97992452  0.57439400  1
  O  O503  1  0.57439296  0.98024046  0.82523301  1
  O  O504  1  0.42792746  0.01834889  0.17623264  1
  O  O505  1  0.42600479  0.02028991  0.42465267  1
  O  O506  1  0.42720268  0.02149060  0.67454036  1
  O  O507  1  0.42580784  0.02052509  0.92400109  1
  O  O508  1  0.42661592  0.35158783  0.17562576  1
  O  O509  1  0.42690646  0.35201486  0.42612908  1
  O  O510  1  0.42746835  0.35369274  0.67653724  1
  O  O511  1  0.42713695  0.35268488  0.92590757  1
  O  O512  1  0.42767775  0.68408848  0.17654123  1
  O  O513  1  0.42853102  0.68649858  0.42703091  1
  O  O514  1  0.42627139  0.68648270  0.67369097  1
  O  O515  1  0.42593449  0.68563015  0.92480812  1
  O  O516  1  0.92788092  0.02063008  0.17683118  1
  O  O517  1  0.92640059  0.01969876  0.42383577  1
  O  O518  1  0.92660430  0.02063119  0.67524439  1
  O  O519  1  0.92687594  0.01856220  0.92631700  1
  O  O520  1  0.92605913  0.35517711  0.17577755  1
  O  O521  1  0.92747558  0.35151223  0.42633615  1
  O  O522  1  0.92711078  0.35286759  0.67713995  1
  O  O523  1  0.92682522  0.35134264  0.92636648  1
  O  O524  1  0.92632830  0.68842682  0.17600227  1
  O  O525  1  0.92751129  0.68757639  0.42447174  1
  O  O526  1  0.92685400  0.68506205  0.67516992  1
  O  O527  1  0.92648065  0.68467920  0.92662963  1
  O  O528  1  0.17877264  0.01850167  0.19881575  1
  O  O529  1  0.17611917  0.02007838  0.44870762  1
  O  O530  1  0.17612562  0.01840775  0.69808235  1
  O  O531  1  0.17638594  0.01888373  0.95104739  1
  O  O532  1  0.17531832  0.35327291  0.20063133  1
  O  O533  1  0.17605867  0.35364060  0.45118022  1
  O  O534  1  0.17736764  0.35514379  0.69970556  1
  O  O535  1  0.17574147  0.35349738  0.94997719  1
  O  O536  1  0.17776025  0.68650024  0.19901032  1
  O  O537  1  0.17796744  0.68640387  0.44844754  1
  O  O538  1  0.17672144  0.68761933  0.69860330  1
  O  O539  1  0.17656435  0.68589487  0.94929376  1
  O  O540  1  0.67868568  0.02040586  0.19853081  1
  O  O541  1  0.67642642  0.02195000  0.44896819  1
  O  O542  1  0.67630956  0.01994439  0.70044881  1
  O  O543  1  0.67646805  0.02187319  0.95065344  1
  O  O544  1  0.67878634  0.35271976  0.19858149  1
  O  O545  1  0.67765380  0.35365856  0.44829893  1
  O  O546  1  0.67871616  0.35238226  0.69773782  1
  O  O547  1  0.67604183  0.35342042  0.95135216  1
  O  O548  1  0.67739400  0.68458772  0.19911446  1
  O  O549  1  0.67754959  0.68457470  0.44885992  1
  O  O550  1  0.67612208  0.68617679  0.70094129  1
  O  O551  1  0.67669142  0.68736409  0.95005623  1
  O  O552  1  0.32254731  0.31226873  0.05074941  1
  O  O553  1  0.32244308  0.31162637  0.29951677  1
  O  O554  1  0.32417388  0.31294950  0.54891027  1
  O  O555  1  0.32337852  0.31369701  0.79987569  1
  O  O556  1  0.32321164  0.64828858  0.05169517  1
  O  O557  1  0.32365008  0.64826492  0.30126912  1
  O  O558  1  0.32384039  0.64645194  0.55018162  1
  O  O559  1  0.32281898  0.64907209  0.80006205  1
  O  O560  1  0.32215227  0.97968021  0.05234310  1
  O  O561  1  0.32305997  0.97838544  0.29961519  1
  O  O562  1  0.32185622  0.98015768  0.55020156  1
  O  O563  1  0.32361380  0.97993226  0.79929737  1
  O  O564  1  0.82147876  0.31421042  0.05232289  1
  O  O565  1  0.82275540  0.31381229  0.30088266  1
  O  O566  1  0.82326462  0.31497948  0.55078296  1
  O  O567  1  0.82285023  0.31244442  0.80142651  1
  O  O568  1  0.82136381  0.64744919  0.05243320  1
  O  O569  1  0.82276346  0.64620676  0.30130859  1
  O  O570  1  0.82356131  0.64518624  0.55020144  1
  O  O571  1  0.82410421  0.64558921  0.79965707  1
  O  O572  1  0.82229347  0.98218151  0.05097378  1
  O  O573  1  0.82361452  0.98079412  0.29904163  1
  O  O574  1  0.82396704  0.98053830  0.54955375  1
  O  O575  1  0.82367865  0.97904074  0.80077689  1
  O  O576  1  0.42662091  0.14567566  0.17527757  1
  O  O577  1  0.42641630  0.14718147  0.42347492  1
  O  O578  1  0.42680704  0.14890871  0.67526132  1
  O  O579  1  0.42556443  0.14741100  0.92468099  1
  O  O580  1  0.42615016  0.47845264  0.17549619  1
  O  O581  1  0.42649084  0.47908300  0.42476073  1
  O  O582  1  0.42843019  0.48089606  0.67630565  1
  O  O583  1  0.42727140  0.47980559  0.92646044  1
  O  O584  1  0.42708494  0.81132007  0.17585912  1
  O  O585  1  0.42850844  0.81401089  0.42580244  1
  O  O586  1  0.42669780  0.81326234  0.67384762  1
  O  O587  1  0.42618280  0.81273730  0.92522605  1
  O  O588  1  0.92842071  0.14802746  0.17634361  1
  O  O589  1  0.92611826  0.14641965  0.42400692  1
  O  O590  1  0.92631741  0.14795879  0.67636510  1
  O  O591  1  0.92625598  0.14564653  0.92603657  1
  O  O592  1  0.92690823  0.48233210  0.17661439  1
  O  O593  1  0.92701543  0.47871900  0.42634776  1
  O  O594  1  0.92881320  0.48020740  0.67699884  1
  O  O595  1  0.92594902  0.47836254  0.92501022  1
  O  O596  1  0.92715495  0.81551797  0.17529272  1
  O  O597  1  0.92730990  0.81480284  0.42554846  1
  O  O598  1  0.92692939  0.81213107  0.67591848  1
  O  O599  1  0.92642759  0.81181943  0.92495197  1
  O  O600  1  0.07316440  0.18828384  0.07471094  1
  O  O601  1  0.07283591  0.18551986  0.32392505  1
  O  O602  1  0.07309722  0.18777717  0.57526305  1
  O  O603  1  0.07187446  0.18558473  0.82401421  1
  O  O604  1  0.07303475  0.52165298  0.07455597  1
  O  O605  1  0.07269735  0.51843745  0.32394254  1
  O  O606  1  0.07385846  0.51944614  0.57622192  1
  O  O607  1  0.07116802  0.51892204  0.82427832  1
  O  O608  1  0.07290378  0.85492102  0.07556085  1
  O  O609  1  0.07262664  0.85291612  0.32231396  1
  O  O610  1  0.07311602  0.85180045  0.57341124  1
  O  O611  1  0.07384675  0.85266670  0.82640420  1
  O  O612  1  0.57245442  0.18767448  0.07432505  1
  O  O613  1  0.57353241  0.18855319  0.32461130  1
  O  O614  1  0.57346319  0.18875628  0.57455476  1
  O  O615  1  0.57169139  0.18692724  0.82335046  1
  O  O616  1  0.57285034  0.51744886  0.07469320  1
  O  O617  1  0.57310216  0.52069060  0.32556766  1
  O  O618  1  0.57372462  0.52041808  0.57380726  1
  O  O619  1  0.57367513  0.51775134  0.82377964  1
  O  O620  1  0.57383246  0.85288144  0.07634207  1
  O  O621  1  0.57420347  0.85439991  0.32474063  1
  O  O622  1  0.57376443  0.85263986  0.57358922  1
  O  O623  1  0.57386442  0.85311813  0.82497290  1
  O  O624  1  0.32292457  0.18504456  0.05074979  1
  O  O625  1  0.32284926  0.18434444  0.30067056  1
  O  O626  1  0.32411717  0.18605178  0.54968414  1
  O  O627  1  0.32294350  0.18650498  0.79960417  1
  O  O628  1  0.32260033  0.52117707  0.05024423  1
  O  O629  1  0.32319363  0.52115408  0.29966697  1
  O  O630  1  0.32365556  0.51929634  0.55088436  1
  O  O631  1  0.32309718  0.52190437  0.80109919  1
  O  O632  1  0.32296488  0.85220043  0.05170913  1
  O  O633  1  0.32311836  0.85152459  0.30036604  1
  O  O634  1  0.32223293  0.85265718  0.55087336  1
  O  O635  1  0.32401533  0.85326047  0.79911172  1
  O  O636  1  0.82307347  0.18704450  0.05237839  1
  O  O637  1  0.82189290  0.18658184  0.30134326  1
  O  O638  1  0.82318824  0.18808558  0.54977780  1
  O  O639  1  0.82240552  0.18535732  0.80159473  1
  O  O640  1  0.82289000  0.51995210  0.05231902  1
  O  O641  1  0.82173112  0.51909177  0.30145403  1
  O  O642  1  0.82379386  0.51818123  0.55038637  1
  O  O643  1  0.82356778  0.51872074  0.80065709  1
  O  O644  1  0.82365196  0.85499809  0.05085279  1
  O  O645  1  0.82380887  0.85379813  0.29815142  1
  O  O646  1  0.82421912  0.85336130  0.54939447  1
  O  O647  1  0.82322141  0.85174529  0.80164975  1
  O  O648  1  0.17731389  0.14594093  0.19823244  1
  O  O649  1  0.17662577  0.14720005  0.44901030  1
  O  O650  1  0.17654348  0.14564181  0.69912729  1
  O  O651  1  0.17560978  0.14567612  0.95051632  1
  O  O652  1  0.17575034  0.48043688  0.20049656  1
  O  O653  1  0.17595422  0.48053382  0.45011614  1
  O  O654  1  0.17761000  0.48252336  0.69936451  1
  O  O655  1  0.17533231  0.48052505  0.95054545  1
  O  O656  1  0.17798011  0.81358080  0.19846783  1
  O  O657  1  0.17795913  0.81377508  0.44729174  1
  O  O658  1  0.17631317  0.81459287  0.69876400  1
  O  O659  1  0.17704949  0.81284348  0.95026355  1
  O  O660  1  0.67705285  0.14781325  0.19858452  1
  O  O661  1  0.67668642  0.14922060  0.44856793  1
  O  O662  1  0.67564408  0.14688159  0.70013787  1
  O  O663  1  0.67688017  0.14883975  0.94987023  1
  O  O664  1  0.67743834  0.47996794  0.19987490  1
  O  O665  1  0.67889120  0.48065916  0.44762806  1
  O  O666  1  0.67828492  0.47980793  0.69788865  1
  O  O667  1  0.67643836  0.48006863  0.95093968  1
  O  O668  1  0.67661722  0.81166263  0.20076927  1
  O  O669  1  0.67737561  0.81190904  0.44922434  1
  O  O670  1  0.67624057  0.81307499  0.69953512  1
  O  O671  1  0.67704051  0.81466940  0.94993863  1
