# generated using pymatgen
data_Na2MnFe(PO4)2
_symmetry_space_group_name_H-M   'P 1'
_cell_length_a   22.34247305
_cell_length_b   20.09413361
_cell_length_c   19.45118542
_cell_angle_alpha   90.03879098
_cell_angle_beta   90.01655582
_cell_angle_gamma   89.97375829
_symmetry_Int_Tables_number   1
_chemical_formula_structural   Na2MnFe(PO4)2
_chemical_formula_sum   'Na96 Mn48 Fe48 P96 O384'
_cell_volume   8732.65773599
_cell_formula_units_Z   48
loop_
 _symmetry_equiv_pos_site_id
 _symmetry_equiv_pos_as_xyz
  1  'x, y, z'
loop_
 _atom_site_type_symbol
 _atom_site_label
 _atom_site_symmetry_multiplicity
 _atom_site_fract_x
 _atom_site_fract_y
 _atom_site_fract_z
 _atom_site_occupancy
  Na  Na0  1  0.14037591  0.24960303  0.24468357  1
  Na  Na1  1  0.14055904  0.25079917  0.49380069  1
  Na  Na2  1  0.14060414  0.25106400  0.74507922  1
  Na  Na3  1  0.14003898  0.24924269  0.99277588  1
  Na  Na4  1  0.13997840  0.58357966  0.24367554  1
  Na  Na5  1  0.14055911  0.58215779  0.49380117  1
  Na  Na6  1  0.14080489  0.58311107  0.74424587  1
  Na  Na7  1  0.14043498  0.58339013  0.99528525  1
  Na  Na8  1  0.14093155  0.91603981  0.24405770  1
  Na  Na9  1  0.14023502  0.91685181  0.49450267  1
  Na  Na10  1  0.13990804  0.91752760  0.74403589  1
  Na  Na11  1  0.14097363  0.91590934  0.99352500  1
  Na  Na12  1  0.64016462  0.25081004  0.24217237  1
  Na  Na13  1  0.64068607  0.24846458  0.49366202  1
  Na  Na14  1  0.64027610  0.25037768  0.74284199  1
  Na  Na15  1  0.63984474  0.25016463  0.99445963  1
  Na  Na16  1  0.64016464  0.58319223  0.24208546  1
  Na  Na17  1  0.64012744  0.58130484  0.49323623  1
  Na  Na18  1  0.63983878  0.58439953  0.74320360  1
  Na  Na19  1  0.63941553  0.58348934  0.99351821  1
  Na  Na20  1  0.64053561  0.91652566  0.24361784  1
  Na  Na21  1  0.63957960  0.91514089  0.49293630  1
  Na  Na22  1  0.63983577  0.91720163  0.74135289  1
  Na  Na23  1  0.64084164  0.91654111  0.99350204  1
  Na  Na24  1  0.35987532  0.08280057  0.00515982  1
  Na  Na25  1  0.35969823  0.08390867  0.25638193  1
  Na  Na26  1  0.35992562  0.08432807  0.50637111  1
  Na  Na27  1  0.35994547  0.08436102  0.75712992  1
  Na  Na28  1  0.35995381  0.41721189  0.00634911  1
  Na  Na29  1  0.36022710  0.41619484  0.25735701  1
  Na  Na30  1  0.36034758  0.41664546  0.50675923  1
  Na  Na31  1  0.35985448  0.41727257  0.75686729  1
  Na  Na32  1  0.36011142  0.74906292  0.00613235  1
  Na  Na33  1  0.36064815  0.75002154  0.25565119  1
  Na  Na34  1  0.36022264  0.74950767  0.50667624  1
  Na  Na35  1  0.36056201  0.75049398  0.75709715  1
  Na  Na36  1  0.85944662  0.08469320  0.00704611  1
  Na  Na37  1  0.85942704  0.08455126  0.25552745  1
  Na  Na38  1  0.85862838  0.08138868  0.50650794  1
  Na  Na39  1  0.85945602  0.08320426  0.75570005  1
  Na  Na40  1  0.85888507  0.41690357  0.00794087  1
  Na  Na41  1  0.85924709  0.41766452  0.25588455  1
  Na  Na42  1  0.85948406  0.41493172  0.50569585  1
  Na  Na43  1  0.85954769  0.41775701  0.75583900  1
  Na  Na44  1  0.85908200  0.75001566  0.00642770  1
  Na  Na45  1  0.85962190  0.74999543  0.25719179  1
  Na  Na46  1  0.85976676  0.74912856  0.50686714  1
  Na  Na47  1  0.85941707  0.75117693  0.75546811  1
  Na  Na48  1  0.10977887  0.08472079  0.11849562  1
  Na  Na49  1  0.10961809  0.08391947  0.36949776  1
  Na  Na50  1  0.10956984  0.08281946  0.61961199  1
  Na  Na51  1  0.10979350  0.08334225  0.86857559  1
  Na  Na52  1  0.10923325  0.41616657  0.11933617  1
  Na  Na53  1  0.10958130  0.41590743  0.36943238  1
  Na  Na54  1  0.11022788  0.41727765  0.61825657  1
  Na  Na55  1  0.10937774  0.41579756  0.86926176  1
  Na  Na56  1  0.11029614  0.74938963  0.11908637  1
  Na  Na57  1  0.10927662  0.74918607  0.36954266  1
  Na  Na58  1  0.10934212  0.75037744  0.61947193  1
  Na  Na59  1  0.10964506  0.75043429  0.86913451  1
  Na  Na60  1  0.61001446  0.08341560  0.11806892  1
  Na  Na61  1  0.60975209  0.08200840  0.36804700  1
  Na  Na62  1  0.60974045  0.08168041  0.61723491  1
  Na  Na63  1  0.60948187  0.08415115  0.86798850  1
  Na  Na64  1  0.60936823  0.41694241  0.11833091  1
  Na  Na65  1  0.60951463  0.41717596  0.36734001  1
  Na  Na66  1  0.60961034  0.41693865  0.61895427  1
  Na  Na67  1  0.60916416  0.41816612  0.86894114  1
  Na  Na68  1  0.61011268  0.74813991  0.11843138  1
  Na  Na69  1  0.60937599  0.74888673  0.36834840  1
  Na  Na70  1  0.60929530  0.74973793  0.61843870  1
  Na  Na71  1  0.60947625  0.74933920  0.86709231  1
  Na  Na72  1  0.39035544  0.25015718  0.13119735  1
  Na  Na73  1  0.39035810  0.25067899  0.38249556  1
  Na  Na74  1  0.39039963  0.25067342  0.63214780  1
  Na  Na75  1  0.39056359  0.25156211  0.88170085  1
  Na  Na76  1  0.39095151  0.58353910  0.13191520  1
  Na  Na77  1  0.39099617  0.58397875  0.38066992  1
  Na  Na78  1  0.39095084  0.58273088  0.63241426  1
  Na  Na79  1  0.39058725  0.58396506  0.88113216  1
  Na  Na80  1  0.39075528  0.91519862  0.13083983  1
  Na  Na81  1  0.39104256  0.91589392  0.38092750  1
  Na  Na82  1  0.39106136  0.91597635  0.63146045  1
  Na  Na83  1  0.39094622  0.91697486  0.88137033  1
  Na  Na84  1  0.88993022  0.25095845  0.13145463  1
  Na  Na85  1  0.88960565  0.24966892  0.38023555  1
  Na  Na86  1  0.89029624  0.24935618  0.63038653  1
  Na  Na87  1  0.88995973  0.24999109  0.88172397  1
  Na  Na88  1  0.88962018  0.58356334  0.13228202  1
  Na  Na89  1  0.89018417  0.58355670  0.38089154  1
  Na  Na90  1  0.89034498  0.58438441  0.63103221  1
  Na  Na91  1  0.88988018  0.58354691  0.88172944  1
  Na  Na92  1  0.89047351  0.91784432  0.13182905  1
  Na  Na93  1  0.89015066  0.91611602  0.38176365  1
  Na  Na94  1  0.88982567  0.91625411  0.63143388  1
  Na  Na95  1  0.88997373  0.91769577  0.88017766  1
  Mn  Mn96  1  0.75008292  0.83289471  0.37445658  1
  Mn  Mn97  1  0.25090980  0.00101400  0.37456375  1
  Mn  Mn98  1  0.50105756  0.83222787  -0.00059016  1
  Mn  Mn99  1  0.00068688  0.83250995  0.25094545  1
  Mn  Mn100  1  0.25002701  0.83309532  0.87514699  1
  Mn  Mn101  1  -0.00023235  0.66651530  0.00029613  1
  Mn  Mn102  1  0.25007036  0.50017376  0.87554223  1
  Mn  Mn103  1  0.50071491  0.16597344  0.50042092  1
  Mn  Mn104  1  0.50026943  0.16683890  0.74958063  1
  Mn  Mn105  1  0.00022476  0.33296478  0.24965266  1
  Mn  Mn106  1  0.25045099  0.16665550  0.12460062  1
  Mn  Mn107  1  0.50094994  0.00028353  0.00001942  1
  Mn  Mn108  1  0.00006581  0.66755840  0.75064860  1
  Mn  Mn109  1  -0.00058195  0.33338201  0.75015778  1
  Mn  Mn110  1  0.25018250  0.66635311  0.37526788  1
  Mn  Mn111  1  0.24982994  -0.00065008  0.12548578  1
  Mn  Mn112  1  -0.00050410  -0.00084630  0.49962083  1
  Mn  Mn113  1  0.00025421  0.49938283  0.00089612  1
  Mn  Mn114  1  0.25020926  0.00120752  0.62499731  1
  Mn  Mn115  1  0.24976917  0.66588786  0.62562064  1
  Mn  Mn116  1  0.74956910  0.49941408  0.37407986  1
  Mn  Mn117  1  -0.00012657  0.50012938  0.74973362  1
  Mn  Mn118  1  0.49938986  0.16675174  0.25012773  1
  Mn  Mn119  1  0.74982885  0.66613935  0.62475035  1
  Mn  Mn120  1  0.24960482  0.50004771  0.12538712  1
  Mn  Mn121  1  0.74919966  0.00039258  0.87426941  1
  Mn  Mn122  1  0.25027075  0.83310001  0.37493866  1
  Mn  Mn123  1  0.75012774  0.33296932  0.62480125  1
  Mn  Mn124  1  0.74996995  0.83323968  0.87475383  1
  Mn  Mn125  1  -0.00091280  0.16680959  0.50022248  1
  Mn  Mn126  1  0.25038021  0.83370856  0.62589664  1
  Mn  Mn127  1  0.00051446  0.16629372  0.75007102  1
  Mn  Mn128  1  0.24968605  0.16841737  0.62628227  1
  Mn  Mn129  1  0.75003799  0.83338883  0.12511342  1
  Mn  Mn130  1  0.74927353  0.16615381  0.37405538  1
  Mn  Mn131  1  0.74984019  0.33388220  0.87482038  1
  Mn  Mn132  1  0.00052171  0.00096329  0.00058926  1
  Mn  Mn133  1  0.50059191  0.33432929  0.50034280  1
  Mn  Mn134  1  0.25064658  0.49915319  0.37480133  1
  Mn  Mn135  1  0.74961207  0.16684823  0.87489714  1
  Mn  Mn136  1  0.49971004  0.33412782  0.00014447  1
  Mn  Mn137  1  -0.00045668  0.83373244  0.00050512  1
  Mn  Mn138  1  0.74942283  0.50143783  0.87599381  1
  Mn  Mn139  1  0.50046211  0.66641226  0.49982903  1
  Mn  Mn140  1  0.49964506  -0.00121973  0.24925996  1
  Mn  Mn141  1  0.00058354  0.00086533  0.25078085  1
  Mn  Mn142  1  -0.00041358  0.50027193  0.49967739  1
  Mn  Mn143  1  0.25029772  0.33284686  0.12520599  1
  Fe  Fe144  1  0.74967906  -0.00062369  0.62437770  1
  Fe  Fe145  1  0.74975051  0.50065849  0.12507402  1
  Fe  Fe146  1  0.74995876  0.00040475  0.12471690  1
  Fe  Fe147  1  0.24997721  0.33323001  0.37592092  1
  Fe  Fe148  1  0.74926046  0.83270247  0.62427925  1
  Fe  Fe149  1  0.00024088  0.66665857  0.50014164  1
  Fe  Fe150  1  0.49990137  0.16734739  -0.00044133  1
  Fe  Fe151  1  0.50096527  0.83233834  0.24985962  1
  Fe  Fe152  1  0.75016808  0.49982890  0.62475841  1
  Fe  Fe153  1  0.25050542  0.16699660  0.87497606  1
  Fe  Fe154  1  0.50025500  0.50031218  0.24920909  1
  Fe  Fe155  1  0.74936890  0.16707937  0.12541014  1
  Fe  Fe156  1  -0.00046991  0.66640185  0.25072612  1
  Fe  Fe157  1  0.49946645  0.50053177  -0.00019386  1
  Fe  Fe158  1  0.50006565  0.33374885  0.25017993  1
  Fe  Fe159  1  0.25007944  0.16752556  0.37589273  1
  Fe  Fe160  1  -0.00038322  0.83379786  0.74961531  1
  Fe  Fe161  1  0.50026367  0.83343821  0.74922929  1
  Fe  Fe162  1  0.25054236  0.33371390  0.62542266  1
  Fe  Fe163  1  0.49981121  0.66647395  0.74967648  1
  Fe  Fe164  1  0.75022877  0.16591347  0.62366831  1
  Fe  Fe165  1  0.25071027  0.83274971  0.12432600  1
  Fe  Fe166  1  0.74995649  0.66590225  0.37512242  1
  Fe  Fe167  1  0.49990262  0.66603208  -0.00062700  1
  Fe  Fe168  1  -0.00005882  0.33322387  0.49935560  1
  Fe  Fe169  1  0.74942337  0.33376830  0.12502308  1
  Fe  Fe170  1  0.74996493  -0.00044747  0.37491287  1
  Fe  Fe171  1  0.50036220  0.33415938  0.75068503  1
  Fe  Fe172  1  0.74955196  0.33303965  0.37431010  1
  Fe  Fe173  1  0.50023427  0.50032704  0.75013510  1
  Fe  Fe174  1  -0.00030116  0.16714864  -0.00046723  1
  Fe  Fe175  1  -0.00058615  -0.00012588  0.75006449  1
  Fe  Fe176  1  0.74959330  0.66691988  0.12505854  1
  Fe  Fe177  1  -0.00005859  0.16735233  0.24970359  1
  Fe  Fe178  1  0.00023854  0.83293270  0.50067625  1
  Fe  Fe179  1  0.74998190  0.66679644  0.87502063  1
  Fe  Fe180  1  0.49953923  0.83266711  0.49998696  1
  Fe  Fe181  1  -0.00031112  0.49973249  0.25052773  1
  Fe  Fe182  1  0.49986596  -0.00121022  0.49939250  1
  Fe  Fe183  1  0.50032998  0.66647506  0.24999246  1
  Fe  Fe184  1  0.49987657  -0.00019273  0.74942224  1
  Fe  Fe185  1  0.25061556  0.49940104  0.62530431  1
  Fe  Fe186  1  0.24982026  0.33400634  0.87498022  1
  Fe  Fe187  1  0.25043176  -0.00023736  0.87537730  1
  Fe  Fe188  1  0.49995198  0.50015407  0.49989777  1
  Fe  Fe189  1  0.25073105  0.66671331  0.12491427  1
  Fe  Fe190  1  -0.00076711  0.33330579  0.00036500  1
  Fe  Fe191  1  0.24997287  0.66658380  0.87545299  1
  P  P192  1  0.04135082  0.25003826  0.10162853  1
  P  P193  1  0.04194464  0.24908479  0.35277227  1
  P  P194  1  0.04235148  0.25127327  0.60229672  1
  P  P195  1  0.04224524  0.25006468  0.85410575  1
  P  P196  1  0.04232740  0.58328475  0.10474538  1
  P  P197  1  0.04130319  0.58329877  0.35218898  1
  P  P198  1  0.04238698  0.58472266  0.60233433  1
  P  P199  1  0.04288955  0.58309927  0.85345906  1
  P  P200  1  0.04331819  0.91696928  0.10352965  1
  P  P201  1  0.04317522  0.91613508  0.35400460  1
  P  P202  1  0.04173346  0.91553363  0.60337915  1
  P  P203  1  0.04120528  0.91695918  0.85157672  1
  P  P204  1  0.54166664  0.24950968  0.10274981  1
  P  P205  1  0.54234062  0.25127163  0.35226747  1
  P  P206  1  0.54283216  0.25045087  0.60364979  1
  P  P207  1  0.54231994  0.25156815  0.85266817  1
  P  P208  1  0.54102180  0.58297367  0.10192181  1
  P  P209  1  0.54173504  0.58301809  0.35120794  1
  P  P210  1  0.54202468  0.58172542  0.60286271  1
  P  P211  1  0.54127035  0.58356002  0.85177309  1
  P  P212  1  0.54319986  0.91551210  0.10305069  1
  P  P213  1  0.54219360  0.91477955  0.35279386  1
  P  P214  1  0.54109197  0.91588660  0.60171967  1
  P  P215  1  0.54176132  0.91685466  0.85081832  1
  P  P216  1  0.45724330  0.08340463  0.14622948  1
  P  P217  1  0.45801453  0.08185016  0.39767459  1
  P  P218  1  0.45807773  0.08154491  0.64700240  1
  P  P219  1  0.45843244  0.08459736  0.89704207  1
  P  P220  1  0.45833509  0.41687951  0.14828982  1
  P  P221  1  0.45845226  0.41850625  0.39684600  1
  P  P222  1  0.45864583  0.41709796  0.64864912  1
  P  P223  1  0.45795259  0.41868937  0.89697084  1
  P  P224  1  0.45962092  0.74917173  0.14781931  1
  P  P225  1  0.45816466  0.75068445  0.39690225  1
  P  P226  1  0.45889944  0.74980064  0.64802510  1
  P  P227  1  0.45826018  0.74851677  0.89654514  1
  P  P228  1  0.95810924  0.08545099  0.14729820  1
  P  P229  1  0.95656209  0.08352669  0.39653170  1
  P  P230  1  0.95759396  0.08197535  0.64757141  1
  P  P231  1  0.95755671  0.08413053  0.89737744  1
  P  P232  1  0.95755803  0.41743977  0.14764639  1
  P  P233  1  0.95765637  0.41561717  0.39686094  1
  P  P234  1  0.95702317  0.41666353  0.64604897  1
  P  P235  1  0.95676779  0.41560292  0.89814319  1
  P  P236  1  0.95756149  0.74889464  0.14842162  1
  P  P237  1  0.95843814  0.74946284  0.39871703  1
  P  P238  1  0.95780325  0.75133799  0.64696340  1
  P  P239  1  0.95690877  0.75081274  0.89673492  1
  P  P240  1  0.20743772  0.08414733  0.22859167  1
  P  P241  1  0.20772957  0.08519231  0.47767221  1
  P  P242  1  0.20765045  0.08420786  0.72959330  1
  P  P243  1  0.20894840  0.08308341  0.97634429  1
  P  P244  1  0.20736826  0.41582823  0.22891794  1
  P  P245  1  0.20823562  0.41555532  0.47847536  1
  P  P246  1  0.20862353  0.41655202  0.72716624  1
  P  P247  1  0.20741449  0.41566769  0.97769927  1
  P  P248  1  0.20908777  0.75002501  0.22642368  1
  P  P249  1  0.20729435  0.74966427  0.47852889  1
  P  P250  1  0.20734649  0.74983724  0.72907850  1
  P  P251  1  0.20811123  0.74844689  0.97835296  1
  P  P252  1  0.70834312  0.08304690  0.22668398  1
  P  P253  1  0.70772468  0.08133056  0.47748350  1
  P  P254  1  0.70823038  0.08360844  0.72544628  1
  P  P255  1  0.70712858  0.08362705  0.97884917  1
  P  P256  1  0.70829919  0.41692131  0.22645823  1
  P  P257  1  0.70770750  0.41486010  0.47710197  1
  P  P258  1  0.70773914  0.41832304  0.72730483  1
  P  P259  1  0.70718223  0.41699483  0.97925958  1
  P  P260  1  0.70813132  0.74868095  0.22781032  1
  P  P261  1  0.70788869  0.74836836  0.47731672  1
  P  P262  1  0.70733662  0.75092466  0.72712401  1
  P  P263  1  0.70742038  0.74862510  0.97746369  1
  P  P264  1  0.29274047  0.24993599  0.02067751  1
  P  P265  1  0.29205249  0.25007100  0.27416597  1
  P  P266  1  0.29249836  0.25164490  0.52256503  1
  P  P267  1  0.29184037  0.25115434  0.77371408  1
  P  P268  1  0.29245558  0.58437602  0.02256155  1
  P  P269  1  0.29288484  0.58359862  0.27141049  1
  P  P270  1  0.29285337  0.58149305  0.52306620  1
  P  P271  1  0.29228687  0.58416161  0.77276295  1
  P  P272  1  0.29253367  0.91547832  0.02213662  1
  P  P273  1  0.29330293  0.91619678  0.27123184  1
  P  P274  1  0.29319391  0.91710631  0.52210381  1
  P  P275  1  0.29260573  0.91813096  0.77302397  1
  P  P276  1  0.79083574  0.25042510  0.02383417  1
  P  P277  1  0.79119199  0.25144915  0.27129154  1
  P  P278  1  0.79214883  0.24830998  0.52155832  1
  P  P279  1  0.79265811  0.24986328  0.77127945  1
  P  P280  1  0.79097950  0.58433960  0.02349143  1
  P  P281  1  0.79167477  0.58456629  0.27172083  1
  P  P282  1  0.79204286  0.58139756  0.52195887  1
  P  P283  1  0.79217214  0.58485879  0.77239918  1
  P  P284  1  0.79242734  0.91789751  0.02268984  1
  P  P285  1  0.79225508  0.91828686  0.27206763  1
  P  P286  1  0.79077251  0.91576402  0.52282944  1
  P  P287  1  0.79175506  0.91675635  0.77048869  1
  O  O288  1  0.03654714  0.24944355  0.18164915  1
  O  O289  1  0.03655132  0.24994316  0.43263803  1
  O  O290  1  0.03728978  0.25088289  0.68226996  1
  O  O291  1  0.03680800  0.25023638  0.93400130  1
  O  O292  1  0.03694549  0.58320530  0.18466137  1
  O  O293  1  0.03608284  0.58390682  0.43215603  1
  O  O294  1  0.03731072  0.58449267  0.68228336  1
  O  O295  1  0.03787478  0.58287468  0.93343396  1
  O  O296  1  0.03860247  0.91697986  0.18349486  1
  O  O297  1  0.03779735  0.91539996  0.43393700  1
  O  O298  1  0.03615880  0.91614878  0.68327305  1
  O  O299  1  0.03669040  0.91719169  0.93159834  1
  O  O300  1  0.53624559  0.25018666  0.18266108  1
  O  O301  1  0.53759727  0.25111287  0.43227103  1
  O  O302  1  0.53759353  0.25100813  0.68358514  1
  O  O303  1  0.53681125  0.25096610  0.93259419  1
  O  O304  1  0.53604150  0.58276483  0.18178885  1
  O  O305  1  0.53703800  0.58323729  0.43114757  1
  O  O306  1  0.53667438  0.58174872  0.68265718  1
  O  O307  1  0.53616108  0.58416628  0.93163001  1
  O  O308  1  0.53789574  0.91490254  0.18294133  1
  O  O309  1  0.53635364  0.91514110  0.43263699  1
  O  O310  1  0.53593657  0.91640363  0.68162407  1
  O  O311  1  0.53731736  0.91666961  0.93081732  1
  O  O312  1  0.46277470  0.08415157  0.06633233  1
  O  O313  1  0.46273653  0.08218420  0.31768384  1
  O  O314  1  0.46339179  0.08122140  0.56707612  1
  O  O315  1  0.46375263  0.08398205  0.81711001  1
  O  O316  1  0.46293804  0.41677766  0.06832143  1
  O  O317  1  0.46385785  0.41809445  0.31699435  1
  O  O318  1  0.46364730  0.41719452  0.56868733  1
  O  O319  1  0.46353422  0.41836078  0.81717512  1
  O  O320  1  0.46444826  0.74830865  0.06788273  1
  O  O321  1  0.46368340  0.75046879  0.31708371  1
  O  O322  1  0.46355097  0.75015746  0.56805659  1
  O  O323  1  0.46312539  0.74867848  0.81668681  1
  O  O324  1  0.96351096  0.08564198  0.06734513  1
  O  O325  1  0.96188943  0.08401565  0.31660902  1
  O  O326  1  0.96235389  0.08213688  0.56761144  1
  O  O327  1  0.96270242  0.08327900  0.81741473  1
  O  O328  1  0.96278756  0.41659805  0.06774347  1
  O  O329  1  0.96323917  0.41633210  0.31696282  1
  O  O330  1  0.96225693  0.41622344  0.56609842  1
  O  O331  1  0.96163061  0.41603445  0.81812351  1
  O  O332  1  0.96215725  0.74918431  0.06843409  1
  O  O333  1  0.96362541  0.74882766  0.31875706  1
  O  O334  1  0.96325515  0.75081468  0.56710018  1
  O  O335  1  0.96217457  0.75145093  0.81679491  1
  O  O336  1  0.21372413  0.08287848  0.05636931  1
  O  O337  1  0.21277583  0.08495456  0.30851309  1
  O  O338  1  0.21276260  0.08525510  0.55766159  1
  O  O339  1  0.21323131  0.08391385  0.80946602  1
  O  O340  1  0.21245924  0.41601545  0.05765138  1
  O  O341  1  0.21261858  0.41535232  0.30886649  1
  O  O342  1  0.21357000  0.41606540  0.55835678  1
  O  O343  1  0.21374675  0.41642171  0.80714963  1
  O  O344  1  0.21391223  0.74883086  0.05821870  1
  O  O345  1  0.21389735  0.74996856  0.30642972  1
  O  O346  1  0.21230474  0.74964227  0.55847617  1
  O  O347  1  0.21247080  0.74933577  0.80903678  1
  O  O348  1  0.71232955  0.08352087  0.05874618  1
  O  O349  1  0.71313363  0.08289103  0.30665195  1
  O  O350  1  0.71330027  0.08186823  0.55731529  1
  O  O351  1  0.71261118  0.08356087  0.80550526  1
  O  O352  1  0.71251685  0.41692573  0.05915130  1
  O  O353  1  0.71304392  0.41668250  0.30643168  1
  O  O354  1  0.71297078  0.41543695  0.55698727  1
  O  O355  1  0.71281046  0.41845124  0.80728283  1
  O  O356  1  0.71258451  0.74875628  0.05743169  1
  O  O357  1  0.71349617  0.74852453  0.30770275  1
  O  O358  1  0.71316829  0.74915527  0.55724407  1
  O  O359  1  0.71248569  0.75059886  0.80702162  1
  O  O360  1  0.28734775  0.24995778  0.19411712  1
  O  O361  1  0.28710310  0.25111607  0.44269037  1
  O  O362  1  0.28683657  0.25166236  0.69373026  1
  O  O363  1  0.28738839  0.25013268  0.94081276  1
  O  O364  1  0.28755883  0.58407372  0.19148428  1
  O  O365  1  0.28798428  0.58164114  0.44307153  1
  O  O366  1  0.28687348  0.58293111  0.69286413  1
  O  O367  1  0.28715377  0.58453866  0.94262471  1
  O  O368  1  0.28784211  0.91549272  0.19128276  1
  O  O369  1  0.28821288  0.91698722  0.44212406  1
  O  O370  1  0.28776517  0.91794248  0.69306881  1
  O  O371  1  0.28710513  0.91623558  0.94219632  1
  O  O372  1  0.78564849  0.25142793  0.19144187  1
  O  O373  1  0.78648403  0.24873544  0.44168801  1
  O  O374  1  0.78769031  0.24921385  0.69132034  1
  O  O375  1  0.78632888  0.25014726  0.94381020  1
  O  O376  1  0.78640806  0.58469466  0.19185361  1
  O  O377  1  0.78677537  0.58178886  0.44203864  1
  O  O378  1  0.78723184  0.58390761  0.69245757  1
  O  O379  1  0.78621093  0.58458713  0.94350983  1
  O  O380  1  0.78692646  0.91818670  0.19216498  1
  O  O381  1  0.78625449  0.91633160  0.44281995  1
  O  O382  1  0.78633411  0.91621526  0.69060864  1
  O  O383  1  0.78707955  0.91743177  0.94273805  1
  O  O384  1  0.22842201  0.25000157  0.05621708  1
  O  O385  1  0.22773002  0.24969944  0.30971002  1
  O  O386  1  0.22826837  0.25250995  0.55853176  1
  O  O387  1  0.22771261  0.25078306  0.80974540  1
  O  O388  1  0.22820687  0.58469594  0.05830809  1
  O  O389  1  0.22857637  0.58302916  0.30682134  1
  O  O390  1  0.22841211  0.58119600  0.55824203  1
  O  O391  1  0.22810832  0.58481530  0.80877724  1
  O  O392  1  0.22834052  0.91470841  0.05803403  1
  O  O393  1  0.22902315  0.91698782  0.30670966  1
  O  O394  1  0.22871073  0.91701378  0.55706288  1
  O  O395  1  0.22817599  0.91802139  0.80819777  1
  O  O396  1  0.72659400  0.25089150  0.05934833  1
  O  O397  1  0.72711943  0.25145526  0.30756864  1
  O  O398  1  0.72805636  0.24810114  0.55778156  1
  O  O399  1  0.72818117  0.25030623  0.80633759  1
  O  O400  1  0.72677559  0.58453701  0.05927604  1
  O  O401  1  0.72750078  0.58474574  0.30775638  1
  O  O402  1  0.72779673  0.58134122  0.55776789  1
  O  O403  1  0.72776567  0.58540386  0.80787101  1
  O  O404  1  0.72811629  0.91810058  0.05825515  1
  O  O405  1  0.72802688  0.91783714  0.30790280  1
  O  O406  1  0.72656484  0.91536873  0.55853516  1
  O  O407  1  0.72755099  0.91655648  0.80630703  1
  O  O408  1  0.27177372  0.08340820  0.19325080  1
  O  O409  1  0.27211666  0.08571738  0.44224473  1
  O  O410  1  0.27183216  0.08456336  0.69374504  1
  O  O411  1  0.27314952  0.08333405  0.94063355  1
  O  O412  1  0.27172657  0.41640798  0.19368968  1
  O  O413  1  0.27242674  0.41505297  0.44245694  1
  O  O414  1  0.27283475  0.41652047  0.69114718  1
  O  O415  1  0.27180253  0.41552087  0.94237094  1
  O  O416  1  0.27331419  0.75026148  0.19063009  1
  O  O417  1  0.27183292  0.74964168  0.44374249  1
  O  O418  1  0.27176152  0.74961562  0.69393896  1
  O  O419  1  0.27219436  0.74826716  0.94200529  1
  O  O420  1  0.77246918  0.08280673  0.19078837  1
  O  O421  1  0.77176526  0.08154226  0.44113605  1
  O  O422  1  0.77254582  0.08388724  0.69005705  1
  O  O423  1  0.77138871  0.08343253  0.94318998  1
  O  O424  1  0.77242667  0.41644542  0.19060320  1
  O  O425  1  0.77189415  0.41476533  0.44115456  1
  O  O426  1  0.77205051  0.41805693  0.69176457  1
  O  O427  1  0.77139727  0.41729345  0.94350563  1
  O  O428  1  0.77230940  0.74864331  0.19190816  1
  O  O429  1  0.77211465  0.74805885  0.44146352  1
  O  O430  1  0.77156944  0.75130450  0.69133722  1
  O  O431  1  0.77175547  0.74859990  0.94188580  1
  O  O432  1  0.02232942  0.08557885  0.18321248  1
  O  O433  1  0.02090132  0.08334020  0.43184088  1
  O  O434  1  0.02196413  0.08160078  0.68291298  1
  O  O435  1  0.02192339  0.08493597  0.93294690  1
  O  O436  1  0.02176139  0.41804448  0.18352029  1
  O  O437  1  0.02178219  0.41536255  0.43304780  1
  O  O438  1  0.02142348  0.41672316  0.68136588  1
  O  O439  1  0.02127174  0.41481561  0.93327556  1
  O  O440  1  0.02207521  0.74827668  0.18344597  1
  O  O441  1  0.02259342  0.74981025  0.43480201  1
  O  O442  1  0.02188327  0.75164781  0.68327626  1
  O  O443  1  0.02129555  0.75046506  0.93204801  1
  O  O444  1  0.52148598  0.08318487  0.18181604  1
  O  O445  1  0.52241733  0.08149730  0.43293713  1
  O  O446  1  0.52232467  0.08176556  0.68279194  1
  O  O447  1  0.52260322  0.08511796  0.93303071  1
  O  O448  1  0.52262460  0.41705313  0.18398647  1
  O  O449  1  0.52259989  0.41882415  0.43302975  1
  O  O450  1  0.52282605  0.41726092  0.68466447  1
  O  O451  1  0.52195605  0.41873254  0.93341121  1
  O  O452  1  0.52370401  0.74979588  0.18393697  1
  O  O453  1  0.52225054  0.75089084  0.43325614  1
  O  O454  1  0.52299980  0.74953627  0.68391121  1
  O  O455  1  0.52255418  0.74779237  0.93230485  1
  O  O456  1  0.47757589  0.24913205  0.06659629  1
  O  O457  1  0.47784362  0.25145946  0.31724137  1
  O  O458  1  0.47859298  0.25023119  0.56813558  1
  O  O459  1  0.47814316  0.25162102  0.81670670  1
  O  O460  1  0.47698520  0.58336674  0.06547826  1
  O  O461  1  0.47757488  0.58266415  0.31532245  1
  O  O462  1  0.47793074  0.58209062  0.56656252  1
  O  O463  1  0.47721525  0.58298614  0.81546541  1
  O  O464  1  0.47897132  0.91587487  0.06748334  1
  O  O465  1  0.47820424  0.91398906  0.31622803  1
  O  O466  1  0.47709780  0.91580740  0.56520809  1
  O  O467  1  0.47743873  0.91718841  0.81537801  1
  O  O468  1  0.97707456  0.25019009  0.06580269  1
  O  O469  1  0.97775170  0.24874744  0.31681832  1
  O  O470  1  0.97793928  0.25193488  0.56685748  1
  O  O471  1  0.97803917  0.24963626  0.81835890  1
  O  O472  1  0.97808260  0.58305254  0.06899757  1
  O  O473  1  0.97719727  0.58308798  0.31596480  1
  O  O474  1  0.97802940  0.58490203  0.56687658  1
  O  O475  1  0.97840420  0.58335467  0.81851793  1
  O  O476  1  0.97868993  0.91751417  0.06896113  1
  O  O477  1  0.97885034  0.91641980  0.31865944  1
  O  O478  1  0.97762347  0.91499971  0.56709790  1
  O  O479  1  0.97693042  0.91679235  0.81596660  1
  O  O480  1  0.07176014  0.31420255  0.07407592  1
  O  O481  1  0.07327106  0.31238843  0.32451936  1
  O  O482  1  0.07324079  0.31461495  0.57380071  1
  O  O483  1  0.07325491  0.31347347  0.82558109  1
  O  O484  1  0.07334181  0.64666831  0.07616665  1
  O  O485  1  0.07231313  0.64674862  0.32378163  1
  O  O486  1  0.07319247  0.64819948  0.57401553  1
  O  O487  1  0.07398514  0.64653868  0.82554642  1
  O  O488  1  0.07457785  0.98021107  0.07514212  1
  O  O489  1  0.07420601  0.97984014  0.32643076  1
  O  O490  1  0.07290497  0.97905122  0.57517979  1
  O  O491  1  0.07170897  0.98080457  0.82331933  1
  O  O492  1  0.57286160  0.31298257  0.07478268  1
  O  O493  1  0.57292196  0.31478750  0.32356257  1
  O  O494  1  0.57423072  0.31353358  0.57517581  1
  O  O495  1  0.57283074  0.31548783  0.82472824  1
  O  O496  1  0.57224732  0.64633841  0.07354360  1
  O  O497  1  0.57188215  0.64710579  0.32275742  1
  O  O498  1  0.57346373  0.64518383  0.57492356  1
  O  O499  1  0.57167633  0.64716612  0.82251223  1
  O  O500  1  0.57427054  0.97916540  0.07533741  1
  O  O501  1  0.57298810  0.97857263  0.32473605  1
  O  O502  1  0.57200302  0.97935718  0.57296998  1
  O  O503  1  0.57272680  0.98043065  0.82271366  1
  O  O504  1  0.42629190  0.01959358  0.17375251  1
  O  O505  1  0.42716255  0.01832182  0.42583043  1
  O  O506  1  0.42720090  0.01835028  0.67601902  1
  O  O507  1  0.42744091  0.02100809  0.92505076  1
  O  O508  1  0.42800004  0.35295589  0.17682121  1
  O  O509  1  0.42740245  0.35499934  0.42521046  1
  O  O510  1  0.42829468  0.35309681  0.67687124  1
  O  O511  1  0.42659171  0.35530551  0.92504899  1
  O  O512  1  0.42914975  0.68557268  0.17685259  1
  O  O513  1  0.42713935  0.68701505  0.42498739  1
  O  O514  1  0.42803836  0.68601932  0.67592690  1
  O  O515  1  0.42695694  0.68555116  0.92569699  1
  O  O516  1  0.92727169  0.02157360  0.17485535  1
  O  O517  1  0.92562160  0.01983771  0.42445198  1
  O  O518  1  0.92677510  0.01852401  0.67599239  1
  O  O519  1  0.92665855  0.02066051  0.92581652  1
  O  O520  1  0.92655234  0.35391227  0.17573482  1
  O  O521  1  0.92706214  0.35181453  0.42482156  1
  O  O522  1  0.92563626  0.35360440  0.67458746  1
  O  O523  1  0.92579888  0.35223208  0.92657250  1
  O  O524  1  0.92663518  0.68560133  0.17711127  1
  O  O525  1  0.92763372  0.68588277  0.42716468  1
  O  O526  1  0.92657744  0.68784277  0.67512106  1
  O  O527  1  0.92595040  0.68713022  0.92456927  1
  O  O528  1  0.17614459  0.02056010  0.20090761  1
  O  O529  1  0.17715047  0.02124863  0.44995600  1
  O  O530  1  0.17656981  0.02090371  0.70077175  1
  O  O531  1  0.17835941  0.01913076  0.94836451  1
  O  O532  1  0.17640806  0.35243891  0.20035703  1
  O  O533  1  0.17717849  0.35220888  0.44976216  1
  O  O534  1  0.17762601  0.35308201  0.69883799  1
  O  O535  1  0.17666193  0.35222061  0.94916920  1
  O  O536  1  0.17849662  0.68610118  0.19852973  1
  O  O537  1  0.17650994  0.68601487  0.45026093  1
  O  O538  1  0.17578817  0.68684711  0.70048112  1
  O  O539  1  0.17702987  0.68508007  0.94986976  1
  O  O540  1  0.67699755  0.01984248  0.19824401  1
  O  O541  1  0.67715430  0.01762528  0.44894080  1
  O  O542  1  0.67801347  0.01953013  0.69712842  1
  O  O543  1  0.67580641  0.02039524  0.95009091  1
  O  O544  1  0.67664015  0.35388509  0.19813987  1
  O  O545  1  0.67716837  0.35111209  0.44868530  1
  O  O546  1  0.67651502  0.35472908  0.69975197  1
  O  O547  1  0.67617935  0.35363323  0.95049903  1
  O  O548  1  0.67696836  0.68554723  0.19899968  1
  O  O549  1  0.67718821  0.68451137  0.44940677  1
  O  O550  1  0.67636259  0.68731137  0.69905607  1
  O  O551  1  0.67670828  0.68527627  0.94848037  1
  O  O552  1  0.32399318  0.31319311  0.04948928  1
  O  O553  1  0.32239492  0.31403047  0.30235519  1
  O  O554  1  0.32392765  0.31478457  0.55118565  1
  O  O555  1  0.32269961  0.31470602  0.80212913  1
  O  O556  1  0.32371964  0.64745189  0.05141114  1
  O  O557  1  0.32383958  0.64698593  0.29997831  1
  O  O558  1  0.32371936  0.64527530  0.55086927  1
  O  O559  1  0.32318786  0.64783343  0.80060920  1
  O  O560  1  0.32352466  0.97900699  0.05029082  1
  O  O561  1  0.32463386  0.97978366  0.29888374  1
  O  O562  1  0.32393913  0.98079895  0.55011239  1
  O  O563  1  0.32315635  0.98172045  0.80164644  1
  O  O564  1  0.82203951  0.31391626  0.05174285  1
  O  O565  1  0.82208094  0.31486154  0.30014718  1
  O  O566  1  0.82346070  0.31170026  0.54954752  1
  O  O567  1  0.82356539  0.31355451  0.79937087  1
  O  O568  1  0.82240511  0.64750966  0.05189075  1
  O  O569  1  0.82270825  0.64766873  0.30106128  1
  O  O570  1  0.82330574  0.64483151  0.55000830  1
  O  O571  1  0.82274193  0.64867782  0.80058174  1
  O  O572  1  0.82327148  0.98141996  0.05094094  1
  O  O573  1  0.82287104  0.98171867  0.30086284  1
  O  O574  1  0.82128808  0.97943889  0.55172718  1
  O  O575  1  0.82261875  0.98048914  0.79859223  1
  O  O576  1  0.42574868  0.14644325  0.17500026  1
  O  O577  1  0.42731647  0.14567771  0.42573643  1
  O  O578  1  0.42694403  0.14540750  0.67451243  1
  O  O579  1  0.42756956  0.14828768  0.92514746  1
  O  O580  1  0.42722480  0.48036254  0.17647215  1
  O  O581  1  0.42750189  0.48194464  0.42559108  1
  O  O582  1  0.42740862  0.48045915  0.67691187  1
  O  O583  1  0.42706959  0.48215782  0.92574600  1
  O  O584  1  0.42852930  0.81287891  0.17553888  1
  O  O585  1  0.42699219  0.81387057  0.42581777  1
  O  O586  1  0.42818624  0.81339547  0.67683018  1
  O  O587  1  0.42775323  0.81248100  0.92486989  1
  O  O588  1  0.92702872  0.14877705  0.17587964  1
  O  O589  1  0.92524344  0.14669033  0.42510444  1
  O  O590  1  0.92688477  0.14586570  0.67531052  1
  O  O591  1  0.92657392  0.14771995  0.92564287  1
  O  O592  1  0.92663745  0.48100435  0.17589967  1
  O  O593  1  0.92623444  0.47903841  0.42477843  1
  O  O594  1  0.92628326  0.48051621  0.67410425  1
  O  O595  1  0.92616515  0.47943955  0.92623743  1
  O  O596  1  0.92691260  0.81279594  0.17638183  1
  O  O597  1  0.92752681  0.81334464  0.42639522  1
  O  O598  1  0.92686390  0.81482366  0.67553158  1
  O  O599  1  0.92575525  0.81407283  0.92544004  1
  O  O600  1  0.07241760  0.18674555  0.07280160  1
  O  O601  1  0.07266578  0.18542347  0.32448141  1
  O  O602  1  0.07292574  0.18720734  0.57473003  1
  O  O603  1  0.07373577  0.18680608  0.82575299  1
  O  O604  1  0.07381026  0.51999084  0.07635118  1
  O  O605  1  0.07201120  0.51925020  0.32459540  1
  O  O606  1  0.07333899  0.52105110  0.57435036  1
  O  O607  1  0.07371838  0.51951014  0.82509149  1
  O  O608  1  0.07372260  0.85321046  0.07507200  1
  O  O609  1  0.07450083  0.85292613  0.32541517  1
  O  O610  1  0.07285550  0.85209422  0.57495507  1
  O  O611  1  0.07208754  0.85326060  0.82352311  1
  O  O612  1  0.57247227  0.18586212  0.07449433  1
  O  O613  1  0.57331089  0.18750221  0.32452257  1
  O  O614  1  0.57375768  0.18666540  0.57574293  1
  O  O615  1  0.57389940  0.18835998  0.82445358  1
  O  O616  1  0.57150552  0.51913486  0.07322504  1
  O  O617  1  0.57317453  0.51985611  0.32272107  1
  O  O618  1  0.57263853  0.51827303  0.57372797  1
  O  O619  1  0.57278033  0.52011643  0.82383387  1
  O  O620  1  0.57442796  0.85233608  0.07428044  1
  O  O621  1  0.57371049  0.85157490  0.32437259  1
  O  O622  1  0.57201567  0.85209988  0.57366284  1
  O  O623  1  0.57200281  0.85287664  0.82228988  1
  O  O624  1  0.32381323  0.18649574  0.04916238  1
  O  O625  1  0.32310924  0.18657880  0.30238749  1
  O  O626  1  0.32323268  0.18796276  0.55107397  1
  O  O627  1  0.32269151  0.18723339  0.80136772  1
  O  O628  1  0.32306300  0.52027681  0.05006240  1
  O  O629  1  0.32417523  0.52012320  0.29923994  1
  O  O630  1  0.32362091  0.51807718  0.55175129  1
  O  O631  1  0.32327656  0.52067741  0.80115575  1
  O  O632  1  0.32359644  0.85181225  0.05001600  1
  O  O633  1  0.32424443  0.85285195  0.29981855  1
  O  O634  1  0.32419704  0.85364249  0.55044282  1
  O  O635  1  0.32374210  0.85450815  0.80075963  1
  O  O636  1  0.82099973  0.18645672  0.05241069  1
  O  O637  1  0.82245792  0.18787397  0.29914477  1
  O  O638  1  0.82291267  0.18458051  0.54967722  1
  O  O639  1  0.82360487  0.18660484  0.80021740  1
  O  O640  1  0.82115749  0.52013447  0.05170246  1
  O  O641  1  0.82270315  0.52077539  0.29946537  1
  O  O642  1  0.82256875  0.51768002  0.55042104  1
  O  O643  1  0.82324808  0.52155633  0.80110383  1
  O  O644  1  0.82340385  0.85419439  0.05059638  1
  O  O645  1  0.82350678  0.85460172  0.29982272  1
  O  O646  1  0.82174970  0.85202403  0.55063783  1
  O  O647  1  0.82330158  0.85378435  0.79936116  1
  O  O648  1  0.17653390  0.14739590  0.19955702  1
  O  O649  1  0.17667853  0.14858409  0.44936201  1
  O  O650  1  0.17623697  0.14763396  0.70152797  1
  O  O651  1  0.17802082  0.14673060  0.94839206  1
  O  O652  1  0.17610347  0.47930966  0.20097557  1
  O  O653  1  0.17708884  0.47905376  0.45010523  1
  O  O654  1  0.17804140  0.48048454  0.69909583  1
  O  O655  1  0.17644864  0.47940048  0.94994693  1
  O  O656  1  0.17816500  0.81364559  0.19831638  1
  O  O657  1  0.17630570  0.81306510  0.45023331  1
  O  O658  1  0.17679128  0.81381192  0.70128429  1
  O  O659  1  0.17681357  0.81202439  0.95035257  1
  O  O660  1  0.67810261  0.14732983  0.19870419  1
  O  O661  1  0.67613370  0.14463071  0.44929890  1
  O  O662  1  0.67712870  0.14704164  0.69725670  1
  O  O663  1  0.67614768  0.14713939  0.95036450  1
  O  O664  1  0.67836554  0.48127284  0.19832222  1
  O  O665  1  0.67638595  0.47823168  0.44890938  1
  O  O666  1  0.67737622  0.48201433  0.69864350  1
  O  O667  1  0.67585282  0.48040897  0.95107037  1
  O  O668  1  0.67730671  0.81260611  0.20023113  1
  O  O669  1  0.67663301  0.81166559  0.44899508  1
  O  O670  1  0.67635975  0.81428036  0.69846356  1
  O  O671  1  0.67645060  0.81242948  0.94969448  1
