# generated using pymatgen
data_Na2MnFe(PO4)2
_symmetry_space_group_name_H-M   'P 1'
_cell_length_a   22.34237160
_cell_length_b   20.09412165
_cell_length_c   19.45123408
_cell_angle_alpha   89.99720084
_cell_angle_beta   90.03300968
_cell_angle_gamma   90.06083727
_symmetry_Int_Tables_number   1
_chemical_formula_structural   Na2MnFe(PO4)2
_chemical_formula_sum   'Na96 Mn48 Fe48 P96 O384'
_cell_volume   8732.63163283
_cell_formula_units_Z   48
loop_
 _symmetry_equiv_pos_site_id
 _symmetry_equiv_pos_as_xyz
  1  'x, y, z'
loop_
 _atom_site_type_symbol
 _atom_site_label
 _atom_site_symmetry_multiplicity
 _atom_site_fract_x
 _atom_site_fract_y
 _atom_site_fract_z
 _atom_site_occupancy
  Na  Na0  1  0.13975045  0.25035746  0.24233968  1
  Na  Na1  1  0.13948565  0.25089771  0.49215327  1
  Na  Na2  1  0.13969588  0.25018817  0.74260384  1
  Na  Na3  1  0.13966067  0.25025754  0.99333054  1
  Na  Na4  1  0.14022497  0.58240190  0.24330499  1
  Na  Na5  1  0.13978597  0.58335903  0.49357736  1
  Na  Na6  1  0.13993366  0.58357633  0.74445951  1
  Na  Na7  1  0.14041260  0.58265168  0.99275104  1
  Na  Na8  1  0.13955645  0.91734907  0.24328054  1
  Na  Na9  1  0.13933052  0.91785841  0.49319588  1
  Na  Na10  1  0.14040984  0.91623040  0.74336180  1
  Na  Na11  1  0.14033463  0.91527671  0.99381823  1
  Na  Na12  1  0.64047446  0.24990133  0.24292454  1
  Na  Na13  1  0.64031843  0.24936277  0.49315260  1
  Na  Na14  1  0.64029327  0.24876771  0.74495507  1
  Na  Na15  1  0.64052165  0.24908798  0.99307972  1
  Na  Na16  1  0.64053229  0.58341109  0.24359964  1
  Na  Na17  1  0.64079455  0.58344445  0.49482784  1
  Na  Na18  1  0.64096341  0.58431897  0.74565167  1
  Na  Na19  1  0.64072319  0.58376776  0.99484000  1
  Na  Na20  1  0.64059119  0.91720976  0.24361638  1
  Na  Na21  1  0.64000598  0.91677978  0.49403732  1
  Na  Na22  1  0.64067400  0.91668601  0.74412073  1
  Na  Na23  1  0.64114780  0.91686106  0.99326314  1
  Na  Na24  1  0.35991649  0.08413711  0.00635870  1
  Na  Na25  1  0.36005898  0.08456666  0.25460153  1
  Na  Na26  1  0.35890487  0.08324376  0.50545140  1
  Na  Na27  1  0.35893780  0.08235392  0.75635068  1
  Na  Na28  1  0.35882967  0.41545918  0.00663731  1
  Na  Na29  1  0.35954107  0.41584899  0.25546744  1
  Na  Na30  1  0.35971150  0.41660675  0.50493378  1
  Na  Na31  1  0.35923616  0.41697399  0.75697128  1
  Na  Na32  1  0.35975319  0.74849999  0.00575935  1
  Na  Na33  1  0.35979182  0.74964985  0.25649594  1
  Na  Na34  1  0.35940086  0.75107633  0.50666507  1
  Na  Na35  1  0.35905848  0.74981368  0.75678612  1
  Na  Na36  1  0.86039143  0.08361310  0.00597242  1
  Na  Na37  1  0.86031028  0.08364900  0.25716991  1
  Na  Na38  1  0.86014157  0.08312515  0.50603732  1
  Na  Na39  1  0.85994951  0.08331897  0.75555455  1
  Na  Na40  1  0.85953739  0.41704922  0.00655609  1
  Na  Na41  1  0.85978852  0.41611665  0.25672682  1
  Na  Na42  1  0.86063086  0.41640416  0.50703843  1
  Na  Na43  1  0.86024572  0.41681366  0.75778990  1
  Na  Na44  1  0.86086376  0.74888503  0.00794861  1
  Na  Na45  1  0.86059207  0.75037450  0.25671149  1
  Na  Na46  1  0.85980559  0.75182120  0.50634247  1
  Na  Na47  1  0.85957842  0.75085739  0.75748956  1
  Na  Na48  1  0.10955467  0.08284646  0.11894488  1
  Na  Na49  1  0.10919903  0.08424602  0.36785389  1
  Na  Na50  1  0.10927033  0.08406884  0.61681337  1
  Na  Na51  1  0.10934849  0.08450432  0.86854794  1
  Na  Na52  1  0.10977594  0.41578902  0.11759830  1
  Na  Na53  1  0.10918266  0.41733386  0.36760198  1
  Na  Na54  1  0.10891638  0.41619281  0.61897743  1
  Na  Na55  1  0.10938459  0.41588041  0.86756794  1
  Na  Na56  1  0.10931000  0.74966630  0.11912656  1
  Na  Na57  1  0.10875186  0.75141494  0.36899704  1
  Na  Na58  1  0.10920825  0.75073523  0.61830788  1
  Na  Na59  1  0.11013404  0.74943146  0.86844693  1
  Na  Na60  1  0.61027743  0.08522744  0.11773762  1
  Na  Na61  1  0.60999725  0.08244133  0.36794755  1
  Na  Na62  1  0.60956584  0.08233652  0.61828230  1
  Na  Na63  1  0.61005210  0.08229427  0.86888719  1
  Na  Na64  1  0.60971777  0.41779925  0.11827694  1
  Na  Na65  1  0.60958037  0.41541719  0.36875509  1
  Na  Na66  1  0.60988141  0.41641247  0.62011863  1
  Na  Na67  1  0.60972826  0.41639192  0.87029266  1
  Na  Na68  1  0.60975971  0.75084547  0.11902909  1
  Na  Na69  1  0.60934280  0.74958706  0.36939929  1
  Na  Na70  1  0.60993948  0.75088123  0.61990386  1
  Na  Na71  1  0.61033168  0.74915768  0.86955608  1
  Na  Na72  1  0.38987434  0.25075197  0.13085916  1
  Na  Na73  1  0.39008919  0.24901244  0.37967658  1
  Na  Na74  1  0.39014872  0.25025381  0.63010281  1
  Na  Na75  1  0.38999266  0.24896218  0.88264287  1
  Na  Na76  1  0.39009217  0.58371144  0.13099425  1
  Na  Na77  1  0.39029836  0.58192288  0.38082635  1
  Na  Na78  1  0.39041928  0.58371965  0.63118168  1
  Na  Na79  1  0.38970261  0.58237204  0.88242825  1
  Na  Na80  1  0.39126143  0.91806271  0.12997180  1
  Na  Na81  1  0.39046121  0.91643133  0.38076991  1
  Na  Na82  1  0.38917006  0.91606041  0.63131296  1
  Na  Na83  1  0.39024242  0.91527012  0.88115936  1
  Na  Na84  1  0.89057437  0.24818374  0.13206258  1
  Na  Na85  1  0.89101409  0.24984390  0.38140289  1
  Na  Na86  1  0.89099061  0.25046852  0.63085342  1
  Na  Na87  1  0.89055391  0.24943639  0.88076377  1
  Na  Na88  1  0.89026857  0.58396921  0.13219170  1
  Na  Na89  1  0.89107772  0.58403430  0.38083938  1
  Na  Na90  1  0.89087071  0.58231041  0.63236207  1
  Na  Na91  1  0.89013343  0.58356147  0.88317052  1
  Na  Na92  1  0.89156780  0.91670421  0.13215404  1
  Na  Na93  1  0.89073754  0.91833032  0.38177774  1
  Na  Na94  1  0.88958926  0.91813217  0.63108276  1
  Na  Na95  1  0.89073905  0.91702399  0.88188092  1
  Mn  Mn96  1  -0.00046362  0.33207199  -0.00103625  1
  Mn  Mn97  1  -0.00058453  0.49985047  0.00034781  1
  Mn  Mn98  1  -0.00049668  0.66708821  0.50019125  1
  Mn  Mn99  1  0.75008921  0.16524417  0.62440559  1
  Mn  Mn100  1  0.49981158  0.16605033  0.75017697  1
  Mn  Mn101  1  0.49958242  0.16653490  0.49945990  1
  Mn  Mn102  1  0.50064220  0.49887429  0.50054257  1
  Mn  Mn103  1  0.25014141  0.16649606  0.62475427  1
  Mn  Mn104  1  0.00011026  0.50018046  0.24991469  1
  Mn  Mn105  1  0.25028622  0.66741972  0.62489229  1
  Mn  Mn106  1  0.24897987  0.16722110  0.87474045  1
  Mn  Mn107  1  0.74962104  0.33279283  0.37498962  1
  Mn  Mn108  1  0.24973786  0.50061426  0.62562648  1
  Mn  Mn109  1  0.00046837  0.00011191  0.00061510  1
  Mn  Mn110  1  0.75083810  0.83345428  0.87554009  1
  Mn  Mn111  1  0.25058813  0.00050062  0.12402046  1
  Mn  Mn112  1  0.00082384  0.00120482  0.75019751  1
  Mn  Mn113  1  0.24941410  0.66582568  0.37539134  1
  Mn  Mn114  1  0.24960400  0.33341588  0.37406754  1
  Mn  Mn115  1  0.24943556  0.33382614  0.62426673  1
  Mn  Mn116  1  0.74998190  0.33271696  0.62605715  1
  Mn  Mn117  1  0.75046517  0.33302839  0.12482954  1
  Mn  Mn118  1  0.24982526  0.83390520  0.37514427  1
  Mn  Mn119  1  -0.00093001  0.66602407  0.74955401  1
  Mn  Mn120  1  0.75145868  0.83305511  0.12473073  1
  Mn  Mn121  1  0.25038885  0.83260858  0.12451228  1
  Mn  Mn122  1  0.24943799  0.66502731  0.12507378  1
  Mn  Mn123  1  0.50034643  0.83346297  0.00036373  1
  Mn  Mn124  1  0.75030392  0.33298816  0.87601898  1
  Mn  Mn125  1  0.75073211  0.00102480  0.12452576  1
  Mn  Mn126  1  0.75044882  0.66689938  0.37556610  1
  Mn  Mn127  1  0.75063569  0.49990810  0.37534553  1
  Mn  Mn128  1  0.49971250  0.50039831  0.00021467  1
  Mn  Mn129  1  0.24932895  -0.00092538  0.87532116  1
  Mn  Mn130  1  0.49997458  0.66716273  0.50046647  1
  Mn  Mn131  1  0.49914423  -0.00140973  0.49909577  1
  Mn  Mn132  1  0.74937610  0.83433244  0.37528687  1
  Mn  Mn133  1  -0.00027313  0.83370536  0.75022601  1
  Mn  Mn134  1  0.50024305  0.66715624  0.75038146  1
  Mn  Mn135  1  0.50044533  0.33303273  0.24924479  1
  Mn  Mn136  1  0.75038792  0.50027705  0.62613042  1
  Mn  Mn137  1  0.49931327  -0.00133144  0.74964540  1
  Mn  Mn138  1  0.49985749  0.33267232  0.75034333  1
  Mn  Mn139  1  0.25021691  0.00116386  0.37411259  1
  Mn  Mn140  1  0.75119645  0.66777181  0.62553528  1
  Mn  Mn141  1  0.50037248  0.00035883  0.24955313  1
  Mn  Mn142  1  0.49981520  0.66701409  0.25076511  1
  Mn  Mn143  1  0.49959223  0.49966677  0.75052037  1
  Fe  Fe144  1  0.50019392  0.16670221  -0.00012513  1
  Fe  Fe145  1  0.24928186  0.16729629  0.12456494  1
  Fe  Fe146  1  0.24996958  0.49892843  0.12388185  1
  Fe  Fe147  1  0.00039858  0.66745469  0.25055632  1
  Fe  Fe148  1  0.00005135  0.83368924  0.25023142  1
  Fe  Fe149  1  0.00069013  0.83279885  0.00115578  1
  Fe  Fe150  1  0.25022107  0.83261367  0.87414492  1
  Fe  Fe151  1  0.49949990  0.83301629  0.49996178  1
  Fe  Fe152  1  -0.00022183  0.49954671  0.75019330  1
  Fe  Fe153  1  0.00016189  0.16652244  0.00028840  1
  Fe  Fe154  1  0.24947703  0.16707753  0.37417317  1
  Fe  Fe155  1  0.75031920  0.16638741  0.12480912  1
  Fe  Fe156  1  -0.00004477  0.49981142  0.50013530  1
  Fe  Fe157  1  0.24990094  0.66613934  0.87511671  1
  Fe  Fe158  1  -0.00093900  0.83440481  0.49921357  1
  Fe  Fe159  1  0.49998639  0.49987640  0.25014844  1
  Fe  Fe160  1  0.50005002  0.83361913  0.24936588  1
  Fe  Fe161  1  0.49993189  0.33348927  0.00065582  1
  Fe  Fe162  1  -0.00011777  0.00071909  0.49944045  1
  Fe  Fe163  1  0.24949741  0.49933729  0.87507058  1
  Fe  Fe164  1  0.75099698  0.00005436  0.87461727  1
  Fe  Fe165  1  0.74936336  0.00018964  0.62493938  1
  Fe  Fe166  1  0.24901646  0.00004416  0.62506043  1
  Fe  Fe167  1  0.74990946  0.83431221  0.62592236  1
  Fe  Fe168  1  0.00026485  0.16744733  0.49917604  1
  Fe  Fe169  1  0.75029913  0.16583917  0.87449045  1
  Fe  Fe170  1  0.75014686  0.66640926  0.12543486  1
  Fe  Fe171  1  0.50044585  0.16691344  0.24906529  1
  Fe  Fe172  1  0.75060189  0.66685013  0.87622026  1
  Fe  Fe173  1  0.24980163  0.49946518  0.37412747  1
  Fe  Fe174  1  -0.00004522  0.16734886  0.74868706  1
  Fe  Fe175  1  0.75033387  0.16638511  0.37488076  1
  Fe  Fe176  1  0.75027715  0.00032979  0.37497011  1
  Fe  Fe177  1  -0.00003450  0.33365316  0.49995125  1
  Fe  Fe178  1  0.49991065  0.83283051  0.75074851  1
  Fe  Fe179  1  0.50004203  0.66711863  0.00067041  1
  Fe  Fe180  1  0.00063604  0.66656371  0.00058254  1
  Fe  Fe181  1  0.24920336  0.33342903  0.12435719  1
  Fe  Fe182  1  0.24882386  0.83375215  0.62535053  1
  Fe  Fe183  1  0.00021304  0.16648311  0.25068148  1
  Fe  Fe184  1  0.00018549  0.00011091  0.25049176  1
  Fe  Fe185  1  -0.00021016  0.33321104  0.25020128  1
  Fe  Fe186  1  0.49996958  0.33258644  0.49940967  1
  Fe  Fe187  1  -0.00026802  0.33297827  0.74892728  1
  Fe  Fe188  1  0.75008589  0.50053676  0.87636410  1
  Fe  Fe189  1  0.75018236  0.50027420  0.12543525  1
  Fe  Fe190  1  0.50106313  0.00021316  -0.00000066  1
  Fe  Fe191  1  0.24997575  0.33317513  0.87516030  1
  P  P192  1  0.04175275  0.24856271  0.10301349  1
  P  P193  1  0.04133950  0.25045753  0.35198064  1
  P  P194  1  0.04127846  0.25026768  0.60133584  1
  P  P195  1  0.04125687  0.24971284  0.85079000  1
  P  P196  1  0.04218107  0.58453064  0.10293625  1
  P  P197  1  0.04217126  0.58482694  0.35270774  1
  P  P198  1  0.04194976  0.58167955  0.60267675  1
  P  P199  1  0.04148022  0.58232995  0.85277426  1
  P  P200  1  0.04243299  0.91518613  0.10357810  1
  P  P201  1  0.04105684  0.91709033  0.35225988  1
  P  P202  1  0.04056924  0.91725750  0.60102912  1
  P  P203  1  0.04299098  0.91679611  0.85372395  1
  P  P204  1  0.54167494  0.25026106  0.10157924  1
  P  P205  1  0.54252585  0.24858984  0.35205207  1
  P  P206  1  0.54253023  0.25078065  0.60211446  1
  P  P207  1  0.54241087  0.24923841  0.85448147  1
  P  P208  1  0.54195876  0.58499484  0.10325758  1
  P  P209  1  0.54254026  0.58176609  0.35268789  1
  P  P210  1  0.54310670  0.58358144  0.60357255  1
  P  P211  1  0.54229126  0.58348152  0.85419848  1
  P  P212  1  0.54328990  0.91839401  0.10249987  1
  P  P213  1  0.54220104  0.91485455  0.35225272  1
  P  P214  1  0.54155826  0.91477031  0.60264669  1
  P  P215  1  0.54247383  0.91527413  0.85298361  1
  P  P216  1  0.45862311  0.08520941  0.14607908  1
  P  P217  1  0.45707205  0.08302780  0.39577927  1
  P  P218  1  0.45657606  0.08289665  0.64667163  1
  P  P219  1  0.45845935  0.08252582  0.89853398  1
  P  P220  1  0.45800524  0.41792822  0.14721129  1
  P  P221  1  0.45800095  0.41495177  0.39685619  1
  P  P222  1  0.45682606  0.41599782  0.64665268  1
  P  P223  1  0.45731469  0.41499596  0.89828883  1
  P  P224  1  0.45778263  0.75124293  0.14728334  1
  P  P225  1  0.45735455  0.75117464  0.39725189  1
  P  P226  1  0.45734829  0.75160425  0.64765272  1
  P  P227  1  0.45798294  0.74894250  0.89768651  1
  P  P228  1  0.95921761  0.08319429  0.14886132  1
  P  P229  1  0.95912006  0.08406555  0.39768500  1
  P  P230  1  0.95830752  0.08502664  0.64637273  1
  P  P231  1  0.95843597  0.08496768  0.89738667  1
  P  P232  1  0.95773767  0.41509477  0.14779676  1
  P  P233  1  0.95888795  0.41670464  0.39812663  1
  P  P234  1  0.95831272  0.41671466  0.64781386  1
  P  P235  1  0.95710691  0.41633571  0.89608244  1
  P  P236  1  0.95908164  0.75011744  0.14826326  1
  P  P237  1  0.95763373  0.75190907  0.39690721  1
  P  P238  1  0.95677454  0.75064921  0.64656894  1
  P  P239  1  0.95908324  0.75000767  0.89924551  1
  P  P240  1  0.20791472  0.08506762  0.22705252  1
  P  P241  1  0.20729801  0.08476284  0.47700457  1
  P  P242  1  0.20695629  0.08217666  0.72716453  1
  P  P243  1  0.20702431  0.08379944  0.97833363  1
  P  P244  1  0.20830137  0.41678577  0.22607460  1
  P  P245  1  0.20710012  0.41801911  0.47664475  1
  P  P246  1  0.20713480  0.41672811  0.72899206  1
  P  P247  1  0.20786597  0.41604380  0.97676491  1
  P  P248  1  0.20713966  0.74936383  0.22801114  1
  P  P249  1  0.20678246  0.75065223  0.47856606  1
  P  P250  1  0.20746243  0.75119671  0.72802707  1
  P  P251  1  0.20885385  0.74944448  0.97617388  1
  P  P252  1  0.70831075  0.08473960  0.22788005  1
  P  P253  1  0.70839567  0.08268382  0.47647378  1
  P  P254  1  0.70759533  0.08174308  0.72802311  1
  P  P255  1  0.70921136  0.08323620  0.97639940  1
  P  P256  1  0.70798217  0.41742490  0.22724116  1
  P  P257  1  0.70731777  0.41640714  0.47865964  1
  P  P258  1  0.70769561  0.41694732  0.72986055  1
  P  P259  1  0.70827455  0.41811101  0.97868501  1
  P  P260  1  0.70826091  0.74931050  0.22740685  1
  P  P261  1  0.70737505  0.75093682  0.47905582  1
  P  P262  1  0.70846509  0.75150362  0.72850270  1
  P  P263  1  0.70863272  0.74857023  0.97851712  1
  P  P264  1  0.29063274  0.25043765  0.02287331  1
  P  P265  1  0.29138184  0.24890372  0.27102299  1
  P  P266  1  0.29212845  0.25006441  0.52079845  1
  P  P267  1  0.29210995  0.25111940  0.77257958  1
  P  P268  1  0.29176244  0.58111492  0.02145513  1
  P  P269  1  0.29200849  0.58131583  0.27188155  1
  P  P270  1  0.29273641  0.58311992  0.52159584  1
  P  P271  1  0.29125631  0.58323994  0.77392853  1
  P  P272  1  0.29308680  0.91575439  0.02085680  1
  P  P273  1  0.29301186  0.91720339  0.27136635  1
  P  P274  1  0.29053140  0.91728361  0.52350526  1
  P  P275  1  0.29159542  0.91538036  0.77169840  1
  P  P276  1  0.79244027  0.24819928  0.02219539  1
  P  P277  1  0.79233332  0.24847960  0.27234092  1
  P  P278  1  0.79264888  0.24927347  0.52158007  1
  P  P279  1  0.79227187  0.24841134  0.77288323  1
  P  P280  1  0.79171563  0.58334925  0.02352108  1
  P  P281  1  0.79292004  0.58349244  0.27131276  1
  P  P282  1  0.79380500  0.58365112  0.52268456  1
  P  P283  1  0.79204480  0.58390132  0.77467931  1
  P  P284  1  0.79382159  0.91723826  0.02147870  1
  P  P285  1  0.79261220  0.91835237  0.27273865  1
  P  P286  1  0.79098274  0.91757976  0.52333894  1
  P  P287  1  0.79263054  0.91800816  0.77200327  1
  O  O288  1  0.03644133  0.24920540  0.18282371  1
  O  O289  1  0.03641867  0.25022041  0.43183234  1
  O  O290  1  0.03622583  0.25040550  0.68117713  1
  O  O291  1  0.03664180  0.24949876  0.93073736  1
  O  O292  1  0.03718021  0.58476705  0.18287943  1
  O  O293  1  0.03661944  0.58406338  0.43255439  1
  O  O294  1  0.03637771  0.58135711  0.68260870  1
  O  O295  1  0.03641305  0.58306929  0.93273471  1
  O  O296  1  0.03692869  0.91540486  0.18341857  1
  O  O297  1  0.03579765  0.91732054  0.43213504  1
  O  O298  1  0.03600385  0.91762181  0.68101276  1
  O  O299  1  0.03794575  0.91627722  0.93366484  1
  O  O300  1  0.53695219  0.24975557  0.18158639  1
  O  O301  1  0.53720614  0.24946216  0.43193674  1
  O  O302  1  0.53753138  0.25031731  0.68210603  1
  O  O303  1  0.53699027  0.24927336  0.93441139  1
  O  O304  1  0.53665940  0.58425168  0.18317209  1
  O  O305  1  0.53755739  0.58196295  0.43263941  1
  O  O306  1  0.53787579  0.58362790  0.68353943  1
  O  O307  1  0.53692776  0.58414147  0.93413522  1
  O  O308  1  0.53801100  0.91786986  0.18236682  1
  O  O309  1  0.53667278  0.91460088  0.43217681  1
  O  O310  1  0.53646966  0.91478528  0.68259981  1
  O  O311  1  0.53757238  0.91632911  0.93291304  1
  O  O312  1  0.46425065  0.08508597  0.06620783  1
  O  O313  1  0.46257425  0.08338729  0.31586298  1
  O  O314  1  0.46140928  0.08283776  0.56668929  1
  O  O315  1  0.46316919  0.08233890  0.81850373  1
  O  O316  1  0.46315403  0.41741719  0.06732499  1
  O  O317  1  0.46341709  0.41587477  0.31691331  1
  O  O318  1  0.46214652  0.41550190  0.56669073  1
  O  O319  1  0.46211061  0.41516929  0.81834110  1
  O  O320  1  0.46324250  0.75042957  0.06737396  1
  O  O321  1  0.46263710  0.75125287  0.31730568  1
  O  O322  1  0.46231883  0.75153289  0.56766834  1
  O  O323  1  0.46317074  0.74974944  0.81776621  1
  O  O324  1  0.96380790  0.08334590  0.06891807  1
  O  O325  1  0.96409791  0.08342405  0.31784627  1
  O  O326  1  0.96359963  0.08478749  0.56652919  1
  O  O327  1  0.96377623  0.08517574  0.81749827  1
  O  O328  1  0.96274792  0.41526987  0.06785179  1
  O  O329  1  0.96394972  0.41609583  0.31818705  1
  O  O330  1  0.96330296  0.41698630  0.56791053  1
  O  O331  1  0.96216729  0.41678283  0.81620819  1
  O  O332  1  0.96462996  0.74979168  0.06837142  1
  O  O333  1  0.96348675  0.75167784  0.31708527  1
  O  O334  1  0.96179227  0.75105131  0.56664687  1
  O  O335  1  0.96330262  0.74979198  0.81920626  1
  O  O336  1  0.21252522  0.08443592  0.05823489  1
  O  O337  1  0.21314292  0.08543869  0.30702204  1
  O  O338  1  0.21222014  0.08401439  0.55695333  1
  O  O339  1  0.21182641  0.08232631  0.80713875  1
  O  O340  1  0.21312258  0.41606760  0.05668986  1
  O  O341  1  0.21311441  0.41690738  0.30601185  1
  O  O342  1  0.21190139  0.41766924  0.55661228  1
  O  O343  1  0.21244323  0.41626031  0.80890204  1
  O  O344  1  0.21356733  0.74883392  0.05613192  1
  O  O345  1  0.21208305  0.74941163  0.30795640  1
  O  O346  1  0.21206059  0.75117196  0.55854328  1
  O  O347  1  0.21281503  0.75116801  0.80789713  1
  O  O348  1  0.71424313  0.08399599  0.05636030  1
  O  O349  1  0.71350346  0.08454138  0.30775140  1
  O  O350  1  0.71304438  0.08223879  0.55646257  1
  O  O351  1  0.71312292  0.08195911  0.80785435  1
  O  O352  1  0.71385138  0.41828726  0.05861142  1
  O  O353  1  0.71275516  0.41694214  0.30724162  1
  O  O354  1  0.71229292  0.41628330  0.55868057  1
  O  O355  1  0.71319441  0.41735266  0.80982662  1
  O  O356  1  0.71389803  0.74840322  0.05843233  1
  O  O357  1  0.71295348  0.74983120  0.30742234  1
  O  O358  1  0.71286183  0.75165170  0.55898449  1
  O  O359  1  0.71376771  0.75086669  0.80844579  1
  O  O360  1  0.28603114  0.24900144  0.19114473  1
  O  O361  1  0.28667878  0.24956561  0.44085164  1
  O  O362  1  0.28731999  0.25076657  0.69258381  1
  O  O363  1  0.28597198  0.25116546  0.94290622  1
  O  O364  1  0.28664898  0.58112947  0.19190810  1
  O  O365  1  0.28769082  0.58267265  0.44164086  1
  O  O366  1  0.28686890  0.58396151  0.69392226  1
  O  O367  1  0.28642534  0.58120369  0.94161008  1
  O  O368  1  0.28825709  0.91715914  0.19139336  1
  O  O369  1  0.28585151  0.91753875  0.44348614  1
  O  O370  1  0.28578164  0.91592636  0.69183478  1
  O  O371  1  0.28764521  0.91507754  0.94093221  1
  O  O372  1  0.78729939  0.24854873  0.19234622  1
  O  O373  1  0.78747914  0.24902830  0.44161080  1
  O  O374  1  0.78705645  0.24860629  0.69294543  1
  O  O375  1  0.78707775  0.24805358  0.94227960  1
  O  O376  1  0.78748454  0.58338817  0.19137449  1
  O  O377  1  0.78881620  0.58349008  0.44271101  1
  O  O378  1  0.78738617  0.58397223  0.69468717  1
  O  O379  1  0.78650294  0.58335605  0.94359687  1
  O  O380  1  0.78793819  0.91815137  0.19276265  1
  O  O381  1  0.78597420  0.91786689  0.44337397  1
  O  O382  1  0.78673564  0.91750627  0.69215827  1
  O  O383  1  0.78876601  0.91761607  0.94152356  1
  O  O384  1  0.22644321  0.24993573  0.05859209  1
  O  O385  1  0.22725828  0.24901548  0.30714551  1
  O  O386  1  0.22784046  0.24984745  0.55626261  1
  O  O387  1  0.22755936  0.25167931  0.80753049  1
  O  O388  1  0.22758279  0.58074336  0.05749771  1
  O  O389  1  0.22772154  0.58134487  0.30761107  1
  O  O390  1  0.22832081  0.58376149  0.55669736  1
  O  O391  1  0.22696732  0.58257870  0.80932905  1
  O  O392  1  0.22878565  0.91624512  0.05624612  1
  O  O393  1  0.22847869  0.91736866  0.30610907  1
  O  O394  1  0.22628539  0.91740948  0.55919552  1
  O  O395  1  0.22751644  0.91480673  0.80795271  1
  O  O396  1  0.72820472  0.24838768  0.05801396  1
  O  O397  1  0.72799237  0.24823930  0.30779983  1
  O  O398  1  0.72831820  0.24931818  0.55686705  1
  O  O399  1  0.72806532  0.24842407  0.80858158  1
  O  O400  1  0.72766601  0.58341593  0.05982626  1
  O  O401  1  0.72868137  0.58345696  0.30698443  1
  O  O402  1  0.72932557  0.58393104  0.55755999  1
  O  O403  1  0.72780500  0.58432452  0.81037806  1
  O  O404  1  0.72946244  0.91684722  0.05663585  1
  O  O405  1  0.72813917  0.91892020  0.30782801  1
  O  O406  1  0.72691125  0.91752957  0.55957925  1
  O  O407  1  0.72864183  0.91812349  0.80851352  1
  O  O408  1  0.27211022  0.08535782  0.19122972  1
  O  O409  1  0.27166706  0.08537542  0.44157282  1
  O  O410  1  0.27139235  0.08172559  0.69196431  1
  O  O411  1  0.27123619  0.08365363  0.94279715  1
  O  O412  1  0.27244661  0.41690504  0.19017940  1
  O  O413  1  0.27153234  0.41794032  0.44141550  1
  O  O414  1  0.27140378  0.41663794  0.69340202  1
  O  O415  1  0.27197961  0.41612838  0.94052643  1
  O  O416  1  0.27158407  0.74885841  0.19305260  1
  O  O417  1  0.27114175  0.75001750  0.44332166  1
  O  O418  1  0.27162806  0.75191799  0.69198735  1
  O  O419  1  0.27303828  0.74973917  0.94048328  1
  O  O420  1  0.77261495  0.08520555  0.19206113  1
  O  O421  1  0.77270206  0.08272176  0.44078610  1
  O  O422  1  0.77177002  0.08116568  0.69192271  1
  O  O423  1  0.77335246  0.08298747  0.94037246  1
  O  O424  1  0.77239480  0.41733605  0.19215186  1
  O  O425  1  0.77182582  0.41610359  0.44379901  1
  O  O426  1  0.77198932  0.41653824  0.69436307  1
  O  O427  1  0.77235551  0.41791522  0.94265571  1
  O  O428  1  0.77272551  0.74866515  0.19232431  1
  O  O429  1  0.77164583  0.75103034  0.44353785  1
  O  O430  1  0.77267516  0.75218136  0.69276968  1
  O  O431  1  0.77289077  0.74875578  0.94281049  1
  O  O432  1  0.02333876  0.08315523  0.18472738  1
  O  O433  1  0.02310060  0.08459552  0.43407486  1
  O  O434  1  0.02249549  0.08561068  0.68251710  1
  O  O435  1  0.02258079  0.08497060  0.93350668  1
  O  O436  1  0.02207436  0.41491902  0.18331632  1
  O  O437  1  0.02296300  0.41750755  0.43424886  1
  O  O438  1  0.02235839  0.41710401  0.68416319  1
  O  O439  1  0.02137157  0.41634546  0.93174046  1
  O  O440  1  0.02298187  0.75053800  0.18503299  1
  O  O441  1  0.02157569  0.75223016  0.43357702  1
  O  O442  1  0.02116589  0.75014790  0.68183320  1
  O  O443  1  0.02344489  0.75025018  0.93459454  1
  O  O444  1  0.52265816  0.08522471  0.18253955  1
  O  O445  1  0.52128950  0.08263690  0.43144195  1
  O  O446  1  0.52109482  0.08257799  0.68155686  1
  O  O447  1  0.52279658  0.08300120  0.93413507  1
  O  O448  1  0.52226850  0.41814912  0.18295048  1
  O  O449  1  0.52221361  0.41422962  0.43284509  1
  O  O450  1  0.52123218  0.41644876  0.68199326  1
  O  O451  1  0.52174059  0.41527379  0.93354760  1
  O  O452  1  0.52199640  0.75133755  0.18322938  1
  O  O453  1  0.52166122  0.75146495  0.43299369  1
  O  O454  1  0.52177123  0.75183990  0.68313322  1
  O  O455  1  0.52225008  0.74857078  0.93345907  1
  O  O456  1  0.47737949  0.25010227  0.06592719  1
  O  O457  1  0.47830902  0.24839931  0.31611092  1
  O  O458  1  0.47809962  0.25111109  0.56668765  1
  O  O459  1  0.47812910  0.24917476  0.81879732  1
  O  O460  1  0.47775104  0.58523192  0.06729807  1
  O  O461  1  0.47814733  0.58183813  0.31725448  1
  O  O462  1  0.47872583  0.58317725  0.56837541  1
  O  O463  1  0.47800226  0.58343185  0.81866014  1
  O  O464  1  0.47899348  0.91865711  0.06679238  1
  O  O465  1  0.47802952  0.91516986  0.31624268  1
  O  O466  1  0.47721372  0.91458512  0.56694221  1
  O  O467  1  0.47805471  0.91436422  0.81746522  1
  O  O468  1  0.97759670  0.24806484  0.06676511  1
  O  O469  1  0.97727319  0.25095350  0.31569571  1
  O  O470  1  0.97727927  0.24968825  0.56487937  1
  O  O471  1  0.97706542  0.24914776  0.81489539  1
  O  O472  1  0.97786634  0.58465249  0.06736557  1
  O  O473  1  0.97806651  0.58494293  0.31651046  1
  O  O474  1  0.97778465  0.58171117  0.56662338  1
  O  O475  1  0.97720802  0.58154562  0.81702967  1
  O  O476  1  0.97839565  0.91509150  0.06717139  1
  O  O477  1  0.97708725  0.91664357  0.31575719  1
  O  O478  1  0.97635638  0.91672178  0.56529192  1
  O  O479  1  0.97862704  0.91748067  0.81837129  1
  O  O480  1  0.07271830  0.31209402  0.07436492  1
  O  O481  1  0.07270153  0.31381391  0.32352660  1
  O  O482  1  0.07162038  0.31428111  0.57270970  1
  O  O483  1  0.07118000  0.31396260  0.82231639  1
  O  O484  1  0.07323959  0.64772074  0.07389292  1
  O  O485  1  0.07287632  0.64866291  0.32481622  1
  O  O486  1  0.07294117  0.64565587  0.57535093  1
  O  O487  1  0.07223632  0.64599983  0.82435838  1
  O  O488  1  0.07373093  0.97875821  0.07563899  1
  O  O489  1  0.07163632  0.98100787  0.32371580  1
  O  O490  1  0.07086233  0.98126794  0.57258680  1
  O  O491  1  0.07422648  0.98033705  0.82571638  1
  O  O492  1  0.57209053  0.31451354  0.07394288  1
  O  O493  1  0.57401655  0.31183453  0.32369205  1
  O  O494  1  0.57328147  0.31431242  0.57368897  1
  O  O495  1  0.57373563  0.31262821  0.82627673  1
  O  O496  1  0.57260532  0.64877480  0.07508458  1
  O  O497  1  0.57369192  0.64549741  0.32511108  1
  O  O498  1  0.57380187  0.64735616  0.57551528  1
  O  O499  1  0.57384138  0.64652169  0.82561917  1
  O  O500  1  0.57400723  0.98203752  0.07401725  1
  O  O501  1  0.57344653  0.97866484  0.32489308  1
  O  O502  1  0.57225746  0.97875266  0.57474605  1
  O  O503  1  0.57313405  0.97883224  0.82427049  1
  O  O504  1  0.42721069  0.02164361  0.17384201  1
  O  O505  1  0.42584011  0.01937961  0.42358407  1
  O  O506  1  0.42540234  0.01953455  0.67498779  1
  O  O507  1  0.42807675  0.01857573  0.92667936  1
  O  O508  1  0.42675225  0.35435244  0.17503156  1
  O  O509  1  0.42711051  0.35112028  0.42459276  1
  O  O510  1  0.42570021  0.35273459  0.67523299  1
  O  O511  1  0.42690050  0.35136194  0.92708940  1
  O  O512  1  0.42616847  0.68807242  0.17551578  1
  O  O513  1  0.42667623  0.68710675  0.42488721  1
  O  O514  1  0.42654908  0.68762062  0.67540247  1
  O  O515  1  0.42722108  0.68524473  0.92590074  1
  O  O516  1  0.92849820  0.01932139  0.17708548  1
  O  O517  1  0.92862201  0.02027770  0.42669245  1
  O  O518  1  0.92749749  0.02136246  0.67486829  1
  O  O519  1  0.92746047  0.02114919  0.92510512  1
  O  O520  1  0.92675285  0.35167576  0.17616633  1
  O  O521  1  0.92847169  0.35288915  0.42690212  1
  O  O522  1  0.92802376  0.35252453  0.67607284  1
  O  O523  1  0.92606486  0.35264890  0.92410501  1
  O  O524  1  0.92838217  0.68637142  0.17683506  1
  O  O525  1  0.92640002  0.68830046  0.42478142  1
  O  O526  1  0.92575589  0.68697871  0.67467249  1
  O  O527  1  0.92870992  0.68611150  0.92781345  1
  O  O528  1  0.17725058  0.02092238  0.19965379  1
  O  O529  1  0.17636469  0.02116899  0.44864098  1
  O  O530  1  0.17602456  0.01875775  0.69857371  1
  O  O531  1  0.17589534  0.02004963  0.95083685  1
  O  O532  1  0.17789293  0.35271746  0.19779240  1
  O  O533  1  0.17602992  0.35447597  0.44846361  1
  O  O534  1  0.17574785  0.35365307  0.69992546  1
  O  O535  1  0.17695495  0.35236368  0.94836072  1
  O  O536  1  0.17584190  0.68600249  0.19982177  1
  O  O537  1  0.17545148  0.68712987  0.45074488  1
  O  O538  1  0.17672755  0.68722783  0.70015327  1
  O  O539  1  0.17841986  0.68549340  0.94768527  1
  O  O540  1  0.67740329  0.02102617  0.19960226  1
  O  O541  1  0.67738494  0.01921270  0.44793435  1
  O  O542  1  0.67626349  0.01860441  0.69913744  1
  O  O543  1  0.67850759  0.01925793  0.94866998  1
  O  O544  1  0.67677130  0.35388402  0.19919559  1
  O  O545  1  0.67608491  0.35311479  0.45020078  1
  O  O546  1  0.67646445  0.35330660  0.70205815  1
  O  O547  1  0.67707273  0.35424135  0.95144343  1
  O  O548  1  0.67718343  0.68587093  0.19914849  1
  O  O549  1  0.67658543  0.68703586  0.45130637  1
  O  O550  1  0.67738254  0.68792277  0.70041288  1
  O  O551  1  0.67768320  0.68528866  0.94965500  1
  O  O552  1  0.32110605  0.31407282  0.05196770  1
  O  O553  1  0.32276577  0.31251218  0.29888690  1
  O  O554  1  0.32282684  0.31398146  0.54857619  1
  O  O555  1  0.32313191  0.31433654  0.80138351  1
  O  O556  1  0.32271266  0.64484978  0.04962099  1
  O  O557  1  0.32308460  0.64506553  0.29961574  1
  O  O558  1  0.32400720  0.64662645  0.54976040  1
  O  O559  1  0.32141573  0.64725329  0.80260709  1
  O  O560  1  0.32418578  0.97955137  0.04841511  1
  O  O561  1  0.32405758  0.98075030  0.29949056  1
  O  O562  1  0.32141404  0.98099504  0.55166364  1
  O  O563  1  0.32273502  0.97897544  0.79993203  1
  O  O564  1  0.82358108  0.31204832  0.04968383  1
  O  O565  1  0.82319111  0.31238964  0.30012701  1
  O  O566  1  0.82372255  0.31274516  0.54994958  1
  O  O567  1  0.82349172  0.31194096  0.80072984  1
  O  O568  1  0.82278039  0.64693065  0.05194383  1
  O  O569  1  0.82415462  0.64686265  0.29975800  1
  O  O570  1  0.82494951  0.64716878  0.55066309  1
  O  O571  1  0.82319179  0.64750490  0.80275726  1
  O  O572  1  0.82494644  0.98052753  0.05007239  1
  O  O573  1  0.82356851  0.98172836  0.30139072  1
  O  O574  1  0.82207752  0.98113068  0.55154931  1
  O  O575  1  0.82373971  0.98153011  0.80026501  1
  O  O576  1  0.42777470  0.14864852  0.17477151  1
  O  O577  1  0.42585375  0.14623083  0.42413003  1
  O  O578  1  0.42591176  0.14651795  0.67494715  1
  O  O579  1  0.42741188  0.14609681  0.92647947  1
  O  O580  1  0.42743444  0.48153164  0.17574519  1
  O  O581  1  0.42700547  0.47835716  0.42521742  1
  O  O582  1  0.42584926  0.47965008  0.67470071  1
  O  O583  1  0.42615076  0.47856099  0.92593039  1
  O  O584  1  0.42746945  0.81531021  0.17506657  1
  O  O585  1  0.42618379  0.81429074  0.42601199  1
  O  O586  1  0.42642886  0.81470261  0.67667301  1
  O  O587  1  0.42684231  0.81232511  0.92587379  1
  O  O588  1  0.92834599  0.14662265  0.17753453  1
  O  O589  1  0.92773855  0.14746016  0.42560670  1
  O  O590  1  0.92710365  0.14827442  0.67500718  1
  O  O591  1  0.92755063  0.14818934  0.92630967  1
  O  O592  1  0.92704499  0.47893956  0.17552783  1
  O  O593  1  0.92762021  0.48026806  0.42584773  1
  O  O594  1  0.92690547  0.47975642  0.67670049  1
  O  O595  1  0.92584253  0.47932874  0.92528677  1
  O  O596  1  0.92764140  0.81355201  0.17620188  1
  O  O597  1  0.92647761  0.81531609  0.42528965  1
  O  O598  1  0.92586183  0.81389919  0.67535368  1
  O  O599  1  0.92821928  0.81361175  0.92735604  1
  O  O600  1  0.07265625  0.18514205  0.07437920  1
  O  O601  1  0.07166284  0.18657183  0.32330552  1
  O  O602  1  0.07282756  0.18714737  0.57292250  1
  O  O603  1  0.07281364  0.18668917  0.82229387  1
  O  O604  1  0.07290997  0.52060706  0.07526107  1
  O  O605  1  0.07340477  0.52149070  0.32437272  1
  O  O606  1  0.07299726  0.51853831  0.57382110  1
  O  O607  1  0.07259178  0.51891388  0.82466018  1
  O  O608  1  0.07339728  0.85179754  0.07488999  1
  O  O609  1  0.07257263  0.85387321  0.32407942  1
  O  O610  1  0.07169515  0.85378430  0.57312128  1
  O  O611  1  0.07369997  0.85341695  0.82490047  1
  O  O612  1  0.57289854  0.18713449  0.07286225  1
  O  O613  1  0.57300129  0.18479638  0.32387045  1
  O  O614  1  0.57334251  0.18699165  0.57428697  1
  O  O615  1  0.57348719  0.18586516  0.82588340  1
  O  O616  1  0.57317653  0.52162365  0.07510663  1
  O  O617  1  0.57297582  0.51816998  0.32402796  1
  O  O618  1  0.57454491  0.52032547  0.57566818  1
  O  O619  1  0.57304041  0.51959015  0.82665718  1
  O  O620  1  0.57441323  0.85489908  0.07449083  1
  O  O621  1  0.57304538  0.85159880  0.32334035  1
  O  O622  1  0.57266292  0.85168903  0.57385225  1
  O  O623  1  0.57335482  0.85162415  0.82507048  1
  O  O624  1  0.32172121  0.18676253  0.05055504  1
  O  O625  1  0.32219597  0.18558490  0.30002064  1
  O  O626  1  0.32373955  0.18712162  0.54940426  1
  O  O627  1  0.32257657  0.18713492  0.80055688  1
  O  O628  1  0.32287123  0.51789563  0.05030543  1
  O  O629  1  0.32276002  0.51789686  0.30058958  1
  O  O630  1  0.32359292  0.51980189  0.55035864  1
  O  O631  1  0.32244048  0.51973860  0.80170420  1
  O  O632  1  0.32419074  0.85254735  0.04949052  1
  O  O633  1  0.32374717  0.85369654  0.29979780  1
  O  O634  1  0.32105657  0.85340613  0.55144968  1
  O  O635  1  0.32279273  0.85204687  0.80011685  1
  O  O636  1  0.82325342  0.18494351  0.05112621  1
  O  O637  1  0.82332309  0.18531250  0.30126590  1
  O  O638  1  0.82372982  0.18584930  0.54979019  1
  O  O639  1  0.82291359  0.18466068  0.80088149  1
  O  O640  1  0.82259581  0.51968987  0.05189944  1
  O  O641  1  0.82413774  0.52007199  0.29964524  1
  O  O642  1  0.82450426  0.52012221  0.55115968  1
  O  O643  1  0.82227890  0.51994551  0.80294516  1
  O  O644  1  0.82480883  0.85363503  0.04949104  1
  O  O645  1  0.82311798  0.85453872  0.30073506  1
  O  O646  1  0.82156628  0.85375117  0.55155554  1
  O  O647  1  0.82404408  0.85468027  0.80031534  1
  O  O648  1  0.17658786  0.14807714  0.19826215  1
  O  O649  1  0.17654661  0.14828724  0.44843007  1
  O  O650  1  0.17638947  0.14602560  0.69927466  1
  O  O651  1  0.17572837  0.14693639  0.94967957  1
  O  O652  1  0.17702018  0.47994787  0.19750138  1
  O  O653  1  0.17666174  0.48161502  0.44805990  1
  O  O654  1  0.17625941  0.48040788  0.70090663  1
  O  O655  1  0.17687088  0.47961625  0.94849357  1
  O  O656  1  0.17657627  0.81303402  0.19974407  1
  O  O657  1  0.17590612  0.81405521  0.44999484  1
  O  O658  1  0.17604046  0.81422112  0.69905932  1
  O  O659  1  0.17781877  0.81301653  0.94841049  1
  O  O660  1  0.67727948  0.14791482  0.19874570  1
  O  O661  1  0.67796736  0.14660866  0.44828351  1
  O  O662  1  0.67675999  0.14544170  0.69976812  1
  O  O663  1  0.67828459  0.14665679  0.94778458  1
  O  O664  1  0.67749910  0.48112184  0.19890075  1
  O  O665  1  0.67665524  0.48007764  0.45055283  1
  O  O666  1  0.67667082  0.48035364  0.70149820  1
  O  O667  1  0.67732327  0.48145253  0.95010657  1
  O  O668  1  0.67781769  0.81317758  0.19926328  1
  O  O669  1  0.67589295  0.81386835  0.45023235  1
  O  O670  1  0.67759104  0.81507239  0.70020016  1
  O  O671  1  0.67758257  0.81231293  0.95085912  1
