# generated using pymatgen
data_Na2MnFe(PO4)2
_symmetry_space_group_name_H-M   'P 1'
_cell_length_a   22.34118810
_cell_length_b   20.09524992
_cell_length_c   19.44989873
_cell_angle_alpha   90.01065622
_cell_angle_beta   90.01803198
_cell_angle_gamma   89.97572129
_symmetry_Int_Tables_number   1
_chemical_formula_structural   Na2MnFe(PO4)2
_chemical_formula_sum   'Na96 Mn48 Fe48 P96 O384'
_cell_volume   8732.06486600
_cell_formula_units_Z   48
loop_
 _symmetry_equiv_pos_site_id
 _symmetry_equiv_pos_as_xyz
  1  'x, y, z'
loop_
 _atom_site_type_symbol
 _atom_site_label
 _atom_site_symmetry_multiplicity
 _atom_site_fract_x
 _atom_site_fract_y
 _atom_site_fract_z
 _atom_site_occupancy
  Na  Na0  1  0.14061480  0.25025338  0.24309166  1
  Na  Na1  1  0.14070477  0.25103155  0.49269807  1
  Na  Na2  1  0.14044293  0.25037234  0.74323946  1
  Na  Na3  1  0.14033575  0.24940716  0.99374190  1
  Na  Na4  1  0.14029254  0.58175464  0.24325347  1
  Na  Na5  1  0.13987485  0.58195389  0.49381233  1
  Na  Na6  1  0.13981513  0.58266717  0.74226763  1
  Na  Na7  1  0.13964367  0.58321621  0.99273276  1
  Na  Na8  1  0.14007153  0.91677306  0.24285688  1
  Na  Na9  1  0.14011429  0.91739261  0.49444610  1
  Na  Na10  1  0.13977739  0.91703770  0.74380149  1
  Na  Na11  1  0.13961926  0.91716132  0.99286275  1
  Na  Na12  1  0.64054850  0.25071643  0.24473558  1
  Na  Na13  1  0.64072839  0.25058311  0.49554139  1
  Na  Na14  1  0.64072143  0.25127272  0.74381835  1
  Na  Na15  1  0.64031947  0.25148320  0.99280895  1
  Na  Na16  1  0.64062289  0.58416643  0.24357852  1
  Na  Na17  1  0.64031518  0.58307722  0.49547248  1
  Na  Na18  1  0.63969568  0.58267586  0.74370384  1
  Na  Na19  1  0.64013604  0.58283238  0.99218530  1
  Na  Na20  1  0.64032652  0.91535806  0.24382074  1
  Na  Na21  1  0.64061023  0.91713080  0.49468155  1
  Na  Na22  1  0.64070967  0.91581096  0.74418775  1
  Na  Na23  1  0.64029417  0.91445294  0.99426517  1
  Na  Na24  1  0.35867670  0.08349964  0.00683227  1
  Na  Na25  1  0.35890409  0.08359137  0.25582431  1
  Na  Na26  1  0.35949226  0.08337719  0.50601564  1
  Na  Na27  1  0.35951859  0.08332793  0.75571362  1
  Na  Na28  1  0.35954890  0.41709978  0.00677285  1
  Na  Na29  1  0.35915377  0.41579024  0.25501208  1
  Na  Na30  1  0.35911953  0.41626548  0.50584664  1
  Na  Na31  1  0.36019609  0.41659706  0.75667532  1
  Na  Na32  1  0.35951394  0.74971585  0.00732791  1
  Na  Na33  1  0.35920480  0.74840297  0.25530513  1
  Na  Na34  1  0.35954699  0.74805072  0.50659716  1
  Na  Na35  1  0.35934170  0.74983449  0.75689461  1
  Na  Na36  1  0.86012931  0.08315727  0.00660820  1
  Na  Na37  1  0.85958695  0.08421879  0.25626761  1
  Na  Na38  1  0.86055836  0.08460659  0.50803498  1
  Na  Na39  1  0.86073188  0.08375752  0.75679466  1
  Na  Na40  1  0.86016043  0.41823912  0.00508056  1
  Na  Na41  1  0.86021294  0.41691567  0.25575578  1
  Na  Na42  1  0.85980817  0.41813005  0.50696328  1
  Na  Na43  1  0.86003444  0.41826580  0.75635766  1
  Na  Na44  1  0.86041967  0.74956149  0.00630115  1
  Na  Na45  1  0.86012883  0.75015979  0.25484989  1
  Na  Na46  1  0.86008360  0.74972732  0.50811548  1
  Na  Na47  1  0.86019455  0.74892111  0.75699094  1
  Na  Na48  1  0.10956874  0.08248913  0.11716519  1
  Na  Na49  1  0.10971647  0.08475477  0.36848726  1
  Na  Na50  1  0.10943556  0.08380677  0.61910698  1
  Na  Na51  1  0.10920661  0.08223255  0.86899192  1
  Na  Na52  1  0.10993698  0.41612768  0.11757679  1
  Na  Na53  1  0.11014872  0.41718734  0.36819315  1
  Na  Na54  1  0.11023836  0.41747235  0.61716426  1
  Na  Na55  1  0.10995835  0.41792297  0.86758480  1
  Na  Na56  1  0.10918438  0.74935362  0.11689686  1
  Na  Na57  1  0.10931982  0.74961386  0.36976174  1
  Na  Na58  1  0.10924348  0.75044429  0.61909779  1
  Na  Na59  1  0.10910823  0.75015468  0.86824201  1
  Na  Na60  1  0.60915690  0.08315517  0.11869006  1
  Na  Na61  1  0.60939079  0.08159962  0.36990602  1
  Na  Na62  1  0.60967264  0.08287282  0.61908139  1
  Na  Na63  1  0.60919897  0.08377154  0.86893678  1
  Na  Na64  1  0.60954808  0.41748645  0.11769540  1
  Na  Na65  1  0.61012594  0.41639058  0.36999289  1
  Na  Na66  1  0.61048579  0.41749601  0.61952209  1
  Na  Na67  1  0.60980552  0.41779934  0.86776514  1
  Na  Na68  1  0.60958217  0.74901963  0.11798421  1
  Na  Na69  1  0.60977655  0.74922125  0.36972721  1
  Na  Na70  1  0.60943869  0.74944834  0.61976357  1
  Na  Na71  1  0.60968449  0.74820938  0.86967976  1
  Na  Na72  1  0.38980408  0.25069320  0.13142913  1
  Na  Na73  1  0.38943241  0.24910593  0.38163765  1
  Na  Na74  1  0.39014271  0.25093021  0.63125433  1
  Na  Na75  1  0.39066323  0.25157079  0.88156371  1
  Na  Na76  1  0.38977832  0.58337919  0.13040875  1
  Na  Na77  1  0.38976493  0.58253335  0.38045301  1
  Na  Na78  1  0.39035975  0.58207264  0.63198236  1
  Na  Na79  1  0.38999955  0.58261463  0.88197925  1
  Na  Na80  1  0.38993033  0.91614281  0.13085185  1
  Na  Na81  1  0.39034627  0.91463400  0.38082280  1
  Na  Na82  1  0.39013871  0.91555532  0.63114727  1
  Na  Na83  1  0.39006393  0.91607134  0.88145829  1
  Na  Na84  1  0.89049857  0.24996459  0.13044209  1
  Na  Na85  1  0.89082858  0.25141329  0.38214568  1
  Na  Na86  1  0.89098417  0.25077644  0.63174967  1
  Na  Na87  1  0.89085016  0.25021280  0.88091803  1
  Na  Na88  1  0.89041081  0.58331992  0.12997384  1
  Na  Na89  1  0.89055404  0.58382095  0.38185833  1
  Na  Na90  1  0.89062066  0.58457384  0.63264456  1
  Na  Na91  1  0.89037709  0.58457998  0.88111439  1
  Na  Na92  1  0.89034953  0.91623378  0.13058708  1
  Na  Na93  1  0.89061281  0.91723409  0.38216669  1
  Na  Na94  1  0.89120428  0.91782432  0.63264725  1
  Na  Na95  1  0.89101241  0.91671278  0.88154371  1
  Mn  Mn96  1  0.49946967  -0.00188169  0.24923003  1
  Mn  Mn97  1  0.24928586  0.66600240  0.87492289  1
  Mn  Mn98  1  0.49961385  0.50049440  0.50044617  1
  Mn  Mn99  1  0.75040081  0.66675102  0.37527381  1
  Mn  Mn100  1  -0.00001924  0.00047323  0.24999016  1
  Mn  Mn101  1  0.49936673  0.16743951  0.74972820  1
  Mn  Mn102  1  0.24928944  0.83237883  0.37411463  1
  Mn  Mn103  1  0.24991330  0.16772792  0.62494582  1
  Mn  Mn104  1  0.50014430  0.50021835  0.24955348  1
  Mn  Mn105  1  0.75069909  0.00059142  0.37495624  1
  Mn  Mn106  1  0.00033033  0.33413539  0.50051636  1
  Mn  Mn107  1  0.50042853  0.83195866  0.75037562  1
  Mn  Mn108  1  0.49936856  -0.00084374  -0.00006253  1
  Mn  Mn109  1  0.75017339  0.33439915  0.12454002  1
  Mn  Mn110  1  0.24962440  -0.00035424  0.62462239  1
  Mn  Mn111  1  0.74934450  0.50111700  0.12500227  1
  Mn  Mn112  1  0.00006850  0.83383315  0.50081810  1
  Mn  Mn113  1  0.49978618  0.83217173  0.50059836  1
  Mn  Mn114  1  0.00044092  0.66652510  0.24949516  1
  Mn  Mn115  1  0.49936103  0.16782248  -0.00065571  1
  Mn  Mn116  1  0.25047717  0.16657484  0.87482629  1
  Mn  Mn117  1  0.74978476  0.16730771  0.87489446  1
  Mn  Mn118  1  0.49979014  0.33330882  0.24992326  1
  Mn  Mn119  1  0.74961390  0.16820694  0.37644164  1
  Mn  Mn120  1  0.24907487  0.66472370  0.37577605  1
  Mn  Mn121  1  0.00035915  0.33324491  -0.00132481  1
  Mn  Mn122  1  0.75061950  0.49968687  0.37494773  1
  Mn  Mn123  1  0.00024434  0.83340323  0.25023336  1
  Mn  Mn124  1  0.49995865  0.16600441  0.25025067  1
  Mn  Mn125  1  0.00079320  0.33385728  0.74970415  1
  Mn  Mn126  1  0.75062583  0.83310490  0.62568575  1
  Mn  Mn127  1  0.50053837  0.66682394  0.24964413  1
  Mn  Mn128  1  0.75013520  -0.00048296  0.87578030  1
  Mn  Mn129  1  0.75083242  0.83180393  0.87425865  1
  Mn  Mn130  1  0.74932546  -0.00077656  0.12571545  1
  Mn  Mn131  1  0.25044456  0.00054547  0.37445005  1
  Mn  Mn132  1  0.00062922  0.49958634  0.24978631  1
  Mn  Mn133  1  0.75048238  0.16743216  0.62565903  1
  Mn  Mn134  1  0.50042815  0.16551603  0.50083631  1
  Mn  Mn135  1  0.49994045  0.33340041  0.50055220  1
  Mn  Mn136  1  -0.00074010  0.16733281  0.24980468  1
  Mn  Mn137  1  0.49986414  -0.00046783  0.75066506  1
  Mn  Mn138  1  0.75041747  0.83333014  0.37577787  1
  Mn  Mn139  1  0.75009536  0.16751666  0.12508225  1
  Mn  Mn140  1  0.24958296  0.83411370  0.87619859  1
  Mn  Mn141  1  0.24903212  0.83320472  0.12496220  1
  Mn  Mn142  1  0.24993708  0.33425908  0.87490676  1
  Mn  Mn143  1  0.24995548  0.66583988  0.62509919  1
  Fe  Fe144  1  0.24972524  0.16723102  0.37428901  1
  Fe  Fe145  1  0.75085368  0.33434628  0.87417856  1
  Fe  Fe146  1  0.24952449  0.50001673  0.87521309  1
  Fe  Fe147  1  0.75022342  0.33404897  0.37576467  1
  Fe  Fe148  1  0.24983768  0.33338526  0.37390195  1
  Fe  Fe149  1  0.49999220  0.83237129  -0.00009725  1
  Fe  Fe150  1  0.74971913  0.66603378  0.87534370  1
  Fe  Fe151  1  -0.00018597  0.66700946  0.50075490  1
  Fe  Fe152  1  0.50061143  0.33413556  -0.00010155  1
  Fe  Fe153  1  0.00007497  0.33346844  0.24948458  1
  Fe  Fe154  1  0.25036853  0.33392445  0.62389462  1
  Fe  Fe155  1  0.75012116  0.50040094  0.87422978  1
  Fe  Fe156  1  -0.00047055  -0.00007763  -0.00079308  1
  Fe  Fe157  1  0.24982232  0.00017196  0.87480562  1
  Fe  Fe158  1  -0.00019472  0.50075481  0.49969255  1
  Fe  Fe159  1  0.00004130  0.83356119  0.75036264  1
  Fe  Fe160  1  -0.00007947  0.00046192  0.75068718  1
  Fe  Fe161  1  0.75046324  0.00026070  0.62555427  1
  Fe  Fe162  1  -0.00004478  0.83351019  -0.00085114  1
  Fe  Fe163  1  -0.00004387  0.50004053  -0.00102677  1
  Fe  Fe164  1  0.00001585  0.66670295  -0.00119774  1
  Fe  Fe165  1  0.49902466  0.66610983  0.75079255  1
  Fe  Fe166  1  0.00020474  0.66712175  0.75015641  1
  Fe  Fe167  1  0.00000622  0.16644091  -0.00014498  1
  Fe  Fe168  1  0.24914142  0.49960805  0.12488905  1
  Fe  Fe169  1  0.00045836  0.00089844  0.50147231  1
  Fe  Fe170  1  0.24984087  0.33311172  0.12542021  1
  Fe  Fe171  1  0.74978343  0.66608335  0.62599874  1
  Fe  Fe172  1  0.75024838  0.83244212  0.12456240  1
  Fe  Fe173  1  0.75086527  0.33431442  0.62533905  1
  Fe  Fe174  1  0.49990445  0.50012561  -0.00070593  1
  Fe  Fe175  1  0.25021780  0.49898512  0.62429723  1
  Fe  Fe176  1  0.25003288  0.83323010  0.62530968  1
  Fe  Fe177  1  0.49971646  -0.00140304  0.49982615  1
  Fe  Fe178  1  0.00071042  0.16706289  0.50052232  1
  Fe  Fe179  1  0.49969910  0.66614631  0.50023058  1
  Fe  Fe180  1  0.00015920  0.50120771  0.74922869  1
  Fe  Fe181  1  0.49943805  0.66631410  -0.00029362  1
  Fe  Fe182  1  0.49985110  0.50020021  0.75066547  1
  Fe  Fe183  1  0.00062036  0.16652136  0.75029719  1
  Fe  Fe184  1  0.49973637  0.83213694  0.25030963  1
  Fe  Fe185  1  0.24952598  0.00026796  0.12484187  1
  Fe  Fe186  1  0.50064019  0.33426517  0.75085165  1
  Fe  Fe187  1  0.25037879  0.49875873  0.37399806  1
  Fe  Fe188  1  0.24899968  0.66565415  0.12517843  1
  Fe  Fe189  1  0.75046343  0.66676744  0.12434303  1
  Fe  Fe190  1  0.75037820  0.50016901  0.62574051  1
  Fe  Fe191  1  0.24953758  0.16680845  0.12496197  1
  P  P192  1  0.04209094  0.24906983  0.10203869  1
  P  P193  1  0.04217534  0.25161219  0.35241860  1
  P  P194  1  0.04265240  0.24901301  0.60281743  1
  P  P195  1  0.04249424  0.24862253  0.85251705  1
  P  P196  1  0.04114932  0.58293695  0.10044871  1
  P  P197  1  0.04275557  0.58341339  0.35373173  1
  P  P198  1  0.04107843  0.58361693  0.60218522  1
  P  P199  1  0.04123178  0.58373550  0.85167844  1
  P  P200  1  0.04120372  0.91651113  0.10074381  1
  P  P201  1  0.04297140  0.91739520  0.35380651  1
  P  P202  1  0.04204703  0.91829395  0.60390488  1
  P  P203  1  0.04093251  0.91648971  0.85225854  1
  P  P204  1  0.54239255  0.25135961  0.10213950  1
  P  P205  1  0.54270472  0.24940552  0.35355612  1
  P  P206  1  0.54277007  0.25051650  0.60426289  1
  P  P207  1  0.54226837  0.25201497  0.85285305  1
  P  P208  1  0.54152107  0.58327178  0.10074001  1
  P  P209  1  0.54299473  0.58352136  0.35341680  1
  P  P210  1  0.54174319  0.58473578  0.60382708  1
  P  P211  1  0.54069986  0.58326249  0.85251082  1
  P  P212  1  0.54184938  0.91423568  0.10262981  1
  P  P213  1  0.54226333  0.91436096  0.35277553  1
  P  P214  1  0.54237576  0.91693216  0.60274680  1
  P  P215  1  0.54289403  0.91533212  0.85393982  1
  P  P216  1  0.45668767  0.08302040  0.14669461  1
  P  P217  1  0.45757741  0.08096589  0.39774629  1
  P  P218  1  0.45711019  0.08244312  0.64652081  1
  P  P219  1  0.45647442  0.08346290  0.89691723  1
  P  P220  1  0.45752386  0.41704925  0.14551500  1
  P  P221  1  0.45687106  0.41667429  0.39707645  1
  P  P222  1  0.45898650  0.41685554  0.64913113  1
  P  P223  1  0.45869996  0.41699974  0.89780090  1
  P  P224  1  0.45762262  0.75083415  0.14667550  1
  P  P225  1  0.45733248  0.74820682  0.39746977  1
  P  P226  1  0.45727889  0.74781306  0.64780541  1
  P  P227  1  0.45799868  0.74903740  0.89831859  1
  P  P228  1  0.95716946  0.08337375  0.14593629  1
  P  P229  1  0.95880113  0.08389371  0.39933637  1
  P  P230  1  0.95919588  0.08393836  0.64839815  1
  P  P231  1  0.95873000  0.08368225  0.89762932  1
  P  P232  1  0.95824637  0.41562976  0.14659901  1
  P  P233  1  0.95799931  0.41797969  0.39750885  1
  P  P234  1  0.95857836  0.41877921  0.64714315  1
  P  P235  1  0.95838409  0.41861167  0.89607690  1
  P  P236  1  0.95816959  0.75014582  0.14549716  1
  P  P237  1  0.95753420  0.74917043  0.39843944  1
  P  P238  1  0.95879985  0.75037348  0.64865290  1
  P  P239  1  0.95901934  0.75048875  0.89724634  1
  P  P240  1  0.20808500  0.08393942  0.22643349  1
  P  P241  1  0.20795968  0.08505935  0.47681134  1
  P  P242  1  0.20739912  0.08326402  0.72824125  1
  P  P243  1  0.20774366  0.08219593  0.97784071  1
  P  P244  1  0.20842112  0.41625529  0.22680816  1
  P  P245  1  0.20865181  0.41636906  0.47628682  1
  P  P246  1  0.20850333  0.41660139  0.72609300  1
  P  P247  1  0.20757584  0.41816748  0.97809047  1
  P  P248  1  0.20673669  0.74788298  0.22710373  1
  P  P249  1  0.20713882  0.74962536  0.47889217  1
  P  P250  1  0.20770229  0.75105252  0.72751084  1
  P  P251  1  0.20693682  0.74929077  0.97865753  1
  P  P252  1  0.70697221  0.08400386  0.22853348  1
  P  P253  1  0.70789354  0.08343024  0.47945605  1
  P  P254  1  0.70811054  0.08251269  0.72775267  1
  P  P255  1  0.70699260  0.08341641  0.97837162  1
  P  P256  1  0.70694474  0.41702138  0.22835262  1
  P  P257  1  0.70817850  0.41598209  0.47877072  1
  P  P258  1  0.70941249  0.41701517  0.72744516  1
  P  P259  1  0.70882536  0.41732203  0.97562198  1
  P  P260  1  0.70870509  0.74961118  0.22626103  1
  P  P261  1  0.70772412  0.74953659  0.47935301  1
  P  P262  1  0.70792508  0.74797750  0.72819636  1
  P  P263  1  0.70836680  0.74827710  0.97805738  1
  P  P264  1  0.29097730  0.25020463  0.02364836  1
  P  P265  1  0.29118245  0.25001308  0.27224208  1
  P  P266  1  0.29222932  0.25164522  0.52134311  1
  P  P267  1  0.29281755  0.25097764  0.77156534  1
  P  P268  1  0.29061277  0.58262243  0.02317520  1
  P  P269  1  0.29152563  0.58138446  0.27147117  1
  P  P270  1  0.29221544  0.58086397  0.52225802  1
  P  P271  1  0.29153812  0.58133516  0.77225795  1
  P  P272  1  0.29140939  0.91813367  0.02244841  1
  P  P273  1  0.29218085  0.91666495  0.27093784  1
  P  P274  1  0.29213077  0.91499350  0.52232919  1
  P  P275  1  0.29201757  0.91736651  0.77246271  1
  P  P276  1  0.79287583  0.25124335  0.02093181  1
  P  P277  1  0.79273665  0.25190234  0.27319017  1
  P  P278  1  0.79284013  0.25238359  0.52295076  1
  P  P279  1  0.79272972  0.25204626  0.77213735  1
  P  P280  1  0.79191423  0.58454383  0.02139385  1
  P  P281  1  0.79325793  0.58392742  0.27153008  1
  P  P282  1  0.79158874  0.58338797  0.52431253  1
  P  P283  1  0.79113955  0.58373290  0.77290214  1
  P  P284  1  0.79219875  0.91487298  0.02267581  1
  P  P285  1  0.79309994  0.91593296  0.27162138  1
  P  P286  1  0.79295278  0.91799115  0.52337176  1
  P  P287  1  0.79319551  0.91676969  0.77168175  1
  O  O288  1  0.03657318  0.24999278  0.18193429  1
  O  O289  1  0.03733714  0.25123241  0.43236125  1
  O  O290  1  0.03753772  0.24894525  0.68274754  1
  O  O291  1  0.03694392  0.24867188  0.93241053  1
  O  O292  1  0.03671149  0.58302642  0.18043761  1
  O  O293  1  0.03753731  0.58334727  0.43362864  1
  O  O294  1  0.03601572  0.58339653  0.68211607  1
  O  O295  1  0.03617734  0.58358107  0.93153358  1
  O  O296  1  0.03672043  0.91685616  0.18077897  1
  O  O297  1  0.03800280  0.91787210  0.43378431  1
  O  O298  1  0.03641544  0.91804707  0.68374006  1
  O  O299  1  0.03570833  0.91655906  0.93213795  1
  O  O300  1  0.53747724  0.25088500  0.18213206  1
  O  O301  1  0.53765093  0.24932029  0.43354486  1
  O  O302  1  0.53738805  0.25110741  0.68421212  1
  O  O303  1  0.53691337  0.25239853  0.93280756  1
  O  O304  1  0.53723802  0.58363671  0.18074155  1
  O  O305  1  0.53786256  0.58388100  0.43336436  1
  O  O306  1  0.53619545  0.58453056  0.68368943  1
  O  O307  1  0.53576737  0.58271319  0.93236769  1
  O  O308  1  0.53645583  0.91391039  0.18257814  1
  O  O309  1  0.53702270  0.91509956  0.43275486  1
  O  O310  1  0.53747935  0.91666165  0.68272940  1
  O  O311  1  0.53753966  0.91484212  0.93386454  1
  O  O312  1  0.46156767  0.08337814  0.06673607  1
  O  O313  1  0.46278505  0.08122558  0.31776130  1
  O  O314  1  0.46271268  0.08168054  0.56658191  1
  O  O315  1  0.46165115  0.08362979  0.81695625  1
  O  O316  1  0.46300881  0.41696320  0.06558501  1
  O  O317  1  0.46182516  0.41665013  0.31710778  1
  O  O318  1  0.46349412  0.41722767  0.56917559  1
  O  O319  1  0.46385558  0.41682305  0.81788295  1
  O  O320  1  0.46277003  0.75068948  0.06678462  1
  O  O321  1  0.46261211  0.74909055  0.31753992  1
  O  O322  1  0.46231260  0.74782621  0.56785515  1
  O  O323  1  0.46285489  0.74839529  0.81835225  1
  O  O324  1  0.96216182  0.08352755  0.06602828  1
  O  O325  1  0.96336648  0.08392657  0.31928417  1
  O  O326  1  0.96431356  0.08356973  0.56851080  1
  O  O327  1  0.96389934  0.08358983  0.81773357  1
  O  O328  1  0.96338904  0.41602933  0.06664127  1
  O  O329  1  0.96307864  0.41704231  0.31756782  1
  O  O330  1  0.96366446  0.41887946  0.56719530  1
  O  O331  1  0.96397833  0.41880286  0.81618239  1
  O  O332  1  0.96351129  0.75046910  0.06559169  1
  O  O333  1  0.96273451  0.74937266  0.31847249  1
  O  O334  1  0.96371162  0.74967409  0.56872541  1
  O  O335  1  0.96414919  0.75048886  0.81737098  1
  O  O336  1  0.21299366  0.08206257  0.05773555  1
  O  O337  1  0.21318019  0.08450467  0.30640638  1
  O  O338  1  0.21304874  0.08479162  0.55674612  1
  O  O339  1  0.21274052  0.08287105  0.80815724  1
  O  O340  1  0.21270563  0.41814941  0.05791803  1
  O  O341  1  0.21365070  0.41583399  0.30666728  1
  O  O342  1  0.21400147  0.41630146  0.55618717  1
  O  O343  1  0.21293284  0.41706888  0.80609057  1
  O  O344  1  0.21194972  0.74856078  0.05858685  1
  O  O345  1  0.21181328  0.74787011  0.30711075  1
  O  O346  1  0.21281590  0.75029464  0.55882809  1
  O  O347  1  0.21261508  0.75093586  0.80751034  1
  O  O348  1  0.71191623  0.08367275  0.05837302  1
  O  O349  1  0.71224574  0.08424468  0.30854606  1
  O  O350  1  0.71340909  0.08271236  0.55942595  1
  O  O351  1  0.71283924  0.08272910  0.80776704  1
  O  O352  1  0.71292411  0.41788242  0.05563863  1
  O  O353  1  0.71201273  0.41662610  0.30830390  1
  O  O354  1  0.71367232  0.41636329  0.55864776  1
  O  O355  1  0.71438695  0.41710908  0.80731117  1
  O  O356  1  0.71373912  0.74873933  0.05794264  1
  O  O357  1  0.71336309  0.74990811  0.30630049  1
  O  O358  1  0.71288881  0.74908644  0.55929215  1
  O  O359  1  0.71319690  0.74771834  0.80813597  1
  O  O360  1  0.28593193  0.24971719  0.19235544  1
  O  O361  1  0.28684145  0.25147262  0.44146004  1
  O  O362  1  0.28775883  0.25161103  0.69162406  1
  O  O363  1  0.28650022  0.25036116  0.94365764  1
  O  O364  1  0.28569584  0.58208562  0.19162537  1
  O  O365  1  0.28713867  0.58073362  0.44231484  1
  O  O366  1  0.28658986  0.58126332  0.69231048  1
  O  O367  1  0.28570665  0.58257982  0.94316833  1
  O  O368  1  0.28660249  0.91728510  0.19101580  1
  O  O369  1  0.28689349  0.91526141  0.44236983  1
  O  O370  1  0.28678722  0.91616398  0.69249112  1
  O  O371  1  0.28632361  0.91847051  0.94248039  1
  O  O372  1  0.78763414  0.25132658  0.19317414  1
  O  O373  1  0.78737932  0.25238382  0.44303352  1
  O  O374  1  0.78754939  0.25210658  0.69218526  1
  O  O375  1  0.78772047  0.25152940  0.94095538  1
  O  O376  1  0.78795247  0.58451843  0.19157796  1
  O  O377  1  0.78721376  0.58301671  0.44430806  1
  O  O378  1  0.78642869  0.58372448  0.69301320  1
  O  O379  1  0.78667738  0.58429210  0.94150568  1
  O  O380  1  0.78762197  0.91522353  0.19166976  1
  O  O381  1  0.78816967  0.91778288  0.44333062  1
  O  O382  1  0.78788580  0.91750495  0.69174940  1
  O  O383  1  0.78742970  0.91487990  0.94268287  1
  O  O384  1  0.22674630  0.25008783  0.05913040  1
  O  O385  1  0.22717328  0.25021786  0.30877965  1
  O  O386  1  0.22806959  0.25211522  0.55752018  1
  O  O387  1  0.22846636  0.25060917  0.80683941  1
  O  O388  1  0.22640547  0.58245358  0.05899765  1
  O  O389  1  0.22753593  0.58057503  0.30802110  1
  O  O390  1  0.22794703  0.58116722  0.55795637  1
  O  O391  1  0.22717450  0.58139065  0.80773456  1
  O  O392  1  0.22710019  0.91801600  0.05800791  1
  O  O393  1  0.22792477  0.91689127  0.30644116  1
  O  O394  1  0.22781157  0.91479393  0.55790393  1
  O  O395  1  0.22771840  0.91806752  0.80817560  1
  O  O396  1  0.72848729  0.25108615  0.05615301  1
  O  O397  1  0.72833927  0.25253659  0.30867605  1
  O  O398  1  0.72866487  0.25238374  0.55886076  1
  O  O399  1  0.72841045  0.25230054  0.80768738  1
  O  O400  1  0.72771291  0.58516108  0.05739326  1
  O  O401  1  0.72890033  0.58339759  0.30684393  1
  O  O402  1  0.72728083  0.58372178  0.55971988  1
  O  O403  1  0.72699171  0.58400665  0.80892163  1
  O  O404  1  0.72783327  0.91464666  0.05798955  1
  O  O405  1  0.72876368  0.91647504  0.30703444  1
  O  O406  1  0.72852826  0.91753236  0.55847992  1
  O  O407  1  0.72885503  0.91607537  0.80694265  1
  O  O408  1  0.27222168  0.08349820  0.19047207  1
  O  O409  1  0.27225337  0.08537348  0.44124283  1
  O  O410  1  0.27159217  0.08347472  0.69263124  1
  O  O411  1  0.27193124  0.08164395  0.94174811  1
  O  O412  1  0.27237872  0.41700355  0.19037839  1
  O  O413  1  0.27261698  0.41609423  0.43965431  1
  O  O414  1  0.27286991  0.41608418  0.69058506  1
  O  O415  1  0.27182390  0.41844506  0.94213435  1
  O  O416  1  0.27106396  0.74813400  0.19169161  1
  O  O417  1  0.27126965  0.74902301  0.44304741  1
  O  O418  1  0.27201930  0.75078908  0.69207422  1
  O  O419  1  0.27128351  0.74954459  0.94342321  1
  O  O420  1  0.77138587  0.08353097  0.19342942  1
  O  O421  1  0.77214833  0.08413628  0.44390496  1
  O  O422  1  0.77257053  0.08282103  0.69271969  1
  O  O423  1  0.77153782  0.08364939  0.94360240  1
  O  O424  1  0.77139008  0.41768622  0.19325571  1
  O  O425  1  0.77233686  0.41552027  0.44250205  1
  O  O426  1  0.77347844  0.41682419  0.69125642  1
  O  O427  1  0.77321057  0.41706753  0.94045713  1
  O  O428  1  0.77298944  0.74920124  0.19070824  1
  O  O429  1  0.77214780  0.74983809  0.44418887  1
  O  O430  1  0.77222811  0.74803106  0.69261224  1
  O  O431  1  0.77253043  0.74756171  0.94196540  1
  O  O432  1  0.02148826  0.08380637  0.18150088  1
  O  O433  1  0.02313342  0.08361368  0.43490256  1
  O  O434  1  0.02318234  0.08439153  0.68479935  1
  O  O435  1  0.02267370  0.08389208  0.93416746  1
  O  O436  1  0.02249874  0.41511831  0.18249740  1
  O  O437  1  0.02230334  0.41852217  0.43317839  1
  O  O438  1  0.02286639  0.41874497  0.68274423  1
  O  O439  1  0.02249572  0.41849154  0.93218425  1
  O  O440  1  0.02234105  0.75025656  0.18150360  1
  O  O441  1  0.02184825  0.74902971  0.43404404  1
  O  O442  1  0.02290673  0.75102224  0.68472261  1
  O  O443  1  0.02295846  0.75095404  0.93372765  1
  O  O444  1  0.52118519  0.08254304  0.18159173  1
  O  O445  1  0.52189183  0.08060517  0.43339734  1
  O  O446  1  0.52136349  0.08308275  0.68212522  1
  O  O447  1  0.52091892  0.08343539  0.93188387  1
  O  O448  1  0.52175485  0.41680016  0.18128364  1
  O  O449  1  0.52134081  0.41698112  0.43206390  1
  O  O450  1  0.52325524  0.41665884  0.68469989  1
  O  O451  1  0.52285740  0.41725268  0.93398985  1
  O  O452  1  0.52189926  0.75136145  0.18266090  1
  O  O453  1  0.52157755  0.74775987  0.43342202  1
  O  O454  1  0.52162666  0.74735488  0.68341645  1
  O  O455  1  0.52224419  0.74928715  0.93405209  1
  O  O456  1  0.47791985  0.25200038  0.06695810  1
  O  O457  1  0.47821254  0.24952156  0.31850101  1
  O  O458  1  0.47847913  0.24978336  0.56882299  1
  O  O459  1  0.47798488  0.25226640  0.81716429  1
  O  O460  1  0.47711500  0.58246765  0.06546074  1
  O  O461  1  0.47861135  0.58358048  0.31812387  1
  O  O462  1  0.47763129  0.58498182  0.56743973  1
  O  O463  1  0.47659396  0.58332893  0.81635911  1
  O  O464  1  0.47760941  0.91418980  0.06675300  1
  O  O465  1  0.47792812  0.91374525  0.31702145  1
  O  O466  1  0.47799860  0.91702499  0.56732061  1
  O  O467  1  0.47852795  0.91530727  0.81862943  1
  O  O468  1  0.97796297  0.24883530  0.06592060  1
  O  O469  1  0.97780049  0.25215293  0.31686566  1
  O  O470  1  0.97838984  0.24912755  0.56710678  1
  O  O471  1  0.97839405  0.24892150  0.81638177  1
  O  O472  1  0.97696852  0.58276877  0.06468729  1
  O  O473  1  0.97853784  0.58319421  0.31799571  1
  O  O474  1  0.97702982  0.58359375  0.56574684  1
  O  O475  1  0.97716976  0.58353439  0.81536781  1
  O  O476  1  0.97698960  0.91594543  0.06505482  1
  O  O477  1  0.97853286  0.91705524  0.31859813  1
  O  O478  1  0.97801955  0.91868231  0.56744340  1
  O  O479  1  0.97704171  0.91571300  0.81567798  1
  O  O480  1  0.07349345  0.31228916  0.07369637  1
  O  O481  1  0.07287321  0.31509439  0.32364635  1
  O  O482  1  0.07361919  0.31280674  0.57513929  1
  O  O483  1  0.07363469  0.31245684  0.82504525  1
  O  O484  1  0.07151232  0.64677712  0.07195126  1
  O  O485  1  0.07379922  0.64684077  0.32522513  1
  O  O486  1  0.07182362  0.64752202  0.57426915  1
  O  O487  1  0.07173666  0.64765420  0.82322870  1
  O  O488  1  0.07118984  0.98055908  0.07210298  1
  O  O489  1  0.07400682  0.98058524  0.32487474  1
  O  O490  1  0.07324131  0.98157998  0.57528885  1
  O  O491  1  0.07106229  0.98062479  0.82386043  1
  O  O492  1  0.57336559  0.31479908  0.07369871  1
  O  O493  1  0.57370252  0.31288043  0.32546143  1
  O  O494  1  0.57369115  0.31394766  0.57586427  1
  O  O495  1  0.57347986  0.31516027  0.82410168  1
  O  O496  1  0.57136736  0.64737488  0.07218927  1
  O  O497  1  0.57429865  0.64665341  0.32470754  1
  O  O498  1  0.57278418  0.64789707  0.57490718  1
  O  O499  1  0.57173360  0.64681134  0.82441329  1
  O  O500  1  0.57270301  0.97828456  0.07540677  1
  O  O501  1  0.57324563  0.97780339  0.32434711  1
  O  O502  1  0.57303501  0.98036568  0.57413972  1
  O  O503  1  0.57380357  0.97907748  0.82616970  1
  O  O504  1  0.42556114  0.01952944  0.17452418  1
  O  O505  1  0.42675243  0.01735190  0.42586252  1
  O  O506  1  0.42594204  0.01926137  0.67515389  1
  O  O507  1  0.42552175  0.01994103  0.92492808  1
  O  O508  1  0.42610160  0.35386325  0.17399226  1
  O  O509  1  0.42613088  0.35310353  0.42531247  1
  O  O510  1  0.42794592  0.35333121  0.67706394  1
  O  O511  1  0.42788745  0.35345082  0.92645184  1
  O  O512  1  0.42695499  0.68687499  0.17461627  1
  O  O513  1  0.42658690  0.68450309  0.42551487  1
  O  O514  1  0.42593471  0.68488513  0.67673551  1
  O  O515  1  0.42717224  0.68548935  0.92703626  1
  O  O516  1  0.92643517  0.01978773  0.17448849  1
  O  O517  1  0.92788821  0.02039957  0.42767909  1
  O  O518  1  0.92869869  0.02022587  0.67735835  1
  O  O519  1  0.92816243  0.01976084  0.92603899  1
  O  O520  1  0.92752075  0.35208666  0.17516945  1
  O  O521  1  0.92699468  0.35471760  0.42628228  1
  O  O522  1  0.92787069  0.35484866  0.67485669  1
  O  O523  1  0.92736609  0.35475527  0.92337165  1
  O  O524  1  0.92724993  0.68645900  0.17351368  1
  O  O525  1  0.92683314  0.68565965  0.42701076  1
  O  O526  1  0.92836547  0.68664868  0.67746484  1
  O  O527  1  0.92873415  0.68641489  0.92564973  1
  O  O528  1  0.17703556  0.02020344  0.19855004  1
  O  O529  1  0.17714378  0.02122296  0.44916748  1
  O  O530  1  0.17619319  0.01999657  0.69977672  1
  O  O531  1  0.17651094  0.01912807  0.94870538  1
  O  O532  1  0.17821639  0.35230008  0.19796779  1
  O  O533  1  0.17735120  0.35303996  0.44778312  1
  O  O534  1  0.17761452  0.35298050  0.69782054  1
  O  O535  1  0.17661829  0.35446137  0.94998686  1
  O  O536  1  0.17616726  0.68425676  0.19859656  1
  O  O537  1  0.17595844  0.68586025  0.45146993  1
  O  O538  1  0.17656886  0.68735046  0.69994983  1
  O  O539  1  0.17576544  0.68624501  0.94961765  1
  O  O540  1  0.67573056  0.02046517  0.20075808  1
  O  O541  1  0.67678762  0.02027505  0.45062692  1
  O  O542  1  0.67772071  0.01877082  0.69925109  1
  O  O543  1  0.67622621  0.01962674  0.95065686  1
  O  O544  1  0.67608924  0.35374525  0.19945567  1
  O  O545  1  0.67708574  0.35265570  0.45015484  1
  O  O546  1  0.67816745  0.35374782  0.69891472  1
  O  O547  1  0.67798685  0.35373884  0.94747627  1
  O  O548  1  0.67768881  0.68602492  0.19814129  1
  O  O549  1  0.67664670  0.68635703  0.45051140  1
  O  O550  1  0.67689934  0.68478711  0.69940865  1
  O  O551  1  0.67700577  0.68505008  0.94953683  1
  O  O552  1  0.32151783  0.31403198  0.05196629  1
  O  O553  1  0.32238960  0.31357660  0.30019111  1
  O  O554  1  0.32331588  0.31492847  0.55020319  1
  O  O555  1  0.32385141  0.31413120  0.80057700  1
  O  O556  1  0.32099337  0.64665604  0.05138363  1
  O  O557  1  0.32241158  0.64499628  0.29989689  1
  O  O558  1  0.32331526  0.64446839  0.55020127  1
  O  O559  1  0.32235158  0.64520870  0.80011061  1
  O  O560  1  0.32242983  0.98125000  0.05140573  1
  O  O561  1  0.32373787  0.97970984  0.29944500  1
  O  O562  1  0.32296307  0.97885580  0.54993619  1
  O  O563  1  0.32281828  0.98111064  0.80035870  1
  O  O564  1  0.82402738  0.31461026  0.04932078  1
  O  O565  1  0.82363089  0.31541477  0.30132549  1
  O  O566  1  0.82398102  0.31558434  0.55157533  1
  O  O567  1  0.82390870  0.31528014  0.80069889  1
  O  O568  1  0.82322694  0.64765969  0.05018395  1
  O  O569  1  0.82429092  0.64717397  0.30032163  1
  O  O570  1  0.82262719  0.64689471  0.55247928  1
  O  O571  1  0.82249270  0.64689463  0.80161870  1
  O  O572  1  0.82297182  0.97870414  0.05033293  1
  O  O573  1  0.82434729  0.97960919  0.29924719  1
  O  O574  1  0.82318037  0.98178154  0.55199451  1
  O  O575  1  0.82422935  0.97993751  0.80057220  1
  O  O576  1  0.42600489  0.14660761  0.17520897  1
  O  O577  1  0.42669174  0.14473782  0.42553379  1
  O  O578  1  0.42583275  0.14620743  0.67386104  1
  O  O579  1  0.42540730  0.14705115  0.92484276  1
  O  O580  1  0.42659923  0.48063772  0.17383226  1
  O  O581  1  0.42576581  0.48006687  0.42535996  1
  O  O582  1  0.42854156  0.48070538  0.67767335  1
  O  O583  1  0.42756299  0.48058464  0.92599095  1
  O  O584  1  0.42635800  0.81383092  0.17579942  1
  O  O585  1  0.42611253  0.81155892  0.42588152  1
  O  O586  1  0.42684268  0.81193804  0.67564177  1
  O  O587  1  0.42714113  0.81283019  0.92616642  1
  O  O588  1  0.92568107  0.14651415  0.17471544  1
  O  O589  1  0.92842269  0.14795250  0.42742581  1
  O  O590  1  0.92775539  0.14738205  0.67650481  1
  O  O591  1  0.92745111  0.14709314  0.92589760  1
  O  O592  1  0.92723110  0.47925247  0.17461001  1
  O  O593  1  0.92712281  0.48169468  0.42557800  1
  O  O594  1  0.92739178  0.48197016  0.67581158  1
  O  O595  1  0.92732839  0.48184596  0.92484672  1
  O  O596  1  0.92686699  0.81327444  0.17441925  1
  O  O597  1  0.92649325  0.81280766  0.42632946  1
  O  O598  1  0.92758139  0.81397531  0.67633944  1
  O  O599  1  0.92736293  0.81362842  0.92562066  1
  O  O600  1  0.07281298  0.18527055  0.07410594  1
  O  O601  1  0.07302529  0.18795206  0.32424396  1
  O  O602  1  0.07349959  0.18572606  0.57386160  1
  O  O603  1  0.07346533  0.18528615  0.82402716  1
  O  O604  1  0.07209541  0.51922710  0.07255618  1
  O  O605  1  0.07408345  0.52017850  0.32496934  1
  O  O606  1  0.07218076  0.52019967  0.57354682  1
  O  O607  1  0.07261783  0.52052170  0.82297218  1
  O  O608  1  0.07262245  0.85314874  0.07282349  1
  O  O609  1  0.07387729  0.85366396  0.32573170  1
  O  O610  1  0.07307969  0.85459827  0.57594554  1
  O  O611  1  0.07281341  0.85341808  0.82397601  1
  O  O612  1  0.57311524  0.18759641  0.07407752  1
  O  O613  1  0.57355647  0.18573458  0.32551446  1
  O  O614  1  0.57415562  0.18702341  0.57651557  1
  O  O615  1  0.57304282  0.18800567  0.82542051  1
  O  O616  1  0.57291711  0.51998679  0.07256416  1
  O  O617  1  0.57385572  0.51986964  0.32523661  1
  O  O618  1  0.57278742  0.52091829  0.57603292  1
  O  O619  1  0.57151116  0.51970184  0.82346593  1
  O  O620  1  0.57296112  0.85112912  0.07364523  1
  O  O621  1  0.57308365  0.85067144  0.32462117  1
  O  O622  1  0.57331810  0.85305654  0.57524599  1
  O  O623  1  0.57423351  0.85214152  0.82534760  1
  O  O624  1  0.32181091  0.18649977  0.05174637  1
  O  O625  1  0.32186711  0.18633411  0.30100184  1
  O  O626  1  0.32323800  0.18802280  0.54954830  1
  O  O627  1  0.32390173  0.18733373  0.79941462  1
  O  O628  1  0.32192106  0.51932686  0.05141487  1
  O  O629  1  0.32293125  0.51800381  0.29956080  1
  O  O630  1  0.32300587  0.51744752  0.55104531  1
  O  O631  1  0.32238258  0.51811005  0.80133369  1
  O  O632  1  0.32230795  0.85409902  0.04972797  1
  O  O633  1  0.32292378  0.85272542  0.29855217  1
  O  O634  1  0.32295879  0.85151752  0.55086467  1
  O  O635  1  0.32312532  0.85399810  0.80113705  1
  O  O636  1  0.82381740  0.18766621  0.04916307  1
  O  O637  1  0.82346525  0.18813424  0.30134647  1
  O  O638  1  0.82381776  0.18853765  0.55062690  1
  O  O639  1  0.82345600  0.18809249  0.79985490  1
  O  O640  1  0.82270628  0.52076568  0.04956678  1
  O  O641  1  0.82441618  0.52035572  0.29949678  1
  O  O642  1  0.82185109  0.51951597  0.55299399  1
  O  O643  1  0.82158141  0.51980827  0.80150542  1
  O  O644  1  0.82299284  0.85131836  0.05105036  1
  O  O645  1  0.82415530  0.85270436  0.30048808  1
  O  O646  1  0.82438016  0.85451841  0.55112665  1
  O  O647  1  0.82434197  0.85299580  0.79915456  1
  O  O648  1  0.17735594  0.14754998  0.19778416  1
  O  O649  1  0.17710611  0.14853934  0.44834812  1
  O  O650  1  0.17633320  0.14689490  0.70035556  1
  O  O651  1  0.17710145  0.14620422  0.95005199  1
  O  O652  1  0.17665014  0.47943519  0.19872271  1
  O  O653  1  0.17791169  0.48014813  0.44801950  1
  O  O654  1  0.17792778  0.48021506  0.69719351  1
  O  O655  1  0.17664874  0.48136381  0.94877203  1
  O  O656  1  0.17548784  0.81154286  0.19957057  1
  O  O657  1  0.17585237  0.81277450  0.45022779  1
  O  O658  1  0.17718991  0.81470042  0.69903619  1
  O  O659  1  0.17595881  0.81306667  0.95103535  1
  O  O660  1  0.67615136  0.14755258  0.20027055  1
  O  O661  1  0.67655482  0.14718906  0.45221880  1
  O  O662  1  0.67682847  0.14613825  0.70015878  1
  O  O663  1  0.67585711  0.14669709  0.94977243  1
  O  O664  1  0.67573618  0.48052825  0.20016094  1
  O  O665  1  0.67721893  0.47968751  0.45063460  1
  O  O666  1  0.67886958  0.48094817  0.69894280  1
  O  O667  1  0.67844034  0.48113805  0.94683870  1
  O  O668  1  0.67826866  0.81342113  0.19777436  1
  O  O669  1  0.67677845  0.81324099  0.45134255  1
  O  O670  1  0.67699135  0.81188122  0.70070114  1
  O  O671  1  0.67754864  0.81190899  0.94967412  1
