# generated using pymatgen
data_Na2MnFe(PO4)2
_symmetry_space_group_name_H-M   'P 1'
_cell_length_a   22.34311660
_cell_length_b   20.09288529
_cell_length_c   19.45025542
_cell_angle_alpha   89.96969475
_cell_angle_beta   89.97270048
_cell_angle_gamma   90.02655497
_symmetry_Int_Tables_number   1
_chemical_formula_structural   Na2MnFe(PO4)2
_chemical_formula_sum   'Na96 Mn48 Fe48 P96 O384'
_cell_volume   8731.94937108
_cell_formula_units_Z   48
loop_
 _symmetry_equiv_pos_site_id
 _symmetry_equiv_pos_as_xyz
  1  'x, y, z'
loop_
 _atom_site_type_symbol
 _atom_site_label
 _atom_site_symmetry_multiplicity
 _atom_site_fract_x
 _atom_site_fract_y
 _atom_site_fract_z
 _atom_site_occupancy
  Na  Na0  1  0.13992757  0.24921627  0.24354742  1
  Na  Na1  1  0.13987850  0.24860328  0.49427634  1
  Na  Na2  1  0.14028153  0.24972575  0.74425637  1
  Na  Na3  1  0.14061406  0.25153688  0.99491343  1
  Na  Na4  1  0.14104023  0.58379472  0.24425841  1
  Na  Na5  1  0.14029279  0.58405043  0.49439862  1
  Na  Na6  1  0.13997037  0.58307134  0.74382827  1
  Na  Na7  1  0.14019546  0.58377112  0.99343053  1
  Na  Na8  1  0.14046302  0.91636483  0.24387678  1
  Na  Na9  1  0.14060886  0.91581181  0.49405658  1
  Na  Na10  1  0.14012277  0.91658944  0.74303745  1
  Na  Na11  1  0.14011235  0.91766957  0.99374052  1
  Na  Na12  1  0.64084901  0.25044749  0.24294354  1
  Na  Na13  1  0.64047055  0.25100978  0.49358204  1
  Na  Na14  1  0.64048593  0.24914048  0.74399963  1
  Na  Na15  1  0.64084640  0.24974876  0.99277886  1
  Na  Na16  1  0.64077638  0.58356117  0.24308421  1
  Na  Na17  1  0.64061490  0.58348521  0.49347703  1
  Na  Na18  1  0.64027486  0.58342758  0.74570562  1
  Na  Na19  1  0.64041339  0.58247378  0.99311637  1
  Na  Na20  1  0.64114423  0.91656437  0.24246017  1
  Na  Na21  1  0.64037859  0.91700724  0.49351091  1
  Na  Na22  1  0.64017078  0.91773976  0.74245871  1
  Na  Na23  1  0.64082691  0.91644025  0.99276515  1
  Na  Na24  1  0.35928393  0.08373684  0.00516845  1
  Na  Na25  1  0.35945892  0.08197098  0.25516536  1
  Na  Na26  1  0.35991850  0.08205917  0.50696114  1
  Na  Na27  1  0.36031281  0.08241391  0.75653497  1
  Na  Na28  1  0.36010855  0.41723514  0.00674152  1
  Na  Na29  1  0.36053830  0.41678763  0.25633105  1
  Na  Na30  1  0.35984784  0.41606324  0.50584820  1
  Na  Na31  1  0.35920917  0.41581839  0.75696660  1
  Na  Na32  1  0.35950161  0.75083884  0.00527186  1
  Na  Na33  1  0.35950866  0.75032742  0.25561569  1
  Na  Na34  1  0.35998213  0.75004180  0.50621033  1
  Na  Na35  1  0.35983238  0.74887593  0.75600236  1
  Na  Na36  1  0.85868997  0.08265045  0.00608539  1
  Na  Na37  1  0.86002481  0.08321529  0.25624036  1
  Na  Na38  1  0.85998986  0.08416572  0.50629015  1
  Na  Na39  1  0.85926546  0.08391170  0.75581349  1
  Na  Na40  1  0.85959839  0.41671887  0.00690397  1
  Na  Na41  1  0.85947748  0.41691036  0.25723683  1
  Na  Na42  1  0.85962130  0.41693486  0.50698344  1
  Na  Na43  1  0.85940035  0.41676627  0.75883527  1
  Na  Na44  1  0.85896586  0.74978260  0.00724850  1
  Na  Na45  1  0.85910457  0.74921975  0.25485566  1
  Na  Na46  1  0.85904604  0.75028767  0.50563625  1
  Na  Na47  1  0.85917559  0.75076166  0.75725539  1
  Na  Na48  1  0.10961182  0.08226739  0.11910797  1
  Na  Na49  1  0.10922666  0.08398835  0.36944669  1
  Na  Na50  1  0.10956532  0.08333784  0.61933172  1
  Na  Na51  1  0.10959764  0.08467377  0.86875882  1
  Na  Na52  1  0.10977155  0.41594237  0.11934308  1
  Na  Na53  1  0.10919366  0.41607540  0.36942582  1
  Na  Na54  1  0.10877503  0.41569042  0.62013725  1
  Na  Na55  1  0.10933777  0.41787775  0.86925432  1
  Na  Na56  1  0.10975289  0.75024427  0.11852124  1
  Na  Na57  1  0.11015886  0.75089737  0.36875433  1
  Na  Na58  1  0.10983096  0.74981531  0.61764099  1
  Na  Na59  1  0.10918945  0.75139286  0.86826485  1
  Na  Na60  1  0.61037276  0.08409429  0.11742394  1
  Na  Na61  1  0.61019150  0.08485308  0.36836001  1
  Na  Na62  1  0.61026126  0.08361131  0.61837641  1
  Na  Na63  1  0.61002071  0.08235411  0.86699278  1
  Na  Na64  1  0.60999534  0.41777262  0.11819966  1
  Na  Na65  1  0.60984513  0.41686836  0.36849799  1
  Na  Na66  1  0.60969567  0.41671765  0.62014267  1
  Na  Na67  1  0.61025398  0.41662690  0.86891079  1
  Na  Na68  1  0.61024254  0.74876048  0.11724482  1
  Na  Na69  1  0.61001470  0.74952415  0.36791182  1
  Na  Na70  1  0.60993526  0.74994359  0.61966211  1
  Na  Na71  1  0.60963175  0.74970082  0.86869607  1
  Na  Na72  1  0.39054741  0.25183723  0.13079539  1
  Na  Na73  1  0.39070475  0.25026310  0.38038846  1
  Na  Na74  1  0.39054193  0.24882119  0.63142309  1
  Na  Na75  1  0.39050870  0.24944396  0.88128201  1
  Na  Na76  1  0.39061961  0.58275844  0.13049688  1
  Na  Na77  1  0.39072366  0.58308212  0.38158289  1
  Na  Na78  1  0.39027312  0.58413281  0.63129361  1
  Na  Na79  1  0.39043995  0.58242380  0.88168085  1
  Na  Na80  1  0.38982863  0.91632444  0.13084108  1
  Na  Na81  1  0.39045916  0.91590703  0.38091406  1
  Na  Na82  1  0.39126244  0.91539353  0.63209083  1
  Na  Na83  1  0.39007796  0.91530047  0.88037843  1
  Na  Na84  1  0.89011487  0.24877291  0.13218017  1
  Na  Na85  1  0.89040681  0.24949911  0.38131524  1
  Na  Na86  1  0.89004974  0.24944022  0.63229218  1
  Na  Na87  1  0.88958760  0.25131044  0.88190793  1
  Na  Na88  1  0.88961303  0.58217026  0.13171647  1
  Na  Na89  1  0.88973216  0.58321567  0.38127070  1
  Na  Na90  1  0.89015059  0.58215430  0.63157985  1
  Na  Na91  1  0.88983921  0.58388619  0.88293766  1
  Na  Na92  1  0.88984468  0.91699484  0.13129688  1
  Na  Na93  1  0.89002924  0.91845453  0.38074548  1
  Na  Na94  1  0.88994926  0.91790259  0.63080977  1
  Na  Na95  1  0.88981380  0.91806843  0.88109518  1
  Mn  Mn96  1  0.25036052  0.16537579  0.37434946  1
  Mn  Mn97  1  0.75005973  0.83389025  0.87549011  1
  Mn  Mn98  1  -0.00086628  0.83409030  0.24999167  1
  Mn  Mn99  1  0.24959853  0.50080666  0.37559221  1
  Mn  Mn100  1  -0.00088600  -0.00014274  -0.00011437  1
  Mn  Mn101  1  0.74952815  0.33301598  0.62573097  1
  Mn  Mn102  1  0.24962952  -0.00012343  0.87464391  1
  Mn  Mn103  1  0.49911203  0.50023549  0.75005396  1
  Mn  Mn104  1  0.25056085  0.50012736  0.12535900  1
  Mn  Mn105  1  0.50012596  -0.00054096  0.49971642  1
  Mn  Mn106  1  -0.00070042  0.66582907  0.49982588  1
  Mn  Mn107  1  0.49989633  -0.00036093  -0.00121132  1
  Mn  Mn108  1  0.00067135  0.49894481  0.25071176  1
  Mn  Mn109  1  0.50075085  0.00037331  0.24973102  1
  Mn  Mn110  1  -0.00052455  0.33300831  0.50084077  1
  Mn  Mn111  1  0.25022125  0.16666406  0.12518065  1
  Mn  Mn112  1  0.75050899  0.83299768  0.37382596  1
  Mn  Mn113  1  0.25012401  0.33338324  0.87498841  1
  Mn  Mn114  1  0.75033268  0.33341659  0.37501852  1
  Mn  Mn115  1  0.24944246  0.66714359  0.87475718  1
  Mn  Mn116  1  0.24999969  0.33269848  0.37557058  1
  Mn  Mn117  1  0.49994131  0.16753214  0.49918049  1
  Mn  Mn118  1  0.00024261  0.66629969  0.24968230  1
  Mn  Mn119  1  0.74927781  0.83472429  0.62535616  1
  Mn  Mn120  1  0.25028565  0.66799666  0.12419998  1
  Mn  Mn121  1  0.24976916  0.33201884  0.62603149  1
  Mn  Mn122  1  0.49940901  0.33265856  0.74995213  1
  Mn  Mn123  1  0.49973894  0.16710727  -0.00078768  1
  Mn  Mn124  1  0.75000622  0.00113525  0.37366778  1
  Mn  Mn125  1  -0.00076916  0.83466909  0.74901419  1
  Mn  Mn126  1  0.75002637  0.50032268  0.62614096  1
  Mn  Mn127  1  0.49960193  0.66556250  0.24945576  1
  Mn  Mn128  1  0.50107440  0.66711741  0.50033656  1
  Mn  Mn129  1  0.00013107  0.33406543  0.00101669  1
  Mn  Mn130  1  0.50043048  0.49916624  0.50072980  1
  Mn  Mn131  1  0.24967715  0.50031771  0.62497990  1
  Mn  Mn132  1  0.75048577  0.66680418  0.62548117  1
  Mn  Mn133  1  0.24995430  -0.00197409  0.37596934  1
  Mn  Mn134  1  0.50064292  0.83307201  0.24939653  1
  Mn  Mn135  1  0.50055389  0.83234956  -0.00054583  1
  Mn  Mn136  1  0.75028579  0.33306701  0.12508278  1
  Mn  Mn137  1  0.25026221  -0.00094311  0.62556019  1
  Mn  Mn138  1  -0.00004324  0.16696271  0.00047709  1
  Mn  Mn139  1  -0.00057419  0.83447395  0.49933835  1
  Mn  Mn140  1  0.49984051  0.16823093  0.24869061  1
  Mn  Mn141  1  -0.00008323  0.66663493  -0.00034528  1
  Mn  Mn142  1  -0.00058158  0.16708493  0.75039771  1
  Mn  Mn143  1  -0.00075503  0.66638562  0.74984275  1
  Fe  Fe144  1  0.74996696  0.16680240  0.37467109  1
  Fe  Fe145  1  0.74993728  0.66592155  0.12519369  1
  Fe  Fe146  1  0.50075906  0.33370340  0.00007619  1
  Fe  Fe147  1  0.50061626  0.16641151  0.74972968  1
  Fe  Fe148  1  0.74985437  0.50053622  0.37513224  1
  Fe  Fe149  1  -0.00017748  0.00061849  0.74967507  1
  Fe  Fe150  1  0.50007446  0.33340362  0.49975222  1
  Fe  Fe151  1  0.24986090  -0.00034043  0.12465103  1
  Fe  Fe152  1  0.74995677  0.50020451  0.12530173  1
  Fe  Fe153  1  0.74978352  0.00030034  0.12419485  1
  Fe  Fe154  1  -0.00016720  0.83390669  -0.00037721  1
  Fe  Fe155  1  0.75035018  0.49993859  0.87619879  1
  Fe  Fe156  1  0.25021028  0.16575176  0.62522564  1
  Fe  Fe157  1  0.24953061  0.83394081  0.12521866  1
  Fe  Fe158  1  0.74958670  0.66667806  0.87616561  1
  Fe  Fe159  1  0.25029447  0.66680414  0.62506883  1
  Fe  Fe160  1  -0.00007518  0.16672870  0.50045039  1
  Fe  Fe161  1  0.49955623  0.66593813  -0.00053473  1
  Fe  Fe162  1  0.50048150  0.66649267  0.75044777  1
  Fe  Fe163  1  0.50075507  0.83309495  0.50045855  1
  Fe  Fe164  1  0.75042527  0.16698279  0.62520725  1
  Fe  Fe165  1  0.00052042  0.00040290  0.25028451  1
  Fe  Fe166  1  0.74982338  0.16595780  0.87465666  1
  Fe  Fe167  1  0.50032836  0.49958182  -0.00007417  1
  Fe  Fe168  1  0.24996279  0.16679917  0.87569583  1
  Fe  Fe169  1  0.75012492  0.16618145  0.12373796  1
  Fe  Fe170  1  0.74971446  0.83295438  0.12422446  1
  Fe  Fe171  1  -0.00020542  0.49915009  0.50052347  1
  Fe  Fe172  1  0.25013974  0.83211445  0.62439722  1
  Fe  Fe173  1  0.50040077  0.49964975  0.24955344  1
  Fe  Fe174  1  0.74973693  0.00035681  0.87457830  1
  Fe  Fe175  1  0.50073448  0.33437419  0.24963820  1
  Fe  Fe176  1  -0.00063484  0.49991843  0.75074153  1
  Fe  Fe177  1  0.25034371  0.33385529  0.12484615  1
  Fe  Fe178  1  0.74962402  0.66678203  0.37444031  1
  Fe  Fe179  1  0.75013589  0.33258374  0.87575351  1
  Fe  Fe180  1  0.25060001  0.83265172  0.37479885  1
  Fe  Fe181  1  0.50019774  0.83255977  0.75006902  1
  Fe  Fe182  1  -0.00024182  0.33355936  0.75045075  1
  Fe  Fe183  1  -0.00037673  0.33278401  0.25059703  1
  Fe  Fe184  1  0.75020511  0.00131737  0.62420311  1
  Fe  Fe185  1  0.00014452  0.00084055  0.49981255  1
  Fe  Fe186  1  0.25024755  0.66755507  0.37476623  1
  Fe  Fe187  1  0.50025231  -0.00067056  0.74917986  1
  Fe  Fe188  1  -0.00034000  0.49993542  0.00062986  1
  Fe  Fe189  1  0.24989545  0.50016448  0.87506434  1
  Fe  Fe190  1  0.24942486  0.83342650  0.87476194  1
  Fe  Fe191  1  0.00017057  0.16643167  0.25098277  1
  P  P192  1  0.04252088  0.24972460  0.10466201  1
  P  P193  1  0.04150504  0.24984581  0.35247619  1
  P  P194  1  0.04179948  0.24879430  0.60324728  1
  P  P195  1  0.04208489  0.25200060  0.85288127  1
  P  P196  1  0.04238487  0.58186887  0.10247928  1
  P  P197  1  0.04297345  0.58286531  0.35375701  1
  P  P198  1  0.04148916  0.58104767  0.60316729  1
  P  P199  1  0.04158921  0.58239241  0.85297765  1
  P  P200  1  0.04180564  0.91584107  0.10260112  1
  P  P201  1  0.04206636  0.91881744  0.35282671  1
  P  P202  1  0.04205600  0.91866185  0.60230110  1
  P  P203  1  0.04198507  0.91838589  0.85226590  1
  P  P204  1  0.54271228  0.25205204  0.10224762  1
  P  P205  1  0.54267095  0.25208486  0.35201016  1
  P  P206  1  0.54237250  0.25103366  0.60244914  1
  P  P207  1  0.54240512  0.24884508  0.85254773  1
  P  P208  1  0.54131556  0.58281456  0.10128846  1
  P  P209  1  0.54248089  0.58161634  0.35202267  1
  P  P210  1  0.54315332  0.58359239  0.60389553  1
  P  P211  1  0.54164209  0.58403638  0.85353450  1
  P  P212  1  0.54326401  0.91647538  0.10225331  1
  P  P213  1  0.54368843  0.91643201  0.35320728  1
  P  P214  1  0.54237254  0.91524271  0.60328331  1
  P  P215  1  0.54151544  0.91594416  0.85082694  1
  P  P216  1  0.45728957  0.08387385  0.14607858  1
  P  P217  1  0.45722719  0.08358701  0.39650509  1
  P  P218  1  0.45913409  0.08331305  0.64810745  1
  P  P219  1  0.45752287  0.08301079  0.89507333  1
  P  P220  1  0.45897639  0.41711191  0.14738561  1
  P  P221  1  0.45800397  0.41544220  0.39683772  1
  P  P222  1  0.45662355  0.41618300  0.64674251  1
  P  P223  1  0.45870375  0.41612246  0.89858189  1
  P  P224  1  0.45749373  0.74903222  0.14596608  1
  P  P225  1  0.45833314  0.75103397  0.39774051  1
  P  P226  1  0.45905276  0.74982167  0.64848046  1
  P  P227  1  0.45809401  0.74821029  0.89650209  1
  P  P228  1  0.95869722  0.08325797  0.14899538  1
  P  P229  1  0.95876387  0.08404640  0.39795028  1
  P  P230  1  0.95772582  0.08248875  0.64696429  1
  P  P231  1  0.95692616  0.08388593  0.89664806  1
  P  P232  1  0.95738916  0.41518782  0.14810581  1
  P  P233  1  0.95747063  0.41686018  0.39789605  1
  P  P234  1  0.95757258  0.41647875  0.64909741  1
  P  P235  1  0.95760470  0.41842753  0.89763382  1
  P  P236  1  0.95741035  0.75009332  0.14602117  1
  P  P237  1  0.95682967  0.75040050  0.39662374  1
  P  P238  1  0.95658246  0.75004289  0.64660853  1
  P  P239  1  0.95721693  0.75196975  0.89755310  1
  P  P240  1  0.20778371  0.08131891  0.22727503  1
  P  P241  1  0.20763299  0.08255841  0.47885849  1
  P  P242  1  0.20803339  0.08431202  0.72806793  1
  P  P243  1  0.20754031  0.08441782  0.97784307  1
  P  P244  1  0.20792669  0.41563103  0.22771702  1
  P  P245  1  0.20686384  0.41651211  0.47867766  1
  P  P246  1  0.20722316  0.41675556  0.72885954  1
  P  P247  1  0.20796104  0.41792881  0.97786002  1
  P  P248  1  0.20770079  0.75137712  0.22790362  1
  P  P249  1  0.20873638  0.75003899  0.47715545  1
  P  P250  1  0.20799088  0.74974473  0.72658709  1
  P  P251  1  0.20720540  0.75220863  0.97750812  1
  P  P252  1  0.70862903  0.08390814  0.22583881  1
  P  P253  1  0.70814416  0.08507601  0.47768360  1
  P  P254  1  0.70871928  0.08375787  0.72689618  1
  P  P255  1  0.70824183  0.08308040  0.97653441  1
  P  P256  1  0.70850226  0.41818011  0.22767625  1
  P  P257  1  0.70785142  0.41786149  0.47748701  1
  P  P258  1  0.70752385  0.41643359  0.72999488  1
  P  P259  1  0.70928651  0.41638778  0.97723909  1
  P  P260  1  0.70843629  0.74930983  0.22608265  1
  P  P261  1  0.70781537  0.74932562  0.47690404  1
  P  P262  1  0.70755565  0.75021427  0.72904155  1
  P  P263  1  0.70784346  0.74879270  0.97843049  1
  P  P264  1  0.29233657  0.25137277  0.02240891  1
  P  P265  1  0.29274855  0.24998917  0.27121928  1
  P  P266  1  0.29232175  0.24809391  0.52294945  1
  P  P267  1  0.29231322  0.24783474  0.77258447  1
  P  P268  1  0.29260723  0.58365862  0.02122082  1
  P  P269  1  0.29264051  0.58498175  0.27271736  1
  P  P270  1  0.29222830  0.58529371  0.52220603  1
  P  P271  1  0.29216532  0.58251337  0.77246728  1
  P  P272  1  0.29123190  0.91665225  0.02284691  1
  P  P273  1  0.29236751  0.91492186  0.27184234  1
  P  P274  1  0.29281218  0.91435019  0.52276217  1
  P  P275  1  0.29182907  0.91459645  0.77197998  1
  P  P276  1  0.79211861  0.24855663  0.02170824  1
  P  P277  1  0.79217602  0.24859040  0.27211196  1
  P  P278  1  0.79225462  0.24906688  0.52260585  1
  P  P279  1  0.79118518  0.24940813  0.77357282  1
  P  P280  1  0.79096601  0.58323903  0.02317408  1
  P  P281  1  0.79124015  0.58366233  0.27281605  1
  P  P282  1  0.79251271  0.58332803  0.52149325  1
  P  P283  1  0.79150820  0.58372359  0.77482965  1
  P  P284  1  0.79103746  0.91703292  0.02288604  1
  P  P285  1  0.79244227  0.91684261  0.27008473  1
  P  P286  1  0.79208204  0.91853700  0.52215270  1
  P  P287  1  0.79159783  0.91889206  0.77213581  1
  O  O288  1  0.03709476  0.24960388  0.18456722  1
  O  O289  1  0.03628949  0.24954674  0.43246185  1
  O  O290  1  0.03661562  0.24951538  0.68314017  1
  O  O291  1  0.03730344  0.25175856  0.93285974  1
  O  O292  1  0.03758281  0.58212836  0.18246868  1
  O  O293  1  0.03759951  0.58245313  0.43369324  1
  O  O294  1  0.03583591  0.58106909  0.68312206  1
  O  O295  1  0.03661482  0.58238180  0.93296313  1
  O  O296  1  0.03674843  0.91650933  0.18252063  1
  O  O297  1  0.03681435  0.91902709  0.43274733  1
  O  O298  1  0.03666708  0.91869186  0.68223471  1
  O  O299  1  0.03661630  0.91735218  0.93220183  1
  O  O300  1  0.53756175  0.25254742  0.18219923  1
  O  O301  1  0.53742516  0.25191187  0.43196748  1
  O  O302  1  0.53705357  0.24987564  0.68239193  1
  O  O303  1  0.53716181  0.24941804  0.93245402  1
  O  O304  1  0.53664518  0.58207721  0.18127022  1
  O  O305  1  0.53776647  0.58187322  0.43198481  1
  O  O306  1  0.53762608  0.58421681  0.68380993  1
  O  O307  1  0.53610188  0.58382605  0.93341362  1
  O  O308  1  0.53857255  0.91655023  0.18224666  1
  O  O309  1  0.53851876  0.91583822  0.43323163  1
  O  O310  1  0.53670484  0.91540380  0.68315949  1
  O  O311  1  0.53702690  0.91625122  0.93081579  1
  O  O312  1  0.46223083  0.08381840  0.06605948  1
  O  O313  1  0.46222222  0.08379747  0.31654140  1
  O  O314  1  0.46362397  0.08322514  0.56809083  1
  O  O315  1  0.46305131  0.08303876  0.81515088  1
  O  O316  1  0.46429407  0.41687884  0.06751027  1
  O  O317  1  0.46350821  0.41598099  0.31693374  1
  O  O318  1  0.46184564  0.41574322  0.56682084  1
  O  O319  1  0.46286327  0.41633371  0.81858849  1
  O  O320  1  0.46254975  0.74843557  0.06601206  1
  O  O321  1  0.46317717  0.75056628  0.31776696  1
  O  O322  1  0.46437089  0.75052510  0.56854882  1
  O  O323  1  0.46361185  0.74847375  0.81662165  1
  O  O324  1  0.96336230  0.08334502  0.06900415  1
  O  O325  1  0.96440242  0.08414730  0.31808181  1
  O  O326  1  0.96329161  0.08288824  0.56711921  1
  O  O327  1  0.96202758  0.08357718  0.81673566  1
  O  O328  1  0.96248138  0.41610991  0.06816358  1
  O  O329  1  0.96294412  0.41585630  0.31801376  1
  O  O330  1  0.96258874  0.41664548  0.56909126  1
  O  O331  1  0.96273510  0.41852009  0.81776558  1
  O  O332  1  0.96295212  0.75050217  0.06607866  1
  O  O333  1  0.96207525  0.75037713  0.31664347  1
  O  O334  1  0.96166462  0.74985289  0.56665167  1
  O  O335  1  0.96210579  0.75173954  0.81755046  1
  O  O336  1  0.21310741  0.08333955  0.05771507  1
  O  O337  1  0.21302260  0.08122789  0.30720997  1
  O  O338  1  0.21296211  0.08305211  0.55881098  1
  O  O339  1  0.21323748  0.08453143  0.80801604  1
  O  O340  1  0.21334945  0.41721665  0.05780670  1
  O  O341  1  0.21273430  0.41605178  0.30770605  1
  O  O342  1  0.21199802  0.41628855  0.55862926  1
  O  O343  1  0.21271149  0.41722476  0.80879490  1
  O  O344  1  0.21246410  0.75241686  0.05742210  1
  O  O345  1  0.21315291  0.75073406  0.30777242  1
  O  O346  1  0.21396240  0.74980059  0.55707667  1
  O  O347  1  0.21273718  0.75015461  0.80655810  1
  O  O348  1  0.71353149  0.08261404  0.05639327  1
  O  O349  1  0.71344352  0.08437203  0.30580871  1
  O  O350  1  0.71369166  0.08478201  0.55753557  1
  O  O351  1  0.71378758  0.08359895  0.80678489  1
  O  O352  1  0.71382155  0.41643708  0.05720689  1
  O  O353  1  0.71370581  0.41852008  0.30758144  1
  O  O354  1  0.71265608  0.41737760  0.55749766  1
  O  O355  1  0.71285562  0.41612002  0.80986466  1
  O  O356  1  0.71334814  0.74891523  0.05826937  1
  O  O357  1  0.71339805  0.74918388  0.30603903  1
  O  O358  1  0.71295242  0.74988039  0.55686154  1
  O  O359  1  0.71295367  0.74995373  0.80897193  1
  O  O360  1  0.28750271  0.25085874  0.19127792  1
  O  O361  1  0.28728978  0.24833690  0.44297226  1
  O  O362  1  0.28698785  0.24760816  0.69265462  1
  O  O363  1  0.28703270  0.25086044  0.94248043  1
  O  O364  1  0.28743629  0.58464490  0.19273960  1
  O  O365  1  0.28685558  0.58563257  0.44227640  1
  O  O366  1  0.28702307  0.58313882  0.69252995  1
  O  O367  1  0.28710148  0.58308681  0.94132598  1
  O  O368  1  0.28679846  0.91554610  0.19197401  1
  O  O369  1  0.28782817  0.91424411  0.44279459  1
  O  O370  1  0.28671482  0.91437570  0.69206753  1
  O  O371  1  0.28598907  0.91652887  0.94289039  1
  O  O372  1  0.78698631  0.24871795  0.19219543  1
  O  O373  1  0.78723088  0.24927429  0.44264738  1
  O  O374  1  0.78641933  0.24957818  0.69359194  1
  O  O375  1  0.78673403  0.24878126  0.94186152  1
  O  O376  1  0.78603982  0.58356300  0.19291502  1
  O  O377  1  0.78718345  0.58318594  0.44159977  1
  O  O378  1  0.78696658  0.58330114  0.69483038  1
  O  O379  1  0.78596045  0.58313531  0.94332294  1
  O  O380  1  0.78687482  0.91696288  0.19022871  1
  O  O381  1  0.78725849  0.91824569  0.44216494  1
  O  O382  1  0.78632747  0.91918135  0.69221661  1
  O  O383  1  0.78630528  0.91724816  0.94288202  1
  O  O384  1  0.22818387  0.25154803  0.05837696  1
  O  O385  1  0.22838390  0.24947327  0.30655512  1
  O  O386  1  0.22791791  0.24781800  0.55833956  1
  O  O387  1  0.22806425  0.24832189  0.80842064  1
  O  O388  1  0.22842587  0.58370264  0.05690710  1
  O  O389  1  0.22830781  0.58548108  0.30830430  1
  O  O390  1  0.22801220  0.58546219  0.55815390  1
  O  O391  1  0.22785262  0.58187404  0.80821274  1
  O  O392  1  0.22713781  0.91688037  0.05913730  1
  O  O393  1  0.22824363  0.91411513  0.30817300  1
  O  O394  1  0.22841155  0.91468958  0.55818044  1
  O  O395  1  0.22754318  0.91503904  0.80770157  1
  O  O396  1  0.72799135  0.24873349  0.05787979  1
  O  O397  1  0.72796214  0.24886053  0.30802618  1
  O  O398  1  0.72793285  0.24862960  0.55825298  1
  O  O399  1  0.72709060  0.24886603  0.80960498  1
  O  O400  1  0.72689491  0.58368807  0.05949532  1
  O  O401  1  0.72721479  0.58386157  0.30934908  1
  O  O402  1  0.72825703  0.58349179  0.55722909  1
  O  O403  1  0.72724704  0.58405028  0.81042341  1
  O  O404  1  0.72691503  0.91747697  0.05878309  1
  O  O405  1  0.72835501  0.91693786  0.30617105  1
  O  O406  1  0.72773993  0.91902242  0.55764002  1
  O  O407  1  0.72738928  0.91815526  0.80799909  1
  O  O408  1  0.27202446  0.08141684  0.19153167  1
  O  O409  1  0.27194414  0.08215138  0.44342800  1
  O  O410  1  0.27230699  0.08399250  0.69229077  1
  O  O411  1  0.27170740  0.08453682  0.94174536  1
  O  O412  1  0.27237591  0.41548169  0.19243620  1
  O  O413  1  0.27129478  0.41673564  0.44357612  1
  O  O414  1  0.27148455  0.41647949  0.69333167  1
  O  O415  1  0.27217594  0.41824734  0.94192799  1
  O  O416  1  0.27185143  0.75208235  0.19169758  1
  O  O417  1  0.27280528  0.75004234  0.44063913  1
  O  O418  1  0.27232723  0.74936491  0.69083725  1
  O  O419  1  0.27145607  0.75181604  0.94169462  1
  O  O420  1  0.77284329  0.08325692  0.18994408  1
  O  O421  1  0.77225455  0.08535417  0.44132330  1
  O  O422  1  0.77275530  0.08390476  0.69035691  1
  O  O423  1  0.77232946  0.08345813  0.94017516  1
  O  O424  1  0.77266983  0.41766914  0.19181021  1
  O  O425  1  0.77216344  0.41812865  0.44198008  1
  O  O426  1  0.77170182  0.41637437  0.69407616  1
  O  O427  1  0.77340284  0.41652453  0.94146949  1
  O  O428  1  0.77251084  0.74878397  0.18995090  1
  O  O429  1  0.77209740  0.74828800  0.44116313  1
  O  O430  1  0.77177128  0.75089958  0.69338126  1
  O  O431  1  0.77195914  0.74877812  0.94219649  1
  O  O432  1  0.02294594  0.08356050  0.18462503  1
  O  O433  1  0.02265615  0.08400968  0.43475143  1
  O  O434  1  0.02179306  0.08245562  0.68334078  1
  O  O435  1  0.02129998  0.08350657  0.93180977  1
  O  O436  1  0.02175677  0.41419959  0.18355670  1
  O  O437  1  0.02163354  0.41733279  0.43391028  1
  O  O438  1  0.02178842  0.41629978  0.68497405  1
  O  O439  1  0.02182683  0.41874991  0.93361411  1
  O  O440  1  0.02159922  0.75039797  0.18170370  1
  O  O441  1  0.02119015  0.75043819  0.43176758  1
  O  O442  1  0.02102429  0.75017454  0.68155130  1
  O  O443  1  0.02163202  0.75190882  0.93277869  1
  O  O444  1  0.52178960  0.08421279  0.18092709  1
  O  O445  1  0.52166052  0.08349277  0.43149287  1
  O  O446  1  0.52335918  0.08391614  0.68366386  1
  O  O447  1  0.52175050  0.08329089  0.93075626  1
  O  O448  1  0.52305791  0.41749314  0.18379563  1
  O  O449  1  0.52216865  0.41494591  0.43306384  1
  O  O450  1  0.52095219  0.41651269  0.68201017  1
  O  O451  1  0.52310142  0.41567102  0.93381255  1
  O  O452  1  0.52188226  0.74887265  0.18111844  1
  O  O453  1  0.52276919  0.75166523  0.43301477  1
  O  O454  1  0.52311501  0.74975492  0.68470810  1
  O  O455  1  0.52220798  0.74779796  0.93264456  1
  O  O456  1  0.47839142  0.25228460  0.06669591  1
  O  O457  1  0.47840534  0.25237997  0.31629808  1
  O  O458  1  0.47809472  0.25184287  0.56668510  1
  O  O459  1  0.47813438  0.24781486  0.81683110  1
  O  O460  1  0.47713114  0.58304002  0.06560646  1
  O  O461  1  0.47805193  0.58107638  0.31676362  1
  O  O462  1  0.47893235  0.58343307  0.56833920  1
  O  O463  1  0.47760248  0.58455806  0.81719344  1
  O  O464  1  0.47869531  0.91605032  0.06762218  1
  O  O465  1  0.47923430  0.91657686  0.31813787  1
  O  O466  1  0.47832059  0.91466530  0.56686562  1
  O  O467  1  0.47725567  0.91547895  0.81538416  1
  O  O468  1  0.97826369  0.25002632  0.06899982  1
  O  O469  1  0.97742735  0.24974400  0.31621291  1
  O  O470  1  0.97755251  0.24847292  0.56750754  1
  O  O471  1  0.97767854  0.25196554  0.81761164  1
  O  O472  1  0.97793584  0.58196209  0.06729822  1
  O  O473  1  0.97861938  0.58276411  0.31846731  1
  O  O474  1  0.97738222  0.58092498  0.56705790  1
  O  O475  1  0.97724663  0.58244157  0.81755010  1
  O  O476  1  0.97747329  0.91521694  0.06697089  1
  O  O477  1  0.97777642  0.91906672  0.31718625  1
  O  O478  1  0.97782285  0.91892444  0.56652713  1
  O  O479  1  0.97768118  0.91915876  0.81653061  1
  O  O480  1  0.07388566  0.31301590  0.07618765  1
  O  O481  1  0.07203090  0.31385246  0.32452463  1
  O  O482  1  0.07299706  0.31225759  0.57501722  1
  O  O483  1  0.07260192  0.31563377  0.82429017  1
  O  O484  1  0.07356868  0.64538975  0.07444283  1
  O  O485  1  0.07381845  0.64655824  0.32554665  1
  O  O486  1  0.07248384  0.64499906  0.57571600  1
  O  O487  1  0.07246650  0.64635018  0.82520216  1
  O  O488  1  0.07269109  0.97948984  0.07437801  1
  O  O489  1  0.07322137  0.98202827  0.32400914  1
  O  O490  1  0.07337182  0.98176306  0.57368281  1
  O  O491  1  0.07293094  0.98205277  0.82427295  1
  O  O492  1  0.57396499  0.31517383  0.07332770  1
  O  O493  1  0.57389604  0.31528458  0.32338074  1
  O  O494  1  0.57330493  0.31473307  0.57450323  1
  O  O495  1  0.57305630  0.31268781  0.82458387  1
  O  O496  1  0.57218057  0.64654881  0.07328076  1
  O  O497  1  0.57301493  0.64555804  0.32399591  1
  O  O498  1  0.57455634  0.64669448  0.57515750  1
  O  O499  1  0.57295902  0.64725972  0.82490319  1
  O  O500  1  0.57393326  0.98006335  0.07380707  1
  O  O501  1  0.57452834  0.98028285  0.32528941  1
  O  O502  1  0.57324511  0.97908881  0.57530341  1
  O  O503  1  0.57177198  0.97989120  0.82215292  1
  O  O504  1  0.42653619  0.02025747  0.17431791  1
  O  O505  1  0.42615817  0.02012306  0.42478528  1
  O  O506  1  0.42902966  0.01902133  0.67621867  1
  O  O507  1  0.42642549  0.01937877  0.92325693  1
  O  O508  1  0.42819274  0.35350058  0.17601605  1
  O  O509  1  0.42689973  0.35205103  0.42543088  1
  O  O510  1  0.42547036  0.35294140  0.67544615  1
  O  O511  1  0.42766531  0.35257083  0.92669563  1
  O  O512  1  0.42606490  0.68595708  0.17475220  1
  O  O513  1  0.42783986  0.68706389  0.42577512  1
  O  O514  1  0.42833410  0.68582773  0.67618183  1
  O  O515  1  0.42681859  0.68505500  0.92530925  1
  O  O516  1  0.92827489  0.01921764  0.17695840  1
  O  O517  1  0.92759718  0.02042041  0.42601874  1
  O  O518  1  0.92692582  0.01897295  0.67565185  1
  O  O519  1  0.92537637  0.02081025  0.92522369  1
  O  O520  1  0.92629982  0.35172260  0.17639092  1
  O  O521  1  0.92621018  0.35346235  0.42623914  1
  O  O522  1  0.92705087  0.35244724  0.67724964  1
  O  O523  1  0.92669766  0.35461051  0.92553744  1
  O  O524  1  0.92675389  0.68609955  0.17379504  1
  O  O525  1  0.92574923  0.68693008  0.42468881  1
  O  O526  1  0.92560146  0.68658638  0.67505485  1
  O  O527  1  0.92614398  0.68829544  0.92535823  1
  O  O528  1  0.17710409  0.01781472  0.19871699  1
  O  O529  1  0.17657457  0.01886784  0.45111529  1
  O  O530  1  0.17696798  0.02044981  0.70064640  1
  O  O531  1  0.17605458  0.02128593  0.94933002  1
  O  O532  1  0.17734215  0.35205185  0.19921201  1
  O  O533  1  0.17589484  0.35295949  0.45058229  1
  O  O534  1  0.17619810  0.35295681  0.70127109  1
  O  O535  1  0.17662330  0.35448931  0.94989051  1
  O  O536  1  0.17680439  0.68774128  0.19946368  1
  O  O537  1  0.17762133  0.68659755  0.44865692  1
  O  O538  1  0.17732147  0.68586281  0.69852113  1
  O  O539  1  0.17601103  0.68845329  0.94995096  1
  O  O540  1  0.67738826  0.02033801  0.19794316  1
  O  O541  1  0.67696270  0.02154961  0.44948736  1
  O  O542  1  0.67789962  0.02018039  0.69826658  1
  O  O543  1  0.67751935  0.01945364  0.94766857  1
  O  O544  1  0.67714089  0.35459751  0.20008487  1
  O  O545  1  0.67705046  0.35413344  0.44942998  1
  O  O546  1  0.67619496  0.35320224  0.70128688  1
  O  O547  1  0.67882001  0.35248260  0.94884349  1
  O  O548  1  0.67678703  0.68611557  0.19800597  1
  O  O549  1  0.67648776  0.68603852  0.44870392  1
  O  O550  1  0.67661892  0.68675332  0.70072521  1
  O  O551  1  0.67690385  0.68535739  0.94980964  1
  O  O552  1  0.32290984  0.31516220  0.05068481  1
  O  O553  1  0.32389929  0.31306864  0.30019108  1
  O  O554  1  0.32319834  0.31183168  0.55079239  1
  O  O555  1  0.32359867  0.31162651  0.79997158  1
  O  O556  1  0.32351181  0.64752013  0.04872659  1
  O  O557  1  0.32366653  0.64842305  0.30084340  1
  O  O558  1  0.32338919  0.64836958  0.55125623  1
  O  O559  1  0.32296558  0.64618975  0.80059076  1
  O  O560  1  0.32206401  0.98056391  0.05067362  1
  O  O561  1  0.32322866  0.97858141  0.30021065  1
  O  O562  1  0.32398411  0.97800698  0.55063686  1
  O  O563  1  0.32302040  0.97831190  0.79954322  1
  O  O564  1  0.82359658  0.31185567  0.04997174  1
  O  O565  1  0.82329955  0.31227104  0.29994369  1
  O  O566  1  0.82288257  0.31296912  0.55069052  1
  O  O567  1  0.82132695  0.31347362  0.80215368  1
  O  O568  1  0.82250655  0.64645024  0.05151483  1
  O  O569  1  0.82228925  0.64727962  0.30100822  1
  O  O570  1  0.82379201  0.64670496  0.54989381  1
  O  O571  1  0.82253099  0.64738324  0.80260550  1
  O  O572  1  0.82260211  0.98024081  0.05106522  1
  O  O573  1  0.82376470  0.98011933  0.29859883  1
  O  O574  1  0.82303179  0.98199758  0.55048277  1
  O  O575  1  0.82217833  0.98236510  0.80102800  1
  O  O576  1  0.42620235  0.14741411  0.17392329  1
  O  O577  1  0.42630189  0.14709252  0.42474866  1
  O  O578  1  0.42787792  0.14663989  0.67623426  1
  O  O579  1  0.42607001  0.14609918  0.92371146  1
  O  O580  1  0.42785193  0.48063732  0.17571277  1
  O  O581  1  0.42702385  0.47904991  0.42511217  1
  O  O582  1  0.42556459  0.47979758  0.67471102  1
  O  O583  1  0.42862468  0.48010808  0.92710119  1
  O  O584  1  0.42683977  0.81285757  0.17386068  1
  O  O585  1  0.42745027  0.81436132  0.42630831  1
  O  O586  1  0.42786767  0.81311311  0.67708918  1
  O  O587  1  0.42721108  0.81204687  0.92442317  1
  O  O588  1  0.92764553  0.14668312  0.17726989  1
  O  O589  1  0.92787035  0.14764904  0.42643006  1
  O  O590  1  0.92640816  0.14593482  0.67509912  1
  O  O591  1  0.92640124  0.14766368  0.92485898  1
  O  O592  1  0.92669288  0.47885617  0.17640637  1
  O  O593  1  0.92675938  0.48057359  0.42592922  1
  O  O594  1  0.92657764  0.47988776  0.67754376  1
  O  O595  1  0.92664250  0.48159865  0.92693420  1
  O  O596  1  0.92567613  0.81304105  0.17432220  1
  O  O597  1  0.92573266  0.81399875  0.42438940  1
  O  O598  1  0.92547187  0.81361948  0.67436269  1
  O  O599  1  0.92667156  0.81560620  0.92599042  1
  O  O600  1  0.07351196  0.18630464  0.07604447  1
  O  O601  1  0.07273353  0.18646614  0.32421824  1
  O  O602  1  0.07251583  0.18522037  0.57483740  1
  O  O603  1  0.07310937  0.18840169  0.82502545  1
  O  O604  1  0.07281749  0.51810250  0.07424623  1
  O  O605  1  0.07440672  0.51969022  0.32539743  1
  O  O606  1  0.07249919  0.51770760  0.57470784  1
  O  O607  1  0.07255110  0.51924071  0.82408893  1
  O  O608  1  0.07258057  0.85236719  0.07400690  1
  O  O609  1  0.07276304  0.85486579  0.32520832  1
  O  O610  1  0.07276998  0.85461901  0.57471480  1
  O  O611  1  0.07290179  0.85491080  0.82377905  1
  O  O612  1  0.57330619  0.18803133  0.07467923  1
  O  O613  1  0.57340633  0.18821693  0.32403447  1
  O  O614  1  0.57323739  0.18755342  0.57392357  1
  O  O615  1  0.57355681  0.18553773  0.82403109  1
  O  O616  1  0.57202572  0.51924712  0.07235320  1
  O  O617  1  0.57340915  0.51835280  0.32332667  1
  O  O618  1  0.57415939  0.51984730  0.57630069  1
  O  O619  1  0.57249240  0.52021238  0.82565844  1
  O  O620  1  0.57434303  0.85305508  0.07405986  1
  O  O621  1  0.57491799  0.85332986  0.32437327  1
  O  O622  1  0.57362719  0.85198163  0.57476161  1
  O  O623  1  0.57280679  0.85241378  0.82324666  1
  O  O624  1  0.32373612  0.18793131  0.05018632  1
  O  O625  1  0.32371410  0.18605635  0.29856094  1
  O  O626  1  0.32313187  0.18454273  0.55134632  1
  O  O627  1  0.32298606  0.18453476  0.80158295  1
  O  O628  1  0.32411447  0.52064766  0.04985878  1
  O  O629  1  0.32329874  0.52110339  0.30055342  1
  O  O630  1  0.32307634  0.52127294  0.54950920  1
  O  O631  1  0.32316269  0.51900974  0.80079744  1
  O  O632  1  0.32217950  0.85313604  0.05116326  1
  O  O633  1  0.32371804  0.85170395  0.30035060  1
  O  O634  1  0.32345850  0.85095187  0.55159823  1
  O  O635  1  0.32240651  0.85119853  0.80098626  1
  O  O636  1  0.82276176  0.18488875  0.05033835  1
  O  O637  1  0.82283426  0.18514351  0.30084622  1
  O  O638  1  0.82341030  0.18592985  0.55138824  1
  O  O639  1  0.82271641  0.18614129  0.80154964  1
  O  O640  1  0.82128958  0.51932100  0.05196762  1
  O  O641  1  0.82203132  0.51997349  0.30126386  1
  O  O642  1  0.82355412  0.52000583  0.55039934  1
  O  O643  1  0.82180018  0.51982604  0.80340533  1
  O  O644  1  0.82108858  0.85277695  0.05099982  1
  O  O645  1  0.82355136  0.85332743  0.29833272  1
  O  O646  1  0.82275265  0.85472161  0.55013422  1
  O  O647  1  0.82310596  0.85540520  0.79985003  1
  O  O648  1  0.17667491  0.14503314  0.19982491  1
  O  O649  1  0.17648345  0.14574351  0.45012994  1
  O  O650  1  0.17718939  0.14760008  0.69916093  1
  O  O651  1  0.17699625  0.14843790  0.95016421  1
  O  O652  1  0.17695376  0.47936292  0.19990675  1
  O  O653  1  0.17592025  0.48010452  0.45072519  1
  O  O654  1  0.17591002  0.47987408  0.70036104  1
  O  O655  1  0.17724753  0.48159925  0.94958348  1
  O  O656  1  0.17644603  0.81468315  0.19948709  1
  O  O657  1  0.17792132  0.81377174  0.44889039  1
  O  O658  1  0.17722254  0.81322275  0.69785384  1
  O  O659  1  0.17652250  0.81553900  0.94851300  1
  O  O660  1  0.67814722  0.14763011  0.19712040  1
  O  O661  1  0.67717493  0.14850477  0.44897756  1
  O  O662  1  0.67779907  0.14740961  0.69862525  1
  O  O663  1  0.67709905  0.14663178  0.94843175  1
  O  O664  1  0.67793559  0.48162118  0.19853854  1
  O  O665  1  0.67701535  0.48135099  0.44912573  1
  O  O666  1  0.67641578  0.47998488  0.70183126  1
  O  O667  1  0.67823463  0.47990922  0.94891470  1
  O  O668  1  0.67840492  0.81350633  0.19772284  1
  O  O669  1  0.67753853  0.81330185  0.44879075  1
  O  O670  1  0.67627240  0.81367857  0.70102241  1
  O  O671  1  0.67660046  0.81233262  0.95036473  1
