# generated using pymatgen
data_Na2MnFe(PO4)2
_symmetry_space_group_name_H-M   'P 1'
_cell_length_a   22.34636069
_cell_length_b   20.09706449
_cell_length_c   19.44749649
_cell_angle_alpha   89.98526350
_cell_angle_beta   90.03093020
_cell_angle_gamma   90.01628946
_symmetry_Int_Tables_number   1
_chemical_formula_structural   Na2MnFe(PO4)2
_chemical_formula_sum   'Na96 Mn48 Fe48 P96 O384'
_cell_volume   8733.79586680
_cell_formula_units_Z   48
loop_
 _symmetry_equiv_pos_site_id
 _symmetry_equiv_pos_as_xyz
  1  'x, y, z'
loop_
 _atom_site_type_symbol
 _atom_site_label
 _atom_site_symmetry_multiplicity
 _atom_site_fract_x
 _atom_site_fract_y
 _atom_site_fract_z
 _atom_site_occupancy
  Na  Na0  1  0.14072485  0.24969808  0.24359563  1
  Na  Na1  1  0.13995996  0.25125336  0.49333717  1
  Na  Na2  1  0.14037173  0.25118416  0.74383979  1
  Na  Na3  1  0.14048660  0.25068846  0.99469482  1
  Na  Na4  1  0.13976356  0.58306323  0.24422142  1
  Na  Na5  1  0.14053849  0.58335611  0.49255831  1
  Na  Na6  1  0.14046124  0.58553265  0.74320909  1
  Na  Na7  1  0.14013457  0.58462162  0.99451391  1
  Na  Na8  1  0.14044782  0.91649551  0.24408258  1
  Na  Na9  1  0.14003451  0.91517843  0.49280665  1
  Na  Na10  1  0.14062922  0.91700134  0.74395966  1
  Na  Na11  1  0.14077422  0.91869503  0.99411754  1
  Na  Na12  1  0.63993320  0.24846497  0.24440804  1
  Na  Na13  1  0.63940386  0.24965222  0.49412292  1
  Na  Na14  1  0.63989661  0.24990122  0.74403376  1
  Na  Na15  1  0.64041855  0.24956969  0.99232342  1
  Na  Na16  1  0.63955916  0.58261667  0.24268006  1
  Na  Na17  1  0.64003736  0.58335516  0.49373906  1
  Na  Na18  1  0.63980452  0.58150125  0.74335328  1
  Na  Na19  1  0.64001936  0.58287425  0.99316440  1
  Na  Na20  1  0.64041761  0.91456975  0.24300867  1
  Na  Na21  1  0.64064509  0.91693687  0.49351836  1
  Na  Na22  1  0.64077142  0.91640176  0.74511689  1
  Na  Na23  1  0.64031594  0.91695690  0.99246445  1
  Na  Na24  1  0.36008375  0.08538485  0.00799022  1
  Na  Na25  1  0.36000106  0.08446703  0.25570663  1
  Na  Na26  1  0.35954472  0.08337550  0.50560311  1
  Na  Na27  1  0.35950694  0.08411008  0.75651798  1
  Na  Na28  1  0.35970852  0.41738124  0.00633154  1
  Na  Na29  1  0.35963468  0.41738423  0.25725788  1
  Na  Na30  1  0.36032019  0.41701551  0.50629356  1
  Na  Na31  1  0.36001449  0.41825510  0.75678113  1
  Na  Na32  1  0.36013957  0.75113012  0.00670022  1
  Na  Na33  1  0.36025204  0.74940882  0.25740729  1
  Na  Na34  1  0.36005184  0.74906093  0.50535663  1
  Na  Na35  1  0.35992998  0.75061127  0.75624331  1
  Na  Na36  1  0.85987221  0.08280273  0.00538805  1
  Na  Na37  1  0.85972647  0.08200299  0.25663246  1
  Na  Na38  1  0.85936749  0.08359196  0.50654488  1
  Na  Na39  1  0.85888810  0.08326569  0.75676996  1
  Na  Na40  1  0.85912025  0.41727806  0.00497290  1
  Na  Na41  1  0.85922184  0.41588115  0.25661841  1
  Na  Na42  1  0.85947127  0.41553128  0.50729156  1
  Na  Na43  1  0.85940929  0.41480533  0.75630803  1
  Na  Na44  1  0.85978032  0.74977565  0.00590992  1
  Na  Na45  1  0.86039652  0.74905684  0.25674708  1
  Na  Na46  1  0.86015059  0.74984963  0.50574264  1
  Na  Na47  1  0.85988392  0.74845417  0.75591394  1
  Na  Na48  1  0.11026854  0.08428289  0.11855007  1
  Na  Na49  1  0.10905177  0.08183313  0.36830222  1
  Na  Na50  1  0.10893124  0.08342075  0.61858276  1
  Na  Na51  1  0.11023227  0.08418310  0.86949110  1
  Na  Na52  1  0.10931494  0.41832166  0.12011416  1
  Na  Na53  1  0.10939500  0.41604371  0.36845007  1
  Na  Na54  1  0.10965335  0.41732826  0.61813615  1
  Na  Na55  1  0.10943987  0.41799918  0.86846495  1
  Na  Na56  1  0.10977496  0.75135047  0.11984047  1
  Na  Na57  1  0.11001220  0.74893429  0.36842643  1
  Na  Na58  1  0.10975549  0.75067777  0.61766730  1
  Na  Na59  1  0.11017214  0.74999727  0.86895489  1
  Na  Na60  1  0.60924983  0.08301295  0.11789338  1
  Na  Na61  1  0.60959778  0.08338795  0.36882382  1
  Na  Na62  1  0.60957061  0.08459991  0.61882456  1
  Na  Na63  1  0.60982919  0.08440286  0.86866645  1
  Na  Na64  1  0.60918184  0.41648589  0.11820191  1
  Na  Na65  1  0.60923150  0.41594955  0.36929695  1
  Na  Na66  1  0.60913833  0.41528333  0.61958549  1
  Na  Na67  1  0.60932242  0.41753254  0.86788735  1
  Na  Na68  1  0.60951193  0.74938695  0.11847910  1
  Na  Na69  1  0.60954937  0.74904074  0.36736594  1
  Na  Na70  1  0.60986798  0.74777226  0.61879280  1
  Na  Na71  1  0.60955888  0.75028536  0.86856693  1
  Na  Na72  1  0.39009718  0.25073442  0.13193816  1
  Na  Na73  1  0.39059267  0.25088756  0.38118532  1
  Na  Na74  1  0.39024693  0.25133519  0.63098062  1
  Na  Na75  1  0.39020967  0.25120590  0.88256203  1
  Na  Na76  1  0.39110381  0.58383835  0.13203127  1
  Na  Na77  1  0.39032486  0.58225584  0.38153096  1
  Na  Na78  1  0.39030057  0.58196040  0.63135987  1
  Na  Na79  1  0.39048915  0.58491796  0.88069182  1
  Na  Na80  1  0.39097381  0.91726560  0.13142686  1
  Na  Na81  1  0.39073281  0.91621890  0.38098702  1
  Na  Na82  1  0.39036939  0.91577431  0.63099411  1
  Na  Na83  1  0.39110512  0.91796008  0.88229121  1
  Na  Na84  1  0.89019101  0.25030790  0.13085082  1
  Na  Na85  1  0.89035920  0.24803717  0.38204227  1
  Na  Na86  1  0.88954933  0.24988607  0.63177433  1
  Na  Na87  1  0.88991201  0.24986735  0.88076984  1
  Na  Na88  1  0.89047912  0.58516673  0.13137944  1
  Na  Na89  1  0.89059747  0.58317104  0.38092059  1
  Na  Na90  1  0.89054045  0.58285925  0.63116942  1
  Na  Na91  1  0.89030094  0.58341928  0.88079172  1
  Na  Na92  1  0.89085139  0.91701858  0.13089526  1
  Na  Na93  1  0.89078489  0.91433140  0.38174926  1
  Na  Na94  1  0.89058117  0.91517780  0.63072946  1
  Na  Na95  1  0.89039145  0.91565643  0.88173688  1
  Mn  Mn96  1  0.74960053  0.49969459  0.37542955  1
  Mn  Mn97  1  0.74963616  0.33169699  0.37592711  1
  Mn  Mn98  1  0.75012026  0.16569075  0.12418461  1
  Mn  Mn99  1  0.24991377  -0.00046089  0.37533218  1
  Mn  Mn100  1  0.24967433  0.16727787  0.62480741  1
  Mn  Mn101  1  0.74943784  0.49982569  0.12483384  1
  Mn  Mn102  1  0.49961820  0.33447016  0.00059408  1
  Mn  Mn103  1  0.24956622  0.50179429  0.87587998  1
  Mn  Mn104  1  0.25011205  0.66714312  0.62408368  1
  Mn  Mn105  1  0.74980710  -0.00033366  0.37508595  1
  Mn  Mn106  1  0.24978522  0.83424132  0.12536730  1
  Mn  Mn107  1  -0.00040893  0.33310145  0.24993736  1
  Mn  Mn108  1  0.00026209  0.50058991  0.74938995  1
  Mn  Mn109  1  0.75014448  0.00033057  0.62478664  1
  Mn  Mn110  1  0.50097015  0.83286196  0.75033619  1
  Mn  Mn111  1  0.25054498  0.33475676  0.62505521  1
  Mn  Mn112  1  0.49988772  0.66476229  0.49905266  1
  Mn  Mn113  1  0.74981903  0.49909131  0.62501201  1
  Mn  Mn114  1  0.25077273  0.00188430  0.87451601  1
  Mn  Mn115  1  0.75022515  0.66690410  0.37447730  1
  Mn  Mn116  1  0.00050301  0.83215598  0.75033575  1
  Mn  Mn117  1  0.49859251  0.16800633  0.74980784  1
  Mn  Mn118  1  0.49990475  0.00057626  0.75032431  1
  Mn  Mn119  1  0.00024108  -0.00041926  0.25020169  1
  Mn  Mn120  1  0.50032454  0.83224526  0.50026126  1
  Mn  Mn121  1  0.74995148  -0.00106080  0.12478129  1
  Mn  Mn122  1  0.50021828  0.33323988  0.24994420  1
  Mn  Mn123  1  0.74975272  0.33256136  0.12460662  1
  Mn  Mn124  1  0.00012165  -0.00061420  0.74967706  1
  Mn  Mn125  1  0.50019979  0.66689142  0.00036950  1
  Mn  Mn126  1  -0.00001904  0.16605306  0.50031820  1
  Mn  Mn127  1  -0.00020344  0.50196147  -0.00060527  1
  Mn  Mn128  1  0.24949257  -0.00048382  0.62529920  1
  Mn  Mn129  1  0.24932750  0.16738900  0.37486472  1
  Mn  Mn130  1  -0.00020837  0.49944475  0.50018083  1
  Mn  Mn131  1  0.75025188  0.83240666  0.62497395  1
  Mn  Mn132  1  -0.00012767  0.33443686  0.00074303  1
  Mn  Mn133  1  -0.00062797  0.16728324  0.74923712  1
  Mn  Mn134  1  0.25032765  0.66693613  0.12592566  1
  Mn  Mn135  1  0.50018609  0.00018385  0.24952988  1
  Mn  Mn136  1  0.25081761  0.83394051  0.87518935  1
  Mn  Mn137  1  0.50041876  0.00028385  0.49985723  1
  Mn  Mn138  1  0.75091747  0.83199897  0.12400757  1
  Mn  Mn139  1  0.00048107  0.83342114  0.00021925  1
  Mn  Mn140  1  0.24949235  0.33379443  0.87560995  1
  Mn  Mn141  1  0.74977359  0.66578338  0.87461683  1
  Mn  Mn142  1  0.00063306  0.16671000  -0.00011342  1
  Mn  Mn143  1  0.25062510  0.49987661  0.12511516  1
  Fe  Fe144  1  0.50054670  0.16760689  -0.00002786  1
  Fe  Fe145  1  0.25072146  0.83326228  0.37448511  1
  Fe  Fe146  1  0.24985879  0.50054624  0.62432517  1
  Fe  Fe147  1  0.00023300  0.66754399  0.00080463  1
  Fe  Fe148  1  0.74980245  0.16629649  0.37558270  1
  Fe  Fe149  1  0.25039616  0.16766231  0.12574877  1
  Fe  Fe150  1  0.74929977  0.33223590  0.62586244  1
  Fe  Fe151  1  0.74993774  0.66629168  0.12434613  1
  Fe  Fe152  1  0.00024603  0.66677902  0.74953225  1
  Fe  Fe153  1  0.49997176  0.50075720  -0.00047173  1
  Fe  Fe154  1  0.74974245  0.66598757  0.62523204  1
  Fe  Fe155  1  0.25029657  0.66631295  0.37557408  1
  Fe  Fe156  1  0.49995606  0.33400631  0.75000875  1
  Fe  Fe157  1  0.75020711  -0.00020654  0.87421185  1
  Fe  Fe158  1  0.49917217  0.16695860  0.49982126  1
  Fe  Fe159  1  0.00030640  0.00040535  0.00053358  1
  Fe  Fe160  1  -0.00044679  0.33269652  0.49941054  1
  Fe  Fe161  1  -0.00022910  0.16610397  0.25039008  1
  Fe  Fe162  1  0.49979996  0.66630002  0.75024404  1
  Fe  Fe163  1  0.74913068  0.16679904  0.62595351  1
  Fe  Fe164  1  -0.00097184  0.50028879  0.25046152  1
  Fe  Fe165  1  0.75017039  0.16645490  0.87448585  1
  Fe  Fe166  1  0.50056145  0.49921757  0.50058787  1
  Fe  Fe167  1  -0.00002905  0.33380199  0.74989270  1
  Fe  Fe168  1  0.00024600  0.66610445  0.49943214  1
  Fe  Fe169  1  0.50026446  0.66598312  0.24960325  1
  Fe  Fe170  1  0.75015329  0.49937745  0.87437593  1
  Fe  Fe171  1  0.25049753  0.00092820  0.12495683  1
  Fe  Fe172  1  0.49981889  0.33345886  0.50010202  1
  Fe  Fe173  1  0.00028236  0.83211519  0.49984747  1
  Fe  Fe174  1  0.49963625  0.49952714  0.25019366  1
  Fe  Fe175  1  0.00039664  0.83280624  0.25080156  1
  Fe  Fe176  1  0.25024295  0.16785094  0.87608899  1
  Fe  Fe177  1  0.49991720  0.50001986  0.74991001  1
  Fe  Fe178  1  0.74997881  0.83246471  0.87476832  1
  Fe  Fe179  1  0.49994721  0.83326502  0.00024307  1
  Fe  Fe180  1  0.50037216  0.83344792  0.24958274  1
  Fe  Fe181  1  0.50001364  0.00057530  0.00066225  1
  Fe  Fe182  1  0.25008290  0.66789375  0.87461379  1
  Fe  Fe183  1  0.24948082  0.33384395  0.12569654  1
  Fe  Fe184  1  0.74960730  0.33275750  0.87432435  1
  Fe  Fe185  1  0.25036442  0.33395388  0.37503993  1
  Fe  Fe186  1  0.25028276  0.83326263  0.62459828  1
  Fe  Fe187  1  0.24968423  0.49967391  0.37482767  1
  Fe  Fe188  1  -0.00059558  -0.00101785  0.49943323  1
  Fe  Fe189  1  0.00026408  0.66698971  0.25024602  1
  Fe  Fe190  1  0.74954595  0.83275609  0.37501081  1
  Fe  Fe191  1  0.50013475  0.16680325  0.24998613  1
  P  P192  1  0.04250877  0.25027811  0.10397293  1
  P  P193  1  0.04209906  0.24840176  0.35264898  1
  P  P194  1  0.04186131  0.25171285  0.60257396  1
  P  P195  1  0.04208071  0.25145256  0.85216262  1
  P  P196  1  0.04206653  0.58564946  0.10357830  1
  P  P197  1  0.04114968  0.58317901  0.35193850  1
  P  P198  1  0.04243537  0.58472237  0.60217914  1
  P  P199  1  0.04250638  0.58540034  0.85239698  1
  P  P200  1  0.04263300  0.91817454  0.10293670  1
  P  P201  1  0.04212107  0.91464701  0.35337320  1
  P  P202  1  0.04136453  0.91616933  0.60109230  1
  P  P203  1  0.04303772  0.91656526  0.85357043  1
  P  P204  1  0.54242845  0.24918171  0.10255348  1
  P  P205  1  0.54175669  0.24874887  0.35314510  1
  P  P206  1  0.54062025  0.25033299  0.60179543  1
  P  P207  1  0.54146510  0.25181162  0.85275471  1
  P  P208  1  0.54206732  0.58196315  0.10305244  1
  P  P209  1  0.54134569  0.58212369  0.35155451  1
  P  P210  1  0.54203166  0.58117277  0.60327640  1
  P  P211  1  0.54151332  0.58335471  0.85172718  1
  P  P212  1  0.54157279  0.91615622  0.10169320  1
  P  P213  1  0.54246840  0.91563609  0.35203916  1
  P  P214  1  0.54325743  0.91629355  0.60321679  1
  P  P215  1  0.54256546  0.91717443  0.85440624  1
  P  P216  1  0.45844408  0.08502989  0.14672918  1
  P  P217  1  0.45775246  0.08470805  0.39698678  1
  P  P218  1  0.45685484  0.08406797  0.64636690  1
  P  P219  1  0.45872643  0.08432295  0.89905426  1
  P  P220  1  0.45754110  0.41805343  0.14755294  1
  P  P221  1  0.45887429  0.41694992  0.39837776  1
  P  P222  1  0.45834948  0.41672126  0.64799465  1
  P  P223  1  0.45791142  0.41888274  0.89693946  1
  P  P224  1  0.45884009  0.75029099  0.14839646  1
  P  P225  1  0.45795125  0.74933615  0.39562979  1
  P  P226  1  0.45797371  0.74797881  0.64765088  1
  P  P227  1  0.45804262  0.75101139  0.89765002  1
  P  P228  1  0.95783791  0.08425207  0.14751565  1
  P  P229  1  0.95757574  0.08155339  0.39731161  1
  P  P230  1  0.95673010  0.08254376  0.64621674  1
  P  P231  1  0.95811303  0.08211087  0.89747726  1
  P  P232  1  0.95722221  0.41876927  0.14780698  1
  P  P233  1  0.95720071  0.41523064  0.39736250  1
  P  P234  1  0.95775400  0.41529338  0.64709727  1
  P  P235  1  0.95740938  0.41719443  0.89626002  1
  P  P236  1  0.95885287  0.75049848  0.14857813  1
  P  P237  1  0.95914489  0.74889680  0.39768402  1
  P  P238  1  0.95805161  0.74842639  0.64652687  1
  P  P239  1  0.95800882  0.74840743  0.89750464  1
  P  P240  1  0.20875730  0.08348959  0.22662815  1
  P  P241  1  0.20665128  0.08331501  0.47797625  1
  P  P242  1  0.20687088  0.08426465  0.72850829  1
  P  P243  1  0.20865681  0.08550445  0.97869142  1
  P  P244  1  0.20795200  0.41589834  0.22855536  1
  P  P245  1  0.20837673  0.41721162  0.47670204  1
  P  P246  1  0.20773753  0.41916505  0.72733822  1
  P  P247  1  0.20680718  0.41706031  0.97893735  1
  P  P248  1  0.20791260  0.75020506  0.22955199  1
  P  P249  1  0.20922357  0.75039393  0.47648499  1
  P  P250  1  0.20793129  0.75147964  0.72713693  1
  P  P251  1  0.20802268  0.74973469  0.97762779  1
  P  P252  1  0.70708322  0.08257722  0.22818184  1
  P  P253  1  0.70753256  0.08468466  0.47812108  1
  P  P254  1  0.70768081  0.08415735  0.72840267  1
  P  P255  1  0.70881614  0.08309521  0.97573608  1
  P  P256  1  0.70671252  0.41564037  0.22809701  1
  P  P257  1  0.70709310  0.41575271  0.47908181  1
  P  P258  1  0.70792342  0.41459906  0.72836694  1
  P  P259  1  0.70815144  0.41640190  0.97588051  1
  P  P260  1  0.70799725  0.74838780  0.22711344  1
  P  P261  1  0.70733867  0.75058695  0.47754656  1
  P  P262  1  0.70779861  0.74822284  0.72780927  1
  P  P263  1  0.70769057  0.75027580  0.97727684  1
  P  P264  1  0.29137636  0.25096711  0.02392975  1
  P  P265  1  0.29202436  0.25183041  0.27212497  1
  P  P266  1  0.29244280  0.25119280  0.52130711  1
  P  P267  1  0.29240893  0.24980393  0.77312293  1
  P  P268  1  0.29320838  0.58439173  0.02194668  1
  P  P269  1  0.29141236  0.58303406  0.27389048  1
  P  P270  1  0.29211848  0.58201627  0.52137470  1
  P  P271  1  0.29199040  0.58551746  0.77216860  1
  P  P272  1  0.29269918  0.91880905  0.02283130  1
  P  P273  1  0.29254217  0.91638360  0.27206564  1
  P  P274  1  0.29217184  0.91495449  0.52197858  1
  P  P275  1  0.29349423  0.91703476  0.77164255  1
  P  P276  1  0.79255116  0.24958982  0.02042589  1
  P  P277  1  0.79245528  0.24790787  0.27284605  1
  P  P278  1  0.79080829  0.24913816  0.52385056  1
  P  P279  1  0.79102959  0.24948409  0.77261952  1
  P  P280  1  0.79205258  0.58393758  0.02193894  1
  P  P281  1  0.79245288  0.58295126  0.27132791  1
  P  P282  1  0.79217993  0.58434090  0.52275290  1
  P  P283  1  0.79205771  0.58141232  0.77186372  1
  P  P284  1  0.79285777  0.91625113  0.02042450  1
  P  P285  1  0.79239639  0.91447979  0.27263980  1
  P  P286  1  0.79258953  0.91618926  0.52141443  1
  P  P287  1  0.79170582  0.91572710  0.77327200  1
  O  O288  1  0.03700941  0.24938328  0.18387582  1
  O  O289  1  0.03678100  0.24885098  0.43261497  1
  O  O290  1  0.03655324  0.25214320  0.68252677  1
  O  O291  1  0.03721290  0.25119744  0.93216526  1
  O  O292  1  0.03649200  0.58526372  0.18341055  1
  O  O293  1  0.03616528  0.58304712  0.43191254  1
  O  O294  1  0.03708382  0.58484609  0.68210123  1
  O  O295  1  0.03743210  0.58553382  0.93238417  1
  O  O296  1  0.03755251  0.91764768  0.18283208  1
  O  O297  1  0.03649117  0.91498932  0.43319826  1
  O  O298  1  0.03678774  0.91570851  0.68111608  1
  O  O299  1  0.03797150  0.91706055  0.93352006  1
  O  O300  1  0.53731631  0.24886283  0.18250729  1
  O  O301  1  0.53611743  0.24894429  0.43297811  1
  O  O302  1  0.53570244  0.25110077  0.68176427  1
  O  O303  1  0.53648629  0.25138840  0.93270219  1
  O  O304  1  0.53652641  0.58190910  0.18289522  1
  O  O305  1  0.53672943  0.58199185  0.43156276  1
  O  O306  1  0.53658541  0.58173048  0.68312631  1
  O  O307  1  0.53653465  0.58324125  0.93170306  1
  O  O308  1  0.53657253  0.91606293  0.18168775  1
  O  O309  1  0.53743414  0.91584930  0.43199392  1
  O  O310  1  0.53812809  0.91644472  0.68322472  1
  O  O311  1  0.53697325  0.91709403  0.93428461  1
  O  O312  1  0.46414615  0.08501803  0.06687832  1
  O  O313  1  0.46306808  0.08469891  0.31701797  1
  O  O314  1  0.46219400  0.08441625  0.56642892  1
  O  O315  1  0.46287430  0.08414566  0.81897821  1
  O  O316  1  0.46254268  0.41834800  0.06760900  1
  O  O317  1  0.46367504  0.41687947  0.31842876  1
  O  O318  1  0.46367270  0.41654931  0.56812472  1
  O  O319  1  0.46338290  0.41836219  0.81707811  1
  O  O320  1  0.46362753  0.75045077  0.06837862  1
  O  O321  1  0.46338901  0.74975312  0.31575257  1
  O  O322  1  0.46301500  0.74789376  0.56765189  1
  O  O323  1  0.46336350  0.75025309  0.81776845  1
  O  O324  1  0.96324435  0.08367419  0.06757716  1
  O  O325  1  0.96307015  0.08248731  0.31737665  1
  O  O326  1  0.96194843  0.08197484  0.56624101  1
  O  O327  1  0.96288652  0.08255015  0.81748797  1
  O  O328  1  0.96251436  0.41890790  0.06785744  1
  O  O329  1  0.96240630  0.41595295  0.31746153  1
  O  O330  1  0.96282001  0.41507610  0.56711665  1
  O  O331  1  0.96282794  0.41662271  0.81629554  1
  O  O332  1  0.96387674  0.75041585  0.06861805  1
  O  O333  1  0.96416827  0.74935495  0.31780732  1
  O  O334  1  0.96327060  0.74872595  0.56663868  1
  O  O335  1  0.96317495  0.74830686  0.81754133  1
  O  O336  1  0.21418274  0.08486283  0.05857651  1
  O  O337  1  0.21316123  0.08358441  0.30664290  1
  O  O338  1  0.21160611  0.08318219  0.55792779  1
  O  O339  1  0.21226382  0.08492006  0.80849648  1
  O  O340  1  0.21210191  0.41641692  0.05888171  1
  O  O341  1  0.21355132  0.41613165  0.30845753  1
  O  O342  1  0.21337694  0.41792382  0.55669880  1
  O  O343  1  0.21257507  0.41894037  0.80731381  1
  O  O344  1  0.21306551  0.75010563  0.05761216  1
  O  O345  1  0.21348072  0.75023434  0.30944184  1
  O  O346  1  0.21390362  0.75067897  0.55650256  1
  O  O347  1  0.21305670  0.75079305  0.80709763  1
  O  O348  1  0.71335579  0.08256657  0.05576385  1
  O  O349  1  0.71194078  0.08297510  0.30818096  1
  O  O350  1  0.71272891  0.08479598  0.55810512  1
  O  O351  1  0.71337653  0.08387809  0.80827217  1
  O  O352  1  0.71314768  0.41645879  0.05590568  1
  O  O353  1  0.71170821  0.41563793  0.30809252  1
  O  O354  1  0.71240155  0.41525188  0.55904034  1
  O  O355  1  0.71350800  0.41486610  0.80824116  1
  O  O356  1  0.71315990  0.74936514  0.05719836  1
  O  O357  1  0.71282097  0.74937146  0.30709629  1
  O  O358  1  0.71239124  0.74971782  0.55750125  1
  O  O359  1  0.71310824  0.74887607  0.80775037  1
  O  O360  1  0.28661175  0.25186881  0.19222810  1
  O  O361  1  0.28711532  0.25175075  0.44137216  1
  O  O362  1  0.28742356  0.25029903  0.69312880  1
  O  O363  1  0.28655378  0.25013113  0.94392848  1
  O  O364  1  0.28706060  0.58320650  0.19387784  1
  O  O365  1  0.28674092  0.58194777  0.44149446  1
  O  O366  1  0.28693305  0.58492695  0.69220899  1
  O  O367  1  0.28792415  0.58512823  0.94200207  1
  O  O368  1  0.28716316  0.91741025  0.19211539  1
  O  O369  1  0.28685737  0.91472231  0.44198017  1
  O  O370  1  0.28831050  0.91642011  0.69166781  1
  O  O371  1  0.28782247  0.91878186  0.94285391  1
  O  O372  1  0.78768276  0.24836546  0.19283008  1
  O  O373  1  0.78597606  0.24858547  0.44384198  1
  O  O374  1  0.78560685  0.24958487  0.69270448  1
  O  O375  1  0.78717367  0.24986193  0.94049541  1
  O  O376  1  0.78729827  0.58335463  0.19137178  1
  O  O377  1  0.78706172  0.58420606  0.44277294  1
  O  O378  1  0.78674529  0.58218942  0.69196198  1
  O  O379  1  0.78679178  0.58329365  0.94198815  1
  O  O380  1  0.78744692  0.91469653  0.19260739  1
  O  O381  1  0.78704418  0.91562114  0.44150482  1
  O  O382  1  0.78686715  0.91618141  0.69325526  1
  O  O383  1  0.78757334  0.91616326  0.94053481  1
  O  O384  1  0.22725286  0.25149390  0.05982715  1
  O  O385  1  0.22787804  0.25225103  0.30817552  1
  O  O386  1  0.22819120  0.25144959  0.55678339  1
  O  O387  1  0.22801684  0.24906312  0.80848632  1
  O  O388  1  0.22884308  0.58375640  0.05714733  1
  O  O389  1  0.22714682  0.58256930  0.30931003  1
  O  O390  1  0.22796932  0.58214549  0.55744824  1
  O  O391  1  0.22774888  0.58612925  0.80797689  1
  O  O392  1  0.22831289  0.91915907  0.05813902  1
  O  O393  1  0.22828386  0.91563715  0.30775182  1
  O  O394  1  0.22788969  0.91475564  0.55771404  1
  O  O395  1  0.22915864  0.91747415  0.80687677  1
  O  O396  1  0.72824127  0.24935836  0.05598786  1
  O  O397  1  0.72797211  0.24762288  0.30799920  1
  O  O398  1  0.72657828  0.24935507  0.55971450  1
  O  O399  1  0.72705871  0.24900219  0.80909182  1
  O  O400  1  0.72776118  0.58454647  0.05762404  1
  O  O401  1  0.72807017  0.58310073  0.30653105  1
  O  O402  1  0.72785454  0.58405987  0.55818063  1
  O  O403  1  0.72783395  0.58108138  0.80765281  1
  O  O404  1  0.72860396  0.91577496  0.05607485  1
  O  O405  1  0.72800999  0.91456758  0.30795197  1
  O  O406  1  0.72840548  0.91632417  0.55704793  1
  O  O407  1  0.72755609  0.91514487  0.80905554  1
  O  O408  1  0.27303130  0.08311230  0.19120036  1
  O  O409  1  0.27111088  0.08360087  0.44311323  1
  O  O410  1  0.27120568  0.08366845  0.69322571  1
  O  O411  1  0.27278502  0.08610833  0.94246573  1
  O  O412  1  0.27207036  0.41523804  0.19234797  1
  O  O413  1  0.27261526  0.41740447  0.44089964  1
  O  O414  1  0.27216166  0.41944470  0.69205330  1
  O  O415  1  0.27113376  0.41750397  0.94363074  1
  O  O416  1  0.27207635  0.75073611  0.19376541  1
  O  O417  1  0.27334802  0.75049100  0.44069706  1
  O  O418  1  0.27221927  0.75177447  0.69148230  1
  O  O419  1  0.27237486  0.74921681  0.94221523  1
  O  O420  1  0.77156832  0.08235418  0.19321172  1
  O  O421  1  0.77174195  0.08439520  0.44227771  1
  O  O422  1  0.77172707  0.08478631  0.69210257  1
  O  O423  1  0.77303437  0.08378884  0.94020977  1
  O  O424  1  0.77115148  0.41598418  0.19314018  1
  O  O425  1  0.77138892  0.41583123  0.44369590  1
  O  O426  1  0.77191541  0.41436684  0.69199548  1
  O  O427  1  0.77228669  0.41642891  0.93995866  1
  O  O428  1  0.77238061  0.74742497  0.19173384  1
  O  O429  1  0.77173181  0.75132172  0.44209426  1
  O  O430  1  0.77206109  0.74773112  0.69208436  1
  O  O431  1  0.77189565  0.75058204  0.94146287  1
  O  O432  1  0.02209256  0.08471569  0.18340130  1
  O  O433  1  0.02176465  0.08121327  0.43323848  1
  O  O434  1  0.02111916  0.08324539  0.68145069  1
  O  O435  1  0.02248213  0.08192260  0.93291796  1
  O  O436  1  0.02144011  0.41856104  0.18359437  1
  O  O437  1  0.02151847  0.41497797  0.43309516  1
  O  O438  1  0.02206256  0.41559835  0.68272176  1
  O  O439  1  0.02163353  0.41773483  0.93190888  1
  O  O440  1  0.02296949  0.75037914  0.18474488  1
  O  O441  1  0.02319083  0.74831416  0.43398630  1
  O  O442  1  0.02231529  0.74825105  0.68250879  1
  O  O443  1  0.02228568  0.74862442  0.93328568  1
  O  O444  1  0.52245405  0.08507182  0.18319625  1
  O  O445  1  0.52194664  0.08494145  0.43290504  1
  O  O446  1  0.52112930  0.08444061  0.68192179  1
  O  O447  1  0.52306846  0.08428917  0.93434655  1
  O  O448  1  0.52189612  0.41812175  0.18307286  1
  O  O449  1  0.52296553  0.41711725  0.43448897  1
  O  O450  1  0.52234472  0.41665957  0.68464472  1
  O  O451  1  0.52201786  0.41873766  0.93324401  1
  O  O452  1  0.52300200  0.75045739  0.18424770  1
  O  O453  1  0.52208430  0.74889205  0.43162427  1
  O  O454  1  0.52231837  0.74763825  0.68316172  1
  O  O455  1  0.52225874  0.75170367  0.93357635  1
  O  O456  1  0.47806764  0.24925714  0.06701220  1
  O  O457  1  0.47775803  0.24879491  0.31657628  1
  O  O458  1  0.47657650  0.24997222  0.56568703  1
  O  O459  1  0.47716950  0.25260604  0.81709079  1
  O  O460  1  0.47797760  0.58191559  0.06675657  1
  O  O461  1  0.47713324  0.58214261  0.31571745  1
  O  O462  1  0.47793116  0.58063067  0.56697841  1
  O  O463  1  0.47740466  0.58355396  0.81553939  1
  O  O464  1  0.47743087  0.91595442  0.06570182  1
  O  O465  1  0.47817819  0.91558085  0.31642779  1
  O  O466  1  0.47883009  0.91642061  0.56815065  1
  O  O467  1  0.47845984  0.91662803  0.81832694  1
  O  O468  1  0.97831988  0.25008588  0.06826266  1
  O  O469  1  0.97781698  0.24802564  0.31690288  1
  O  O470  1  0.97760466  0.25122298  0.56676051  1
  O  O471  1  0.97766940  0.25160587  0.81679286  1
  O  O472  1  0.97796367  0.58597556  0.06716776  1
  O  O473  1  0.97706433  0.58344744  0.31582077  1
  O  O474  1  0.97815940  0.58464146  0.56640324  1
  O  O475  1  0.97821762  0.58512869  0.81665227  1
  O  O476  1  0.97841013  0.91816932  0.06704817  1
  O  O477  1  0.97809963  0.91465843  0.31695682  1
  O  O478  1  0.97713262  0.91637708  0.56549166  1
  O  O479  1  0.97865886  0.91591294  0.81829161  1
  O  O480  1  0.07311347  0.31439604  0.07664403  1
  O  O481  1  0.07317929  0.31197430  0.32471905  1
  O  O482  1  0.07263494  0.31494476  0.57336034  1
  O  O483  1  0.07281328  0.31505890  0.82378270  1
  O  O484  1  0.07313934  0.64907972  0.07506609  1
  O  O485  1  0.07251646  0.64654962  0.32395914  1
  O  O486  1  0.07354276  0.64778357  0.57317119  1
  O  O487  1  0.07333493  0.64865049  0.82343706  1
  O  O488  1  0.07305718  0.98197443  0.07447537  1
  O  O489  1  0.07356476  0.97805725  0.32527298  1
  O  O490  1  0.07229550  0.97984621  0.57322934  1
  O  O491  1  0.07404049  0.97983264  0.82485108  1
  O  O492  1  0.57323206  0.31314091  0.07493745  1
  O  O493  1  0.57300203  0.31239753  0.32524426  1
  O  O494  1  0.57130582  0.31396055  0.57305689  1
  O  O495  1  0.57248666  0.31518272  0.82419741  1
  O  O496  1  0.57312935  0.64571325  0.07514844  1
  O  O497  1  0.57165926  0.64613391  0.32307499  1
  O  O498  1  0.57299228  0.64465338  0.57464132  1
  O  O499  1  0.57221770  0.64725011  0.82375855  1
  O  O500  1  0.57181104  0.98034680  0.07354458  1
  O  O501  1  0.57347919  0.97933554  0.32427602  1
  O  O502  1  0.57431248  0.97976050  0.57502693  1
  O  O503  1  0.57335693  0.98082962  0.82602101  1
  O  O504  1  0.42734759  0.02124564  0.17446276  1
  O  O505  1  0.42694248  0.02071038  0.42457022  1
  O  O506  1  0.42621862  0.02024625  0.67439607  1
  O  O507  1  0.42827210  0.02056757  0.92770770  1
  O  O508  1  0.42702845  0.35400613  0.17536285  1
  O  O509  1  0.42851557  0.35295342  0.42674174  1
  O  O510  1  0.42737278  0.35320231  0.67663725  1
  O  O511  1  0.42643692  0.35559789  0.92536901  1
  O  O512  1  0.42865734  0.68607278  0.17659703  1
  O  O513  1  0.42663327  0.68584276  0.42368402  1
  O  O514  1  0.42706593  0.68453145  0.67609254  1
  O  O515  1  0.42728829  0.68737666  0.92598462  1
  O  O516  1  0.92673276  0.02067168  0.17555234  1
  O  O517  1  0.92684053  0.01768305  0.42500062  1
  O  O518  1  0.92572843  0.01928077  0.67491931  1
  O  O519  1  0.92758855  0.01846162  0.92594284  1
  O  O520  1  0.92595454  0.35505697  0.17513696  1
  O  O521  1  0.92662303  0.35141744  0.42556493  1
  O  O522  1  0.92688591  0.35207535  0.67614006  1
  O  O523  1  0.92625604  0.35399516  0.92492263  1
  O  O524  1  0.92772493  0.68710512  0.17689523  1
  O  O525  1  0.92763388  0.68552808  0.42573884  1
  O  O526  1  0.92713292  0.68506503  0.67531936  1
  O  O527  1  0.92711241  0.68516348  0.92640838  1
  O  O528  1  0.17760307  0.02001282  0.19857258  1
  O  O529  1  0.17591861  0.01971757  0.44968647  1
  O  O530  1  0.17568366  0.02060451  0.70076798  1
  O  O531  1  0.17760033  0.02201271  0.95028410  1
  O  O532  1  0.17648062  0.35280879  0.20000928  1
  O  O533  1  0.17794518  0.35315241  0.44887024  1
  O  O534  1  0.17698282  0.35533789  0.69944352  1
  O  O535  1  0.17581210  0.35376914  0.95017979  1
  O  O536  1  0.17696774  0.68657622  0.20143886  1
  O  O537  1  0.17899638  0.68603665  0.44865656  1
  O  O538  1  0.17675834  0.68821218  0.69851789  1
  O  O539  1  0.17718255  0.68629371  0.94918809  1
  O  O540  1  0.67626975  0.01882444  0.20001851  1
  O  O541  1  0.67636412  0.02097505  0.45048083  1
  O  O542  1  0.67684619  0.02039156  0.70028795  1
  O  O543  1  0.67872717  0.01908716  0.94718807  1
  O  O544  1  0.67604322  0.35195420  0.19987052  1
  O  O545  1  0.67575589  0.35261359  0.45058108  1
  O  O546  1  0.67681807  0.35120830  0.69978589  1
  O  O547  1  0.67727894  0.35267140  0.94798942  1
  O  O548  1  0.67703643  0.68484343  0.19888530  1
  O  O549  1  0.67632870  0.68711452  0.44911633  1
  O  O550  1  0.67717687  0.68445889  0.69950915  1
  O  O551  1  0.67622847  0.68699469  0.94912842  1
  O  O552  1  0.32250111  0.31468055  0.05155682  1
  O  O553  1  0.32330884  0.31494464  0.30108184  1
  O  O554  1  0.32397438  0.31423058  0.54996243  1
  O  O555  1  0.32286813  0.31378220  0.80110104  1
  O  O556  1  0.32432651  0.64755755  0.05080572  1
  O  O557  1  0.32159411  0.64704859  0.30227661  1
  O  O558  1  0.32344463  0.64558393  0.54922038  1
  O  O559  1  0.32273154  0.64915409  0.80054234  1
  O  O560  1  0.32363820  0.98214608  0.05140058  1
  O  O561  1  0.32358648  0.97984908  0.30048169  1
  O  O562  1  0.32291858  0.97896178  0.54946674  1
  O  O563  1  0.32467135  0.98064009  0.79950160  1
  O  O564  1  0.82355647  0.31298341  0.04920741  1
  O  O565  1  0.82327112  0.31160370  0.30097367  1
  O  O566  1  0.82147409  0.31309885  0.55170719  1
  O  O567  1  0.82161533  0.31327643  0.80103538  1
  O  O568  1  0.82282655  0.64757334  0.05028703  1
  O  O569  1  0.82399410  0.64600767  0.29980752  1
  O  O570  1  0.82255186  0.64805381  0.55126092  1
  O  O571  1  0.82337514  0.64470849  0.80012854  1
  O  O572  1  0.82365431  0.97974286  0.04920459  1
  O  O573  1  0.82354077  0.97806820  0.30039504  1
  O  O574  1  0.82353445  0.97990946  0.54918313  1
  O  O575  1  0.82187816  0.97982423  0.80157279  1
  O  O576  1  0.42728222  0.14821718  0.17548768  1
  O  O577  1  0.42654348  0.14786012  0.42563095  1
  O  O578  1  0.42525824  0.14713685  0.67479241  1
  O  O579  1  0.42801771  0.14811325  0.92704873  1
  O  O580  1  0.42636680  0.48102441  0.17663904  1
  O  O581  1  0.42771476  0.48022963  0.42678579  1
  O  O582  1  0.42741408  0.48030348  0.67626680  1
  O  O583  1  0.42722142  0.48251121  0.92531685  1
  O  O584  1  0.42747070  0.81355500  0.17660648  1
  O  O585  1  0.42686151  0.81260398  0.42442103  1
  O  O586  1  0.42726279  0.81182607  0.67529541  1
  O  O587  1  0.42693014  0.81441636  0.92590502  1
  O  O588  1  0.92688319  0.14773301  0.17581313  1
  O  O589  1  0.92628813  0.14481073  0.42569489  1
  O  O590  1  0.92568502  0.14620228  0.67404844  1
  O  O591  1  0.92717796  0.14580536  0.92522685  1
  O  O592  1  0.92666593  0.48234474  0.17635426  1
  O  O593  1  0.92598114  0.47856490  0.42567359  1
  O  O594  1  0.92678463  0.47920110  0.67450728  1
  O  O595  1  0.92628581  0.48086580  0.92391220  1
  O  O596  1  0.92836033  0.81442525  0.17673226  1
  O  O597  1  0.92881375  0.81267081  0.42664077  1
  O  O598  1  0.92700911  0.81195739  0.67496041  1
  O  O599  1  0.92701182  0.81212871  0.92526276  1
  O  O600  1  0.07418945  0.18745736  0.07523031  1
  O  O601  1  0.07289749  0.18477663  0.32442006  1
  O  O602  1  0.07310028  0.18790769  0.57533409  1
  O  O603  1  0.07291911  0.18775209  0.82424109  1
  O  O604  1  0.07310607  0.52208462  0.07532926  1
  O  O605  1  0.07144531  0.51917651  0.32362657  1
  O  O606  1  0.07325667  0.52078250  0.57464456  1
  O  O607  1  0.07352867  0.52162751  0.82468205  1
  O  O608  1  0.07403713  0.85482457  0.07495565  1
  O  O609  1  0.07292563  0.85117185  0.32472219  1
  O  O610  1  0.07179453  0.85231765  0.57259240  1
  O  O611  1  0.07413067  0.85297356  0.82556270  1
  O  O612  1  0.57351522  0.18614765  0.07341919  1
  O  O613  1  0.57271073  0.18543953  0.32437163  1
  O  O614  1  0.57157188  0.18660303  0.57402262  1
  O  O615  1  0.57214111  0.18811355  0.82457505  1
  O  O616  1  0.57313892  0.51884378  0.07397015  1
  O  O617  1  0.57254260  0.51876622  0.32334077  1
  O  O618  1  0.57323449  0.51781888  0.57488614  1
  O  O619  1  0.57243094  0.51985798  0.82344367  1
  O  O620  1  0.57285449  0.85284886  0.07349102  1
  O  O621  1  0.57317568  0.85213826  0.32353371  1
  O  O622  1  0.57411022  0.85262630  0.57538550  1
  O  O623  1  0.57426118  0.85405655  0.82611247  1
  O  O624  1  0.32191093  0.18736690  0.05298900  1
  O  O625  1  0.32280922  0.18790709  0.29988163  1
  O  O626  1  0.32312546  0.18732910  0.54903468  1
  O  O627  1  0.32348320  0.18652145  0.80161004  1
  O  O628  1  0.32429501  0.52075942  0.04982967  1
  O  O629  1  0.32261776  0.51956750  0.30180082  1
  O  O630  1  0.32279068  0.51865697  0.55057621  1
  O  O631  1  0.32293427  0.52200845  0.80045885  1
  O  O632  1  0.32333055  0.85486650  0.05051231  1
  O  O633  1  0.32344948  0.85274331  0.30010160  1
  O  O634  1  0.32328691  0.85173774  0.55068972  1
  O  O635  1  0.32457655  0.85383078  0.80046620  1
  O  O636  1  0.82377553  0.18619644  0.04873536  1
  O  O637  1  0.82305997  0.18440989  0.30152008  1
  O  O638  1  0.82179933  0.18579685  0.55250246  1
  O  O639  1  0.82257210  0.18616023  0.80075600  1
  O  O640  1  0.82305772  0.52039150  0.05002425  1
  O  O641  1  0.82309054  0.51924413  0.29967562  1
  O  O642  1  0.82350885  0.52077020  0.55030521  1
  O  O643  1  0.82265115  0.51762803  0.80002290  1
  O  O644  1  0.82442878  0.85308590  0.04893246  1
  O  O645  1  0.82285472  0.85079382  0.30109645  1
  O  O646  1  0.82397659  0.85306646  0.54995917  1
  O  O647  1  0.82285058  0.85210379  0.80096827  1
  O  O648  1  0.17863878  0.14758394  0.19831047  1
  O  O649  1  0.17554854  0.14674461  0.44985113  1
  O  O650  1  0.17578133  0.14750272  0.69984794  1
  O  O651  1  0.17758590  0.14898398  0.95028926  1
  O  O652  1  0.17725983  0.47978358  0.20053134  1
  O  O653  1  0.17699635  0.48034166  0.44793207  1
  O  O654  1  0.17699792  0.48260935  0.69870909  1
  O  O655  1  0.17561237  0.48060803  0.95105801  1
  O  O656  1  0.17633605  0.81327294  0.20091673  1
  O  O657  1  0.17790188  0.81345527  0.44778687  1
  O  O658  1  0.17723723  0.81517834  0.69883739  1
  O  O659  1  0.17726376  0.81359657  0.94988155  1
  O  O660  1  0.67603107  0.14571728  0.19922776  1
  O  O661  1  0.67687272  0.14809798  0.44932542  1
  O  O662  1  0.67624269  0.14742905  0.70003039  1
  O  O663  1  0.67744107  0.14654587  0.94795020  1
  O  O664  1  0.67550092  0.47891332  0.19974881  1
  O  O665  1  0.67626575  0.47954729  0.45123576  1
  O  O666  1  0.67668121  0.47810964  0.70037944  1
  O  O667  1  0.67748321  0.48025134  0.94788971  1
  O  O668  1  0.67722426  0.81188864  0.19851207  1
  O  O669  1  0.67661698  0.81420771  0.44912077  1
  O  O670  1  0.67664462  0.81167251  0.69972869  1
  O  O671  1  0.67709104  0.81403546  0.94914642  1
