# generated using pymatgen
data_Na2MnFe(PO4)2
_symmetry_space_group_name_H-M   'P 1'
_cell_length_a   22.34301841
_cell_length_b   20.09253850
_cell_length_c   19.44953213
_cell_angle_alpha   89.99765267
_cell_angle_beta   89.99958895
_cell_angle_gamma   89.94509618
_symmetry_Int_Tables_number   1
_chemical_formula_structural   Na2MnFe(PO4)2
_chemical_formula_sum   'Na96 Mn48 Fe48 P96 O384'
_cell_volume   8731.43472039
_cell_formula_units_Z   48
loop_
 _symmetry_equiv_pos_site_id
 _symmetry_equiv_pos_as_xyz
  1  'x, y, z'
loop_
 _atom_site_type_symbol
 _atom_site_label
 _atom_site_symmetry_multiplicity
 _atom_site_fract_x
 _atom_site_fract_y
 _atom_site_fract_z
 _atom_site_occupancy
  Na  Na0  1  0.14006569  0.25091823  0.24386111  1
  Na  Na1  1  0.14014013  0.25060207  0.49264718  1
  Na  Na2  1  0.14055320  0.24985912  0.74409949  1
  Na  Na3  1  0.14052588  0.24996673  0.99434239  1
  Na  Na4  1  0.14077002  0.58322069  0.24364544  1
  Na  Na5  1  0.14098653  0.58404721  0.49374790  1
  Na  Na6  1  0.14066337  0.58406884  0.74350326  1
  Na  Na7  1  0.14087186  0.58244199  0.99342604  1
  Na  Na8  1  0.14085839  0.91615414  0.24466995  1
  Na  Na9  1  0.14089699  0.91616708  0.49448062  1
  Na  Na10  1  0.14055863  0.91622468  0.74427082  1
  Na  Na11  1  0.14034951  0.91547360  0.99268964  1
  Na  Na12  1  0.63977338  0.24951257  0.24437873  1
  Na  Na13  1  0.64008551  0.24996562  0.49120356  1
  Na  Na14  1  0.64012350  0.25063692  0.74320054  1
  Na  Na15  1  0.63997034  0.25028215  0.99414406  1
  Na  Na16  1  0.63971391  0.58284664  0.24348277  1
  Na  Na17  1  0.64025684  0.58314343  0.49282144  1
  Na  Na18  1  0.64028179  0.58349600  0.74303869  1
  Na  Na19  1  0.64028787  0.58164985  0.99432407  1
  Na  Na20  1  0.63996220  0.91750093  0.24498309  1
  Na  Na21  1  0.64012984  0.91797994  0.49294519  1
  Na  Na22  1  0.63983818  0.91651958  0.74266829  1
  Na  Na23  1  0.63994094  0.91751125  0.99480199  1
  Na  Na24  1  0.35973798  0.08293775  0.00733209  1
  Na  Na25  1  0.35992358  0.08368355  0.25847245  1
  Na  Na26  1  0.36008812  0.08377024  0.50714575  1
  Na  Na27  1  0.36001510  0.08288246  0.75707523  1
  Na  Na28  1  0.36021677  0.41641931  0.00708154  1
  Na  Na29  1  0.35986425  0.41718241  0.25676297  1
  Na  Na30  1  0.36016145  0.41702607  0.50624974  1
  Na  Na31  1  0.35970177  0.41722158  0.75570518  1
  Na  Na32  1  0.35950609  0.74903035  0.00534054  1
  Na  Na33  1  0.35971302  0.74956552  0.25687428  1
  Na  Na34  1  0.35968410  0.75025154  0.50619806  1
  Na  Na35  1  0.35951899  0.75038660  0.75638033  1
  Na  Na36  1  0.85943957  0.08332784  0.00536979  1
  Na  Na37  1  0.85933798  0.08335919  0.25734467  1
  Na  Na38  1  0.86007499  0.08410169  0.50539092  1
  Na  Na39  1  0.85968149  0.08354829  0.75559691  1
  Na  Na40  1  0.85987141  0.41553566  0.00552693  1
  Na  Na41  1  0.85961920  0.41561716  0.25642382  1
  Na  Na42  1  0.85949646  0.41705941  0.50495477  1
  Na  Na43  1  0.85932478  0.41705698  0.75483201  1
  Na  Na44  1  0.85976882  0.75011702  0.00689430  1
  Na  Na45  1  0.85931533  0.74958021  0.25666288  1
  Na  Na46  1  0.85896641  0.75037816  0.50613271  1
  Na  Na47  1  0.85952639  0.74935767  0.75612919  1
  Na  Na48  1  0.10960217  0.08379629  0.11971048  1
  Na  Na49  1  0.11012555  0.08511905  0.36883111  1
  Na  Na50  1  0.10980299  0.08420151  0.61970084  1
  Na  Na51  1  0.10948446  0.08308244  0.86907626  1
  Na  Na52  1  0.11051889  0.41594194  0.11892520  1
  Na  Na53  1  0.10990339  0.41543232  0.36757944  1
  Na  Na54  1  0.10995364  0.41527024  0.61848051  1
  Na  Na55  1  0.11003596  0.41534938  0.86914507  1
  Na  Na56  1  0.10958726  0.74943488  0.11937174  1
  Na  Na57  1  0.11031822  0.74983251  0.36891396  1
  Na  Na58  1  0.11057089  0.74952255  0.61885375  1
  Na  Na59  1  0.10989817  0.75081778  0.86763082  1
  Na  Na60  1  0.60945074  0.08401006  0.12032918  1
  Na  Na61  1  0.60957644  0.08345708  0.36863851  1
  Na  Na62  1  0.60903191  0.08250323  0.61716327  1
  Na  Na63  1  0.60907642  0.08334085  0.86927534  1
  Na  Na64  1  0.60963511  0.41725364  0.11878547  1
  Na  Na65  1  0.60973373  0.41720703  0.36755912  1
  Na  Na66  1  0.60956292  0.41627019  0.61659789  1
  Na  Na67  1  0.60973918  0.41696193  0.86899442  1
  Na  Na68  1  0.60888527  0.74983180  0.11970080  1
  Na  Na69  1  0.60932872  0.75115276  0.36831625  1
  Na  Na70  1  0.60941935  0.74951455  0.61774129  1
  Na  Na71  1  0.60943700  0.75064428  0.86866287  1
  Na  Na72  1  0.39038274  0.25099354  0.13289463  1
  Na  Na73  1  0.39034186  0.24998975  0.38294835  1
  Na  Na74  1  0.39031911  0.24952750  0.63029175  1
  Na  Na75  1  0.39060056  0.25075085  0.88227213  1
  Na  Na76  1  0.39046555  0.58273515  0.13115523  1
  Na  Na77  1  0.39051749  0.58393971  0.38118706  1
  Na  Na78  1  0.39033066  0.58309228  0.63070635  1
  Na  Na79  1  0.39035504  0.58332354  0.88113205  1
  Na  Na80  1  0.39031560  0.91734256  0.13137746  1
  Na  Na81  1  0.39049887  0.91744901  0.38255400  1
  Na  Na82  1  0.39029635  0.91515109  0.63160405  1
  Na  Na83  1  0.38990677  0.91711836  0.88148787  1
  Na  Na84  1  0.89043389  0.25033622  0.13090748  1
  Na  Na85  1  0.88999666  0.25006269  0.38094517  1
  Na  Na86  1  0.89020500  0.24914563  0.62960159  1
  Na  Na87  1  0.89007279  0.24967743  0.87990450  1
  Na  Na88  1  0.89075474  0.58192725  0.13134292  1
  Na  Na89  1  0.89020832  0.58239697  0.38106360  1
  Na  Na90  1  0.88973472  0.58280224  0.63127002  1
  Na  Na91  1  0.89061947  0.58372254  0.88071598  1
  Na  Na92  1  0.89037579  0.91667205  0.13234696  1
  Na  Na93  1  0.89011452  0.91760645  0.38166597  1
  Na  Na94  1  0.89035240  0.91730076  0.63129123  1
  Na  Na95  1  0.89024064  0.91717302  0.88069404  1
  Mn  Mn96  1  -0.00069181  -0.00027750  0.00013596  1
  Mn  Mn97  1  0.50005804  0.66650607  0.49914329  1
  Mn  Mn98  1  0.25012069  0.50016698  0.37529778  1
  Mn  Mn99  1  0.24966898  0.50017947  0.62492383  1
  Mn  Mn100  1  0.74975611  0.66642934  0.37506857  1
  Mn  Mn101  1  0.75063839  0.49886860  0.87372787  1
  Mn  Mn102  1  0.75044902  0.16600180  0.12488849  1
  Mn  Mn103  1  0.49945865  0.16692399  0.00084460  1
  Mn  Mn104  1  0.25028838  -0.00045278  0.12586586  1
  Mn  Mn105  1  0.74993685  0.83313226  0.87502888  1
  Mn  Mn106  1  0.49984309  0.33366754  0.25071826  1
  Mn  Mn107  1  -0.00021100  0.33218168  0.74895192  1
  Mn  Mn108  1  0.75018486  0.33340611  0.12509694  1
  Mn  Mn109  1  -0.00004197  0.49992850  0.74945922  1
  Mn  Mn110  1  -0.00053681  0.16719402  -0.00048145  1
  Mn  Mn111  1  0.00066690  0.00084383  0.25035116  1
  Mn  Mn112  1  0.49985691  0.66632900  -0.00020458  1
  Mn  Mn113  1  0.74888242  0.16718164  0.87468390  1
  Mn  Mn114  1  0.24989601  0.16799316  0.62629872  1
  Mn  Mn115  1  -0.00002513  0.66617533  0.50008208  1
  Mn  Mn116  1  0.49942518  0.83450195  0.24955472  1
  Mn  Mn117  1  0.25019167  -0.00021720  0.37608952  1
  Mn  Mn118  1  0.25010387  0.83263361  0.12463273  1
  Mn  Mn119  1  0.00003218  0.83335116  0.75003788  1
  Mn  Mn120  1  0.00087700  0.00135563  0.50060832  1
  Mn  Mn121  1  0.00016690  0.83272990  0.25068553  1
  Mn  Mn122  1  0.25077128  0.16716608  0.87579533  1
  Mn  Mn123  1  0.00114456  0.49906735  0.49991198  1
  Mn  Mn124  1  0.74985657  0.33428147  0.62308284  1
  Mn  Mn125  1  0.00065150  0.49896787  0.00032307  1
  Mn  Mn126  1  0.00085060  0.66714440  0.00026925  1
  Mn  Mn127  1  0.74990461  0.83382334  0.62472752  1
  Mn  Mn128  1  0.24996499  0.16718958  0.12563443  1
  Mn  Mn129  1  0.74981356  0.16659316  0.62374612  1
  Mn  Mn130  1  0.49964269  0.50016471  0.74946085  1
  Mn  Mn131  1  0.74939897  0.66571523  0.12597852  1
  Mn  Mn132  1  0.25003693  0.49942051  0.87436759  1
  Mn  Mn133  1  0.24986418  -0.00042031  0.62569240  1
  Mn  Mn134  1  0.49953289  0.83451766  -0.00038962  1
  Mn  Mn135  1  0.74981143  0.66580642  0.87556465  1
  Mn  Mn136  1  0.74953611  0.00005304  0.87469744  1
  Mn  Mn137  1  0.50030430  0.83342761  0.74976506  1
  Mn  Mn138  1  -0.00018687  0.83318610  0.50057433  1
  Mn  Mn139  1  0.00026644  0.49921829  0.24980993  1
  Mn  Mn140  1  0.50026492  0.16579796  0.75043250  1
  Mn  Mn141  1  0.49983002  0.33328394  0.74970485  1
  Mn  Mn142  1  0.24959454  0.66573230  0.12497219  1
  Mn  Mn143  1  0.74917921  0.83405222  0.12606509  1
  Fe  Fe144  1  0.49935965  0.66685644  0.24985320  1
  Fe  Fe145  1  0.25038874  0.83277365  0.37546270  1
  Fe  Fe146  1  0.74967190  0.16626879  0.37446600  1
  Fe  Fe147  1  0.00047731  0.16671137  0.74975353  1
  Fe  Fe148  1  0.49968950  -0.00000476  0.49992585  1
  Fe  Fe149  1  0.25069279  0.33330397  0.87564747  1
  Fe  Fe150  1  0.00015406  0.00034954  0.75018821  1
  Fe  Fe151  1  0.25007329  0.66643455  0.87417348  1
  Fe  Fe152  1  0.25022193  0.83265585  0.87464182  1
  Fe  Fe153  1  0.25061652  0.66738731  0.62465338  1
  Fe  Fe154  1  0.49972492  0.83348413  0.49961129  1
  Fe  Fe155  1  0.49979729  0.16598340  0.50030329  1
  Fe  Fe156  1  -0.00007635  0.33241873  0.49919651  1
  Fe  Fe157  1  0.74961704  0.66686073  0.62439623  1
  Fe  Fe158  1  0.49976527  0.00091154  0.00072513  1
  Fe  Fe159  1  0.25060265  0.33336051  0.12542182  1
  Fe  Fe160  1  0.74995177  -0.00022379  0.12594946  1
  Fe  Fe161  1  0.75018910  0.50034871  0.37495994  1
  Fe  Fe162  1  0.50016017  0.66648592  0.74959867  1
  Fe  Fe163  1  0.49979890  -0.00065281  0.74921923  1
  Fe  Fe164  1  0.50012696  0.33314550  0.49936784  1
  Fe  Fe165  1  0.50036945  0.50051918  0.00007912  1
  Fe  Fe166  1  0.49987742  0.16701957  0.25084887  1
  Fe  Fe167  1  0.24994570  0.33387331  0.37511243  1
  Fe  Fe168  1  0.25018175  0.33358704  0.62480885  1
  Fe  Fe169  1  0.74935657  0.33397355  0.37428510  1
  Fe  Fe170  1  0.50039930  0.50018486  0.49941964  1
  Fe  Fe171  1  0.74957887  0.83398842  0.37573381  1
  Fe  Fe172  1  -0.00023946  0.33280013  0.24991825  1
  Fe  Fe173  1  0.74982879  0.33342671  0.87419740  1
  Fe  Fe174  1  0.50055598  0.33404658  0.00103438  1
  Fe  Fe175  1  -0.00034637  0.16747308  0.24957072  1
  Fe  Fe176  1  0.25068952  0.49946789  0.12482731  1
  Fe  Fe177  1  0.49967792  0.49998721  0.25007398  1
  Fe  Fe178  1  0.75007588  0.49908510  0.12485547  1
  Fe  Fe179  1  0.75018040  0.00007584  0.37507244  1
  Fe  Fe180  1  0.25006434  0.16738357  0.37579291  1
  Fe  Fe181  1  0.00039713  0.33269986  -0.00039786  1
  Fe  Fe182  1  -0.00023765  0.66615249  0.24993916  1
  Fe  Fe183  1  0.75003406  0.00048088  0.62404665  1
  Fe  Fe184  1  0.00004220  0.16696486  0.49966141  1
  Fe  Fe185  1  0.25020454  0.83299721  0.62537032  1
  Fe  Fe186  1  0.74916038  0.50024309  0.62435924  1
  Fe  Fe187  1  0.25018671  0.66687795  0.37500759  1
  Fe  Fe188  1  0.00035160  0.66681003  0.75050625  1
  Fe  Fe189  1  0.49968070  0.00102405  0.25117608  1
  Fe  Fe190  1  -0.00007849  0.83338893  -0.00000688  1
  Fe  Fe191  1  0.24976582  -0.00034253  0.87543242  1
  P  P192  1  0.04219432  0.25105288  0.10298300  1
  P  P193  1  0.04124509  0.24999172  0.35190032  1
  P  P194  1  0.04183120  0.24927733  0.60134718  1
  P  P195  1  0.04247693  0.24893362  0.85238855  1
  P  P196  1  0.04325509  0.58298361  0.10366753  1
  P  P197  1  0.04255080  0.58388391  0.35223557  1
  P  P198  1  0.04330145  0.58315099  0.60370417  1
  P  P199  1  0.04261845  0.58415815  0.85245156  1
  P  P200  1  0.04243880  0.91533981  0.10256921  1
  P  P201  1  0.04316090  0.91716519  0.35362705  1
  P  P202  1  0.04288855  0.91724480  0.60397545  1
  P  P203  1  0.04199354  0.91774576  0.85267501  1
  P  P204  1  0.54198967  0.25124862  0.10348488  1
  P  P205  1  0.54160436  0.24879687  0.35363152  1
  P  P206  1  0.54143793  0.24947313  0.60093410  1
  P  P207  1  0.54256135  0.25030775  0.85368075  1
  P  P208  1  0.54196956  0.58231901  0.10331664  1
  P  P209  1  0.54105889  0.58342596  0.35144877  1
  P  P210  1  0.54222854  0.58228578  0.60193196  1
  P  P211  1  0.54224480  0.58418751  0.85224781  1
  P  P212  1  0.54162054  0.91886681  0.10322901  1
  P  P213  1  0.54145035  0.91845005  0.35341411  1
  P  P214  1  0.54112744  0.91646010  0.60122056  1
  P  P215  1  0.54203568  0.91856327  0.85253657  1
  P  P216  1  0.45810309  0.08383598  0.14928394  1
  P  P217  1  0.45850686  0.08347410  0.39830622  1
  P  P218  1  0.45778278  0.08172449  0.64694088  1
  P  P219  1  0.45736535  0.08224817  0.89779251  1
  P  P220  1  0.45822673  0.41800194  0.14726584  1
  P  P221  1  0.45900846  0.41725914  0.39803752  1
  P  P222  1  0.45759390  0.41627612  0.64546833  1
  P  P223  1  0.45877406  0.41709692  0.89890470  1
  P  P224  1  0.45727359  0.74921576  0.14750612  1
  P  P225  1  0.45789230  0.75138373  0.39695962  1
  P  P226  1  0.45812206  0.74871441  0.64706270  1
  P  P227  1  0.45736692  0.75003195  0.89624100  1
  P  P228  1  0.95728422  0.08478824  0.14778565  1
  P  P229  1  0.95830804  0.08540538  0.39701400  1
  P  P230  1  0.95882946  0.08409053  0.64807901  1
  P  P231  1  0.95713676  0.08327939  0.89583270  1
  P  P232  1  0.95808108  0.41466274  0.14720201  1
  P  P233  1  0.95834866  0.41480260  0.39683342  1
  P  P234  1  0.95741106  0.41567565  0.64569808  1
  P  P235  1  0.95793817  0.41505605  0.89723012  1
  P  P236  1  0.95751210  0.74874943  0.14760741  1
  P  P237  1  0.95692077  0.74953491  0.39670067  1
  P  P238  1  0.95776336  0.74855214  0.64788729  1
  P  P239  1  0.95785049  0.75123262  0.89748325  1
  P  P240  1  0.20775468  0.08377172  0.22939884  1
  P  P241  1  0.20816776  0.08491949  0.47810914  1
  P  P242  1  0.20795676  0.08318309  0.72940117  1
  P  P243  1  0.20793814  0.08233077  0.97781153  1
  P  P244  1  0.20916072  0.41652200  0.22694853  1
  P  P245  1  0.20777122  0.41574541  0.47773056  1
  P  P246  1  0.20789169  0.41519722  0.72768501  1
  P  P247  1  0.20835095  0.41523646  0.97823609  1
  P  P248  1  0.20756521  0.74965862  0.22891249  1
  P  P249  1  0.20884327  0.74990795  0.47740743  1
  P  P250  1  0.20898149  0.74998801  0.72721398  1
  P  P251  1  0.20862872  0.74904520  0.97596425  1
  P  P252  1  0.70817042  0.08200493  0.22870472  1
  P  P253  1  0.70871658  0.08308340  0.47636776  1
  P  P254  1  0.70716473  0.08244056  0.72641096  1
  P  P255  1  0.70680997  0.08320101  0.97858328  1
  P  P256  1  0.70777453  0.41774153  0.22819761  1
  P  P257  1  0.70817341  0.41763458  0.47604282  1
  P  P258  1  0.70713130  0.41757171  0.72658449  1
  P  P259  1  0.70791664  0.41542788  0.97728240  1
  P  P260  1  0.70669871  0.75029312  0.22930064  1
  P  P261  1  0.70762128  0.75117623  0.47776188  1
  P  P262  1  0.70743623  0.74889352  0.72689121  1
  P  P263  1  0.70669740  0.74975054  0.97863995  1
  P  P264  1  0.29270008  0.25137848  0.02292863  1
  P  P265  1  0.29141630  0.25080374  0.27375419  1
  P  P266  1  0.29186615  0.25149580  0.52196572  1
  P  P267  1  0.29287873  0.25191475  0.77271091  1
  P  P268  1  0.29224736  0.58170792  0.02201305  1
  P  P269  1  0.29234103  0.58396767  0.27249848  1
  P  P270  1  0.29216192  0.58495115  0.52228266  1
  P  P271  1  0.29235933  0.58470461  0.77176094  1
  P  P272  1  0.29250268  0.91645510  0.02112880  1
  P  P273  1  0.29270891  0.91515981  0.27345755  1
  P  P274  1  0.29197797  0.91507650  0.52280520  1
  P  P275  1  0.29109243  0.91623693  0.77343120  1
  P  P276  1  0.79261670  0.25012650  0.02128145  1
  P  P277  1  0.79074989  0.24998569  0.27345767  1
  P  P278  1  0.79202179  0.25024363  0.51971210  1
  P  P279  1  0.79176546  0.25127776  0.77162889  1
  P  P280  1  0.79250177  0.58143781  0.02294820  1
  P  P281  1  0.79199253  0.58165258  0.27221726  1
  P  P282  1  0.79108890  0.58307845  0.52284707  1
  P  P283  1  0.79264637  0.58343930  0.77056272  1
  P  P284  1  0.79226557  0.91783406  0.02317629  1
  P  P285  1  0.79140574  0.91680527  0.27366331  1
  P  P286  1  0.79216049  0.91839641  0.52156887  1
  P  P287  1  0.79262665  0.91672610  0.77113657  1
  O  O288  1  0.03661643  0.25075648  0.18285915  1
  O  O289  1  0.03623454  0.25005903  0.43181627  1
  O  O290  1  0.03696597  0.24881722  0.68130467  1
  O  O291  1  0.03721474  0.24988684  0.93229370  1
  O  O292  1  0.03783114  0.58329652  0.18359995  1
  O  O293  1  0.03746770  0.58336247  0.43222029  1
  O  O294  1  0.03811691  0.58375282  0.68366870  1
  O  O295  1  0.03758596  0.58388556  0.93244151  1
  O  O296  1  0.03742051  0.91546073  0.18256401  1
  O  O297  1  0.03810260  0.91714506  0.43360899  1
  O  O298  1  0.03742208  0.91764238  0.68390163  1
  O  O299  1  0.03682487  0.91703379  0.93262267  1
  O  O300  1  0.53702093  0.25084259  0.18345882  1
  O  O301  1  0.53636433  0.24878368  0.43347898  1
  O  O302  1  0.53701994  0.24965104  0.68097174  1
  O  O303  1  0.53730507  0.25072615  0.93365262  1
  O  O304  1  0.53624172  0.58264461  0.18315848  1
  O  O305  1  0.53597369  0.58275684  0.43141843  1
  O  O306  1  0.53706813  0.58288237  0.68182367  1
  O  O307  1  0.53718289  0.58355133  0.93218704  1
  O  O308  1  0.53612299  0.91875542  0.18316514  1
  O  O309  1  0.53595469  0.91798356  0.43327448  1
  O  O310  1  0.53641937  0.91649642  0.68123315  1
  O  O311  1  0.53676846  0.91866915  0.93247399  1
  O  O312  1  0.46313162  0.08380112  0.06932184  1
  O  O313  1  0.46359758  0.08375422  0.31842565  1
  O  O314  1  0.46316760  0.08205696  0.56704605  1
  O  O315  1  0.46247224  0.08224112  0.81785229  1
  O  O316  1  0.46382436  0.41776594  0.06744358  1
  O  O317  1  0.46369517  0.41741033  0.31803017  1
  O  O318  1  0.46295035  0.41649225  0.56558726  1
  O  O319  1  0.46336552  0.41675333  0.81887042  1
  O  O320  1  0.46267716  0.74948787  0.06757999  1
  O  O321  1  0.46298802  0.75089310  0.31704328  1
  O  O322  1  0.46333045  0.74952661  0.56712083  1
  O  O323  1  0.46278718  0.74957391  0.81631077  1
  O  O324  1  0.96205557  0.08421184  0.06779634  1
  O  O325  1  0.96325749  0.08545300  0.31709052  1
  O  O326  1  0.96416625  0.08456231  0.56810317  1
  O  O327  1  0.96274831  0.08310408  0.81595295  1
  O  O328  1  0.96343360  0.41455606  0.06728587  1
  O  O329  1  0.96351156  0.41478175  0.31685785  1
  O  O330  1  0.96297769  0.41531104  0.56577473  1
  O  O331  1  0.96302861  0.41555980  0.81725578  1
  O  O332  1  0.96296977  0.74978159  0.06768762  1
  O  O333  1  0.96192476  0.74894662  0.31673053  1
  O  O334  1  0.96261480  0.74889532  0.56789891  1
  O  O335  1  0.96303440  0.75052796  0.81753037  1
  O  O336  1  0.21278838  0.08265584  0.05787296  1
  O  O337  1  0.21314600  0.08421962  0.30935074  1
  O  O338  1  0.21295422  0.08513034  0.55810115  1
  O  O339  1  0.21348911  0.08276339  0.80929041  1
  O  O340  1  0.21393275  0.41565360  0.05810215  1
  O  O341  1  0.21408809  0.41635119  0.30693678  1
  O  O342  1  0.21279810  0.41577424  0.55766180  1
  O  O343  1  0.21337397  0.41511934  0.80760787  1
  O  O344  1  0.21319008  0.74922944  0.05595728  1
  O  O345  1  0.21293805  0.74977688  0.30881366  1
  O  O346  1  0.21421258  0.74995009  0.55733314  1
  O  O347  1  0.21419414  0.74972812  0.80708691  1
  O  O348  1  0.71219201  0.08280653  0.05852588  1
  O  O349  1  0.71372618  0.08222117  0.30859801  1
  O  O350  1  0.71335866  0.08310005  0.55633812  1
  O  O351  1  0.71193648  0.08292269  0.80640756  1
  O  O352  1  0.71309498  0.41621902  0.05722153  1
  O  O353  1  0.71311177  0.41770105  0.30809277  1
  O  O354  1  0.71284009  0.41794746  0.55601064  1
  O  O355  1  0.71260600  0.41642849  0.80650560  1
  O  O356  1  0.71153847  0.74981038  0.05866192  1
  O  O357  1  0.71212611  0.75078991  0.30924361  1
  O  O358  1  0.71313755  0.75033171  0.55768507  1
  O  O359  1  0.71229449  0.74913463  0.80690563  1
  O  O360  1  0.28678095  0.25084468  0.19373121  1
  O  O361  1  0.28640844  0.25094600  0.44207925  1
  O  O362  1  0.28741148  0.25197851  0.69275609  1
  O  O363  1  0.28776267  0.25138086  0.94296343  1
  O  O364  1  0.28713084  0.58288145  0.19256658  1
  O  O365  1  0.28689557  0.58500587  0.44234396  1
  O  O366  1  0.28701695  0.58474746  0.69183047  1
  O  O367  1  0.28712634  0.58213183  0.94208689  1
  O  O368  1  0.28768589  0.91549656  0.19346726  1
  O  O369  1  0.28657493  0.91508574  0.44289947  1
  O  O370  1  0.28630162  0.91549833  0.69344084  1
  O  O371  1  0.28707874  0.91692452  0.94122598  1
  O  O372  1  0.78641625  0.24988300  0.19343762  1
  O  O373  1  0.78652238  0.25001377  0.43987237  1
  O  O374  1  0.78671664  0.25098020  0.69163422  1
  O  O375  1  0.78727612  0.25063478  0.94135426  1
  O  O376  1  0.78663048  0.58146791  0.19234206  1
  O  O377  1  0.78610131  0.58292430  0.44284179  1
  O  O378  1  0.78717473  0.58384633  0.69067275  1
  O  O379  1  0.78755378  0.58176215  0.94293269  1
  O  O380  1  0.78619119  0.91732167  0.19370915  1
  O  O381  1  0.78671342  0.91801417  0.44167426  1
  O  O382  1  0.78769889  0.91706760  0.69115440  1
  O  O383  1  0.78721046  0.91727863  0.94317801  1
  O  O384  1  0.22833863  0.25153954  0.05839768  1
  O  O385  1  0.22719070  0.25122472  0.30947824  1
  O  O386  1  0.22774985  0.25208304  0.55824119  1
  O  O387  1  0.22865612  0.25179361  0.80859010  1
  O  O388  1  0.22802429  0.58116966  0.05784937  1
  O  O389  1  0.22811869  0.58460223  0.30833134  1
  O  O390  1  0.22799433  0.58514104  0.55816515  1
  O  O391  1  0.22815009  0.58445889  0.80765694  1
  O  O392  1  0.22825228  0.91642335  0.05687421  1
  O  O393  1  0.22836988  0.91523223  0.30886500  1
  O  O394  1  0.22783307  0.91479214  0.55880971  1
  O  O395  1  0.22701769  0.91658453  0.80941336  1
  O  O396  1  0.72837344  0.24975783  0.05685759  1
  O  O397  1  0.72652922  0.25009032  0.30890578  1
  O  O398  1  0.72785362  0.25024973  0.55557966  1
  O  O399  1  0.72743565  0.25190632  0.80721913  1
  O  O400  1  0.72807765  0.58111337  0.05832242  1
  O  O401  1  0.72774135  0.58166514  0.30803936  1
  O  O402  1  0.72690647  0.58282814  0.55875056  1
  O  O403  1  0.72842533  0.58291084  0.80634716  1
  O  O404  1  0.72782817  0.91858361  0.05856153  1
  O  O405  1  0.72727697  0.91690501  0.30978656  1
  O  O406  1  0.72797827  0.91864160  0.55763809  1
  O  O407  1  0.72815714  0.91634836  0.80617748  1
  O  O408  1  0.27203051  0.08365928  0.19388443  1
  O  O409  1  0.27249594  0.08433761  0.44284323  1
  O  O410  1  0.27207987  0.08350095  0.69356733  1
  O  O411  1  0.27232104  0.08222310  0.94260848  1
  O  O412  1  0.27327809  0.41660393  0.19087577  1
  O  O413  1  0.27212505  0.41561001  0.44223306  1
  O  O414  1  0.27204429  0.41528116  0.69159201  1
  O  O415  1  0.27246196  0.41516879  0.94188970  1
  O  O416  1  0.27176074  0.74926026  0.19313433  1
  O  O417  1  0.27286215  0.74970574  0.44085977  1
  O  O418  1  0.27302130  0.75042692  0.69071491  1
  O  O419  1  0.27290016  0.74864908  0.94044521  1
  O  O420  1  0.77225674  0.08154411  0.19239082  1
  O  O421  1  0.77290639  0.08286503  0.44067854  1
  O  O422  1  0.77167592  0.08221622  0.69125266  1
  O  O423  1  0.77105511  0.08369141  0.94301550  1
  O  O424  1  0.77200051  0.41799911  0.19218259  1
  O  O425  1  0.77243846  0.41763263  0.44039977  1
  O  O426  1  0.77139631  0.41845099  0.69077836  1
  O  O427  1  0.77217005  0.41448752  0.94141439  1
  O  O428  1  0.77093867  0.75003432  0.19376188  1
  O  O429  1  0.77174784  0.75135207  0.44176207  1
  O  O430  1  0.77180274  0.74913527  0.69160695  1
  O  O431  1  0.77125031  0.74967353  0.94381058  1
  O  O432  1  0.02176632  0.08546005  0.18292988  1
  O  O433  1  0.02259244  0.08569729  0.43268567  1
  O  O434  1  0.02288860  0.08415787  0.68439061  1
  O  O435  1  0.02125000  0.08327931  0.93185414  1
  O  O436  1  0.02230415  0.41455627  0.18301936  1
  O  O437  1  0.02259967  0.41450528  0.43254288  1
  O  O438  1  0.02163631  0.41589217  0.68128101  1
  O  O439  1  0.02227656  0.41450493  0.93287084  1
  O  O440  1  0.02178329  0.74795478  0.18342450  1
  O  O441  1  0.02141247  0.74976761  0.43166555  1
  O  O442  1  0.02219517  0.74858728  0.68308810  1
  O  O443  1  0.02225032  0.75183016  0.93299751  1
  O  O444  1  0.52228265  0.08389206  0.18533160  1
  O  O445  1  0.52256182  0.08288320  0.43458739  1
  O  O446  1  0.52197142  0.08142070  0.68300163  1
  O  O447  1  0.52161211  0.08252304  0.93361517  1
  O  O448  1  0.52224729  0.41800085  0.18369051  1
  O  O449  1  0.52321188  0.41769133  0.43372252  1
  O  O450  1  0.52179256  0.41663094  0.68123558  1
  O  O451  1  0.52299497  0.41765915  0.93467443  1
  O  O452  1  0.52145090  0.74921757  0.18335718  1
  O  O453  1  0.52210647  0.75145310  0.43275782  1
  O  O454  1  0.52234154  0.74859192  0.68291273  1
  O  O455  1  0.52157450  0.75035886  0.93186010  1
  O  O456  1  0.47777468  0.25157476  0.06778277  1
  O  O457  1  0.47749182  0.24888207  0.31750826  1
  O  O458  1  0.47716110  0.24936206  0.56551743  1
  O  O459  1  0.47827129  0.24969892  0.81818663  1
  O  O460  1  0.47791622  0.58166688  0.06689896  1
  O  O461  1  0.47693266  0.58371764  0.31541437  1
  O  O462  1  0.47795395  0.58187743  0.56619164  1
  O  O463  1  0.47790335  0.58475753  0.81663070  1
  O  O464  1  0.47747885  0.91880743  0.06714376  1
  O  O465  1  0.47736731  0.91867170  0.31718926  1
  O  O466  1  0.47687483  0.91656570  0.56553596  1
  O  O467  1  0.47778312  0.91808399  0.81669381  1
  O  O468  1  0.97802694  0.25173024  0.06679619  1
  O  O469  1  0.97710165  0.24991699  0.31567662  1
  O  O470  1  0.97759610  0.24915020  0.56540165  1
  O  O471  1  0.97821769  0.24798245  0.81658618  1
  O  O472  1  0.97902325  0.58304011  0.06813154  1
  O  O473  1  0.97820025  0.58396543  0.31678201  1
  O  O474  1  0.97891105  0.58238104  0.56852513  1
  O  O475  1  0.97827845  0.58451259  0.81697357  1
  O  O476  1  0.97798591  0.91490888  0.06728645  1
  O  O477  1  0.97875393  0.91723042  0.31857473  1
  O  O478  1  0.97861083  0.91751253  0.56846260  1
  O  O479  1  0.97783148  0.91785414  0.81683825  1
  O  O480  1  0.07347854  0.31417205  0.07423087  1
  O  O481  1  0.07209131  0.31359658  0.32335284  1
  O  O482  1  0.07208240  0.31332731  0.57318399  1
  O  O483  1  0.07324908  0.31243759  0.82384567  1
  O  O484  1  0.07479111  0.64604957  0.07529025  1
  O  O485  1  0.07311675  0.64751876  0.32405639  1
  O  O486  1  0.07417795  0.64646813  0.57496614  1
  O  O487  1  0.07324392  0.64783802  0.82417380  1
  O  O488  1  0.07309907  0.97929497  0.07502921  1
  O  O489  1  0.07412682  0.98072821  0.32560716  1
  O  O490  1  0.07451600  0.98030048  0.57568357  1
  O  O491  1  0.07249869  0.98151170  0.82436093  1
  O  O492  1  0.57260722  0.31493503  0.07499319  1
  O  O493  1  0.57288574  0.31231951  0.32569605  1
  O  O494  1  0.57185745  0.31324912  0.57222961  1
  O  O495  1  0.57344387  0.31364206  0.82497291  1
  O  O496  1  0.57286614  0.64605332  0.07530097  1
  O  O497  1  0.57173264  0.64746444  0.32392283  1
  O  O498  1  0.57325487  0.64572497  0.57358211  1
  O  O499  1  0.57287790  0.64785759  0.82383587  1
  O  O500  1  0.57241896  0.98232160  0.07481383  1
  O  O501  1  0.57236028  0.98195803  0.32496429  1
  O  O502  1  0.57214926  0.97990971  0.57290289  1
  O  O503  1  0.57261952  0.98188798  0.82341987  1
  O  O504  1  0.42701945  0.02041201  0.17756393  1
  O  O505  1  0.42700798  0.02019611  0.42654080  1
  O  O506  1  0.42686054  0.01826910  0.67554724  1
  O  O507  1  0.42671774  0.01889902  0.92672819  1
  O  O508  1  0.42694567  0.35456075  0.17549522  1
  O  O509  1  0.42903194  0.35296091  0.42615491  1
  O  O510  1  0.42672077  0.35274312  0.67396916  1
  O  O511  1  0.42864717  0.35317223  0.92750546  1
  O  O512  1  0.42666700  0.68553367  0.17573859  1
  O  O513  1  0.42664967  0.68795385  0.42498075  1
  O  O514  1  0.42769876  0.68486946  0.67521334  1
  O  O515  1  0.42611154  0.68685274  0.92475324  1
  O  O516  1  0.92685637  0.02098172  0.17610087  1
  O  O517  1  0.92769478  0.02150819  0.42496198  1
  O  O518  1  0.92833899  0.02002535  0.67580975  1
  O  O519  1  0.92580102  0.02007662  0.92447323  1
  O  O520  1  0.92686384  0.35163693  0.17618086  1
  O  O521  1  0.92722238  0.35160378  0.42544862  1
  O  O522  1  0.92611771  0.35235986  0.67384710  1
  O  O523  1  0.92705904  0.35155466  0.92531908  1
  O  O524  1  0.92669996  0.68497502  0.17547299  1
  O  O525  1  0.92565897  0.68635029  0.42527567  1
  O  O526  1  0.92739499  0.68489486  0.67646655  1
  O  O527  1  0.92685136  0.68773771  0.92572995  1
  O  O528  1  0.17678307  0.02004817  0.20163406  1
  O  O529  1  0.17664616  0.02140530  0.45080856  1
  O  O530  1  0.17678351  0.01998011  0.70086844  1
  O  O531  1  0.17717287  0.01885079  0.94931453  1
  O  O532  1  0.17819948  0.35297490  0.19874520  1
  O  O533  1  0.17679421  0.35262933  0.44870219  1
  O  O534  1  0.17685842  0.35200719  0.69894910  1
  O  O535  1  0.17748237  0.35174812  0.94974344  1
  O  O536  1  0.17618582  0.68645248  0.20040351  1
  O  O537  1  0.17780347  0.68638278  0.44899457  1
  O  O538  1  0.17837084  0.68634117  0.69853200  1
  O  O539  1  0.17757790  0.68551340  0.94795455  1
  O  O540  1  0.67713229  0.01867173  0.20012658  1
  O  O541  1  0.67739584  0.01984324  0.44810748  1
  O  O542  1  0.67670769  0.01882476  0.69783959  1
  O  O543  1  0.67578240  0.01992050  0.95000949  1
  O  O544  1  0.67682325  0.35395136  0.20031868  1
  O  O545  1  0.67787830  0.35355893  0.44786009  1
  O  O546  1  0.67615628  0.35420365  0.69791822  1
  O  O547  1  0.67691989  0.35194504  0.94907656  1
  O  O548  1  0.67571250  0.68662902  0.20149277  1
  O  O549  1  0.67617528  0.68787872  0.44970228  1
  O  O550  1  0.67707144  0.68525454  0.69814027  1
  O  O551  1  0.67580815  0.68619277  0.95051293  1
  O  O552  1  0.32365899  0.31451817  0.05191324  1
  O  O553  1  0.32291473  0.31404934  0.30195751  1
  O  O554  1  0.32303623  0.31489581  0.55019420  1
  O  O555  1  0.32388763  0.31514974  0.80138551  1
  O  O556  1  0.32320215  0.64529448  0.05013329  1
  O  O557  1  0.32322956  0.64754514  0.30055694  1
  O  O558  1  0.32338118  0.64809968  0.55089854  1
  O  O559  1  0.32315452  0.64799287  0.80056864  1
  O  O560  1  0.32374060  0.97955089  0.05020570  1
  O  O561  1  0.32381242  0.97871805  0.30137184  1
  O  O562  1  0.32259755  0.97909898  0.55044381  1
  O  O563  1  0.32201538  0.97999917  0.80121447  1
  O  O564  1  0.82374315  0.31328930  0.05004597  1
  O  O565  1  0.82139684  0.31380235  0.30147634  1
  O  O566  1  0.82315458  0.31371488  0.54787086  1
  O  O567  1  0.82268393  0.31477636  0.79981283  1
  O  O568  1  0.82328830  0.64512642  0.05097453  1
  O  O569  1  0.82283068  0.64548375  0.29996704  1
  O  O570  1  0.82131808  0.64723967  0.55085039  1
  O  O571  1  0.82360707  0.64663064  0.79970877  1
  O  O572  1  0.82319772  0.98129107  0.05143660  1
  O  O573  1  0.82277295  0.98008485  0.30193293  1
  O  O574  1  0.82301107  0.98189295  0.55017553  1
  O  O575  1  0.82356860  0.98007734  0.79966167  1
  O  O576  1  0.42751991  0.14779402  0.17750267  1
  O  O577  1  0.42791489  0.14726725  0.42697788  1
  O  O578  1  0.42670399  0.14534618  0.67516292  1
  O  O579  1  0.42621990  0.14595766  0.92570486  1
  O  O580  1  0.42721465  0.48139395  0.17602497  1
  O  O581  1  0.42740960  0.48043067  0.42630197  1
  O  O582  1  0.42601661  0.47940846  0.67418129  1
  O  O583  1  0.42764510  0.48079347  0.92655768  1
  O  O584  1  0.42598320  0.81283908  0.17507577  1
  O  O585  1  0.42736670  0.81508451  0.42555106  1
  O  O586  1  0.42675053  0.81205482  0.67533978  1
  O  O587  1  0.42629772  0.81373331  0.92404009  1
  O  O588  1  0.92626210  0.14828644  0.17593907  1
  O  O589  1  0.92709882  0.14853818  0.42583927  1
  O  O590  1  0.92754224  0.14749439  0.67632558  1
  O  O591  1  0.92587114  0.14676181  0.92399643  1
  O  O592  1  0.92710231  0.47854940  0.17480943  1
  O  O593  1  0.92753823  0.47876015  0.42448827  1
  O  O594  1  0.92629012  0.47919863  0.67379357  1
  O  O595  1  0.92724805  0.47894443  0.92516512  1
  O  O596  1  0.92638078  0.81219142  0.17602530  1
  O  O597  1  0.92610955  0.81329746  0.42484048  1
  O  O598  1  0.92650657  0.81220210  0.67545502  1
  O  O599  1  0.92709454  0.81491235  0.92585077  1
  O  O600  1  0.07307198  0.18725744  0.07488451  1
  O  O601  1  0.07221662  0.18648275  0.32330663  1
  O  O602  1  0.07306724  0.18596699  0.57284431  1
  O  O603  1  0.07360031  0.18537721  0.82442156  1
  O  O604  1  0.07412050  0.51919757  0.07570153  1
  O  O605  1  0.07372105  0.52017562  0.32458330  1
  O  O606  1  0.07470064  0.51965285  0.57580914  1
  O  O607  1  0.07359138  0.52037708  0.82481482  1
  O  O608  1  0.07333172  0.85191075  0.07390637  1
  O  O609  1  0.07423962  0.85370789  0.32551450  1
  O  O610  1  0.07354795  0.85330131  0.57614043  1
  O  O611  1  0.07355433  0.85443665  0.82460152  1
  O  O612  1  0.57327773  0.18776516  0.07554641  1
  O  O613  1  0.57248516  0.18540656  0.32465425  1
  O  O614  1  0.57242822  0.18577983  0.57298196  1
  O  O615  1  0.57379430  0.18675563  0.82564320  1
  O  O616  1  0.57329997  0.51912474  0.07454258  1
  O  O617  1  0.57196102  0.51991550  0.32288027  1
  O  O618  1  0.57307934  0.51874748  0.57343229  1
  O  O619  1  0.57328603  0.52063181  0.82404493  1
  O  O620  1  0.57271275  0.85505179  0.07556207  1
  O  O621  1  0.57276098  0.85505670  0.32510540  1
  O  O622  1  0.57172841  0.85255722  0.57294580  1
  O  O623  1  0.57337997  0.85489549  0.82481841  1
  O  O624  1  0.32348215  0.18742377  0.05069810  1
  O  O625  1  0.32148944  0.18664905  0.30229790  1
  O  O626  1  0.32287644  0.18791330  0.55044718  1
  O  O627  1  0.32394634  0.18805553  0.80030568  1
  O  O628  1  0.32311831  0.51821303  0.05062577  1
  O  O629  1  0.32334427  0.52049645  0.30106307  1
  O  O630  1  0.32296904  0.52098259  0.54995415  1
  O  O631  1  0.32348294  0.52089920  0.79941225  1
  O  O632  1  0.32364198  0.85277362  0.04903652  1
  O  O633  1  0.32334686  0.85151420  0.30181629  1
  O  O634  1  0.32327356  0.85192660  0.55139714  1
  O  O635  1  0.32180921  0.85252908  0.80208464  1
  O  O636  1  0.82382032  0.18655413  0.04926879  1
  O  O637  1  0.82144002  0.18615588  0.30154501  1
  O  O638  1  0.82334699  0.18700167  0.54844733  1
  O  O639  1  0.82239910  0.18738813  0.79951784  1
  O  O640  1  0.82329350  0.51776265  0.05109797  1
  O  O641  1  0.82321930  0.51849631  0.30102641  1
  O  O642  1  0.82237677  0.51968159  0.55103530  1
  O  O643  1  0.82415518  0.51998482  0.79858833  1
  O  O644  1  0.82290527  0.85404775  0.05137141  1
  O  O645  1  0.82188632  0.85271950  0.30152094  1
  O  O646  1  0.82339571  0.85484059  0.54965310  1
  O  O647  1  0.82362927  0.85311830  0.79941058  1
  O  O648  1  0.17641531  0.14695365  0.20080802  1
  O  O649  1  0.17802001  0.14869134  0.44911116  1
  O  O650  1  0.17671122  0.14684410  0.70172559  1
  O  O651  1  0.17693990  0.14612895  0.95013227  1
  O  O652  1  0.17847032  0.48037975  0.19882616  1
  O  O653  1  0.17695380  0.47964266  0.44986959  1
  O  O654  1  0.17689676  0.47915757  0.70026504  1
  O  O655  1  0.17700911  0.47866911  0.94989174  1
  O  O656  1  0.17656032  0.81317080  0.20037086  1
  O  O657  1  0.17790939  0.81364296  0.44918791  1
  O  O658  1  0.17770855  0.81353812  0.69904212  1
  O  O659  1  0.17838660  0.81302288  0.94741151  1
  O  O660  1  0.67711967  0.14574232  0.20080937  1
  O  O661  1  0.67834703  0.14709113  0.44789319  1
  O  O662  1  0.67619116  0.14612279  0.69839492  1
  O  O663  1  0.67555173  0.14675148  0.95055309  1
  O  O664  1  0.67671613  0.48091924  0.19913335  1
  O  O665  1  0.67702293  0.48094001  0.44749082  1
  O  O666  1  0.67616004  0.48125655  0.69867021  1
  O  O667  1  0.67712576  0.47905920  0.94891806  1
  O  O668  1  0.67529751  0.81353147  0.20094288  1
  O  O669  1  0.67700482  0.81511632  0.44990153  1
  O  O670  1  0.67597336  0.81235284  0.69905959  1
  O  O671  1  0.67584001  0.81333039  0.95028171  1
