# generated using pymatgen
data_Na2MnFe(PO4)2
_symmetry_space_group_name_H-M   'P 1'
_cell_length_a   22.33924616
_cell_length_b   20.08942024
_cell_length_c   19.45223743
_cell_angle_alpha   89.93063056
_cell_angle_beta   89.98284016
_cell_angle_gamma   90.00607611
_symmetry_Int_Tables_number   1
_chemical_formula_structural   Na2MnFe(PO4)2
_chemical_formula_sum   'Na96 Mn48 Fe48 P96 O384'
_cell_volume   8729.81698540
_cell_formula_units_Z   48
loop_
 _symmetry_equiv_pos_site_id
 _symmetry_equiv_pos_as_xyz
  1  'x, y, z'
loop_
 _atom_site_type_symbol
 _atom_site_label
 _atom_site_symmetry_multiplicity
 _atom_site_fract_x
 _atom_site_fract_y
 _atom_site_fract_z
 _atom_site_occupancy
  Na  Na0  1  0.14011116  0.25151064  0.24481387  1
  Na  Na1  1  0.13989259  0.24918921  0.49423233  1
  Na  Na2  1  0.14013451  0.24935436  0.74348758  1
  Na  Na3  1  0.14061783  0.24994685  0.99389338  1
  Na  Na4  1  0.14042826  0.58326223  0.24434302  1
  Na  Na5  1  0.14058578  0.58334235  0.49431362  1
  Na  Na6  1  0.14063238  0.58410489  0.74352727  1
  Na  Na7  1  0.14034888  0.58425979  0.99385733  1
  Na  Na8  1  0.14019024  0.91596274  0.24363821  1
  Na  Na9  1  0.14032316  0.91635221  0.49518486  1
  Na  Na10  1  0.14046248  0.91615750  0.74328745  1
  Na  Na11  1  0.14020745  0.91594473  0.99197485  1
  Na  Na12  1  0.64037338  0.25030199  0.24423733  1
  Na  Na13  1  0.64062956  0.25101466  0.49318675  1
  Na  Na14  1  0.64056691  0.25200176  0.74396089  1
  Na  Na15  1  0.64065331  0.24929254  0.99299283  1
  Na  Na16  1  0.64060909  0.58339140  0.24426567  1
  Na  Na17  1  0.64086006  0.58336749  0.49248280  1
  Na  Na18  1  0.64049046  0.58388779  0.74304247  1
  Na  Na19  1  0.64029020  0.58280710  0.99334533  1
  Na  Na20  1  0.64013666  0.91708618  0.24356929  1
  Na  Na21  1  0.64044024  0.91694549  0.49307972  1
  Na  Na22  1  0.64030501  0.91830394  0.74335383  1
  Na  Na23  1  0.64045653  0.91666543  0.99367121  1
  Na  Na24  1  0.35999131  0.08278783  0.00578628  1
  Na  Na25  1  0.35954519  0.08248879  0.25662954  1
  Na  Na26  1  0.35928632  0.08234419  0.50676671  1
  Na  Na27  1  0.35941943  0.08296344  0.75539040  1
  Na  Na28  1  0.35983686  0.41771794  0.00655471  1
  Na  Na29  1  0.36015779  0.41726617  0.25654365  1
  Na  Na30  1  0.36027358  0.41603983  0.50665465  1
  Na  Na31  1  0.36028997  0.41797502  0.75628873  1
  Na  Na32  1  0.35986438  0.74957131  0.00539080  1
  Na  Na33  1  0.35929639  0.74946827  0.25477440  1
  Na  Na34  1  0.35966770  0.75114112  0.50700741  1
  Na  Na35  1  0.35983158  0.75180973  0.75676892  1
  Na  Na36  1  0.85969936  0.08186884  0.00612230  1
  Na  Na37  1  0.85962427  0.08346530  0.25652719  1
  Na  Na38  1  0.85931179  0.08335938  0.50660019  1
  Na  Na39  1  0.85914498  0.08389090  0.75697201  1
  Na  Na40  1  0.85950799  0.41487083  0.00535258  1
  Na  Na41  1  0.85927627  0.41604946  0.25784884  1
  Na  Na42  1  0.85993454  0.41556566  0.50760476  1
  Na  Na43  1  0.85988710  0.41585366  0.75716875  1
  Na  Na44  1  0.85993589  0.74933187  0.00555809  1
  Na  Na45  1  0.85888716  0.74972383  0.25609107  1
  Na  Na46  1  0.85915732  0.74918551  0.50574248  1
  Na  Na47  1  0.85939705  0.75052186  0.75638923  1
  Na  Na48  1  0.10940514  0.08324645  0.11878016  1
  Na  Na49  1  0.10935612  0.08394616  0.37024153  1
  Na  Na50  1  0.10955251  0.08295271  0.61887260  1
  Na  Na51  1  0.10960294  0.08170488  0.86758350  1
  Na  Na52  1  0.10964440  0.41770687  0.11919095  1
  Na  Na53  1  0.10984400  0.41624055  0.36968987  1
  Na  Na54  1  0.10903568  0.41542278  0.61875316  1
  Na  Na55  1  0.10930062  0.41580634  0.86930063  1
  Na  Na56  1  0.10940850  0.75000744  0.11786994  1
  Na  Na57  1  0.10997716  0.75065736  0.36909962  1
  Na  Na58  1  0.10999110  0.74973199  0.61930584  1
  Na  Na59  1  0.11001093  0.74880801  0.86708164  1
  Na  Na60  1  0.60964287  0.08293833  0.11859292  1
  Na  Na61  1  0.60944474  0.08426648  0.36863753  1
  Na  Na62  1  0.60988054  0.08544433  0.61840173  1
  Na  Na63  1  0.61008450  0.08422688  0.86807010  1
  Na  Na64  1  0.60980262  0.41646703  0.11920957  1
  Na  Na65  1  0.61019904  0.41652333  0.36829061  1
  Na  Na66  1  0.61000298  0.41881267  0.61849947  1
  Na  Na67  1  0.60998316  0.41728368  0.86758953  1
  Na  Na68  1  0.60976349  0.75013717  0.11854190  1
  Na  Na69  1  0.61010494  0.75001388  0.36787606  1
  Na  Na70  1  0.60991199  0.75211306  0.61763197  1
  Na  Na71  1  0.60940610  0.74974840  0.86909944  1
  Na  Na72  1  0.39094189  0.24974789  0.13191927  1
  Na  Na73  1  0.39032614  0.25033471  0.38147092  1
  Na  Na74  1  0.39073742  0.25141747  0.63087488  1
  Na  Na75  1  0.39071943  0.25069782  0.88042201  1
  Na  Na76  1  0.39004652  0.58336224  0.13125063  1
  Na  Na77  1  0.39070348  0.58254853  0.38112183  1
  Na  Na78  1  0.39080677  0.58544866  0.63156842  1
  Na  Na79  1  0.39055803  0.58430769  0.88137337  1
  Na  Na80  1  0.39042023  0.91597457  0.12994307  1
  Na  Na81  1  0.39009684  0.91595890  0.38193132  1
  Na  Na82  1  0.39000065  0.91767138  0.63171861  1
  Na  Na83  1  0.38998318  0.91631921  0.88146466  1
  Na  Na84  1  0.89009204  0.24898892  0.13123551  1
  Na  Na85  1  0.89002470  0.25034392  0.38308274  1
  Na  Na86  1  0.89008133  0.24905845  0.63206630  1
  Na  Na87  1  0.89012556  0.24889603  0.88192448  1
  Na  Na88  1  0.89011296  0.58336837  0.13074301  1
  Na  Na89  1  0.88979566  0.58213264  0.38293257  1
  Na  Na90  1  0.89028502  0.58121489  0.63143906  1
  Na  Na91  1  0.89044451  0.58101533  0.88061543  1
  Na  Na92  1  0.89016430  0.91654930  0.13081361  1
  Na  Na93  1  0.89006897  0.91732552  0.38070554  1
  Na  Na94  1  0.88969351  0.91626334  0.63173332  1
  Na  Na95  1  0.89017200  0.91578191  0.88092894  1
  Mn  Mn96  1  0.50017921  0.83440767  0.49932688  1
  Mn  Mn97  1  -0.00045904  0.66500175  0.74918407  1
  Mn  Mn98  1  0.74917725  0.83425518  0.87491479  1
  Mn  Mn99  1  0.74984596  0.33352299  0.62517737  1
  Mn  Mn100  1  0.24998251  0.83220698  0.12358393  1
  Mn  Mn101  1  0.75032934  0.66680017  0.12480765  1
  Mn  Mn102  1  0.24997400  -0.00093509  0.12534144  1
  Mn  Mn103  1  0.00001526  0.83284747  -0.00053705  1
  Mn  Mn104  1  0.75018822  0.49952807  0.12525440  1
  Mn  Mn105  1  0.25073805  0.33428246  0.12460584  1
  Mn  Mn106  1  0.50006802  0.50039705  0.50015345  1
  Mn  Mn107  1  -0.00054898  0.49995132  0.25012813  1
  Mn  Mn108  1  0.24960180  0.50166921  0.87533574  1
  Mn  Mn109  1  0.25093666  0.49976674  0.37497401  1
  Mn  Mn110  1  0.25037240  0.33362151  0.87522080  1
  Mn  Mn111  1  0.49996780  0.16853665  0.74864291  1
  Mn  Mn112  1  0.25063445  0.16566605  0.87446739  1
  Mn  Mn113  1  0.00019919  0.16592462  0.75062920  1
  Mn  Mn114  1  -0.00005360  0.66674233  0.25031067  1
  Mn  Mn115  1  0.49966741  0.16618051  0.25051359  1
  Mn  Mn116  1  0.74989952  -0.00003861  0.12526574  1
  Mn  Mn117  1  -0.00070273  0.33326899  0.25110659  1
  Mn  Mn118  1  0.00007848  0.16609470  0.00005534  1
  Mn  Mn119  1  0.49987466  0.16777884  0.49927917  1
  Mn  Mn120  1  0.74970127  0.66637382  0.87457661  1
  Mn  Mn121  1  0.74943944  0.00080525  0.62449491  1
  Mn  Mn122  1  -0.00051795  0.66579829  0.50020366  1
  Mn  Mn123  1  0.75022695  0.66642615  0.62464586  1
  Mn  Mn124  1  0.24986355  0.16654986  0.12515632  1
  Mn  Mn125  1  0.00039291  0.16635119  0.25038876  1
  Mn  Mn126  1  -0.00051392  0.49919063  0.00002837  1
  Mn  Mn127  1  0.25042216  0.66748895  0.37464699  1
  Mn  Mn128  1  0.24998174  0.50098902  0.62526593  1
  Mn  Mn129  1  0.49966036  0.50042266  -0.00019173  1
  Mn  Mn130  1  0.24946385  0.16684220  0.37560748  1
  Mn  Mn131  1  0.50020622  0.66798545  0.75014857  1
  Mn  Mn132  1  0.49991518  0.00048117  0.75012019  1
  Mn  Mn133  1  0.24936747  -0.00118399  0.37597794  1
  Mn  Mn134  1  0.50027495  0.00003043  -0.00076702  1
  Mn  Mn135  1  -0.00003380  0.83353898  0.49975324  1
  Mn  Mn136  1  -0.00059520  0.83446774  0.24866430  1
  Mn  Mn137  1  0.49928080  0.83364991  0.24989052  1
  Mn  Mn138  1  0.74977230  0.33223807  0.12550070  1
  Mn  Mn139  1  0.00024931  0.00039472  0.50087062  1
  Mn  Mn140  1  0.24974998  0.33279972  0.62570267  1
  Mn  Mn141  1  0.49965014  0.66591754  0.24943029  1
  Mn  Mn142  1  0.74965497  0.00016982  0.37497890  1
  Mn  Mn143  1  0.49966025  0.33317111  -0.00027444  1
  Fe  Fe144  1  0.74984876  0.16748835  0.62577735  1
  Fe  Fe145  1  0.25018274  0.33337537  0.37529235  1
  Fe  Fe146  1  0.74989412  0.83351734  0.62440325  1
  Fe  Fe147  1  0.00042549  -0.00079329  -0.00079388  1
  Fe  Fe148  1  0.50034148  0.83323550  0.00025300  1
  Fe  Fe149  1  0.50019281  0.33307629  0.24977466  1
  Fe  Fe150  1  0.50067267  0.66667767  -0.00003067  1
  Fe  Fe151  1  0.25079071  0.66716635  0.87482725  1
  Fe  Fe152  1  0.25062116  0.66791307  0.62466401  1
  Fe  Fe153  1  0.24977628  -0.00072132  0.62542983  1
  Fe  Fe154  1  0.25029322  0.16611701  0.62483683  1
  Fe  Fe155  1  0.50040533  0.50117507  0.74971069  1
  Fe  Fe156  1  0.75038646  0.49975139  0.62446055  1
  Fe  Fe157  1  -0.00065852  -0.00110170  0.74963914  1
  Fe  Fe158  1  0.24974092  0.83308060  0.87415043  1
  Fe  Fe159  1  -0.00005514  0.00051343  0.25024967  1
  Fe  Fe160  1  0.24920308  0.66694319  0.12464902  1
  Fe  Fe161  1  0.25019824  0.83356815  0.62603966  1
  Fe  Fe162  1  0.75011229  0.49960842  0.87446017  1
  Fe  Fe163  1  0.50049413  0.66721853  0.49987660  1
  Fe  Fe164  1  -0.00091899  0.16643980  0.50078007  1
  Fe  Fe165  1  0.00026823  0.49824206  0.75068695  1
  Fe  Fe166  1  0.24979403  0.50078038  0.12534498  1
  Fe  Fe167  1  0.74984634  0.16659054  0.87525393  1
  Fe  Fe168  1  0.50000558  0.00072199  0.50002186  1
  Fe  Fe169  1  0.75041074  0.33289881  0.37568475  1
  Fe  Fe170  1  -0.00022362  0.66588440  -0.00117374  1
  Fe  Fe171  1  0.75020625  0.00048261  0.87495769  1
  Fe  Fe172  1  0.74991363  0.33294769  0.87510217  1
  Fe  Fe173  1  -0.00009118  0.33290410  0.00020663  1
  Fe  Fe174  1  0.74983394  0.16674412  0.37536524  1
  Fe  Fe175  1  0.50063218  0.49964712  0.25031647  1
  Fe  Fe176  1  0.74997425  0.16629977  0.12498509  1
  Fe  Fe177  1  0.50024505  0.33468804  0.50000538  1
  Fe  Fe178  1  0.50055791  0.83396820  0.75004697  1
  Fe  Fe179  1  0.49970310  -0.00012449  0.24938189  1
  Fe  Fe180  1  0.74961980  0.83326306  0.12491352  1
  Fe  Fe181  1  0.75002309  0.83319128  0.37471625  1
  Fe  Fe182  1  0.24972176  0.83307887  0.37562555  1
  Fe  Fe183  1  0.00018757  0.33226068  0.74994268  1
  Fe  Fe184  1  0.00051837  0.49893900  0.50122595  1
  Fe  Fe185  1  0.24969025  -0.00020827  0.87432171  1
  Fe  Fe186  1  0.74986883  0.66672465  0.37482779  1
  Fe  Fe187  1  0.50029143  0.16683349  0.00009111  1
  Fe  Fe188  1  -0.00027495  0.83208932  0.75002483  1
  Fe  Fe189  1  0.50032491  0.33470436  0.75017688  1
  Fe  Fe190  1  0.75043033  0.49973075  0.37527422  1
  Fe  Fe191  1  -0.00001444  0.33298487  0.50120390  1
  P  P192  1  0.04246787  0.25093699  0.10254335  1
  P  P193  1  0.04226722  0.24986738  0.35481117  1
  P  P194  1  0.04101740  0.24926653  0.60243749  1
  P  P195  1  0.04224109  0.25071678  0.85295889  1
  P  P196  1  0.04198834  0.58436293  0.10201064  1
  P  P197  1  0.04259922  0.58252519  0.35403938  1
  P  P198  1  0.04221571  0.58114546  0.60324367  1
  P  P199  1  0.04206788  0.58126339  0.85243459  1
  P  P200  1  0.04232310  0.91805536  0.10208333  1
  P  P201  1  0.04231139  0.91819678  0.35225075  1
  P  P202  1  0.04222011  0.91611216  0.60445774  1
  P  P203  1  0.04119243  0.91583568  0.85123741  1
  P  P204  1  0.54233156  0.24894664  0.10275090  1
  P  P205  1  0.54198754  0.25157615  0.35266829  1
  P  P206  1  0.54236527  0.25289743  0.60228617  1
  P  P207  1  0.54236195  0.25156042  0.85239398  1
  P  P208  1  0.54251325  0.58401987  0.10263172  1
  P  P209  1  0.54237268  0.58213110  0.35263291  1
  P  P210  1  0.54253689  0.58542808  0.60253709  1
  P  P211  1  0.54254224  0.58309034  0.85245181  1
  P  P212  1  0.54227358  0.91588186  0.10244180  1
  P  P213  1  0.54183124  0.91850157  0.35241909  1
  P  P214  1  0.54248234  0.91870767  0.60240558  1
  P  P215  1  0.54221054  0.91542059  0.85285758  1
  P  P216  1  0.45756266  0.08218648  0.14707424  1
  P  P217  1  0.45739138  0.08206919  0.39719135  1
  P  P218  1  0.45743012  0.08404341  0.64602121  1
  P  P219  1  0.45812813  0.08515921  0.89718372  1
  P  P220  1  0.45886552  0.41669822  0.14856077  1
  P  P221  1  0.45822165  0.41579642  0.39679030  1
  P  P222  1  0.45896184  0.41781090  0.64816873  1
  P  P223  1  0.45730692  0.41724304  0.89595587  1
  P  P224  1  0.45753892  0.74989603  0.14579096  1
  P  P225  1  0.45788847  0.74881731  0.39754884  1
  P  P226  1  0.45815062  0.75251647  0.64733861  1
  P  P227  1  0.45898179  0.75030889  0.89830353  1
  P  P228  1  0.95770855  0.08198563  0.14736303  1
  P  P229  1  0.95732330  0.08432948  0.39786225  1
  P  P230  1  0.95746419  0.08228745  0.64792148  1
  P  P231  1  0.95800884  0.08116322  0.89717830  1
  P  P232  1  0.95657818  0.41612274  0.14691421  1
  P  P233  1  0.95850165  0.41647749  0.39972954  1
  P  P234  1  0.95868480  0.41561180  0.64831734  1
  P  P235  1  0.95781334  0.41437312  0.89687647  1
  P  P236  1  0.95684379  0.74973001  0.14587798  1
  P  P237  1  0.95702342  0.75009768  0.39668341  1
  P  P238  1  0.95737287  0.75026553  0.64746514  1
  P  P239  1  0.95796524  0.74825651  0.89640797  1
  P  P240  1  0.20689430  0.08298853  0.22850633  1
  P  P241  1  0.20725132  0.08279810  0.47960151  1
  P  P242  1  0.20866110  0.08267542  0.72666219  1
  P  P243  1  0.20759705  0.08179848  0.97700540  1
  P  P244  1  0.20811578  0.41790668  0.22786063  1
  P  P245  1  0.20817252  0.41543668  0.47772910  1
  P  P246  1  0.20707656  0.41738899  0.72838717  1
  P  P247  1  0.20744825  0.41780003  0.97872092  1
  P  P248  1  0.20704879  0.74903522  0.22727194  1
  P  P249  1  0.20795154  0.75121540  0.47854097  1
  P  P250  1  0.20881383  0.75010633  0.72734200  1
  P  P251  1  0.20836272  0.74941883  0.97603769  1
  P  P252  1  0.70777313  0.08495785  0.22788250  1
  P  P253  1  0.70748783  0.08485314  0.47775609  1
  P  P254  1  0.70767757  0.08546782  0.72812634  1
  P  P255  1  0.70845647  0.08317398  0.97680556  1
  P  P256  1  0.70786452  0.41635510  0.22929178  1
  P  P257  1  0.70911911  0.41679229  0.47687016  1
  P  P258  1  0.70834430  0.41846091  0.72778055  1
  P  P259  1  0.70850548  0.41620138  0.97627685  1
  P  P260  1  0.70776138  0.75117382  0.22803917  1
  P  P261  1  0.70866883  0.75015153  0.47654506  1
  P  P262  1  0.70766697  0.75156454  0.72680053  1
  P  P263  1  0.70718494  0.75017374  0.97828128  1
  P  P264  1  0.29344827  0.24971831  0.02178863  1
  P  P265  1  0.29235856  0.25140820  0.27288901  1
  P  P266  1  0.29216680  0.24893489  0.52252664  1
  P  P267  1  0.29289119  0.24961598  0.77130223  1
  P  P268  1  0.29141878  0.58430561  0.02323682  1
  P  P269  1  0.29301744  0.58363269  0.27101457  1
  P  P270  1  0.29280503  0.58510195  0.52273204  1
  P  P271  1  0.29261799  0.58591044  0.77208057  1
  P  P272  1  0.29247927  0.91644175  0.02045432  1
  P  P273  1  0.29209875  0.91461251  0.27291832  1
  P  P274  1  0.29128305  0.91592735  0.52383504  1
  P  P275  1  0.29112618  0.91686727  0.77271122  1
  P  P276  1  0.79189966  0.24790045  0.02206151  1
  P  P277  1  0.79156127  0.24942656  0.27384367  1
  P  P278  1  0.79186303  0.24875417  0.52250192  1
  P  P279  1  0.79126769  0.24985425  0.77366544  1
  P  P280  1  0.79252861  0.58236079  0.02113480  1
  P  P281  1  0.79161059  0.58322175  0.27378783  1
  P  P282  1  0.79211531  0.58180030  0.52162138  1
  P  P283  1  0.79211055  0.58193421  0.77178296  1
  P  P284  1  0.79203346  0.91570930  0.02236002  1
  P  P285  1  0.79174437  0.91552133  0.27219228  1
  P  P286  1  0.79189521  0.91543805  0.52194517  1
  P  P287  1  0.79181968  0.91855512  0.77214025  1
  O  O288  1  0.03734156  0.25053103  0.18252380  1
  O  O289  1  0.03690885  0.24954570  0.43470311  1
  O  O290  1  0.03634452  0.24965290  0.68243575  1
  O  O291  1  0.03701962  0.25065912  0.93286890  1
  O  O292  1  0.03687089  0.58427843  0.18197983  1
  O  O293  1  0.03760670  0.58176912  0.43402570  1
  O  O294  1  0.03667039  0.58073893  0.68314450  1
  O  O295  1  0.03659117  0.58220449  0.93232377  1
  O  O296  1  0.03701747  0.91825211  0.18201104  1
  O  O297  1  0.03729236  0.91779103  0.43223767  1
  O  O298  1  0.03672041  0.91559499  0.68432154  1
  O  O299  1  0.03647637  0.91612043  0.93124108  1
  O  O300  1  0.53696307  0.24943016  0.18269697  1
  O  O301  1  0.53669268  0.25189394  0.43257507  1
  O  O302  1  0.53681677  0.25321453  0.68219696  1
  O  O303  1  0.53715768  0.25050157  0.93231660  1
  O  O304  1  0.53728675  0.58305543  0.18255662  1
  O  O305  1  0.53732486  0.58268909  0.43256018  1
  O  O306  1  0.53745390  0.58499990  0.68247431  1
  O  O307  1  0.53745183  0.58353451  0.93239002  1
  O  O308  1  0.53675828  0.91661032  0.18233638  1
  O  O309  1  0.53665030  0.91862662  0.43238677  1
  O  O310  1  0.53748381  0.91795937  0.68236010  1
  O  O311  1  0.53691235  0.91508396  0.93277766  1
  O  O312  1  0.46314487  0.08304377  0.06716293  1
  O  O313  1  0.46266079  0.08181186  0.31721765  1
  O  O314  1  0.46269580  0.08360839  0.56610369  1
  O  O315  1  0.46317649  0.08519559  0.81723474  1
  O  O316  1  0.46351209  0.41676983  0.06854573  1
  O  O317  1  0.46367332  0.41593881  0.31695200  1
  O  O318  1  0.46386287  0.41741947  0.56816002  1
  O  O319  1  0.46270741  0.41758453  0.81607206  1
  O  O320  1  0.46324583  0.74997419  0.06594261  1
  O  O321  1  0.46271345  0.74891467  0.31761574  1
  O  O322  1  0.46298510  0.75216773  0.56746485  1
  O  O323  1  0.46409452  0.75095611  0.81832585  1
  O  O324  1  0.96286941  0.08215666  0.06742763  1
  O  O325  1  0.96272523  0.08375206  0.31794974  1
  O  O326  1  0.96258160  0.08329625  0.56799888  1
  O  O327  1  0.96327437  0.08115511  0.81727303  1
  O  O328  1  0.96158933  0.41560246  0.06697011  1
  O  O329  1  0.96257853  0.41643212  0.31969442  1
  O  O330  1  0.96408100  0.41594152  0.56842321  1
  O  O331  1  0.96349257  0.41455672  0.81703729  1
  O  O332  1  0.96213615  0.74911694  0.06587704  1
  O  O333  1  0.96202711  0.75025013  0.31670332  1
  O  O334  1  0.96231277  0.75021747  0.56749195  1
  O  O335  1  0.96319853  0.74887385  0.81646446  1
  O  O336  1  0.21233981  0.08207963  0.05699757  1
  O  O337  1  0.21191530  0.08287615  0.30848574  1
  O  O338  1  0.21274064  0.08292503  0.55945992  1
  O  O339  1  0.21369477  0.08196202  0.80661030  1
  O  O340  1  0.21281024  0.41834604  0.05866253  1
  O  O341  1  0.21347231  0.41700920  0.30780589  1
  O  O342  1  0.21302005  0.41579467  0.55768746  1
  O  O343  1  0.21214913  0.41744623  0.80832808  1
  O  O344  1  0.21280912  0.74905279  0.05601741  1
  O  O345  1  0.21222411  0.74990853  0.30717039  1
  O  O346  1  0.21349939  0.75094965  0.55839582  1
  O  O347  1  0.21393702  0.74973638  0.80722343  1
  O  O348  1  0.71348708  0.08310097  0.05675040  1
  O  O349  1  0.71292332  0.08499716  0.30780013  1
  O  O350  1  0.71255232  0.08472824  0.55767812  1
  O  O351  1  0.71323285  0.08493663  0.80796239  1
  O  O352  1  0.71315537  0.41573226  0.05628292  1
  O  O353  1  0.71339861  0.41641597  0.30912930  1
  O  O354  1  0.71382008  0.41693799  0.55686003  1
  O  O355  1  0.71355432  0.41842492  0.80759906  1
  O  O356  1  0.71253549  0.75043781  0.05818809  1
  O  O357  1  0.71329293  0.75083179  0.30792857  1
  O  O358  1  0.71350550  0.75013969  0.55650998  1
  O  O359  1  0.71248623  0.75111430  0.80675434  1
  O  O360  1  0.28754886  0.25131672  0.19290280  1
  O  O361  1  0.28665843  0.24990145  0.44262250  1
  O  O362  1  0.28752202  0.24892596  0.69138793  1
  O  O363  1  0.28840867  0.24975135  0.94180453  1
  O  O364  1  0.28753367  0.58357196  0.19113568  1
  O  O365  1  0.28793911  0.58460660  0.44277320  1
  O  O366  1  0.28744834  0.58608483  0.69216772  1
  O  O367  1  0.28642362  0.58471614  0.94324651  1
  O  O368  1  0.28714481  0.91486365  0.19294083  1
  O  O369  1  0.28643983  0.91571999  0.44390666  1
  O  O370  1  0.28619924  0.91643898  0.69281400  1
  O  O371  1  0.28733956  0.91689241  0.94056663  1
  O  O372  1  0.78684351  0.24963743  0.19388596  1
  O  O373  1  0.78671693  0.24890234  0.44266780  1
  O  O374  1  0.78648381  0.25023413  0.69372105  1
  O  O375  1  0.78654323  0.24798811  0.94224787  1
  O  O376  1  0.78691501  0.58361952  0.19376769  1
  O  O377  1  0.78667450  0.58199571  0.44176970  1
  O  O378  1  0.78699602  0.58188995  0.69180758  1
  O  O379  1  0.78714733  0.58188855  0.94119742  1
  O  O380  1  0.78636694  0.91556624  0.19228013  1
  O  O381  1  0.78654024  0.91531618  0.44202807  1
  O  O382  1  0.78676868  0.91836902  0.69224143  1
  O  O383  1  0.78660250  0.91679191  0.94247097  1
  O  O384  1  0.22892409  0.25029330  0.05666224  1
  O  O385  1  0.22794108  0.25160812  0.30820087  1
  O  O386  1  0.22795575  0.24799905  0.55850840  1
  O  O387  1  0.22857381  0.24958334  0.80670925  1
  O  O388  1  0.22721245  0.58408294  0.05929249  1
  O  O389  1  0.22885698  0.58353099  0.30695295  1
  O  O390  1  0.22839360  0.58533740  0.55801272  1
  O  O391  1  0.22826501  0.58627226  0.80767299  1
  O  O392  1  0.22817138  0.91624707  0.05605807  1
  O  O393  1  0.22766666  0.91446528  0.30831154  1
  O  O394  1  0.22716779  0.91524256  0.55986558  1
  O  O395  1  0.22703359  0.91713225  0.80890700  1
  O  O396  1  0.72772009  0.24783374  0.05826245  1
  O  O397  1  0.72732683  0.24946099  0.30964655  1
  O  O398  1  0.72765886  0.24878788  0.55854067  1
  O  O399  1  0.72710812  0.24945022  0.80954853  1
  O  O400  1  0.72828307  0.58288185  0.05674272  1
  O  O401  1  0.72739063  0.58242181  0.30946927  1
  O  O402  1  0.72799503  0.58172577  0.55784578  1
  O  O403  1  0.72783157  0.58197057  0.80748687  1
  O  O404  1  0.72783683  0.91525832  0.05839452  1
  O  O405  1  0.72756087  0.91553817  0.30816608  1
  O  O406  1  0.72766047  0.91562775  0.55784938  1
  O  O407  1  0.72753035  0.91916844  0.80783522  1
  O  O408  1  0.27142150  0.08298944  0.19355994  1
  O  O409  1  0.27136508  0.08278719  0.44357261  1
  O  O410  1  0.27273811  0.08357446  0.69053435  1
  O  O411  1  0.27210749  0.08128057  0.94188695  1
  O  O412  1  0.27235049  0.41878567  0.19198580  1
  O  O413  1  0.27258131  0.41506986  0.44240848  1
  O  O414  1  0.27153825  0.41710973  0.69342481  1
  O  O415  1  0.27177558  0.41788131  0.94329261  1
  O  O416  1  0.27136769  0.74813914  0.19151624  1
  O  O417  1  0.27212354  0.75167839  0.44230034  1
  O  O418  1  0.27293147  0.75053489  0.69104452  1
  O  O419  1  0.27271565  0.74958971  0.94047296  1
  O  O420  1  0.77203074  0.08467817  0.19207490  1
  O  O421  1  0.77178737  0.08473513  0.44208790  1
  O  O422  1  0.77177997  0.08535813  0.69179526  1
  O  O423  1  0.77262496  0.08315327  0.94071309  1
  O  O424  1  0.77202954  0.41594485  0.19334113  1
  O  O425  1  0.77333115  0.41716169  0.44113018  1
  O  O426  1  0.77252322  0.41825210  0.69165009  1
  O  O427  1  0.77274640  0.41640967  0.94062797  1
  O  O428  1  0.77186417  0.75170643  0.19166378  1
  O  O429  1  0.77278170  0.75043943  0.44055482  1
  O  O430  1  0.77205286  0.75150416  0.69141339  1
  O  O431  1  0.77141808  0.75011144  0.94267723  1
  O  O432  1  0.02203464  0.08180549  0.18304489  1
  O  O433  1  0.02153836  0.08521756  0.43376157  1
  O  O434  1  0.02178909  0.08148878  0.68343561  1
  O  O435  1  0.02227451  0.08148107  0.93294466  1
  O  O436  1  0.02103449  0.41634575  0.18196659  1
  O  O437  1  0.02290390  0.41669194  0.43489317  1
  O  O438  1  0.02273024  0.41545268  0.68473724  1
  O  O439  1  0.02181701  0.41439783  0.93341853  1
  O  O440  1  0.02120116  0.75017692  0.18117481  1
  O  O441  1  0.02146213  0.74968504  0.43170490  1
  O  O442  1  0.02176861  0.74977549  0.68264594  1
  O  O443  1  0.02215350  0.74808407  0.93231373  1
  O  O444  1  0.52177547  0.08187241  0.18306418  1
  O  O445  1  0.52170065  0.08238030  0.43287085  1
  O  O446  1  0.52171414  0.08413641  0.68144734  1
  O  O447  1  0.52244457  0.08504646  0.93271967  1
  O  O448  1  0.52311207  0.41653598  0.18417095  1
  O  O449  1  0.52239885  0.41594258  0.43294071  1
  O  O450  1  0.52310023  0.41796006  0.68418921  1
  O  O451  1  0.52153487  0.41706917  0.93163458  1
  O  O452  1  0.52159960  0.75008736  0.18184846  1
  O  O453  1  0.52233063  0.74922925  0.43281651  1
  O  O454  1  0.52252557  0.75251226  0.68284148  1
  O  O455  1  0.52304975  0.74992808  0.93451536  1
  O  O456  1  0.47805806  0.24859051  0.06700000  1
  O  O457  1  0.47780016  0.25129667  0.31678703  1
  O  O458  1  0.47817573  0.25270948  0.56631911  1
  O  O459  1  0.47813710  0.25241691  0.81657743  1
  O  O460  1  0.47822981  0.58503539  0.06691602  1
  O  O461  1  0.47810008  0.58145276  0.31700226  1
  O  O462  1  0.47822925  0.58558632  0.56689636  1
  O  O463  1  0.47828194  0.58298484  0.81675826  1
  O  O464  1  0.47815130  0.91578614  0.06642349  1
  O  O465  1  0.47749827  0.91857335  0.31680357  1
  O  O466  1  0.47812320  0.91884701  0.56684964  1
  O  O467  1  0.47796600  0.91542153  0.81703587  1
  O  O468  1  0.97810478  0.25087652  0.06704840  1
  O  O469  1  0.97799933  0.24946882  0.31911823  1
  O  O470  1  0.97682938  0.24906420  0.56663935  1
  O  O471  1  0.97797930  0.25055131  0.81721764  1
  O  O472  1  0.97767359  0.58436815  0.06646548  1
  O  O473  1  0.97811088  0.58302119  0.31900286  1
  O  O474  1  0.97799997  0.58089650  0.56733111  1
  O  O475  1  0.97785038  0.58072134  0.81657311  1
  O  O476  1  0.97804593  0.91774814  0.06634551  1
  O  O477  1  0.97790617  0.91860681  0.31684525  1
  O  O478  1  0.97803749  0.91652130  0.56867445  1
  O  O479  1  0.97696993  0.91588608  0.81547967  1
  O  O480  1  0.07304883  0.31462955  0.07420783  1
  O  O481  1  0.07303334  0.31362061  0.32646312  1
  O  O482  1  0.07174961  0.31297925  0.57388052  1
  O  O483  1  0.07325307  0.31389586  0.82397491  1
  O  O484  1  0.07265883  0.64784751  0.07319959  1
  O  O485  1  0.07374998  0.64620200  0.32624629  1
  O  O486  1  0.07289569  0.64528213  0.57583841  1
  O  O487  1  0.07326796  0.64462834  0.82394941  1
  O  O488  1  0.07317177  0.98135095  0.07308669  1
  O  O489  1  0.07306909  0.98189483  0.32415548  1
  O  O490  1  0.07353332  0.97961549  0.57636943  1
  O  O491  1  0.07226693  0.97925975  0.82269992  1
  O  O492  1  0.57355007  0.31245102  0.07460210  1
  O  O493  1  0.57290422  0.31479933  0.32361509  1
  O  O494  1  0.57340175  0.31625268  0.57367340  1
  O  O495  1  0.57330559  0.31528164  0.82439853  1
  O  O496  1  0.57362415  0.64752160  0.07437559  1
  O  O497  1  0.57332076  0.64571682  0.32438679  1
  O  O498  1  0.57300995  0.64919383  0.57385150  1
  O  O499  1  0.57388152  0.64653804  0.82436780  1
  O  O500  1  0.57376776  0.97921421  0.07420466  1
  O  O501  1  0.57290756  0.98168177  0.32348767  1
  O  O502  1  0.57312873  0.98246682  0.57411740  1
  O  O503  1  0.57304939  0.97948506  0.82545820  1
  O  O504  1  0.42676099  0.01836728  0.17499050  1
  O  O505  1  0.42650289  0.01883349  0.42628004  1
  O  O506  1  0.42614120  0.02089164  0.67481606  1
  O  O507  1  0.42706437  0.02126872  0.92452374  1
  O  O508  1  0.42804003  0.35285879  0.17648214  1
  O  O509  1  0.42741125  0.35236669  0.42576486  1
  O  O510  1  0.42788811  0.35435080  0.67657623  1
  O  O511  1  0.42599318  0.35390381  0.92440172  1
  O  O512  1  0.42634107  0.68644522  0.17409311  1
  O  O513  1  0.42772354  0.68501993  0.42634738  1
  O  O514  1  0.42693821  0.68909800  0.67567804  1
  O  O515  1  0.42833255  0.68622229  0.92599124  1
  O  O516  1  0.92675581  0.01866835  0.17623032  1
  O  O517  1  0.92647341  0.02060020  0.42598636  1
  O  O518  1  0.92642244  0.01866966  0.67594412  1
  O  O519  1  0.92729788  0.01768968  0.92591828  1
  O  O520  1  0.92536597  0.35298237  0.17591531  1
  O  O521  1  0.92826877  0.35247440  0.42830896  1
  O  O522  1  0.92760484  0.35185243  0.67635421  1
  O  O523  1  0.92691494  0.35093038  0.92561205  1
  O  O524  1  0.92559842  0.68660521  0.17470904  1
  O  O525  1  0.92590806  0.68664724  0.42495718  1
  O  O526  1  0.92587264  0.68669273  0.67494552  1
  O  O527  1  0.92730562  0.68440579  0.92448940  1
  O  O528  1  0.17600624  0.01950033  0.20028441  1
  O  O529  1  0.17600704  0.01929572  0.45152709  1
  O  O530  1  0.17836820  0.01875852  0.69812985  1
  O  O531  1  0.17666943  0.01851771  0.94823524  1
  O  O532  1  0.17707161  0.35439873  0.19969863  1
  O  O533  1  0.17737094  0.35185420  0.44951556  1
  O  O534  1  0.17577061  0.35400098  0.70046719  1
  O  O535  1  0.17671141  0.35392899  0.95095562  1
  O  O536  1  0.17604515  0.68548227  0.19915019  1
  O  O537  1  0.17689902  0.68763816  0.45038070  1
  O  O538  1  0.17803556  0.68661163  0.69847256  1
  O  O539  1  0.17735961  0.68610413  0.94746851  1
  O  O540  1  0.67663597  0.02125419  0.20019831  1
  O  O541  1  0.67658130  0.02109104  0.44981035  1
  O  O542  1  0.67614862  0.02222904  0.69981575  1
  O  O543  1  0.67786178  0.01933547  0.94852022  1
  O  O544  1  0.67641523  0.35316024  0.20080205  1
  O  O545  1  0.67911653  0.35251555  0.44868124  1
  O  O546  1  0.67718309  0.35478532  0.69986798  1
  O  O547  1  0.67814306  0.35229092  0.94778011  1
  O  O548  1  0.67687705  0.68736305  0.20007699  1
  O  O549  1  0.67849631  0.68600957  0.44819659  1
  O  O550  1  0.67662107  0.68799642  0.69881882  1
  O  O551  1  0.67620420  0.68655196  0.95028239  1
  O  O552  1  0.32489867  0.31302562  0.04971355  1
  O  O553  1  0.32298935  0.31496950  0.30146037  1
  O  O554  1  0.32313653  0.31250943  0.55071027  1
  O  O555  1  0.32367853  0.31350201  0.79889119  1
  O  O556  1  0.32220313  0.64790048  0.05151180  1
  O  O557  1  0.32421377  0.64702622  0.29935213  1
  O  O558  1  0.32353022  0.64868770  0.55099617  1
  O  O559  1  0.32393082  0.64892152  0.80099658  1
  O  O560  1  0.32374637  0.97951616  0.04950740  1
  O  O561  1  0.32304532  0.97823349  0.30090284  1
  O  O562  1  0.32119833  0.98022507  0.55212476  1
  O  O563  1  0.32244261  0.98034062  0.80068530  1
  O  O564  1  0.82297714  0.31150824  0.05014168  1
  O  O565  1  0.82204112  0.31324900  0.30263388  1
  O  O566  1  0.82297436  0.31233762  0.55067285  1
  O  O567  1  0.82140296  0.31390251  0.80223571  1
  O  O568  1  0.82375606  0.64590344  0.04892381  1
  O  O569  1  0.82154184  0.64738020  0.30216803  1
  O  O570  1  0.82327804  0.64541892  0.54961350  1
  O  O571  1  0.82298375  0.64590867  0.79923443  1
  O  O572  1  0.82316182  0.97911803  0.05070741  1
  O  O573  1  0.82262798  0.97943853  0.29981933  1
  O  O574  1  0.82299402  0.97920673  0.54945044  1
  O  O575  1  0.82273320  0.98191685  0.80087470  1
  O  O576  1  0.42626606  0.14544884  0.17551886  1
  O  O577  1  0.42645397  0.14605838  0.42445475  1
  O  O578  1  0.42648715  0.14778452  0.67367530  1
  O  O579  1  0.42754661  0.14862609  0.92590874  1
  O  O580  1  0.42830301  0.48050814  0.17667786  1
  O  O581  1  0.42686673  0.47920420  0.42502799  1
  O  O582  1  0.42836449  0.48191439  0.67580991  1
  O  O583  1  0.42608691  0.48056398  0.92461770  1
  O  O584  1  0.42604506  0.81315234  0.17416523  1
  O  O585  1  0.42660354  0.81236450  0.42516607  1
  O  O586  1  0.42775159  0.81617113  0.67618061  1
  O  O587  1  0.42800788  0.81377434  0.92667072  1
  O  O588  1  0.92686029  0.14579547  0.17526643  1
  O  O589  1  0.92615824  0.14763641  0.42631117  1
  O  O590  1  0.92662821  0.14576465  0.67650422  1
  O  O591  1  0.92688803  0.14487240  0.92485986  1
  O  O592  1  0.92578237  0.47992276  0.17490239  1
  O  O593  1  0.92753359  0.47990179  0.42806199  1
  O  O594  1  0.92779889  0.47913869  0.67692082  1
  O  O595  1  0.92648539  0.47793631  0.92467534  1
  O  O596  1  0.92589709  0.81355222  0.17350269  1
  O  O597  1  0.92623573  0.81374067  0.42465052  1
  O  O598  1  0.92705742  0.81391246  0.67622013  1
  O  O599  1  0.92662492  0.81165205  0.92443896  1
  O  O600  1  0.07363437  0.18735279  0.07468949  1
  O  O601  1  0.07387084  0.18691773  0.32599184  1
  O  O602  1  0.07179245  0.18551582  0.57448993  1
  O  O603  1  0.07327227  0.18688576  0.82525704  1
  O  O604  1  0.07304452  0.52061080  0.07458074  1
  O  O605  1  0.07348639  0.51927846  0.32496851  1
  O  O606  1  0.07354558  0.51804510  0.57466462  1
  O  O607  1  0.07286920  0.51750092  0.82462775  1
  O  O608  1  0.07344828  0.85430513  0.07435397  1
  O  O609  1  0.07307419  0.85451104  0.32416034  1
  O  O610  1  0.07339540  0.85287676  0.57571042  1
  O  O611  1  0.07157525  0.85169355  0.82334587  1
  O  O612  1  0.57291209  0.18523257  0.07436781  1
  O  O613  1  0.57306044  0.18769348  0.32533619  1
  O  O614  1  0.57336924  0.18906325  0.57481924  1
  O  O615  1  0.57335878  0.18819688  0.82384167  1
  O  O616  1  0.57334647  0.52039297  0.07437210  1
  O  O617  1  0.57321345  0.51856977  0.32424963  1
  O  O618  1  0.57374949  0.52200690  0.57447331  1
  O  O619  1  0.57310552  0.51948115  0.82382074  1
  O  O620  1  0.57296305  0.85214410  0.07439782  1
  O  O621  1  0.57260491  0.85449095  0.32495583  1
  O  O622  1  0.57370816  0.85540312  0.57394269  1
  O  O623  1  0.57326000  0.85227828  0.82392794  1
  O  O624  1  0.32383879  0.18591285  0.05013152  1
  O  O625  1  0.32330193  0.18763337  0.30066428  1
  O  O626  1  0.32329473  0.18533806  0.55040789  1
  O  O627  1  0.32437549  0.18645842  0.79978789  1
  O  O628  1  0.32218148  0.52041135  0.05121287  1
  O  O629  1  0.32436468  0.52033914  0.29960746  1
  O  O630  1  0.32371109  0.52134134  0.55069891  1
  O  O631  1  0.32315447  0.52189713  0.80002412  1
  O  O632  1  0.32352439  0.85279283  0.04863671  1
  O  O633  1  0.32269949  0.85095312  0.30138626  1
  O  O634  1  0.32308493  0.85300568  0.55236086  1
  O  O635  1  0.32157043  0.85305198  0.80163111  1
  O  O636  1  0.82278777  0.18449424  0.05105511  1
  O  O637  1  0.82263531  0.18590438  0.30200240  1
  O  O638  1  0.82264623  0.18539394  0.55161493  1
  O  O639  1  0.82277733  0.18657373  0.80172081  1
  O  O640  1  0.82358171  0.51899914  0.04975339  1
  O  O641  1  0.82311282  0.51982478  0.30161997  1
  O  O642  1  0.82312119  0.51843776  0.55045842  1
  O  O643  1  0.82308194  0.51867646  0.80065135  1
  O  O644  1  0.82285144  0.85194458  0.05020509  1
  O  O645  1  0.82287786  0.85231146  0.30086550  1
  O  O646  1  0.82265034  0.85200363  0.55085320  1
  O  O647  1  0.82264334  0.85476530  0.80011518  1
  O  O648  1  0.17608171  0.14670923  0.20043565  1
  O  O649  1  0.17592437  0.14608856  0.45112169  1
  O  O650  1  0.17721253  0.14622244  0.69900382  1
  O  O651  1  0.17693983  0.14568268  0.94900093  1
  O  O652  1  0.17705096  0.48152196  0.19975122  1
  O  O653  1  0.17740511  0.47924514  0.44981561  1
  O  O654  1  0.17644391  0.48107947  0.70013337  1
  O  O655  1  0.17597432  0.48093693  0.95024962  1
  O  O656  1  0.17627402  0.81254872  0.19851823  1
  O  O657  1  0.17694305  0.81462767  0.44975528  1
  O  O658  1  0.17764359  0.81374900  0.69930533  1
  O  O659  1  0.17806756  0.81344131  0.94750530  1
  O  O660  1  0.67708413  0.14833233  0.19886712  1
  O  O661  1  0.67656534  0.14819648  0.44905152  1
  O  O662  1  0.67699713  0.14918761  0.69962335  1
  O  O663  1  0.67734732  0.14664826  0.94857696  1
  O  O664  1  0.67689726  0.47988680  0.20076530  1
  O  O665  1  0.67750793  0.47989413  0.44851081  1
  O  O666  1  0.67744623  0.48170696  0.69855150  1
  O  O667  1  0.67749326  0.47982766  0.94831469  1
  O  O668  1  0.67655548  0.81450627  0.19949057  1
  O  O669  1  0.67720029  0.81344159  0.44831816  1
  O  O670  1  0.67720107  0.81534690  0.69844380  1
  O  O671  1  0.67582356  0.81343301  0.94995296  1
