# generated using pymatgen
data_Na2MnFe(PO4)2
_symmetry_space_group_name_H-M   'P 1'
_cell_length_a   22.34284101
_cell_length_b   20.09357981
_cell_length_c   19.44989517
_cell_angle_alpha   90.02253659
_cell_angle_beta   89.95554898
_cell_angle_gamma   89.98526123
_symmetry_Int_Tables_number   1
_chemical_formula_structural   Na2MnFe(PO4)2
_chemical_formula_sum   'Na96 Mn48 Fe48 P96 O384'
_cell_volume   8731.98131302
_cell_formula_units_Z   48
loop_
 _symmetry_equiv_pos_site_id
 _symmetry_equiv_pos_as_xyz
  1  'x, y, z'
loop_
 _atom_site_type_symbol
 _atom_site_label
 _atom_site_symmetry_multiplicity
 _atom_site_fract_x
 _atom_site_fract_y
 _atom_site_fract_z
 _atom_site_occupancy
  Na  Na0  1  0.14151779  0.25065179  0.24369233  1
  Na  Na1  1  0.14102949  0.24947453  0.49400231  1
  Na  Na2  1  0.14084310  0.24992112  0.74472445  1
  Na  Na3  1  0.14079573  0.25103885  0.99257685  1
  Na  Na4  1  0.14049991  0.58394204  0.24395096  1
  Na  Na5  1  0.14057748  0.58435479  0.49324475  1
  Na  Na6  1  0.14093155  0.58435890  0.74396929  1
  Na  Na7  1  0.14077680  0.58312131  0.99409121  1
  Na  Na8  1  0.14084072  0.91554252  0.24447442  1
  Na  Na9  1  0.14100389  0.91559169  0.49444986  1
  Na  Na10  1  0.14078664  0.91611645  0.74310069  1
  Na  Na11  1  0.14073743  0.91674130  0.99354012  1
  Na  Na12  1  0.64017223  0.24952754  0.24304266  1
  Na  Na13  1  0.64029481  0.24917588  0.49352526  1
  Na  Na14  1  0.64044542  0.24971177  0.74398179  1
  Na  Na15  1  0.64047566  0.25122822  0.99344304  1
  Na  Na16  1  0.64012631  0.58249054  0.24399643  1
  Na  Na17  1  0.64059200  0.58129403  0.49325177  1
  Na  Na18  1  0.63998791  0.58248464  0.74493152  1
  Na  Na19  1  0.64011837  0.58347029  0.99242873  1
  Na  Na20  1  0.64008198  0.91694347  0.24299902  1
  Na  Na21  1  0.63985911  0.91623204  0.49356883  1
  Na  Na22  1  0.63975134  0.91678075  0.74300024  1
  Na  Na23  1  0.63974530  0.91839094  0.99285540  1
  Na  Na24  1  0.35976414  0.08387146  0.00633583  1
  Na  Na25  1  0.35976078  0.08342500  0.25723770  1
  Na  Na26  1  0.36016052  0.08192852  0.50677879  1
  Na  Na27  1  0.35991805  0.08269319  0.75609524  1
  Na  Na28  1  0.35980140  0.41823977  0.00637963  1
  Na  Na29  1  0.35953569  0.41871615  0.25599420  1
  Na  Na30  1  0.35966067  0.41766791  0.50639114  1
  Na  Na31  1  0.35935256  0.41727099  0.75791006  1
  Na  Na32  1  0.35989221  0.75007001  0.00756235  1
  Na  Na33  1  0.35968753  0.75147746  0.25658506  1
  Na  Na34  1  0.35963774  0.75167822  0.50663598  1
  Na  Na35  1  0.36000712  0.75015360  0.75696572  1
  Na  Na36  1  0.85910951  0.08487085  0.00630714  1
  Na  Na37  1  0.85921120  0.08396873  0.25449986  1
  Na  Na38  1  0.85934845  0.08270526  0.50673981  1
  Na  Na39  1  0.85924621  0.08300306  0.75652208  1
  Na  Na40  1  0.85935147  0.41616451  0.00539153  1
  Na  Na41  1  0.85889460  0.41686470  0.25613552  1
  Na  Na42  1  0.85939063  0.41517156  0.50536572  1
  Na  Na43  1  0.85893895  0.41527114  0.75637955  1
  Na  Na44  1  0.85953634  0.75133274  0.00571435  1
  Na  Na45  1  0.85933580  0.74835410  0.25662037  1
  Na  Na46  1  0.85938565  0.74747012  0.50624638  1
  Na  Na47  1  0.85946849  0.74893970  0.75623064  1
  Na  Na48  1  0.11032027  0.08219675  0.11848593  1
  Na  Na49  1  0.11007531  0.08219503  0.36912848  1
  Na  Na50  1  0.11000576  0.08213995  0.61943949  1
  Na  Na51  1  0.10976920  0.08474956  0.86912696  1
  Na  Na52  1  0.10991953  0.41708906  0.11862252  1
  Na  Na53  1  0.11005988  0.41715460  0.36821007  1
  Na  Na54  1  0.10972604  0.41656302  0.61993942  1
  Na  Na55  1  0.11032865  0.41749907  0.86810827  1
  Na  Na56  1  0.10997080  0.74866550  0.11956965  1
  Na  Na57  1  0.11036304  0.74827054  0.36879851  1
  Na  Na58  1  0.11062177  0.74922003  0.61856695  1
  Na  Na59  1  0.11008015  0.75112790  0.86872581  1
  Na  Na60  1  0.60960100  0.08422692  0.11744543  1
  Na  Na61  1  0.60957782  0.08260422  0.36894994  1
  Na  Na62  1  0.60984135  0.08205474  0.61776855  1
  Na  Na63  1  0.60972858  0.08292179  0.86818630  1
  Na  Na64  1  0.60942800  0.41740328  0.11767282  1
  Na  Na65  1  0.60975673  0.41599775  0.36838669  1
  Na  Na66  1  0.60957517  0.41607096  0.61845758  1
  Na  Na67  1  0.60998960  0.41697567  0.86887317  1
  Na  Na68  1  0.60898323  0.75136360  0.11810924  1
  Na  Na69  1  0.60964195  0.75023261  0.36901349  1
  Na  Na70  1  0.60925450  0.75020764  0.61874421  1
  Na  Na71  1  0.60917404  0.75139297  0.86912120  1
  Na  Na72  1  0.39049446  0.25101257  0.13064107  1
  Na  Na73  1  0.39061136  0.24982063  0.38215574  1
  Na  Na74  1  0.39069957  0.24872238  0.63123729  1
  Na  Na75  1  0.39016460  0.25018928  0.88254047  1
  Na  Na76  1  0.38978951  0.58507256  0.13106188  1
  Na  Na77  1  0.39033362  0.58521101  0.38165944  1
  Na  Na78  1  0.39025877  0.58429394  0.63168966  1
  Na  Na79  1  0.39008660  0.58442070  0.88366994  1
  Na  Na80  1  0.39037136  0.91832388  0.13170248  1
  Na  Na81  1  0.39022714  0.91744055  0.38249893  1
  Na  Na82  1  0.39008232  0.91658581  0.63124256  1
  Na  Na83  1  0.39067999  0.91637556  0.88085581  1
  Na  Na84  1  0.88971714  0.24998374  0.13072630  1
  Na  Na85  1  0.89005990  0.24984602  0.38013066  1
  Na  Na86  1  0.89006027  0.24845058  0.63167318  1
  Na  Na87  1  0.88988124  0.25043676  0.88122969  1
  Na  Na88  1  0.89002223  0.58279193  0.13142154  1
  Na  Na89  1  0.88954702  0.58226137  0.38101977  1
  Na  Na90  1  0.89004363  0.58196015  0.63055552  1
  Na  Na91  1  0.89042518  0.58405003  0.88042914  1
  Na  Na92  1  0.89017716  0.91562485  0.13037061  1
  Na  Na93  1  0.89022867  0.91505428  0.38101392  1
  Na  Na94  1  0.89011697  0.91538916  0.63176188  1
  Na  Na95  1  0.89032250  0.91791795  0.88099100  1
  Mn  Mn96  1  0.00056857  0.33291392  0.49958096  1
  Mn  Mn97  1  0.00023139  0.00002706  0.00025736  1
  Mn  Mn98  1  0.50025295  0.16521387  0.75080774  1
  Mn  Mn99  1  0.25030709  0.16647723  0.37504812  1
  Mn  Mn100  1  0.00035876  0.83117688  0.50095368  1
  Mn  Mn101  1  0.00017165  0.50039877  0.74954567  1
  Mn  Mn102  1  0.74912839  0.83269055  0.62463284  1
  Mn  Mn103  1  0.00091076  0.33336753  0.24962382  1
  Mn  Mn104  1  0.25103491  0.16595446  0.62447557  1
  Mn  Mn105  1  0.50004251  0.66731202  0.50042311  1
  Mn  Mn106  1  0.74992859  0.66670699  0.87450810  1
  Mn  Mn107  1  -0.00061286  0.33331575  0.00021448  1
  Mn  Mn108  1  0.49990448  0.16674659  -0.00044551  1
  Mn  Mn109  1  0.74932357  0.83425003  0.12557385  1
  Mn  Mn110  1  0.50046631  0.66763821  0.75071409  1
  Mn  Mn111  1  0.49943169  0.50007179  0.75090845  1
  Mn  Mn112  1  0.25075788  0.83272751  0.87507552  1
  Mn  Mn113  1  0.00017409  0.83124655  0.25074228  1
  Mn  Mn114  1  0.00023669  0.66748426  0.00045668  1
  Mn  Mn115  1  0.00046956  0.16613991  0.24980406  1
  Mn  Mn116  1  0.49938097  0.33301158  0.74976252  1
  Mn  Mn117  1  0.74921768  0.16686724  0.37468208  1
  Mn  Mn118  1  0.50030970  0.00046347  0.25007842  1
  Mn  Mn119  1  0.24960655  0.50124733  0.62569200  1
  Mn  Mn120  1  0.00010050  0.16663479  0.74985927  1
  Mn  Mn121  1  0.75002349  0.49903734  0.12466498  1
  Mn  Mn122  1  -0.00010620  -0.00124290  0.24937652  1
  Mn  Mn123  1  0.00015675  0.50046047  -0.00065748  1
  Mn  Mn124  1  0.74959425  0.33269850  0.62521624  1
  Mn  Mn125  1  0.74997862  0.00004932  0.37477183  1
  Mn  Mn126  1  0.49990981  0.50106655  0.24931119  1
  Mn  Mn127  1  0.74963675  0.66652365  0.12438342  1
  Mn  Mn128  1  0.50036500  0.66846163  0.25037500  1
  Mn  Mn129  1  -0.00030461  -0.00127564  0.49991574  1
  Mn  Mn130  1  0.25059421  0.33506730  0.12394754  1
  Mn  Mn131  1  0.25025088  0.50117795  0.37522053  1
  Mn  Mn132  1  0.25064859  0.33341558  0.62583776  1
  Mn  Mn133  1  0.75057726  0.83235456  0.37451722  1
  Mn  Mn134  1  0.00005663  0.16573922  0.50054995  1
  Mn  Mn135  1  0.49926558  0.33330082  0.25000708  1
  Mn  Mn136  1  0.74946588  0.00051303  0.87444999  1
  Mn  Mn137  1  0.25069935  0.16678923  0.12532276  1
  Mn  Mn138  1  0.49999772  0.33285730  0.49975316  1
  Mn  Mn139  1  -0.00012455  0.50015195  0.49983777  1
  Mn  Mn140  1  0.25042946  0.00062588  0.87466073  1
  Mn  Mn141  1  0.25014296  0.83349373  0.12549807  1
  Mn  Mn142  1  0.74937522  0.66450471  0.62593099  1
  Mn  Mn143  1  -0.00007696  0.83319030  0.74984092  1
  Fe  Fe144  1  -0.00003358  0.83341844  -0.00049489  1
  Fe  Fe145  1  0.25001414  -0.00046758  0.37587358  1
  Fe  Fe146  1  0.49931763  0.00009160  -0.00020917  1
  Fe  Fe147  1  0.49979105  0.83456824  0.24966000  1
  Fe  Fe148  1  0.49998655  -0.00081236  0.74896958  1
  Fe  Fe149  1  0.00003378  0.33311307  0.74998069  1
  Fe  Fe150  1  0.49998003  0.16668533  0.24972591  1
  Fe  Fe151  1  0.00034700  0.16707082  -0.00053545  1
  Fe  Fe152  1  0.25048571  0.33386056  0.87517653  1
  Fe  Fe153  1  0.25049668  0.50101013  0.87538743  1
  Fe  Fe154  1  0.25081661  0.66726412  0.62504810  1
  Fe  Fe155  1  0.74959235  0.49856444  0.62440321  1
  Fe  Fe156  1  0.49993336  0.83380146  0.50013509  1
  Fe  Fe157  1  0.00029414  0.00013351  0.75084564  1
  Fe  Fe158  1  0.74921278  0.66528377  0.37554128  1
  Fe  Fe159  1  0.75001238  0.00077590  0.12378075  1
  Fe  Fe160  1  0.49978431  0.50021607  0.50022427  1
  Fe  Fe161  1  0.49996869  0.83466165  -0.00027187  1
  Fe  Fe162  1  0.74926447  0.33330631  0.12451206  1
  Fe  Fe163  1  0.49991989  0.66823496  0.00047625  1
  Fe  Fe164  1  0.74962990  0.33274078  0.87475982  1
  Fe  Fe165  1  0.25008491  0.66680811  0.12575479  1
  Fe  Fe166  1  0.25005883  0.16668730  0.87517847  1
  Fe  Fe167  1  -0.00078864  0.66570292  0.24944806  1
  Fe  Fe168  1  0.50025645  0.33388746  0.00045125  1
  Fe  Fe169  1  0.25060869  0.66762315  0.37493406  1
  Fe  Fe170  1  0.50023222  0.16566143  0.50033232  1
  Fe  Fe171  1  0.49969831  0.83394129  0.75030338  1
  Fe  Fe172  1  0.24967195  0.50104897  0.12486385  1
  Fe  Fe173  1  0.74994704  0.33256218  0.37475620  1
  Fe  Fe174  1  0.75022641  0.49939917  0.87489405  1
  Fe  Fe175  1  0.74960179  0.16752895  0.12467209  1
  Fe  Fe176  1  0.74932061  0.49860328  0.37438446  1
  Fe  Fe177  1  0.25035200  0.83366482  0.37574033  1
  Fe  Fe178  1  0.50009998  -0.00047192  0.49965161  1
  Fe  Fe179  1  0.74982323  0.83411400  0.87490715  1
  Fe  Fe180  1  0.74997583  0.16645757  0.62491400  1
  Fe  Fe181  1  0.00008680  0.66542767  0.49958161  1
  Fe  Fe182  1  0.00032335  0.66698407  0.75009338  1
  Fe  Fe183  1  0.25045281  0.33418417  0.37490586  1
  Fe  Fe184  1  0.24986090  -0.00050101  0.62550003  1
  Fe  Fe185  1  0.24981589  0.66673994  0.87547616  1
  Fe  Fe186  1  0.25018795  0.83295653  0.62475035  1
  Fe  Fe187  1  0.74957687  0.16685381  0.87532702  1
  Fe  Fe188  1  -0.00033827  0.49996151  0.24987618  1
  Fe  Fe189  1  0.75020103  -0.00054247  0.62521398  1
  Fe  Fe190  1  0.49996096  0.50089982  0.00031934  1
  Fe  Fe191  1  0.24996692  0.00010711  0.12555482  1
  P  P192  1  0.04288365  0.24882890  0.10208320  1
  P  P193  1  0.04376719  0.24960872  0.35298837  1
  P  P194  1  0.04308170  0.24980962  0.60374060  1
  P  P195  1  0.04223487  0.25113251  0.85278423  1
  P  P196  1  0.04248692  0.58310110  0.10384223  1
  P  P197  1  0.04124731  0.58336512  0.35148333  1
  P  P198  1  0.04253201  0.58432690  0.60275369  1
  P  P199  1  0.04273378  0.58518481  0.85222775  1
  P  P200  1  0.04264863  0.91435526  0.10233968  1
  P  P201  1  0.04291224  0.91533817  0.35332127  1
  P  P202  1  0.04287061  0.91596401  0.60397873  1
  P  P203  1  0.04257728  0.91783182  0.85287641  1
  P  P204  1  0.54202205  0.25109149  0.10240786  1
  P  P205  1  0.54179473  0.24816138  0.35263291  1
  P  P206  1  0.54227499  0.24814963  0.60236184  1
  P  P207  1  0.54228390  0.25029477  0.85369902  1
  P  P208  1  0.54138996  0.58465102  0.10143312  1
  P  P209  1  0.54238727  0.58371631  0.35364940  1
  P  P210  1  0.54220373  0.58244810  0.60269810  1
  P  P211  1  0.54200317  0.58399345  0.85470410  1
  P  P212  1  0.54145335  0.91748540  0.10145887  1
  P  P213  1  0.54208678  0.91553597  0.35283376  1
  P  P214  1  0.54117328  0.91655864  0.60195510  1
  P  P215  1  0.54133080  0.91711156  0.85190200  1
  P  P216  1  0.45766194  0.08463012  0.14732068  1
  P  P217  1  0.45885738  0.08331335  0.39821672  1
  P  P218  1  0.45823444  0.08164050  0.64665213  1
  P  P219  1  0.45777112  0.08147361  0.89702998  1
  P  P220  1  0.45745071  0.41738805  0.14583068  1
  P  P221  1  0.45781042  0.41803575  0.39773062  1
  P  P222  1  0.45681371  0.41698734  0.64665550  1
  P  P223  1  0.45869631  0.41710449  0.89904301  1
  P  P224  1  0.45798720  0.75266478  0.14687442  1
  P  P225  1  0.45782357  0.75222675  0.39752848  1
  P  P226  1  0.45811303  0.75192453  0.64771107  1
  P  P227  1  0.45845770  0.75136635  0.89866206  1
  P  P228  1  0.95756110  0.08305808  0.14589987  1
  P  P229  1  0.95678947  0.08265044  0.39678019  1
  P  P230  1  0.95747085  0.08134284  0.64802485  1
  P  P231  1  0.95772816  0.08461453  0.89742504  1
  P  P232  1  0.95748049  0.41757116  0.14752885  1
  P  P233  1  0.95751442  0.41691053  0.39612633  1
  P  P234  1  0.95751829  0.41521670  0.64757356  1
  P  P235  1  0.95751793  0.41667297  0.89598220  1
  P  P236  1  0.95711269  0.74852085  0.14720124  1
  P  P237  1  0.95758514  0.74719173  0.39741226  1
  P  P238  1  0.95774178  0.74769685  0.64727141  1
  P  P239  1  0.95773542  0.75136354  0.89704927  1
  P  P240  1  0.20824247  0.08195268  0.22827590  1
  P  P241  1  0.20819135  0.08149911  0.47810764  1
  P  P242  1  0.20825374  0.08268242  0.72787020  1
  P  P243  1  0.20788987  0.08450600  0.97787254  1
  P  P244  1  0.20809340  0.41867524  0.22740450  1
  P  P245  1  0.20793305  0.41631449  0.47750226  1
  P  P246  1  0.20783927  0.41709452  0.72953578  1
  P  P247  1  0.20887631  0.41776854  0.97647401  1
  P  P248  1  0.20826920  0.74909907  0.22841976  1
  P  P249  1  0.20915043  0.75011835  0.47734780  1
  P  P250  1  0.20916824  0.74955524  0.72688055  1
  P  P251  1  0.20816100  0.74862860  0.97811064  1
  P  P252  1  0.70813965  0.08345245  0.22566974  1
  P  P253  1  0.70737381  0.08310720  0.47888335  1
  P  P254  1  0.70846691  0.08359332  0.72655145  1
  P  P255  1  0.70765057  0.08515886  0.97784327  1
  P  P256  1  0.70732343  0.41491896  0.22775643  1
  P  P257  1  0.70843955  0.41550792  0.47656623  1
  P  P258  1  0.70739125  0.41737500  0.72803325  1
  P  P259  1  0.70868989  0.41613614  0.97645597  1
  P  P260  1  0.70682693  0.74911256  0.22850782  1
  P  P261  1  0.70763810  0.74804824  0.47744250  1
  P  P262  1  0.70689066  0.74965432  0.72866434  1
  P  P263  1  0.70771690  0.75185294  0.97710516  1
  P  P264  1  0.29261227  0.25055516  0.02088305  1
  P  P265  1  0.29271779  0.25183392  0.27268696  1
  P  P266  1  0.29328752  0.25047824  0.52148009  1
  P  P267  1  0.29208343  0.24983479  0.77391811  1
  P  P268  1  0.29116843  0.58408501  0.02307764  1
  P  P269  1  0.29250207  0.58558863  0.27215113  1
  P  P270  1  0.29234876  0.58543968  0.52248324  1
  P  P271  1  0.29201740  0.58439416  0.77379756  1
  P  P272  1  0.29230397  0.91798818  0.02303834  1
  P  P273  1  0.29147774  0.91703402  0.27385701  1
  P  P274  1  0.29107948  0.91673859  0.52321411  1
  P  P275  1  0.29261703  0.91632190  0.77115073  1
  P  P276  1  0.79097124  0.25054383  0.02250320  1
  P  P277  1  0.79170653  0.25110130  0.27139500  1
  P  P278  1  0.79220223  0.24879460  0.52236392  1
  P  P279  1  0.79101993  0.24905140  0.77317235  1
  P  P280  1  0.79253512  0.58271330  0.02110301  1
  P  P281  1  0.79066450  0.58266650  0.27350055  1
  P  P282  1  0.79155329  0.58080700  0.52166942  1
  P  P283  1  0.79207452  0.58093710  0.77218505  1
  P  P284  1  0.79171036  0.91809974  0.02176239  1
  P  P285  1  0.79273763  0.91711734  0.27111885  1
  P  P286  1  0.79213198  0.91698012  0.52265728  1
  P  P287  1  0.79175846  0.91588000  0.77190630  1
  O  O288  1  0.03810788  0.24921568  0.18208948  1
  O  O289  1  0.03877224  0.24958965  0.43299153  1
  O  O290  1  0.03765326  0.25036385  0.68371411  1
  O  O291  1  0.03678855  0.25034372  0.93270920  1
  O  O292  1  0.03699932  0.58268417  0.18374019  1
  O  O293  1  0.03645241  0.58361631  0.43151734  1
  O  O294  1  0.03737818  0.58453218  0.68269337  1
  O  O295  1  0.03760403  0.58498379  0.93216606  1
  O  O296  1  0.03753370  0.91436522  0.18231382  1
  O  O297  1  0.03779227  0.91519611  0.43329045  1
  O  O298  1  0.03769851  0.91665597  0.68395956  1
  O  O299  1  0.03721565  0.91705339  0.93281853  1
  O  O300  1  0.53684210  0.25057068  0.18233904  1
  O  O301  1  0.53657501  0.24791530  0.43259907  1
  O  O302  1  0.53707458  0.24840334  0.68232482  1
  O  O303  1  0.53687673  0.25100263  0.93362821  1
  O  O304  1  0.53683100  0.58495990  0.18147622  1
  O  O305  1  0.53690080  0.58298136  0.43358598  1
  O  O306  1  0.53713863  0.58271189  0.68271121  1
  O  O307  1  0.53664121  0.58418275  0.93460525  1
  O  O308  1  0.53655609  0.91741779  0.18141871  1
  O  O309  1  0.53691340  0.91554651  0.43269654  1
  O  O310  1  0.53633417  0.91696065  0.68185304  1
  O  O311  1  0.53605535  0.91722156  0.93176348  1
  O  O312  1  0.46261130  0.08393672  0.06738147  1
  O  O313  1  0.46359183  0.08348031  0.31821555  1
  O  O314  1  0.46361029  0.08236585  0.56677134  1
  O  O315  1  0.46297720  0.08101937  0.81708497  1
  O  O316  1  0.46313529  0.41737743  0.06593699  1
  O  O317  1  0.46275551  0.41783721  0.31772949  1
  O  O318  1  0.46210830  0.41746577  0.56669844  1
  O  O319  1  0.46325470  0.41678541  0.81899459  1
  O  O320  1  0.46337778  0.75248925  0.06699691  1
  O  O321  1  0.46309824  0.75236016  0.31758130  1
  O  O322  1  0.46331338  0.75182793  0.56778103  1
  O  O323  1  0.46325787  0.75094119  0.81869485  1
  O  O324  1  0.96297671  0.08385435  0.06594943  1
  O  O325  1  0.96191522  0.08258370  0.31678254  1
  O  O326  1  0.96230109  0.08160576  0.56804489  1
  O  O327  1  0.96309054  0.08385666  0.81748647  1
  O  O328  1  0.96237725  0.41734993  0.06749960  1
  O  O329  1  0.96277360  0.41751430  0.31617471  1
  O  O330  1  0.96275374  0.41557807  0.56759768  1
  O  O331  1  0.96288067  0.41607344  0.81606532  1
  O  O332  1  0.96234120  0.74986734  0.06728567  1
  O  O333  1  0.96250550  0.74708785  0.31742417  1
  O  O334  1  0.96288392  0.74738091  0.56730097  1
  O  O335  1  0.96300268  0.75069517  0.81710097  1
  O  O336  1  0.21293916  0.08391685  0.05782792  1
  O  O337  1  0.21363435  0.08191377  0.30822204  1
  O  O338  1  0.21364306  0.08146801  0.55802836  1
  O  O339  1  0.21364700  0.08391284  0.80780014  1
  O  O340  1  0.21355905  0.41848969  0.05646376  1
  O  O341  1  0.21320838  0.41806830  0.30731511  1
  O  O342  1  0.21302304  0.41664930  0.55746747  1
  O  O343  1  0.21346181  0.41711703  0.80938586  1
  O  O344  1  0.21331576  0.74865037  0.05802104  1
  O  O345  1  0.21350016  0.74940423  0.30824867  1
  O  O346  1  0.21417538  0.75028614  0.55723840  1
  O  O347  1  0.21382530  0.74949245  0.80684089  1
  O  O348  1  0.71322196  0.08460224  0.05763621  1
  O  O349  1  0.71274043  0.08363078  0.30567271  1
  O  O350  1  0.71276726  0.08292129  0.55875671  1
  O  O351  1  0.71318489  0.08376565  0.80656886  1
  O  O352  1  0.71345546  0.41545768  0.05641724  1
  O  O353  1  0.71263644  0.41497227  0.30762004  1
  O  O354  1  0.71322549  0.41618691  0.55654914  1
  O  O355  1  0.71292417  0.41721790  0.80786304  1
  O  O356  1  0.71281460  0.75160651  0.05708008  1
  O  O357  1  0.71220857  0.74834663  0.30845664  1
  O  O358  1  0.71262870  0.74819767  0.55741372  1
  O  O359  1  0.71239388  0.75065495  0.80856092  1
  O  O360  1  0.28748536  0.25160769  0.19270908  1
  O  O361  1  0.28799287  0.25084737  0.44155491  1
  O  O362  1  0.28733819  0.24970520  0.69387528  1
  O  O363  1  0.28705017  0.25018102  0.94100438  1
  O  O364  1  0.28703275  0.58531373  0.19230485  1
  O  O365  1  0.28713444  0.58544309  0.44256777  1
  O  O366  1  0.28727263  0.58429089  0.69383238  1
  O  O367  1  0.28607340  0.58411751  0.94318732  1
  O  O368  1  0.28661124  0.91720899  0.19389305  1
  O  O369  1  0.28612964  0.91663495  0.44332578  1
  O  O370  1  0.28709210  0.91619489  0.69131077  1
  O  O371  1  0.28746082  0.91762541  0.94310545  1
  O  O372  1  0.78623295  0.25112039  0.19155451  1
  O  O373  1  0.78694380  0.24942263  0.44246006  1
  O  O374  1  0.78623266  0.24883620  0.69321905  1
  O  O375  1  0.78596670  0.24999260  0.94261892  1
  O  O376  1  0.78618355  0.58248591  0.19348586  1
  O  O377  1  0.78578411  0.58159147  0.44183443  1
  O  O378  1  0.78654606  0.58048908  0.69227399  1
  O  O379  1  0.78737050  0.58233013  0.94118818  1
  O  O380  1  0.78730491  0.91763030  0.19117463  1
  O  O381  1  0.78746577  0.91673983  0.44263615  1
  O  O382  1  0.78639540  0.91642378  0.69199540  1
  O  O383  1  0.78634920  0.91743519  0.94180163  1
  O  O384  1  0.22855530  0.25048203  0.05698811  1
  O  O385  1  0.22846182  0.25162276  0.30841895  1
  O  O386  1  0.22901737  0.24992272  0.55702483  1
  O  O387  1  0.22783741  0.25025779  0.80964605  1
  O  O388  1  0.22718788  0.58406758  0.05966380  1
  O  O389  1  0.22836978  0.58566457  0.30840770  1
  O  O390  1  0.22807123  0.58588120  0.55834957  1
  O  O391  1  0.22770341  0.58455244  0.80949564  1
  O  O392  1  0.22795853  0.91806925  0.05855885  1
  O  O393  1  0.22734782  0.91724682  0.30986109  1
  O  O394  1  0.22714719  0.91698896  0.55975905  1
  O  O395  1  0.22850921  0.91636635  0.80717816  1
  O  O396  1  0.72690584  0.25120525  0.05882548  1
  O  O397  1  0.72755054  0.25151583  0.30769090  1
  O  O398  1  0.72792683  0.24834554  0.55823665  1
  O  O399  1  0.72685623  0.24876467  0.80915767  1
  O  O400  1  0.72813563  0.58259985  0.05639132  1
  O  O401  1  0.72646802  0.58298655  0.30917755  1
  O  O402  1  0.72747038  0.58030685  0.55817863  1
  O  O403  1  0.72793753  0.58136486  0.80827883  1
  O  O404  1  0.72747793  0.91886755  0.05765083  1
  O  O405  1  0.72840906  0.91629090  0.30654739  1
  O  O406  1  0.72766698  0.91735760  0.55774390  1
  O  O407  1  0.72751608  0.91563814  0.80779502  1
  O  O408  1  0.27249490  0.08184612  0.19237210  1
  O  O409  1  0.27241816  0.08173568  0.44215520  1
  O  O410  1  0.27246606  0.08157954  0.69194405  1
  O  O411  1  0.27222566  0.08488855  0.94228187  1
  O  O412  1  0.27232743  0.41938234  0.19153985  1
  O  O413  1  0.27224841  0.41646663  0.44184996  1
  O  O414  1  0.27199434  0.41767223  0.69355344  1
  O  O415  1  0.27308190  0.41719518  0.94065502  1
  O  O416  1  0.27236856  0.74914576  0.19214404  1
  O  O417  1  0.27319900  0.74995788  0.44098700  1
  O  O418  1  0.27335250  0.74934107  0.69094634  1
  O  O419  1  0.27247232  0.74819478  0.94236649  1
  O  O420  1  0.77233985  0.08291358  0.18991165  1
  O  O421  1  0.77154823  0.08354842  0.44298660  1
  O  O422  1  0.77265169  0.08381516  0.69062369  1
  O  O423  1  0.77171856  0.08515416  0.94143519  1
  O  O424  1  0.77153929  0.41448000  0.19164805  1
  O  O425  1  0.77250104  0.41481490  0.44042403  1
  O  O426  1  0.77151406  0.41742081  0.69165283  1
  O  O427  1  0.77278290  0.41639512  0.94042901  1
  O  O428  1  0.77117746  0.74972486  0.19312402  1
  O  O429  1  0.77195763  0.74744351  0.44186434  1
  O  O430  1  0.77112554  0.74915511  0.69307714  1
  O  O431  1  0.77197806  0.75177984  0.94141261  1
  O  O432  1  0.02190815  0.08255815  0.18121405  1
  O  O433  1  0.02131554  0.08248066  0.43163442  1
  O  O434  1  0.02190701  0.08143107  0.68320694  1
  O  O435  1  0.02198085  0.08497263  0.93318069  1
  O  O436  1  0.02194985  0.41820806  0.18256450  1
  O  O437  1  0.02186316  0.41689215  0.43142342  1
  O  O438  1  0.02183895  0.41511445  0.68307961  1
  O  O439  1  0.02178930  0.41645215  0.93142384  1
  O  O440  1  0.02144624  0.74726133  0.18276373  1
  O  O441  1  0.02201739  0.74720499  0.43277435  1
  O  O442  1  0.02209105  0.74823568  0.68277857  1
  O  O443  1  0.02204100  0.75176620  0.93265858  1
  O  O444  1  0.52203677  0.08490528  0.18281117  1
  O  O445  1  0.52299651  0.08333327  0.43401282  1
  O  O446  1  0.52236444  0.08132308  0.68279439  1
  O  O447  1  0.52198137  0.08166097  0.93274745  1
  O  O448  1  0.52159253  0.41689853  0.18164458  1
  O  O449  1  0.52213168  0.41778419  0.43313656  1
  O  O450  1  0.52119658  0.41671847  0.68183796  1
  O  O451  1  0.52294622  0.41764804  0.93457361  1
  O  O452  1  0.52210430  0.75304115  0.18306215  1
  O  O453  1  0.52203475  0.75191753  0.43334828  1
  O  O454  1  0.52231670  0.75218024  0.68351216  1
  O  O455  1  0.52264511  0.75195944  0.93441730  1
  O  O456  1  0.47782181  0.25130931  0.06670465  1
  O  O457  1  0.47753029  0.24805390  0.31690589  1
  O  O458  1  0.47802467  0.24829627  0.56680521  1
  O  O459  1  0.47801629  0.24944152  0.81825038  1
  O  O460  1  0.47712034  0.58392368  0.06604595  1
  O  O461  1  0.47818077  0.58444169  0.31804649  1
  O  O462  1  0.47786326  0.58291419  0.56734934  1
  O  O463  1  0.47783823  0.58434393  0.81892383  1
  O  O464  1  0.47720225  0.91713638  0.06562856  1
  O  O465  1  0.47786924  0.91591295  0.31687393  1
  O  O466  1  0.47709269  0.91613378  0.56578394  1
  O  O467  1  0.47730406  0.91727242  0.81545302  1
  O  O468  1  0.97831751  0.24833224  0.06713786  1
  O  O469  1  0.97924374  0.24986654  0.31822193  1
  O  O470  1  0.97869844  0.24965743  0.56850539  1
  O  O471  1  0.97803885  0.25153183  0.81687409  1
  O  O472  1  0.97826278  0.58340432  0.06817177  1
  O  O473  1  0.97697869  0.58323745  0.31570863  1
  O  O474  1  0.97817641  0.58438512  0.56721305  1
  O  O475  1  0.97838629  0.58512013  0.81681124  1
  O  O476  1  0.97828321  0.91475976  0.06693625  1
  O  O477  1  0.97848089  0.91530708  0.31832987  1
  O  O478  1  0.97850043  0.91518846  0.56880372  1
  O  O479  1  0.97830560  0.91795624  0.81714964  1
  O  O480  1  0.07347736  0.31277596  0.07424871  1
  O  O481  1  0.07479240  0.31304631  0.32464272  1
  O  O482  1  0.07449540  0.31289528  0.57521497  1
  O  O483  1  0.07306714  0.31475754  0.82470604  1
  O  O484  1  0.07377898  0.64651547  0.07571004  1
  O  O485  1  0.07210195  0.64682934  0.32294754  1
  O  O486  1  0.07353416  0.64739957  0.57365259  1
  O  O487  1  0.07331481  0.64886867  0.82398140  1
  O  O488  1  0.07397091  0.97789588  0.07472523  1
  O  O489  1  0.07380115  0.97881665  0.32505476  1
  O  O490  1  0.07384616  0.97916304  0.57518908  1
  O  O491  1  0.07298313  0.98178816  0.82486215  1
  O  O492  1  0.57266762  0.31481466  0.07399603  1
  O  O493  1  0.57248766  0.31217240  0.32506973  1
  O  O494  1  0.57346077  0.31177803  0.57460717  1
  O  O495  1  0.57320215  0.31356523  0.82493715  1
  O  O496  1  0.57142406  0.64878893  0.07311131  1
  O  O497  1  0.57356595  0.64734383  0.32597326  1
  O  O498  1  0.57363690  0.64596238  0.57515599  1
  O  O499  1  0.57346427  0.64721547  0.82623197  1
  O  O500  1  0.57162042  0.98154915  0.07311135  1
  O  O501  1  0.57345135  0.97904601  0.32475083  1
  O  O502  1  0.57157320  0.98025928  0.57282005  1
  O  O503  1  0.57259348  0.98038583  0.82320195  1
  O  O504  1  0.42658167  0.02129220  0.17588590  1
  O  O505  1  0.42858587  0.01918346  0.42645050  1
  O  O506  1  0.42731158  0.01810267  0.67493723  1
  O  O507  1  0.42680098  0.01830901  0.92608044  1
  O  O508  1  0.42583622  0.35428216  0.17429317  1
  O  O509  1  0.42664603  0.35439778  0.42533701  1
  O  O510  1  0.42588282  0.35322957  0.67459572  1
  O  O511  1  0.42840546  0.35313902  0.92722678  1
  O  O512  1  0.42711793  0.68892643  0.17498041  1
  O  O513  1  0.42673296  0.68853915  0.42528947  1
  O  O514  1  0.42738914  0.68802447  0.67555719  1
  O  O515  1  0.42836268  0.68740014  0.92760271  1
  O  O516  1  0.92656204  0.01923420  0.17337573  1
  O  O517  1  0.92561404  0.01926154  0.42492157  1
  O  O518  1  0.92698500  0.01779435  0.67668105  1
  O  O519  1  0.92648279  0.02121248  0.92553213  1
  O  O520  1  0.92697520  0.35358692  0.17523888  1
  O  O521  1  0.92660544  0.35319852  0.42397029  1
  O  O522  1  0.92676662  0.35165224  0.67592416  1
  O  O523  1  0.92589618  0.35373657  0.92465832  1
  O  O524  1  0.92597290  0.68492692  0.17504629  1
  O  O525  1  0.92671648  0.68390709  0.42622998  1
  O  O526  1  0.92708101  0.68434574  0.67626968  1
  O  O527  1  0.92650314  0.68797519  0.92519240  1
  O  O528  1  0.17728561  0.01861369  0.19957265  1
  O  O529  1  0.17724659  0.01812231  0.44960614  1
  O  O530  1  0.17712708  0.01904058  0.70020950  1
  O  O531  1  0.17675021  0.02105066  0.94964175  1
  O  O532  1  0.17717146  0.35513492  0.19900719  1
  O  O533  1  0.17755405  0.35261996  0.44895298  1
  O  O534  1  0.17693616  0.35353858  0.70118418  1
  O  O535  1  0.17785365  0.35400605  0.94876386  1
  O  O536  1  0.17742887  0.68568408  0.19966871  1
  O  O537  1  0.17795806  0.68672810  0.44889376  1
  O  O538  1  0.17795399  0.68627191  0.69843056  1
  O  O539  1  0.17682059  0.68562842  0.94929934  1
  O  O540  1  0.67689832  0.02004200  0.19757740  1
  O  O541  1  0.67641073  0.01964833  0.45025009  1
  O  O542  1  0.67836416  0.01933882  0.69841928  1
  O  O543  1  0.67633896  0.02179419  0.94941357  1
  O  O544  1  0.67601814  0.35194411  0.19870864  1
  O  O545  1  0.67722991  0.35183407  0.44896829  1
  O  O546  1  0.67631172  0.35364970  0.69998594  1
  O  O547  1  0.67802061  0.35260566  0.94751315  1
  O  O548  1  0.67581029  0.68592001  0.19952735  1
  O  O549  1  0.67654928  0.68462527  0.44930177  1
  O  O550  1  0.67579920  0.68580832  0.70136226  1
  O  O551  1  0.67658279  0.68818642  0.94956395  1
  O  O552  1  0.32371753  0.31421682  0.04874268  1
  O  O553  1  0.32310792  0.31566412  0.30093137  1
  O  O554  1  0.32428529  0.31374860  0.55017712  1
  O  O555  1  0.32307874  0.31351410  0.80186606  1
  O  O556  1  0.32224561  0.64755736  0.05154935  1
  O  O557  1  0.32349802  0.64895005  0.30084834  1
  O  O558  1  0.32365624  0.64857905  0.55109138  1
  O  O559  1  0.32314328  0.64774532  0.80225702  1
  O  O560  1  0.32286063  0.98160367  0.05152727  1
  O  O561  1  0.32294456  0.98019128  0.30234526  1
  O  O562  1  0.32234324  0.98011764  0.55153772  1
  O  O563  1  0.32395554  0.97964633  0.79941818  1
  O  O564  1  0.82245519  0.31386788  0.05063061  1
  O  O565  1  0.82295001  0.31418823  0.30035377  1
  O  O566  1  0.82325995  0.31225903  0.55067968  1
  O  O567  1  0.82107722  0.31329693  0.80135256  1
  O  O568  1  0.82326715  0.64653947  0.04903018  1
  O  O569  1  0.82176661  0.64612231  0.30162357  1
  O  O570  1  0.82255694  0.64429178  0.55026667  1
  O  O571  1  0.82321626  0.64487676  0.79934627  1
  O  O572  1  0.82271140  0.98175951  0.04961690  1
  O  O573  1  0.82361199  0.98052771  0.29959072  1
  O  O574  1  0.82278798  0.98046362  0.55143199  1
  O  O575  1  0.82292330  0.97935781  0.80002721  1
  O  O576  1  0.42709962  0.14836555  0.17572892  1
  O  O577  1  0.42753741  0.14650435  0.42678817  1
  O  O578  1  0.42699812  0.14502290  0.67529656  1
  O  O579  1  0.42675995  0.14534669  0.92452647  1
  O  O580  1  0.42653521  0.48106039  0.17405769  1
  O  O581  1  0.42728834  0.48176651  0.42617238  1
  O  O582  1  0.42558030  0.48012947  0.67557035  1
  O  O583  1  0.42753468  0.48074322  0.92686209  1
  O  O584  1  0.42686289  0.81597781  0.17565198  1
  O  O585  1  0.42696092  0.81552516  0.42644869  1
  O  O586  1  0.42702296  0.81512628  0.67649691  1
  O  O587  1  0.42692907  0.81468617  0.92656256  1
  O  O588  1  0.92638966  0.14625905  0.17463218  1
  O  O589  1  0.92608776  0.14635788  0.42502999  1
  O  O590  1  0.92644958  0.14507909  0.67579556  1
  O  O591  1  0.92707813  0.14841356  0.92557928  1
  O  O592  1  0.92635270  0.48086902  0.17607379  1
  O  O593  1  0.92625656  0.48005764  0.42490912  1
  O  O594  1  0.92654221  0.47900497  0.67520326  1
  O  O595  1  0.92683933  0.48060975  0.92373132  1
  O  O596  1  0.92634922  0.81198095  0.17600190  1
  O  O597  1  0.92673862  0.81101071  0.42538967  1
  O  O598  1  0.92646055  0.81139173  0.67487133  1
  O  O599  1  0.92713800  0.81515200  0.92536969  1
  O  O600  1  0.07375103  0.18543574  0.07353540  1
  O  O601  1  0.07467681  0.18604116  0.32489018  1
  O  O602  1  0.07388036  0.18587242  0.57604691  1
  O  O603  1  0.07345831  0.18765237  0.82464124  1
  O  O604  1  0.07366763  0.51985730  0.07492071  1
  O  O605  1  0.07197103  0.51947615  0.32346206  1
  O  O606  1  0.07330555  0.52033162  0.57504319  1
  O  O607  1  0.07381488  0.52157772  0.82439299  1
  O  O608  1  0.07303009  0.85065885  0.07369172  1
  O  O609  1  0.07394347  0.85175671  0.32535790  1
  O  O610  1  0.07403530  0.85223678  0.57629514  1
  O  O611  1  0.07407360  0.85459976  0.82457636  1
  O  O612  1  0.57328122  0.18769465  0.07421639  1
  O  O613  1  0.57288074  0.18499032  0.32360704  1
  O  O614  1  0.57296051  0.18455545  0.57402711  1
  O  O615  1  0.57360248  0.18662748  0.82620169  1
  O  O616  1  0.57282669  0.52122037  0.07355705  1
  O  O617  1  0.57345129  0.52045349  0.32485919  1
  O  O618  1  0.57244627  0.51863265  0.57404745  1
  O  O619  1  0.57304187  0.52045696  0.82636471  1
  O  O620  1  0.57283779  0.85427328  0.07302863  1
  O  O621  1  0.57281163  0.85218565  0.32370344  1
  O  O622  1  0.57254780  0.85311478  0.57377391  1
  O  O623  1  0.57188459  0.85324444  0.82341541  1
  O  O624  1  0.32416455  0.18748197  0.04956233  1
  O  O625  1  0.32399382  0.18820960  0.30020300  1
  O  O626  1  0.32449309  0.18685033  0.54932199  1
  O  O627  1  0.32259583  0.18589956  0.80187965  1
  O  O628  1  0.32191953  0.52033058  0.05141214  1
  O  O629  1  0.32375526  0.52207273  0.30026502  1
  O  O630  1  0.32292361  0.52152207  0.55041771  1
  O  O631  1  0.32235913  0.52052103  0.80253243  1
  O  O632  1  0.32320767  0.85431524  0.05096594  1
  O  O633  1  0.32164576  0.85290445  0.30214942  1
  O  O634  1  0.32161695  0.85285567  0.55172092  1
  O  O635  1  0.32380003  0.85297331  0.79972815  1
  O  O636  1  0.82119915  0.18669255  0.05154885  1
  O  O637  1  0.82255145  0.18723828  0.29927402  1
  O  O638  1  0.82305556  0.18526555  0.55073254  1
  O  O639  1  0.82245657  0.18597921  0.80178397  1
  O  O640  1  0.82386661  0.51961045  0.04981685  1
  O  O641  1  0.82090369  0.51858786  0.30169336  1
  O  O642  1  0.82273260  0.51730656  0.54970322  1
  O  O643  1  0.82302438  0.51774352  0.80103500  1
  O  O644  1  0.82267861  0.85458897  0.04999903  1
  O  O645  1  0.82413347  0.85360543  0.29898365  1
  O  O646  1  0.82305054  0.85317714  0.55030726  1
  O  O647  1  0.82253401  0.85223591  0.80011038  1
  O  O648  1  0.17734859  0.14583607  0.20068599  1
  O  O649  1  0.17703669  0.14519405  0.45044260  1
  O  O650  1  0.17742197  0.14619409  0.69940287  1
  O  O651  1  0.17722752  0.14812159  0.94932870  1
  O  O652  1  0.17719787  0.48224271  0.19913971  1
  O  O653  1  0.17668378  0.47994128  0.44984150  1
  O  O654  1  0.17624723  0.48032067  0.70119562  1
  O  O655  1  0.17827966  0.48140581  0.94772219  1
  O  O656  1  0.17700564  0.81260044  0.20022696  1
  O  O657  1  0.17860114  0.81391447  0.44868217  1
  O  O658  1  0.17887360  0.81352855  0.69837550  1
  O  O659  1  0.17773815  0.81268759  0.95015551  1
  O  O660  1  0.67801623  0.14758718  0.19745484  1
  O  O661  1  0.67595063  0.14633024  0.45038789  1
  O  O662  1  0.67714945  0.14688510  0.69830801  1
  O  O663  1  0.67672421  0.14867567  0.94950242  1
  O  O664  1  0.67659928  0.47883320  0.19967436  1
  O  O665  1  0.67800579  0.47916587  0.44757950  1
  O  O666  1  0.67630652  0.48056769  0.69919382  1
  O  O667  1  0.67775628  0.47998187  0.94889513  1
  O  O668  1  0.67560982  0.81277681  0.20089809  1
  O  O669  1  0.67708732  0.81202494  0.44972091  1
  O  O670  1  0.67554952  0.81265258  0.69977647  1
  O  O671  1  0.67710226  0.81554841  0.94889464  1
