# generated using pymatgen
data_Na2MnFe(PO4)2
_symmetry_space_group_name_H-M   'P 1'
_cell_length_a   22.34641087
_cell_length_b   20.09721078
_cell_length_c   19.44729686
_cell_angle_alpha   89.99377876
_cell_angle_beta   89.96783691
_cell_angle_gamma   89.99802135
_symmetry_Int_Tables_number   1
_chemical_formula_structural   Na2MnFe(PO4)2
_chemical_formula_sum   'Na96 Mn48 Fe48 P96 O384'
_cell_volume   8733.78988539
_cell_formula_units_Z   48
loop_
 _symmetry_equiv_pos_site_id
 _symmetry_equiv_pos_as_xyz
  1  'x, y, z'
loop_
 _atom_site_type_symbol
 _atom_site_label
 _atom_site_symmetry_multiplicity
 _atom_site_fract_x
 _atom_site_fract_y
 _atom_site_fract_z
 _atom_site_occupancy
  Na  Na0  1  0.14027864  0.25065516  0.24389919  1
  Na  Na1  1  0.13977993  0.25070943  0.49410589  1
  Na  Na2  1  0.13999058  0.25058592  0.74408486  1
  Na  Na3  1  0.14041075  0.25037642  0.99568391  1
  Na  Na4  1  0.14031712  0.58169333  0.24355169  1
  Na  Na5  1  0.14047518  0.58407662  0.49325236  1
  Na  Na6  1  0.14059373  0.58317412  0.74329989  1
  Na  Na7  1  0.14078533  0.58184822  0.99363831  1
  Na  Na8  1  0.14005056  0.91754717  0.24390476  1
  Na  Na9  1  0.14047876  0.91699474  0.49402183  1
  Na  Na10  1  0.14041738  0.91616923  0.74389797  1
  Na  Na11  1  0.13975316  0.91697333  0.99361300  1
  Na  Na12  1  0.64096006  0.25078168  0.24372040  1
  Na  Na13  1  0.64005838  0.24924949  0.49438667  1
  Na  Na14  1  0.64030446  0.24842192  0.74274497  1
  Na  Na15  1  0.64096054  0.24904866  0.99407717  1
  Na  Na16  1  0.64085654  0.58322788  0.24415842  1
  Na  Na17  1  0.64022564  0.58276473  0.49312998  1
  Na  Na18  1  0.64083071  0.58367200  0.74218793  1
  Na  Na19  1  0.64099080  0.58401143  0.99398783  1
  Na  Na20  1  0.64025494  0.91816845  0.24277016  1
  Na  Na21  1  0.64064468  0.91589107  0.49422068  1
  Na  Na22  1  0.64086864  0.91583841  0.74370913  1
  Na  Na23  1  0.64011890  0.91751966  0.99182095  1
  Na  Na24  1  0.36002483  0.08308804  0.00663456  1
  Na  Na25  1  0.36028622  0.08280471  0.25641391  1
  Na  Na26  1  0.35933494  0.08328975  0.50654690  1
  Na  Na27  1  0.35913647  0.08397830  0.75663106  1
  Na  Na28  1  0.35972345  0.41502740  0.00575410  1
  Na  Na29  1  0.35988280  0.41638254  0.25582791  1
  Na  Na30  1  0.36000873  0.41672656  0.50725281  1
  Na  Na31  1  0.35988069  0.41592013  0.75474027  1
  Na  Na32  1  0.35985173  0.74996476  0.00510649  1
  Na  Na33  1  0.35934092  0.74872406  0.25586698  1
  Na  Na34  1  0.35964379  0.74979777  0.50648387  1
  Na  Na35  1  0.36035016  0.74980647  0.75547515  1
  Na  Na36  1  0.85911644  0.08411274  0.00681540  1
  Na  Na37  1  0.85997455  0.08523177  0.25734149  1
  Na  Na38  1  0.85946681  0.08301187  0.50727211  1
  Na  Na39  1  0.85902761  0.08266833  0.75585946  1
  Na  Na40  1  0.85936288  0.41732713  0.00867552  1
  Na  Na41  1  0.85996652  0.41817903  0.25639934  1
  Na  Na42  1  0.86002095  0.41586190  0.50711554  1
  Na  Na43  1  0.85931104  0.41550985  0.75607110  1
  Na  Na44  1  0.85950743  0.75085840  0.00622466  1
  Na  Na45  1  0.85913676  0.75082122  0.25544473  1
  Na  Na46  1  0.85862424  0.75045774  0.50619851  1
  Na  Na47  1  0.85975776  0.75115460  0.75605303  1
  Na  Na48  1  0.10940641  0.08420325  0.11959032  1
  Na  Na49  1  0.10936280  0.08378774  0.36978362  1
  Na  Na50  1  0.10937520  0.08453061  0.61796523  1
  Na  Na51  1  0.10934315  0.08355332  0.87021838  1
  Na  Na52  1  0.11015624  0.41696049  0.11826287  1
  Na  Na53  1  0.10979018  0.41623008  0.36900824  1
  Na  Na54  1  0.10929251  0.41573097  0.61795960  1
  Na  Na55  1  0.10983387  0.41597641  0.87032843  1
  Na  Na56  1  0.10911693  0.75026486  0.11819545  1
  Na  Na57  1  0.10951519  0.75087276  0.36888840  1
  Na  Na58  1  0.11018908  0.75038624  0.61743653  1
  Na  Na59  1  0.10981910  0.75062726  0.86842491  1
  Na  Na60  1  0.60988570  0.08282586  0.11842893  1
  Na  Na61  1  0.60980875  0.08274572  0.36881758  1
  Na  Na62  1  0.60988871  0.08407522  0.61883976  1
  Na  Na63  1  0.60986686  0.08252831  0.86744162  1
  Na  Na64  1  0.61054157  0.41624682  0.11847570  1
  Na  Na65  1  0.61016466  0.41504868  0.36916491  1
  Na  Na66  1  0.60948686  0.41600963  0.61798556  1
  Na  Na67  1  0.60988212  0.41599502  0.86841829  1
  Na  Na68  1  0.60984515  0.75061908  0.11828495  1
  Na  Na69  1  0.60980689  0.74902428  0.36892171  1
  Na  Na70  1  0.61058666  0.74874247  0.61820042  1
  Na  Na71  1  0.61009354  0.75054982  0.86794838  1
  Na  Na72  1  0.39030668  0.24863226  0.13170854  1
  Na  Na73  1  0.39066714  0.24981943  0.38096259  1
  Na  Na74  1  0.38978466  0.25051750  0.63202466  1
  Na  Na75  1  0.38996899  0.24951327  0.88026156  1
  Na  Na76  1  0.39038385  0.58261292  0.13067325  1
  Na  Na77  1  0.39038377  0.58167527  0.38219459  1
  Na  Na78  1  0.39087023  0.58376709  0.63057755  1
  Na  Na79  1  0.39094431  0.58443389  0.88021819  1
  Na  Na80  1  0.39082369  0.91691538  0.13048922  1
  Na  Na81  1  0.39050781  0.91563559  0.38107612  1
  Na  Na82  1  0.39036937  0.91539265  0.63204657  1
  Na  Na83  1  0.39037201  0.91579616  0.88068833  1
  Na  Na84  1  0.88992149  0.25130604  0.13274866  1
  Na  Na85  1  0.89035487  0.25024329  0.38264168  1
  Na  Na86  1  0.88955874  0.24994500  0.63143797  1
  Na  Na87  1  0.88954014  0.24989622  0.88273264  1
  Na  Na88  1  0.88994759  0.58351381  0.13149310  1
  Na  Na89  1  0.89016401  0.58290453  0.38084978  1
  Na  Na90  1  0.89029940  0.58349161  0.63039246  1
  Na  Na91  1  0.89064413  0.58364358  0.88202919  1
  Na  Na92  1  0.89035604  0.91842847  0.13073607  1
  Na  Na93  1  0.88981105  0.91878740  0.38180019  1
  Na  Na94  1  0.88951730  0.91760061  0.63155307  1
  Na  Na95  1  0.88982183  0.91692544  0.88204500  1
  Mn  Mn96  1  -0.00084539  0.83477934  0.49897148  1
  Mn  Mn97  1  -0.00056333  0.16724605  0.00119956  1
  Mn  Mn98  1  0.49994201  -0.00035177  0.74976628  1
  Mn  Mn99  1  0.00014841  0.00050828  0.75032149  1
  Mn  Mn100  1  0.25069465  0.49849038  0.87362312  1
  Mn  Mn101  1  0.24972425  0.50023515  0.62505235  1
  Mn  Mn102  1  -0.00014073  0.33390736  0.25106881  1
  Mn  Mn103  1  0.50061941  0.49898553  0.25060107  1
  Mn  Mn104  1  0.24945213  -0.00021998  0.87502160  1
  Mn  Mn105  1  -0.00031393  0.66617216  0.24906362  1
  Mn  Mn106  1  0.75030175  0.00172576  0.12372516  1
  Mn  Mn107  1  0.25067990  0.00028841  0.12499877  1
  Mn  Mn108  1  0.75007622  0.49977232  0.87507237  1
  Mn  Mn109  1  0.50060812  0.16530636  -0.00017837  1
  Mn  Mn110  1  0.24962409  0.83293763  0.12496148  1
  Mn  Mn111  1  0.24988075  0.66648503  0.37454817  1
  Mn  Mn112  1  0.25022244  0.16715429  0.37539550  1
  Mn  Mn113  1  0.50080288  0.66758213  0.00000843  1
  Mn  Mn114  1  -0.00049974  0.16706800  0.75066762  1
  Mn  Mn115  1  0.50025006  0.33239065  -0.00075804  1
  Mn  Mn116  1  0.49965384  -0.00004977  0.50045026  1
  Mn  Mn117  1  0.75008389  0.49933789  0.62461240  1
  Mn  Mn118  1  0.00036881  0.66683139  0.00019934  1
  Mn  Mn119  1  0.50093392  0.83218500  0.50017897  1
  Mn  Mn120  1  0.75012981  0.83399045  0.12498400  1
  Mn  Mn121  1  0.25094004  0.33428554  0.37448555  1
  Mn  Mn122  1  0.24952748  -0.00074073  0.37609775  1
  Mn  Mn123  1  -0.00061338  0.33356413  0.75040822  1
  Mn  Mn124  1  0.74995313  0.16708576  0.37563539  1
  Mn  Mn125  1  0.50024935  0.50021879  -0.00132304  1
  Mn  Mn126  1  0.25051825  0.66680225  0.87433163  1
  Mn  Mn127  1  0.49974920  0.83374854  0.24954692  1
  Mn  Mn128  1  0.74946873  0.33210388  0.87612956  1
  Mn  Mn129  1  0.00048407  0.66692268  0.75009212  1
  Mn  Mn130  1  0.75016083  0.50007359  0.37525798  1
  Mn  Mn131  1  -0.00075597  0.66613889  0.49883107  1
  Mn  Mn132  1  0.75084424  0.66752095  0.87432947  1
  Mn  Mn133  1  0.50043853  0.50010297  0.74914116  1
  Mn  Mn134  1  -0.00047336  0.49963063  0.75040861  1
  Mn  Mn135  1  0.24949128  0.16770422  0.87579366  1
  Mn  Mn136  1  0.49894911  0.16706850  0.49936999  1
  Mn  Mn137  1  0.49962545  0.33203524  0.24961034  1
  Mn  Mn138  1  0.24929936  0.66526744  0.12535450  1
  Mn  Mn139  1  0.50016098  0.66613555  0.24987194  1
  Mn  Mn140  1  0.74956056  0.83362222  0.37477037  1
  Mn  Mn141  1  0.25008293  -0.00023358  0.62563491  1
  Mn  Mn142  1  0.00030543  0.83415271  0.74974726  1
  Mn  Mn143  1  -0.00072360  0.83495905  0.24958813  1
  Fe  Fe144  1  -0.00020115  0.00119898  0.50000200  1
  Fe  Fe145  1  0.00020004  0.50014976  0.00044072  1
  Fe  Fe146  1  0.74965639  -0.00063481  0.62547925  1
  Fe  Fe147  1  0.50031923  0.49921984  0.50050443  1
  Fe  Fe148  1  0.50066114  0.83278413  0.75024869  1
  Fe  Fe149  1  0.75039870  0.33383106  0.12530299  1
  Fe  Fe150  1  0.25050873  0.33314733  0.12525964  1
  Fe  Fe151  1  0.24997713  0.83277412  0.87453021  1
  Fe  Fe152  1  -0.00056514  0.33303347  0.49949260  1
  Fe  Fe153  1  -0.00067700  0.16683679  0.49996904  1
  Fe  Fe154  1  0.25009953  0.33265251  0.87542862  1
  Fe  Fe155  1  0.24995557  0.49989847  0.37483728  1
  Fe  Fe156  1  0.49947441  0.16637156  0.74958122  1
  Fe  Fe157  1  0.00022296  0.49964955  0.25025744  1
  Fe  Fe158  1  0.75051917  0.66658087  0.62483205  1
  Fe  Fe159  1  0.50045098  0.33268711  0.50014391  1
  Fe  Fe160  1  0.74974269  0.33221769  0.62575719  1
  Fe  Fe161  1  0.24933565  0.33369877  0.62484698  1
  Fe  Fe162  1  0.74987018  0.66693402  0.37484139  1
  Fe  Fe163  1  0.49984747  -0.00018310  -0.00049454  1
  Fe  Fe164  1  0.50049513  -0.00066075  0.24958766  1
  Fe  Fe165  1  0.50101038  0.66668588  0.74966128  1
  Fe  Fe166  1  0.24999463  0.16680036  0.12542910  1
  Fe  Fe167  1  0.24983318  0.83295958  0.37521324  1
  Fe  Fe168  1  -0.00013604  0.83427197  0.00014452  1
  Fe  Fe169  1  0.74991163  0.16582914  0.62482313  1
  Fe  Fe170  1  0.50003034  0.83367630  -0.00066367  1
  Fe  Fe171  1  0.74952184  0.66735048  0.12485232  1
  Fe  Fe172  1  0.24943327  0.16734453  0.62588236  1
  Fe  Fe173  1  0.75021396  0.16612969  0.87408039  1
  Fe  Fe174  1  -0.00033238  0.00087672  0.00077797  1
  Fe  Fe175  1  0.75018628  0.16776211  0.12586410  1
  Fe  Fe176  1  0.25020502  0.66711127  0.62428787  1
  Fe  Fe177  1  0.74984346  0.00028780  0.37559292  1
  Fe  Fe178  1  0.25029938  0.83300353  0.62474773  1
  Fe  Fe179  1  0.00009715  0.49963399  0.50014364  1
  Fe  Fe180  1  0.50072993  0.16554930  0.25012857  1
  Fe  Fe181  1  0.49996340  0.66603637  0.49992005  1
  Fe  Fe182  1  0.74987088  0.83368498  0.87445583  1
  Fe  Fe183  1  0.75035667  0.83333399  0.62464037  1
  Fe  Fe184  1  0.25078258  0.49889249  0.12421956  1
  Fe  Fe185  1  -0.00030657  0.33385791  0.00146550  1
  Fe  Fe186  1  0.75016798  0.33367399  0.37502121  1
  Fe  Fe187  1  0.49981713  0.33309372  0.74926094  1
  Fe  Fe188  1  -0.00009708  0.00110671  0.25035257  1
  Fe  Fe189  1  0.75016410  0.00034749  0.87425900  1
  Fe  Fe190  1  0.74999569  0.50087569  0.12602975  1
  Fe  Fe191  1  -0.00015789  0.16708470  0.25105466  1
  P  P192  1  0.04167163  0.25146096  0.10394568  1
  P  P193  1  0.04181864  0.24890458  0.35371227  1
  P  P194  1  0.04064255  0.24993996  0.60143272  1
  P  P195  1  0.04210409  0.25068973  0.85448181  1
  P  P196  1  0.04227605  0.58193055  0.10284485  1
  P  P197  1  0.04198581  0.58169754  0.35254716  1
  P  P198  1  0.04234646  0.58224007  0.60201880  1
  P  P199  1  0.04299435  0.58288883  0.85370553  1
  P  P200  1  0.04128719  0.91800561  0.10215933  1
  P  P201  1  0.04180574  0.91931857  0.35277188  1
  P  P202  1  0.04206451  0.91852940  0.60191490  1
  P  P203  1  0.04259661  0.91712492  0.85433699  1
  P  P204  1  0.54286615  0.24866778  0.10325445  1
  P  P205  1  0.54244973  0.24840277  0.35247887  1
  P  P206  1  0.54157766  0.25075230  0.60309458  1
  P  P207  1  0.54131301  0.24935705  0.85076182  1
  P  P208  1  0.54326007  0.58305581  0.10281044  1
  P  P209  1  0.54276343  0.58258024  0.35431074  1
  P  P210  1  0.54162653  0.58334977  0.60169354  1
  P  P211  1  0.54313828  0.58458415  0.85166581  1
  P  P212  1  0.54177741  0.91714605  0.10118917  1
  P  P213  1  0.54274355  0.91729911  0.35231655  1
  P  P214  1  0.54273160  0.91601304  0.60375625  1
  P  P215  1  0.54215696  0.91532211  0.85277101  1
  P  P216  1  0.45885674  0.08228365  0.14810319  1
  P  P217  1  0.45711760  0.08265056  0.39587841  1
  P  P218  1  0.45710948  0.08440964  0.64760390  1
  P  P219  1  0.45772300  0.08194434  0.89685355  1
  P  P220  1  0.45747802  0.41618709  0.14652252  1
  P  P221  1  0.45889332  0.41561604  0.39888377  1
  P  P222  1  0.45835268  0.41546902  0.64635822  1
  P  P223  1  0.45751592  0.41605334  0.89549133  1
  P  P224  1  0.45726125  0.75045070  0.14627159  1
  P  P225  1  0.45761153  0.74832648  0.39762049  1
  P  P226  1  0.45963799  0.74922730  0.64805635  1
  P  P227  1  0.45851120  0.75138032  0.89652500  1
  P  P228  1  0.95835342  0.08405322  0.14890567  1
  P  P229  1  0.95810157  0.08405466  0.39802419  1
  P  P230  1  0.95726909  0.08388628  0.64633124  1
  P  P231  1  0.95713080  0.08276437  0.89851758  1
  P  P232  1  0.95823463  0.41811790  0.14737297  1
  P  P233  1  0.95854003  0.41714052  0.39831495  1
  P  P234  1  0.95710948  0.41654111  0.64596728  1
  P  P235  1  0.95791587  0.41658885  0.89957302  1
  P  P236  1  0.95723791  0.75104875  0.14610278  1
  P  P237  1  0.95636157  0.75052517  0.39611678  1
  P  P238  1  0.95737104  0.75030522  0.64648364  1
  P  P239  1  0.95799143  0.75145739  0.89784411  1
  P  P240  1  0.20793685  0.08442719  0.22784509  1
  P  P241  1  0.20739999  0.08395973  0.47931518  1
  P  P242  1  0.20733038  0.08455507  0.72779746  1
  P  P243  1  0.20729585  0.08390866  0.97898257  1
  P  P244  1  0.20874612  0.41681059  0.22658284  1
  P  P245  1  0.20815193  0.41789890  0.47761086  1
  P  P246  1  0.20726830  0.41515322  0.72748261  1
  P  P247  1  0.20859699  0.41486710  0.97808454  1
  P  P248  1  0.20653783  0.74963652  0.22848877  1
  P  P249  1  0.20776975  0.75116075  0.47789434  1
  P  P250  1  0.20857407  0.75003242  0.72638089  1
  P  P251  1  0.20749776  0.75060340  0.97709028  1
  P  P252  1  0.70822607  0.08515092  0.22764853  1
  P  P253  1  0.70786224  0.08184068  0.47844599  1
  P  P254  1  0.70859032  0.08266707  0.72697986  1
  P  P255  1  0.70857796  0.08396920  0.97594636  1
  P  P256  1  0.70892984  0.41671600  0.22710839  1
  P  P257  1  0.70838545  0.41480229  0.47810080  1
  P  P258  1  0.70735771  0.41484731  0.72741455  1
  P  P259  1  0.70758692  0.41661498  0.97948919  1
  P  P260  1  0.70764939  0.74924174  0.22760933  1
  P  P261  1  0.70793782  0.74878749  0.47798863  1
  P  P262  1  0.70937021  0.75037173  0.72637341  1
  P  P263  1  0.70796802  0.75130372  0.97721481  1
  P  P264  1  0.29185835  0.24991487  0.02357682  1
  P  P265  1  0.29287211  0.25016887  0.27105876  1
  P  P266  1  0.29129926  0.25046472  0.52390801  1
  P  P267  1  0.29150018  0.25128931  0.77175760  1
  P  P268  1  0.29260146  0.58157064  0.02202500  1
  P  P269  1  0.29243541  0.58115240  0.27209240  1
  P  P270  1  0.29204610  0.58450042  0.52205205  1
  P  P271  1  0.29303637  0.58350469  0.77073632  1
  P  P272  1  0.29258138  0.91611131  0.02123910  1
  P  P273  1  0.29213286  0.91530619  0.27300412  1
  P  P274  1  0.29241994  0.91515346  0.52257246  1
  P  P275  1  0.29196399  0.91491554  0.77213028  1
  P  P276  1  0.79158474  0.24982276  0.02373327  1
  P  P277  1  0.79246024  0.25207518  0.27264987  1
  P  P278  1  0.79098717  0.24983958  0.52353433  1
  P  P279  1  0.79203028  0.24852994  0.77210044  1
  P  P280  1  0.79131652  0.58392949  0.02376617  1
  P  P281  1  0.79185836  0.58491741  0.27191858  1
  P  P282  1  0.79180620  0.58452629  0.52201839  1
  P  P283  1  0.79298036  0.58340999  0.77130160  1
  P  P284  1  0.79227482  0.91718145  0.02065690  1
  P  P285  1  0.79190292  0.91884667  0.27265295  1
  P  P286  1  0.79111859  0.91704703  0.52316736  1
  P  P287  1  0.79135295  0.91676632  0.77260608  1
  O  O288  1  0.03660231  0.25105389  0.18389095  1
  O  O289  1  0.03634630  0.24899642  0.43360743  1
  O  O290  1  0.03607956  0.25028384  0.68147870  1
  O  O291  1  0.03698298  0.25125514  0.93445647  1
  O  O292  1  0.03697958  0.58181021  0.18279266  1
  O  O293  1  0.03632998  0.58163352  0.43246502  1
  O  O294  1  0.03734076  0.58266887  0.68204058  1
  O  O295  1  0.03781354  0.58279991  0.93369718  1
  O  O296  1  0.03595560  0.91845176  0.18214311  1
  O  O297  1  0.03650568  0.91944115  0.43271263  1
  O  O298  1  0.03738876  0.91802421  0.68196361  1
  O  O299  1  0.03729759  0.91692932  0.93427605  1
  O  O300  1  0.53765824  0.24804149  0.18319623  1
  O  O301  1  0.53716735  0.24923860  0.43242403  1
  O  O302  1  0.53614623  0.25052622  0.68296638  1
  O  O303  1  0.53659859  0.24890702  0.93081588  1
  O  O304  1  0.53822488  0.58282297  0.18282006  1
  O  O305  1  0.53737871  0.58265433  0.43424932  1
  O  O306  1  0.53701634  0.58375880  0.68170481  1
  O  O307  1  0.53807406  0.58451847  0.93162905  1
  O  O308  1  0.53673337  0.91766930  0.18120788  1
  O  O309  1  0.53771988  0.91683038  0.43229140  1
  O  O310  1  0.53734984  0.91554192  0.68369082  1
  O  O311  1  0.53683274  0.91561626  0.93267826  1
  O  O312  1  0.46371462  0.08185335  0.06805933  1
  O  O313  1  0.46287246  0.08257339  0.31599066  1
  O  O314  1  0.46170380  0.08425636  0.56759353  1
  O  O315  1  0.46289183  0.08284839  0.81693251  1
  O  O316  1  0.46240632  0.41628345  0.06654089  1
  O  O317  1  0.46338525  0.41572240  0.31885272  1
  O  O318  1  0.46387532  0.41534933  0.56647826  1
  O  O319  1  0.46296887  0.41570216  0.81553112  1
  O  O320  1  0.46260316  0.75116040  0.06631951  1
  O  O321  1  0.46244258  0.74881294  0.31762932  1
  O  O322  1  0.46460137  0.74866624  0.56808148  1
  O  O323  1  0.46405859  0.75101280  0.81662371  1
  O  O324  1  0.96328066  0.08373315  0.06894073  1
  O  O325  1  0.96338275  0.08419448  0.31810999  1
  O  O326  1  0.96233545  0.08392786  0.56637272  1
  O  O327  1  0.96220935  0.08320226  0.81855364  1
  O  O328  1  0.96355628  0.41768577  0.06749424  1
  O  O329  1  0.96337519  0.41726296  0.31831115  1
  O  O330  1  0.96237021  0.41638227  0.56605373  1
  O  O331  1  0.96246248  0.41651764  0.81947158  1
  O  O332  1  0.96289595  0.75160533  0.06617456  1
  O  O333  1  0.96148469  0.75059190  0.31614056  1
  O  O334  1  0.96204418  0.75028846  0.56645230  1
  O  O335  1  0.96305934  0.75111317  0.81780215  1
  O  O336  1  0.21270593  0.08424120  0.05892108  1
  O  O337  1  0.21287373  0.08386436  0.30784305  1
  O  O338  1  0.21285077  0.08449230  0.55925244  1
  O  O339  1  0.21228065  0.08431130  0.80781276  1
  O  O340  1  0.21428632  0.41535443  0.05795344  1
  O  O341  1  0.21380926  0.41746253  0.30658923  1
  O  O342  1  0.21298462  0.41721753  0.55755501  1
  O  O343  1  0.21256869  0.41480890  0.80741218  1
  O  O344  1  0.21225531  0.74991109  0.05708511  1
  O  O345  1  0.21172555  0.75001593  0.30845307  1
  O  O346  1  0.21326584  0.75083124  0.55778940  1
  O  O347  1  0.21364907  0.75048631  0.80636560  1
  O  O348  1  0.71325446  0.08414462  0.05585079  1
  O  O349  1  0.71327083  0.08444785  0.30754502  1
  O  O350  1  0.71308999  0.08171002  0.55831394  1
  O  O351  1  0.71379110  0.08334213  0.80682938  1
  O  O352  1  0.71316422  0.41678061  0.05938245  1
  O  O353  1  0.71376880  0.41660131  0.30710912  1
  O  O354  1  0.71357724  0.41459286  0.55802978  1
  O  O355  1  0.71229623  0.41523836  0.80742599  1
  O  O356  1  0.71290885  0.75062053  0.05717875  1
  O  O357  1  0.71307707  0.74915510  0.30753871  1
  O  O358  1  0.71368222  0.74891902  0.55783777  1
  O  O359  1  0.71422057  0.75118673  0.80633415  1
  O  O360  1  0.28753402  0.25012762  0.19117104  1
  O  O361  1  0.28684081  0.25056936  0.44385731  1
  O  O362  1  0.28573816  0.25083062  0.69191593  1
  O  O363  1  0.28666440  0.25043358  0.94358040  1
  O  O364  1  0.28739396  0.58076816  0.19209961  1
  O  O365  1  0.28679030  0.58395960  0.44212252  1
  O  O366  1  0.28749950  0.58414052  0.69083462  1
  O  O367  1  0.28761066  0.58199244  0.94202463  1
  O  O368  1  0.28705076  0.91598031  0.19303111  1
  O  O369  1  0.28703721  0.91509749  0.44264174  1
  O  O370  1  0.28670946  0.91492385  0.69214970  1
  O  O371  1  0.28713695  0.91578651  0.94130181  1
  O  O372  1  0.78729445  0.25221459  0.19279376  1
  O  O373  1  0.78645471  0.24995961  0.44356324  1
  O  O374  1  0.78656721  0.24911732  0.69224556  1
  O  O375  1  0.78665260  0.24915280  0.94381513  1
  O  O376  1  0.78613600  0.58472519  0.19206415  1
  O  O377  1  0.78630006  0.58464751  0.44209539  1
  O  O378  1  0.78771569  0.58362440  0.69134418  1
  O  O379  1  0.78693183  0.58320404  0.94372558  1
  O  O380  1  0.78694747  0.91887669  0.19268025  1
  O  O381  1  0.78615246  0.91713062  0.44322146  1
  O  O382  1  0.78629921  0.91699558  0.69268769  1
  O  O383  1  0.78700013  0.91684426  0.94076998  1
  O  O384  1  0.22778217  0.24984831  0.05989041  1
  O  O385  1  0.22865293  0.25069626  0.30680337  1
  O  O386  1  0.22691740  0.25049570  0.55929131  1
  O  O387  1  0.22746311  0.25183075  0.80825043  1
  O  O388  1  0.22825672  0.58097689  0.05760211  1
  O  O389  1  0.22809013  0.58140892  0.30768098  1
  O  O390  1  0.22785783  0.58500227  0.55796703  1
  O  O391  1  0.22882239  0.58305447  0.80633849  1
  O  O392  1  0.22829727  0.91685412  0.05672810  1
  O  O393  1  0.22775513  0.91480843  0.30853390  1
  O  O394  1  0.22818013  0.91528098  0.55837574  1
  O  O395  1  0.22776715  0.91483895  0.80802423  1
  O  O396  1  0.72745774  0.24991430  0.05982350  1
  O  O397  1  0.72821391  0.25184430  0.30860846  1
  O  O398  1  0.72684644  0.24994166  0.55943838  1
  O  O399  1  0.72782156  0.24789574  0.80821040  1
  O  O400  1  0.72710519  0.58428510  0.05939386  1
  O  O401  1  0.72789276  0.58500973  0.30854544  1
  O  O402  1  0.72773148  0.58439809  0.55822638  1
  O  O403  1  0.72863373  0.58352347  0.80663326  1
  O  O404  1  0.72808984  0.91747542  0.05648059  1
  O  O405  1  0.72756166  0.91866902  0.30811508  1
  O  O406  1  0.72707146  0.91718773  0.55934673  1
  O  O407  1  0.72734333  0.91618969  0.80899402  1
  O  O408  1  0.27229151  0.08496604  0.19236088  1
  O  O409  1  0.27161658  0.08331227  0.44368180  1
  O  O410  1  0.27169958  0.08451570  0.69247902  1
  O  O411  1  0.27149417  0.08368597  0.94332641  1
  O  O412  1  0.27293517  0.41635497  0.19058366  1
  O  O413  1  0.27253673  0.41844814  0.44212829  1
  O  O414  1  0.27154502  0.41526890  0.69173282  1
  O  O415  1  0.27260058  0.41437911  0.94148795  1
  O  O416  1  0.27093454  0.74914500  0.19328763  1
  O  O417  1  0.27190334  0.75137227  0.44168037  1
  O  O418  1  0.27279976  0.74962473  0.69039018  1
  O  O419  1  0.27194838  0.75119036  0.94178562  1
  O  O420  1  0.77250022  0.08556809  0.19184070  1
  O  O421  1  0.77200986  0.08206813  0.44229089  1
  O  O422  1  0.77252517  0.08207406  0.69042918  1
  O  O423  1  0.77284062  0.08434987  0.94017992  1
  O  O424  1  0.77300297  0.41656796  0.19107769  1
  O  O425  1  0.77257227  0.41512297  0.44217180  1
  O  O426  1  0.77173387  0.41486079  0.69206442  1
  O  O427  1  0.77175093  0.41623084  0.94350973  1
  O  O428  1  0.77182929  0.74903083  0.19161124  1
  O  O429  1  0.77190318  0.74898789  0.44136637  1
  O  O430  1  0.77348056  0.74987862  0.69042361  1
  O  O431  1  0.77229200  0.75214730  0.94156901  1
  O  O432  1  0.02249421  0.08378126  0.18493634  1
  O  O433  1  0.02214359  0.08425453  0.43439709  1
  O  O434  1  0.02156778  0.08411883  0.68184353  1
  O  O435  1  0.02144073  0.08270820  0.93401851  1
  O  O436  1  0.02235633  0.41819197  0.18351568  1
  O  O437  1  0.02269166  0.41735583  0.43408739  1
  O  O438  1  0.02136031  0.41656433  0.68162338  1
  O  O439  1  0.02229000  0.41638752  0.93488463  1
  O  O440  1  0.02137405  0.75091962  0.18182846  1
  O  O441  1  0.02077337  0.75063103  0.43109775  1
  O  O442  1  0.02192643  0.75047012  0.68123243  1
  O  O443  1  0.02227838  0.75134529  0.93320575  1
  O  O444  1  0.52306684  0.08210442  0.18399956  1
  O  O445  1  0.52126767  0.08320177  0.43178710  1
  O  O446  1  0.52158380  0.08438759  0.68257009  1
  O  O447  1  0.52207228  0.08105433  0.93241463  1
  O  O448  1  0.52190717  0.41568428  0.18152731  1
  O  O449  1  0.52317501  0.41512571  0.43431197  1
  O  O450  1  0.52236692  0.41521473  0.68265570  1
  O  O451  1  0.52184292  0.41612968  0.93089407  1
  O  O452  1  0.52158862  0.75018841  0.18158708  1
  O  O453  1  0.52206386  0.74754706  0.43281629  1
  O  O454  1  0.52380439  0.74959261  0.68397169  1
  O  O455  1  0.52261350  0.75181381  0.93268572  1
  O  O456  1  0.47855927  0.24873612  0.06790148  1
  O  O457  1  0.47819452  0.24758095  0.31684315  1
  O  O458  1  0.47742747  0.25144854  0.56699783  1
  O  O459  1  0.47703986  0.24971395  0.81525570  1
  O  O460  1  0.47884471  0.58348583  0.06778288  1
  O  O461  1  0.47852403  0.58255139  0.31863152  1
  O  O462  1  0.47748683  0.58368461  0.56586868  1
  O  O463  1  0.47877603  0.58472029  0.81633828  1
  O  O464  1  0.47762318  0.91731069  0.06515575  1
  O  O465  1  0.47836215  0.91806795  0.31694692  1
  O  O466  1  0.47846757  0.91569843  0.56831198  1
  O  O467  1  0.47805613  0.91497760  0.81668502  1
  O  O468  1  0.97745086  0.25171032  0.06818907  1
  O  O469  1  0.97771370  0.24904429  0.31763732  1
  O  O470  1  0.97642708  0.24944818  0.56586122  1
  O  O471  1  0.97770435  0.25042048  0.81928267  1
  O  O472  1  0.97804111  0.58225433  0.06713091  1
  O  O473  1  0.97783078  0.58154411  0.31651921  1
  O  O474  1  0.97796860  0.58160427  0.56664551  1
  O  O475  1  0.97855462  0.58341175  0.81863675  1
  O  O476  1  0.97722701  0.91800585  0.06589919  1
  O  O477  1  0.97751525  0.91960809  0.31716231  1
  O  O478  1  0.97759828  0.91894452  0.56687241  1
  O  O479  1  0.97831596  0.91709401  0.81875877  1
  O  O480  1  0.07232010  0.31507187  0.07543516  1
  O  O481  1  0.07314864  0.31250137  0.32586222  1
  O  O482  1  0.07086855  0.31388722  0.57284936  1
  O  O483  1  0.07324446  0.31376422  0.82546557  1
  O  O484  1  0.07354204  0.64564798  0.07538527  1
  O  O485  1  0.07287993  0.64561117  0.32501576  1
  O  O486  1  0.07294707  0.64600816  0.57381979  1
  O  O487  1  0.07419684  0.64631891  0.82537276  1
  O  O488  1  0.07233809  0.98155060  0.07396832  1
  O  O489  1  0.07304171  0.98243874  0.32399921  1
  O  O490  1  0.07285037  0.98213949  0.57378154  1
  O  O491  1  0.07366178  0.98065883  0.82604633  1
  O  O492  1  0.57374467  0.31233090  0.07523825  1
  O  O493  1  0.57332753  0.31201119  0.32423661  1
  O  O494  1  0.57298603  0.31382387  0.57422857  1
  O  O495  1  0.57235878  0.31298000  0.82297155  1
  O  O496  1  0.57441913  0.64658085  0.07493829  1
  O  O497  1  0.57394298  0.64581885  0.32557174  1
  O  O498  1  0.57307374  0.64637137  0.57303777  1
  O  O499  1  0.57390099  0.64810779  0.82314684  1
  O  O500  1  0.57294336  0.98047439  0.07258569  1
  O  O501  1  0.57390861  0.98052788  0.32386641  1
  O  O502  1  0.57326588  0.97998779  0.57598943  1
  O  O503  1  0.57317965  0.97896787  0.82466243  1
  O  O504  1  0.42765579  0.01895052  0.17655413  1
  O  O505  1  0.42621624  0.01920687  0.42458006  1
  O  O506  1  0.42609804  0.02077137  0.67542885  1
  O  O507  1  0.42668468  0.01848337  0.92506995  1
  O  O508  1  0.42626894  0.35278508  0.17465235  1
  O  O509  1  0.42761405  0.35211828  0.42671858  1
  O  O510  1  0.42713900  0.35234793  0.67531777  1
  O  O511  1  0.42631318  0.35283583  0.92408556  1
  O  O512  1  0.42620452  0.68679818  0.17410838  1
  O  O513  1  0.42650309  0.68503875  0.42603350  1
  O  O514  1  0.42885594  0.68565837  0.67665067  1
  O  O515  1  0.42737587  0.68773238  0.92454693  1
  O  O516  1  0.92699504  0.02079063  0.17727323  1
  O  O517  1  0.92738680  0.02034583  0.42651446  1
  O  O518  1  0.92633126  0.02040813  0.67490640  1
  O  O519  1  0.92648674  0.01917583  0.92682799  1
  O  O520  1  0.92701364  0.35470365  0.17576237  1
  O  O521  1  0.92839748  0.35284538  0.42638967  1
  O  O522  1  0.92597594  0.35320499  0.67472546  1
  O  O523  1  0.92703709  0.35303188  0.92793633  1
  O  O524  1  0.92633946  0.68719582  0.17366394  1
  O  O525  1  0.92546572  0.68694144  0.42412948  1
  O  O526  1  0.92665589  0.68675879  0.67490881  1
  O  O527  1  0.92659041  0.68794977  0.92555190  1
  O  O528  1  0.17719316  0.02070315  0.19984274  1
  O  O529  1  0.17614700  0.02036803  0.45162558  1
  O  O530  1  0.17620388  0.02093340  0.70015754  1
  O  O531  1  0.17615741  0.02046243  0.95084801  1
  O  O532  1  0.17781778  0.35291449  0.19902257  1
  O  O533  1  0.17728120  0.35437096  0.44920960  1
  O  O534  1  0.17628737  0.35201075  0.69840524  1
  O  O535  1  0.17742514  0.35138302  0.95000922  1
  O  O536  1  0.17553191  0.68599300  0.20046817  1
  O  O537  1  0.17657450  0.68765035  0.44973063  1
  O  O538  1  0.17776134  0.68622493  0.69839055  1
  O  O539  1  0.17689787  0.68681263  0.94895211  1
  O  O540  1  0.67706774  0.02190199  0.19906334  1
  O  O541  1  0.67714799  0.01844795  0.44936854  1
  O  O542  1  0.67706382  0.01920591  0.69929925  1
  O  O543  1  0.67852510  0.01989291  0.94729102  1
  O  O544  1  0.67760618  0.35346105  0.19876655  1
  O  O545  1  0.67755539  0.35151727  0.44923418  1
  O  O546  1  0.67679598  0.35116607  0.69921237  1
  O  O547  1  0.67614307  0.35319372  0.95141789  1
  O  O548  1  0.67642727  0.68616866  0.19889126  1
  O  O549  1  0.67703741  0.68543729  0.44927166  1
  O  O550  1  0.67838595  0.68654215  0.69874449  1
  O  O551  1  0.67739299  0.68758953  0.94876080  1
  O  O552  1  0.32305148  0.31324923  0.05184633  1
  O  O553  1  0.32433531  0.31344244  0.29947880  1
  O  O554  1  0.32192190  0.31428385  0.55199220  1
  O  O555  1  0.32279418  0.31452151  0.80019212  1
  O  O556  1  0.32313491  0.64544536  0.05004375  1
  O  O557  1  0.32342558  0.64499266  0.29959577  1
  O  O558  1  0.32290054  0.64808780  0.55031064  1
  O  O559  1  0.32423702  0.64666521  0.79943354  1
  O  O560  1  0.32397765  0.97956319  0.04917121  1
  O  O561  1  0.32291157  0.97898718  0.30106371  1
  O  O562  1  0.32352371  0.97884776  0.55034718  1
  O  O563  1  0.32283999  0.97887384  0.79958130  1
  O  O564  1  0.82224998  0.31373880  0.05164832  1
  O  O565  1  0.82317521  0.31548745  0.30171981  1
  O  O566  1  0.82221222  0.31310170  0.55199497  1
  O  O567  1  0.82290302  0.31203442  0.80080503  1
  O  O568  1  0.82218326  0.64779043  0.05125704  1
  O  O569  1  0.82303895  0.64820142  0.30033459  1
  O  O570  1  0.82288444  0.64777706  0.55063339  1
  O  O571  1  0.82430174  0.64662839  0.79976772  1
  O  O572  1  0.82357414  0.98064929  0.04876065  1
  O  O573  1  0.82246949  0.98234336  0.30141653  1
  O  O574  1  0.82244908  0.98018614  0.55164973  1
  O  O575  1  0.82165477  0.98072432  0.80125282  1
  O  O576  1  0.42853421  0.14634042  0.17617081  1
  O  O577  1  0.42542887  0.14587031  0.42409447  1
  O  O578  1  0.42661137  0.14801367  0.67624932  1
  O  O579  1  0.42693002  0.14552644  0.92534922  1
  O  O580  1  0.42680194  0.47970294  0.17503903  1
  O  O581  1  0.42874796  0.47958897  0.42748520  1
  O  O582  1  0.42726849  0.47932117  0.67387737  1
  O  O583  1  0.42665378  0.47989737  0.92314235  1
  O  O584  1  0.42611244  0.81370471  0.17494047  1
  O  O585  1  0.42726387  0.81227429  0.42574400  1
  O  O586  1  0.42872863  0.81297478  0.67599097  1
  O  O587  1  0.42741766  0.81465593  0.92527005  1
  O  O588  1  0.92816138  0.14819023  0.17706774  1
  O  O589  1  0.92682585  0.14744256  0.42648690  1
  O  O590  1  0.92602632  0.14712749  0.67499357  1
  O  O591  1  0.92607678  0.14631918  0.92655675  1
  O  O592  1  0.92728929  0.48154861  0.17597594  1
  O  O593  1  0.92702906  0.48024717  0.42662649  1
  O  O594  1  0.92593806  0.47989085  0.67449353  1
  O  O595  1  0.92748523  0.48058583  0.92760315  1
  O  O596  1  0.92566253  0.81415486  0.17442745  1
  O  O597  1  0.92526812  0.81400768  0.42422584  1
  O  O598  1  0.92640531  0.81383592  0.67464418  1
  O  O599  1  0.92744258  0.81512126  0.92623333  1
  O  O600  1  0.07282617  0.18795105  0.07600998  1
  O  O601  1  0.07270092  0.18558469  0.32476668  1
  O  O602  1  0.07190578  0.18652146  0.57353945  1
  O  O603  1  0.07297747  0.18692196  0.82655490  1
  O  O604  1  0.07306793  0.51858395  0.07399890  1
  O  O605  1  0.07313884  0.51840252  0.32408706  1
  O  O606  1  0.07334509  0.51875250  0.57387588  1
  O  O607  1  0.07383555  0.51936594  0.82538280  1
  O  O608  1  0.07191145  0.85401998  0.07433721  1
  O  O609  1  0.07252405  0.85539488  0.32501000  1
  O  O610  1  0.07285357  0.85487477  0.57374433  1
  O  O611  1  0.07386614  0.85396003  0.82541373  1
  O  O612  1  0.57414487  0.18550861  0.07455181  1
  O  O613  1  0.57347627  0.18487097  0.32432379  1
  O  O614  1  0.57233122  0.18698274  0.57495436  1
  O  O615  1  0.57171901  0.18540692  0.82247215  1
  O  O616  1  0.57400116  0.51956989  0.07435584  1
  O  O617  1  0.57395809  0.51901318  0.32616436  1
  O  O618  1  0.57163363  0.51894406  0.57375132  1
  O  O619  1  0.57415412  0.52094024  0.82385852  1
  O  O620  1  0.57222420  0.85308478  0.07337031  1
  O  O621  1  0.57316959  0.85333270  0.32429993  1
  O  O622  1  0.57436224  0.85303911  0.57525997  1
  O  O623  1  0.57334663  0.85208973  0.82398505  1
  O  O624  1  0.32243486  0.18584722  0.05128161  1
  O  O625  1  0.32379524  0.18677472  0.29969131  1
  O  O626  1  0.32190921  0.18670384  0.55214443  1
  O  O627  1  0.32249008  0.18766884  0.80006617  1
  O  O628  1  0.32367647  0.51811175  0.05010733  1
  O  O629  1  0.32321236  0.51795306  0.30137566  1
  O  O630  1  0.32313689  0.52100042  0.55009697  1
  O  O631  1  0.32424357  0.51981072  0.79817888  1
  O  O632  1  0.32349483  0.85275191  0.04977282  1
  O  O633  1  0.32297683  0.85166196  0.30100588  1
  O  O634  1  0.32342871  0.85185857  0.55126311  1
  O  O635  1  0.32293123  0.85157098  0.80065344  1
  O  O636  1  0.82252909  0.18645689  0.05260412  1
  O  O637  1  0.82361515  0.18855740  0.30083271  1
  O  O638  1  0.82122760  0.18571178  0.55178414  1
  O  O639  1  0.82324240  0.18513383  0.80040279  1
  O  O640  1  0.82168068  0.52024703  0.05278229  1
  O  O641  1  0.82295548  0.52119997  0.29991192  1
  O  O642  1  0.82289297  0.52064124  0.54927265  1
  O  O643  1  0.82378944  0.51972549  0.79948167  1
  O  O644  1  0.82338358  0.85399863  0.04959562  1
  O  O645  1  0.82299399  0.85513354  0.30021442  1
  O  O646  1  0.82147568  0.85292881  0.55128601  1
  O  O647  1  0.82279303  0.85350855  0.80095468  1
  O  O648  1  0.17704087  0.14798752  0.19974333  1
  O  O649  1  0.17638398  0.14723291  0.45068173  1
  O  O650  1  0.17675018  0.14826511  0.69949743  1
  O  O651  1  0.17596968  0.14725728  0.95087540  1
  O  O652  1  0.17798969  0.48021569  0.19775715  1
  O  O653  1  0.17743232  0.48147751  0.44915736  1
  O  O654  1  0.17631337  0.47902161  0.69997837  1
  O  O655  1  0.17754836  0.47835542  0.94969206  1
  O  O656  1  0.17540120  0.81291205  0.19997569  1
  O  O657  1  0.17673173  0.81458275  0.44939031  1
  O  O658  1  0.17770496  0.81358023  0.69794098  1
  O  O659  1  0.17668728  0.81413809  0.94888802  1
  O  O660  1  0.67773076  0.14897476  0.19938809  1
  O  O661  1  0.67657601  0.14542375  0.45058650  1
  O  O662  1  0.67818999  0.14640615  0.69787447  1
  O  O663  1  0.67716209  0.14712362  0.94744366  1
  O  O664  1  0.67857429  0.48086523  0.19909399  1
  O  O665  1  0.67732694  0.47858225  0.45050170  1
  O  O666  1  0.67628949  0.47840216  0.69933503  1
  O  O667  1  0.67650767  0.47992902  0.95076834  1
  O  O668  1  0.67695654  0.81335173  0.20016346  1
  O  O669  1  0.67656842  0.81239135  0.45015174  1
  O  O670  1  0.67873038  0.81390424  0.69747037  1
  O  O671  1  0.67689514  0.81466388  0.94877609  1
