# generated using pymatgen
data_Na2MnFe(PO4)2
_symmetry_space_group_name_H-M   'P 1'
_cell_length_a   22.34578989
_cell_length_b   20.09720275
_cell_length_c   19.44597129
_cell_angle_alpha   89.94765976
_cell_angle_beta   89.97171777
_cell_angle_gamma   90.00080241
_symmetry_Int_Tables_number   1
_chemical_formula_structural   Na2MnFe(PO4)2
_chemical_formula_sum   'Na96 Mn48 Fe48 P96 O384'
_cell_volume   8732.94511440
_cell_formula_units_Z   48
loop_
 _symmetry_equiv_pos_site_id
 _symmetry_equiv_pos_as_xyz
  1  'x, y, z'
loop_
 _atom_site_type_symbol
 _atom_site_label
 _atom_site_symmetry_multiplicity
 _atom_site_fract_x
 _atom_site_fract_y
 _atom_site_fract_z
 _atom_site_occupancy
  Na  Na0  1  0.14052883  0.25006271  0.24317049  1
  Na  Na1  1  0.14013447  0.25053697  0.49354516  1
  Na  Na2  1  0.14029655  0.24857804  0.74458399  1
  Na  Na3  1  0.14044843  0.24933658  0.99268954  1
  Na  Na4  1  0.14047242  0.58399446  0.24422650  1
  Na  Na5  1  0.14041980  0.58387527  0.49484838  1
  Na  Na6  1  0.14049053  0.58359798  0.74583439  1
  Na  Na7  1  0.14068168  0.58312924  0.99278960  1
  Na  Na8  1  0.13973289  0.91812576  0.24284513  1
  Na  Na9  1  0.13966980  0.91767297  0.49313589  1
  Na  Na10  1  0.14001064  0.91616245  0.74414333  1
  Na  Na11  1  0.14028459  0.91716027  0.99170609  1
  Na  Na12  1  0.64036400  0.25099481  0.24387669  1
  Na  Na13  1  0.64046600  0.25226211  0.49373997  1
  Na  Na14  1  0.64037873  0.25079619  0.74489590  1
  Na  Na15  1  0.64070996  0.24969716  0.99324752  1
  Na  Na16  1  0.64084484  0.58447531  0.24386803  1
  Na  Na17  1  0.64094757  0.58409018  0.49341610  1
  Na  Na18  1  0.64110175  0.58315224  0.74269816  1
  Na  Na19  1  0.64083911  0.58291208  0.99421899  1
  Na  Na20  1  0.64045817  0.91537230  0.24260639  1
  Na  Na21  1  0.64043959  0.91545465  0.49313523  1
  Na  Na22  1  0.64054786  0.91555556  0.74440084  1
  Na  Na23  1  0.64031845  0.91633805  0.99334178  1
  Na  Na24  1  0.35967676  0.08362502  0.00617231  1
  Na  Na25  1  0.35956422  0.08353803  0.25410946  1
  Na  Na26  1  0.35950221  0.08356865  0.50541909  1
  Na  Na27  1  0.35900022  0.08290852  0.75691210  1
  Na  Na28  1  0.35969977  0.41599911  0.00636614  1
  Na  Na29  1  0.35929995  0.41739722  0.25583440  1
  Na  Na30  1  0.36011652  0.41685722  0.50670031  1
  Na  Na31  1  0.35965599  0.41634873  0.75755154  1
  Na  Na32  1  0.35966628  0.75080286  0.00671791  1
  Na  Na33  1  0.35996077  0.75057221  0.25551261  1
  Na  Na34  1  0.35931838  0.75062008  0.50500537  1
  Na  Na35  1  0.35926874  0.75053728  0.75776639  1
  Na  Na36  1  0.85968334  0.08207373  0.00645340  1
  Na  Na37  1  0.85954312  0.08248774  0.25548744  1
  Na  Na38  1  0.85960248  0.08270183  0.50651325  1
  Na  Na39  1  0.85938364  0.08302449  0.75662002  1
  Na  Na40  1  0.85961582  0.41514622  0.00726555  1
  Na  Na41  1  0.85986345  0.41711081  0.25642218  1
  Na  Na42  1  0.85947785  0.41743429  0.50661608  1
  Na  Na43  1  0.85916356  0.41551761  0.75618222  1
  Na  Na44  1  0.85990415  0.74907264  0.00712639  1
  Na  Na45  1  0.85928339  0.74905646  0.25629677  1
  Na  Na46  1  0.85926188  0.74968134  0.50703833  1
  Na  Na47  1  0.86012462  0.74926100  0.75624565  1
  Na  Na48  1  0.10999606  0.08271099  0.11725774  1
  Na  Na49  1  0.10963800  0.08418163  0.36813250  1
  Na  Na50  1  0.10941940  0.08345666  0.61846470  1
  Na  Na51  1  0.10970033  0.08150299  0.86819291  1
  Na  Na52  1  0.10974155  0.41687625  0.11800806  1
  Na  Na53  1  0.10950273  0.41625689  0.36907495  1
  Na  Na54  1  0.10961255  0.41662561  0.62038510  1
  Na  Na55  1  0.10987176  0.41570206  0.86866544  1
  Na  Na56  1  0.10919314  0.75075409  0.11747213  1
  Na  Na57  1  0.10959030  0.75139075  0.36902741  1
  Na  Na58  1  0.10980280  0.75107125  0.61987034  1
  Na  Na59  1  0.10973351  0.74999179  0.86888390  1
  Na  Na60  1  0.60970542  0.08354888  0.11720007  1
  Na  Na61  1  0.60938552  0.08253888  0.36904064  1
  Na  Na62  1  0.60934971  0.08416275  0.61914357  1
  Na  Na63  1  0.60980823  0.08384781  0.86996079  1
  Na  Na64  1  0.60965114  0.41657842  0.11827324  1
  Na  Na65  1  0.60991935  0.41837809  0.36972968  1
  Na  Na66  1  0.61013499  0.41709076  0.61782707  1
  Na  Na67  1  0.61023263  0.41620192  0.86941462  1
  Na  Na68  1  0.61035932  0.74996137  0.11843413  1
  Na  Na69  1  0.61024015  0.74997880  0.36767516  1
  Na  Na70  1  0.61017764  0.75018679  0.61746366  1
  Na  Na71  1  0.61031143  0.75081679  0.86904612  1
  Na  Na72  1  0.39006007  0.24967692  0.12999718  1
  Na  Na73  1  0.39023924  0.24982223  0.38122604  1
  Na  Na74  1  0.39025200  0.25069420  0.63081548  1
  Na  Na75  1  0.39027417  0.25004694  0.88361401  1
  Na  Na76  1  0.39022371  0.58368092  0.13064681  1
  Na  Na77  1  0.39039935  0.58392675  0.38067305  1
  Na  Na78  1  0.39033623  0.58311295  0.63104229  1
  Na  Na79  1  0.39038873  0.58348647  0.88295124  1
  Na  Na80  1  0.39044668  0.91691561  0.12963481  1
  Na  Na81  1  0.39048535  0.91665590  0.37989496  1
  Na  Na82  1  0.38971127  0.91796652  0.63104214  1
  Na  Na83  1  0.39006940  0.91795434  0.88235765  1
  Na  Na84  1  0.89037469  0.24895527  0.13109918  1
  Na  Na85  1  0.89060369  0.24972856  0.38091463  1
  Na  Na86  1  0.89009651  0.25045724  0.63155199  1
  Na  Na87  1  0.88965252  0.24820263  0.88201777  1
  Na  Na88  1  0.89001026  0.58276265  0.13214663  1
  Na  Na89  1  0.88981141  0.58333293  0.38266543  1
  Na  Na90  1  0.88997000  0.58413427  0.63206213  1
  Na  Na91  1  0.89047759  0.58322231  0.88186981  1
  Na  Na92  1  0.89025958  0.91566191  0.13056698  1
  Na  Na93  1  0.89011936  0.91660584  0.38114298  1
  Na  Na94  1  0.89018918  0.91573931  0.63117405  1
  Na  Na95  1  0.89048251  0.91425598  0.88191867  1
  Mn  Mn96  1  0.24939891  0.83434190  0.62548386  1
  Mn  Mn97  1  0.74971201  -0.00046335  0.12486857  1
  Mn  Mn98  1  0.50045470  0.66724332  0.00007465  1
  Mn  Mn99  1  0.49994440  0.16674932  0.49993989  1
  Mn  Mn100  1  0.50002629  0.00078427  0.75076032  1
  Mn  Mn101  1  -0.00025386  0.66692488  0.25066255  1
  Mn  Mn102  1  0.50034077  0.16651621  0.25000136  1
  Mn  Mn103  1  0.74993940  0.16706816  0.37576353  1
  Mn  Mn104  1  0.24985127  0.33327882  0.12474454  1
  Mn  Mn105  1  0.25054181  0.16597910  0.62516066  1
  Mn  Mn106  1  0.50004892  0.50007465  0.75039455  1
  Mn  Mn107  1  0.24995406  0.33317440  0.37463110  1
  Mn  Mn108  1  0.00024362  0.16601927  0.24983350  1
  Mn  Mn109  1  -0.00016551  0.83440227  0.24916776  1
  Mn  Mn110  1  -0.00032264  0.49935918  0.00054071  1
  Mn  Mn111  1  0.49988924  0.33369477  0.24985922  1
  Mn  Mn112  1  0.50029827  0.66697709  0.75004653  1
  Mn  Mn113  1  0.74926040  -0.00144384  0.62603350  1
  Mn  Mn114  1  0.25011677  0.50020637  0.62595282  1
  Mn  Mn115  1  0.24992976  0.00158811  0.37370010  1
  Mn  Mn116  1  0.49929315  0.66655586  0.49915226  1
  Mn  Mn117  1  0.25046824  0.66698520  0.62616289  1
  Mn  Mn118  1  0.75067909  0.33505909  0.37425543  1
  Mn  Mn119  1  -0.00005326  0.16539949  0.00037699  1
  Mn  Mn120  1  0.24990400  0.33283992  0.62571320  1
  Mn  Mn121  1  0.25011698  0.83383298  0.37431783  1
  Mn  Mn122  1  0.75027818  -0.00088809  0.87551456  1
  Mn  Mn123  1  0.00047439  0.66789183  0.50111811  1
  Mn  Mn124  1  0.49939675  0.16745020  0.75014464  1
  Mn  Mn125  1  0.24941639  0.66654063  0.12462189  1
  Mn  Mn126  1  -0.00039501  -0.00075407  0.74930835  1
  Mn  Mn127  1  0.50001365  -0.00084936  0.24852888  1
  Mn  Mn128  1  -0.00057859  0.33197571  0.75005610  1
  Mn  Mn129  1  0.49970907  0.33404110  0.75054876  1
  Mn  Mn130  1  0.00038920  0.49958888  0.50088892  1
  Mn  Mn131  1  0.75086833  0.49899483  0.87446833  1
  Mn  Mn132  1  0.74941866  0.16725543  0.62585106  1
  Mn  Mn133  1  0.49993785  0.83420541  0.74948167  1
  Mn  Mn134  1  0.74925503  -0.00092701  0.37511597  1
  Mn  Mn135  1  -0.00064688  0.50015026  0.75043881  1
  Mn  Mn136  1  0.49937906  0.83397917  0.49926736  1
  Mn  Mn137  1  0.75050102  0.66668553  0.87450740  1
  Mn  Mn138  1  0.00049110  0.49896681  0.25073541  1
  Mn  Mn139  1  0.24898415  0.83444517  0.12482427  1
  Mn  Mn140  1  0.24984089  0.50112071  0.37554830  1
  Mn  Mn141  1  0.49923847  0.50057263  0.24962010  1
  Mn  Mn142  1  0.75019688  0.33304206  0.12538322  1
  Mn  Mn143  1  -0.00009338  0.16696012  0.49906899  1
  Fe  Fe144  1  0.75018832  0.50013951  0.62486191  1
  Fe  Fe145  1  0.00001784  0.33235026  -0.00003068  1
  Fe  Fe146  1  -0.00035031  0.83409557  0.50030972  1
  Fe  Fe147  1  0.74993873  0.16660029  0.12503560  1
  Fe  Fe148  1  0.24992262  0.16682105  0.37428283  1
  Fe  Fe149  1  0.50033271  0.33371359  0.00040202  1
  Fe  Fe150  1  0.74999547  0.50008923  0.12543673  1
  Fe  Fe151  1  0.75027110  0.83244407  0.37449975  1
  Fe  Fe152  1  0.25000164  0.00089741  0.12355238  1
  Fe  Fe153  1  0.74992260  0.16640853  0.87531601  1
  Fe  Fe154  1  0.50040318  0.66703504  0.24934804  1
  Fe  Fe155  1  0.25012991  0.49959233  0.87548056  1
  Fe  Fe156  1  0.75010015  0.83223820  0.87510692  1
  Fe  Fe157  1  0.50029585  0.16699250  0.00006642  1
  Fe  Fe158  1  0.25025234  0.66663870  0.87558982  1
  Fe  Fe159  1  0.50046737  -0.00016685  0.00016823  1
  Fe  Fe160  1  -0.00005256  0.83263064  -0.00006381  1
  Fe  Fe161  1  0.24995467  0.00030683  0.87485989  1
  Fe  Fe162  1  0.50023583  0.50041636  0.49974805  1
  Fe  Fe163  1  0.24991721  0.16666555  0.12365353  1
  Fe  Fe164  1  0.24941370  -0.00011767  0.62529989  1
  Fe  Fe165  1  -0.00034841  0.16586330  0.74977112  1
  Fe  Fe166  1  -0.00035799  0.00030055  0.49983830  1
  Fe  Fe167  1  0.75029030  0.66660484  0.37497261  1
  Fe  Fe168  1  0.00009918  0.66621874  0.00029285  1
  Fe  Fe169  1  -0.00016806  0.83281845  0.75083437  1
  Fe  Fe170  1  0.75020188  0.83214753  0.62443015  1
  Fe  Fe171  1  0.25030209  0.83398138  0.87515574  1
  Fe  Fe172  1  0.24972379  0.16596535  0.87462342  1
  Fe  Fe173  1  0.75007237  0.33365751  0.62525659  1
  Fe  Fe174  1  0.00012832  0.66717579  0.75101281  1
  Fe  Fe175  1  -0.00022718  -0.00093689  -0.00116324  1
  Fe  Fe176  1  0.00016006  -0.00031605  0.24947224  1
  Fe  Fe177  1  0.75004758  0.33307718  0.87532013  1
  Fe  Fe178  1  0.75014580  0.83246169  0.12490469  1
  Fe  Fe179  1  0.00019945  0.33292652  0.24986765  1
  Fe  Fe180  1  -0.00009255  0.33301582  0.50038462  1
  Fe  Fe181  1  0.50076711  0.50046359  0.00052546  1
  Fe  Fe182  1  0.50001248  0.83320975  0.00009655  1
  Fe  Fe183  1  0.75042605  0.66607948  0.12564870  1
  Fe  Fe184  1  0.49997298  0.33389160  0.50020813  1
  Fe  Fe185  1  0.25004384  0.33283449  0.87558747  1
  Fe  Fe186  1  0.74994364  0.66668597  0.62422106  1
  Fe  Fe187  1  0.25017878  0.50008557  0.12442638  1
  Fe  Fe188  1  0.50064398  0.83332266  0.24943666  1
  Fe  Fe189  1  0.24985285  0.66731904  0.37472708  1
  Fe  Fe190  1  0.50000477  -0.00006484  0.49937308  1
  Fe  Fe191  1  0.74995293  0.50109319  0.37564136  1
  P  P192  1  0.04234026  0.25074130  0.10256968  1
  P  P193  1  0.04236210  0.25106541  0.35234334  1
  P  P194  1  0.04222462  0.25044754  0.60267388  1
  P  P195  1  0.04173001  0.24753091  0.85281946  1
  P  P196  1  0.04232732  0.58406202  0.10263969  1
  P  P197  1  0.04271376  0.58343029  0.35387607  1
  P  P198  1  0.04259993  0.58403983  0.60456552  1
  P  P199  1  0.04155056  0.58463499  0.85352722  1
  P  P200  1  0.04152585  0.91699181  0.10080311  1
  P  P201  1  0.04208476  0.91836903  0.35283543  1
  P  P202  1  0.04115270  0.91691643  0.60180844  1
  P  P203  1  0.04158405  0.91494918  0.85293756  1
  P  P204  1  0.54180121  0.25024157  0.10143336  1
  P  P205  1  0.54273718  0.25061341  0.35363981  1
  P  P206  1  0.54224163  0.25152628  0.60241262  1
  P  P207  1  0.54216666  0.25039175  0.85450472  1
  P  P208  1  0.54236390  0.58306867  0.10285167  1
  P  P209  1  0.54210957  0.58450071  0.35217229  1
  P  P210  1  0.54251266  0.58262704  0.60196654  1
  P  P211  1  0.54329293  0.58330347  0.85380364  1
  P  P212  1  0.54189436  0.91582381  0.10147410  1
  P  P213  1  0.54256179  0.91584280  0.35191860  1
  P  P214  1  0.54233455  0.91820217  0.60197876  1
  P  P215  1  0.54249742  0.91691992  0.85430765  1
  P  P216  1  0.45801234  0.08345903  0.14529003  1
  P  P217  1  0.45758225  0.08198972  0.39706723  1
  P  P218  1  0.45691194  0.08352385  0.64661689  1
  P  P219  1  0.45875803  0.08350591  0.89914462  1
  P  P220  1  0.45731545  0.41679482  0.14570114  1
  P  P221  1  0.45837008  0.41726620  0.39843240  1
  P  P222  1  0.45728580  0.41707957  0.64624051  1
  P  P223  1  0.45880306  0.41713825  0.89927406  1
  P  P224  1  0.45888935  0.75062377  0.14771999  1
  P  P225  1  0.45733492  0.75032198  0.39518242  1
  P  P226  1  0.45677574  0.75034194  0.64667241  1
  P  P227  1  0.45768528  0.75157998  0.89776155  1
  P  P228  1  0.95808735  0.08134936  0.14686777  1
  P  P229  1  0.95759783  0.08181586  0.39690472  1
  P  P230  1  0.95724108  0.08425767  0.64697065  1
  P  P231  1  0.95742033  0.08136293  0.89697160  1
  P  P232  1  0.95793247  0.41480321  0.14732634  1
  P  P233  1  0.95796081  0.41492309  0.39768816  1
  P  P234  1  0.95698213  0.41611158  0.64696297  1
  P  P235  1  0.95765705  0.41471345  0.89796528  1
  P  P236  1  0.95746951  0.74983779  0.14619779  1
  P  P237  1  0.95760115  0.75189970  0.39818481  1
  P  P238  1  0.95903522  0.75066231  0.64877196  1
  P  P239  1  0.95882865  0.74907778  0.89830896  1
  P  P240  1  0.20833398  0.08413892  0.22556359  1
  P  P241  1  0.20733012  0.08486108  0.47715325  1
  P  P242  1  0.20759250  0.08170296  0.72811081  1
  P  P243  1  0.20853557  0.08333964  0.97666668  1
  P  P244  1  0.20770059  0.41817053  0.22704131  1
  P  P245  1  0.20707814  0.41677518  0.47835644  1
  P  P246  1  0.20752609  0.41629041  0.72994627  1
  P  P247  1  0.20857709  0.41655142  0.97696992  1
  P  P248  1  0.20669626  0.75018021  0.22801368  1
  P  P249  1  0.20769523  0.74958164  0.47740961  1
  P  P250  1  0.20782408  0.75041560  0.72990228  1
  P  P251  1  0.20880873  0.75056539  0.97643198  1
  P  P252  1  0.70732475  0.08433448  0.22730149  1
  P  P253  1  0.70681427  0.08308759  0.47863170  1
  P  P254  1  0.70710725  0.08320238  0.72928954  1
  P  P255  1  0.70833428  0.08422511  0.97804706  1
  P  P256  1  0.70774213  0.41864713  0.22773952  1
  P  P257  1  0.70838210  0.41878779  0.47825617  1
  P  P258  1  0.70862497  0.41641754  0.72675477  1
  P  P259  1  0.70847289  0.41546083  0.97788850  1
  P  P260  1  0.70907448  0.74958895  0.22707797  1
  P  P261  1  0.70884613  0.74970231  0.47664249  1
  P  P262  1  0.70866735  0.74970925  0.72633315  1
  P  P263  1  0.70834258  0.75041638  0.97821620  1
  P  P264  1  0.29163345  0.24891089  0.02124050  1
  P  P265  1  0.29225970  0.24848814  0.27151108  1
  P  P266  1  0.29273796  0.24965899  0.52147551  1
  P  P267  1  0.29181735  0.24955118  0.77410812  1
  P  P268  1  0.29188893  0.58208128  0.02155688  1
  P  P269  1  0.29232820  0.58497270  0.27211011  1
  P  P270  1  0.29276459  0.58415203  0.52198395  1
  P  P271  1  0.29196545  0.58307312  0.77448479  1
  P  P272  1  0.29156299  0.91823647  0.02120728  1
  P  P273  1  0.29248078  0.91788136  0.27054423  1
  P  P274  1  0.29170305  0.91854446  0.52236981  1
  P  P275  1  0.29138008  0.91726677  0.77340095  1
  P  P276  1  0.79215563  0.24820519  0.02208238  1
  P  P277  1  0.79284356  0.24988346  0.27154796  1
  P  P278  1  0.79214392  0.25165161  0.52303883  1
  P  P279  1  0.79119638  0.25021349  0.77351717  1
  P  P280  1  0.79165382  0.58279288  0.02377619  1
  P  P281  1  0.79168908  0.58329168  0.27329691  1
  P  P282  1  0.79165330  0.58351782  0.52298659  1
  P  P283  1  0.79301551  0.58289856  0.77090110  1
  P  P284  1  0.79187355  0.91458163  0.02232012  1
  P  P285  1  0.79185358  0.91474243  0.27200306  1
  P  P286  1  0.79182210  0.91463973  0.52229091  1
  P  P287  1  0.79217661  0.91418158  0.77253610  1
  O  O288  1  0.03709102  0.25095561  0.18251505  1
  O  O289  1  0.03698656  0.25098771  0.43229631  1
  O  O290  1  0.03676490  0.24914663  0.68260998  1
  O  O291  1  0.03676449  0.24787343  0.93279069  1
  O  O292  1  0.03743437  0.58368636  0.18265344  1
  O  O293  1  0.03772196  0.58338573  0.43388294  1
  O  O294  1  0.03705301  0.58447664  0.68452566  1
  O  O295  1  0.03611594  0.58462448  0.93350889  1
  O  O296  1  0.03703469  0.91726081  0.18083868  1
  O  O297  1  0.03669573  0.91823840  0.43269758  1
  O  O298  1  0.03636394  0.91672441  0.68175659  1
  O  O299  1  0.03633981  0.91529524  0.93277242  1
  O  O300  1  0.53726548  0.24989879  0.18148095  1
  O  O301  1  0.53735170  0.25113953  0.43359491  1
  O  O302  1  0.53713635  0.25131932  0.68244666  1
  O  O303  1  0.53705398  0.25045191  0.93445534  1
  O  O304  1  0.53690039  0.58380327  0.18275118  1
  O  O305  1  0.53679179  0.58376595  0.43211591  1
  O  O306  1  0.53775536  0.58297818  0.68201206  1
  O  O307  1  0.53827773  0.58296833  0.93382848  1
  O  O308  1  0.53685859  0.91517469  0.18146140  1
  O  O309  1  0.53715754  0.91672202  0.43183733  1
  O  O310  1  0.53743574  0.91795013  0.68200681  1
  O  O311  1  0.53712268  0.91660451  0.93423939  1
  O  O312  1  0.46363950  0.08347685  0.06542113  1
  O  O313  1  0.46281733  0.08225200  0.31705986  1
  O  O314  1  0.46202574  0.08295181  0.56665404  1
  O  O315  1  0.46312097  0.08395823  0.81910087  1
  O  O316  1  0.46299551  0.41699454  0.06583761  1
  O  O317  1  0.46316720  0.41729116  0.31836898  1
  O  O318  1  0.46247458  0.41713439  0.56629249  1
  O  O319  1  0.46336332  0.41729108  0.81920947  1
  O  O320  1  0.46406108  0.75099115  0.06771357  1
  O  O321  1  0.46298952  0.75031371  0.31526583  1
  O  O322  1  0.46152038  0.75019693  0.56662617  1
  O  O323  1  0.46255486  0.75114579  0.81777748  1
  O  O324  1  0.96335251  0.08130940  0.06691098  1
  O  O325  1  0.96284396  0.08166649  0.31692083  1
  O  O326  1  0.96230673  0.08411340  0.56699868  1
  O  O327  1  0.96258321  0.08216661  0.81702947  1
  O  O328  1  0.96315682  0.41477612  0.06734023  1
  O  O329  1  0.96357240  0.41485569  0.31769376  1
  O  O330  1  0.96235750  0.41577988  0.56703396  1
  O  O331  1  0.96270744  0.41521842  0.81801756  1
  O  O332  1  0.96278170  0.74925373  0.06629319  1
  O  O333  1  0.96254032  0.75163866  0.31820499  1
  O  O334  1  0.96382366  0.75137126  0.56882239  1
  O  O335  1  0.96370154  0.74917415  0.81837231  1
  O  O336  1  0.21375454  0.08349138  0.05655775  1
  O  O337  1  0.21333195  0.08461290  0.30554393  1
  O  O338  1  0.21229247  0.08406891  0.55707880  1
  O  O339  1  0.21280582  0.08173882  0.80801609  1
  O  O340  1  0.21376309  0.41701810  0.05695390  1
  O  O341  1  0.21296789  0.41776493  0.30698719  1
  O  O342  1  0.21205867  0.41654199  0.55838504  1
  O  O343  1  0.21299422  0.41602281  0.80989375  1
  O  O344  1  0.21311599  0.75041403  0.05647140  1
  O  O345  1  0.21198525  0.74992078  0.30794840  1
  O  O346  1  0.21309675  0.75005995  0.55740764  1
  O  O347  1  0.21346507  0.75062999  0.80978095  1
  O  O348  1  0.71363827  0.08435214  0.05800826  1
  O  O349  1  0.71245825  0.08377801  0.30729690  1
  O  O350  1  0.71179684  0.08288657  0.55864273  1
  O  O351  1  0.71274873  0.08348221  0.80923898  1
  O  O352  1  0.71354718  0.41611466  0.05778021  1
  O  O353  1  0.71303285  0.41893293  0.30768335  1
  O  O354  1  0.71387290  0.41832268  0.55811157  1
  O  O355  1  0.71379587  0.41566436  0.80675924  1
  O  O356  1  0.71373055  0.75026203  0.05805786  1
  O  O357  1  0.71402765  0.74958855  0.30695770  1
  O  O358  1  0.71372215  0.74957608  0.55656423  1
  O  O359  1  0.71338304  0.74956823  0.80633455  1
  O  O360  1  0.28675115  0.24861230  0.19154368  1
  O  O361  1  0.28765366  0.24938715  0.44147313  1
  O  O362  1  0.28704458  0.24960260  0.69407018  1
  O  O363  1  0.28621951  0.24942032  0.94139131  1
  O  O364  1  0.28710495  0.58412227  0.19215815  1
  O  O365  1  0.28748077  0.58485418  0.44203126  1
  O  O366  1  0.28734535  0.58331513  0.69445454  1
  O  O367  1  0.28658418  0.58233148  0.94167150  1
  O  O368  1  0.28711943  0.91836124  0.19060031  1
  O  O369  1  0.28694856  0.91836988  0.44237450  1
  O  O370  1  0.28601883  0.91761309  0.69342853  1
  O  O371  1  0.28633099  0.91775109  0.94128571  1
  O  O372  1  0.78747303  0.24935152  0.19158472  1
  O  O373  1  0.78733401  0.25163415  0.44305428  1
  O  O374  1  0.78590005  0.25100767  0.69357563  1
  O  O375  1  0.78657852  0.24831612  0.94219426  1
  O  O376  1  0.78655296  0.58328145  0.19340702  1
  O  O377  1  0.78677547  0.58377527  0.44306282  1
  O  O378  1  0.78764467  0.58278395  0.69106288  1
  O  O379  1  0.78717641  0.58315835  0.94377247  1
  O  O380  1  0.78643352  0.91486004  0.19204827  1
  O  O381  1  0.78642179  0.91467821  0.44233405  1
  O  O382  1  0.78662316  0.91409266  0.69260205  1
  O  O383  1  0.78649952  0.91455880  0.94240450  1
  O  O384  1  0.22759208  0.24881544  0.05757948  1
  O  O385  1  0.22803993  0.24852264  0.30748543  1
  O  O386  1  0.22842148  0.24949309  0.55688577  1
  O  O387  1  0.22747890  0.24986520  0.80959545  1
  O  O388  1  0.22772378  0.58182795  0.05765043  1
  O  O389  1  0.22808939  0.58550242  0.30801706  1
  O  O390  1  0.22847414  0.58381575  0.55752259  1
  O  O391  1  0.22767817  0.58249004  0.80999572  1
  O  O392  1  0.22736383  0.91879897  0.05715497  1
  O  O393  1  0.22821986  0.91764424  0.30604267  1
  O  O394  1  0.22728613  0.91856430  0.55778423  1
  O  O395  1  0.22727281  0.91702126  0.80955962  1
  O  O396  1  0.72803647  0.24826925  0.05838592  1
  O  O397  1  0.72858298  0.25064101  0.30703338  1
  O  O398  1  0.72774795  0.25181693  0.55837284  1
  O  O399  1  0.72719305  0.25035628  0.80995003  1
  O  O400  1  0.72743371  0.58254212  0.05946788  1
  O  O401  1  0.72761041  0.58318121  0.30969959  1
  O  O402  1  0.72757416  0.58320747  0.55922567  1
  O  O403  1  0.72884239  0.58297079  0.80677609  1
  O  O404  1  0.72771544  0.91471293  0.05830014  1
  O  O405  1  0.72765683  0.91435133  0.30794790  1
  O  O406  1  0.72761017  0.91427318  0.55823348  1
  O  O407  1  0.72804422  0.91435912  0.80862636  1
  O  O408  1  0.27249523  0.08394340  0.18945430  1
  O  O409  1  0.27169064  0.08558581  0.44146577  1
  O  O410  1  0.27181444  0.08120424  0.69213294  1
  O  O411  1  0.27258680  0.08326152  0.94031556  1
  O  O412  1  0.27198370  0.41812907  0.19136121  1
  O  O413  1  0.27149121  0.41687348  0.44324492  1
  O  O414  1  0.27173851  0.41635552  0.69412325  1
  O  O415  1  0.27270950  0.41653744  0.94087386  1
  O  O416  1  0.27100751  0.75058291  0.19260964  1
  O  O417  1  0.27189332  0.74910139  0.44141664  1
  O  O418  1  0.27191436  0.75104688  0.69384369  1
  O  O419  1  0.27311291  0.75101257  0.94111189  1
  O  O420  1  0.77167841  0.08430142  0.19179459  1
  O  O421  1  0.77125993  0.08279079  0.44356046  1
  O  O422  1  0.77127125  0.08300700  0.69352751  1
  O  O423  1  0.77243093  0.08402060  0.94199710  1
  O  O424  1  0.77202943  0.41828016  0.19200217  1
  O  O425  1  0.77245643  0.41933227  0.44185530  1
  O  O426  1  0.77274021  0.41674615  0.69066473  1
  O  O427  1  0.77271881  0.41465674  0.94204529  1
  O  O428  1  0.77308622  0.74987621  0.19072709  1
  O  O429  1  0.77296696  0.75004937  0.44046669  1
  O  O430  1  0.77292238  0.74989385  0.69053993  1
  O  O431  1  0.77250335  0.75066293  0.94197169  1
  O  O432  1  0.02232149  0.08142944  0.18268464  1
  O  O433  1  0.02183614  0.08212582  0.43259736  1
  O  O434  1  0.02152452  0.08433112  0.68265230  1
  O  O435  1  0.02172687  0.08104776  0.93261862  1
  O  O436  1  0.02222883  0.41472107  0.18298365  1
  O  O437  1  0.02212111  0.41466975  0.43370254  1
  O  O438  1  0.02121408  0.41617457  0.68246744  1
  O  O439  1  0.02198787  0.41496346  0.93337118  1
  O  O440  1  0.02168630  0.75007084  0.18186822  1
  O  O441  1  0.02197548  0.75239058  0.43352794  1
  O  O442  1  0.02315177  0.75042785  0.68474850  1
  O  O443  1  0.02291493  0.74868103  0.93438672  1
  O  O444  1  0.52211832  0.08328077  0.18123740  1
  O  O445  1  0.52183538  0.08199288  0.43273766  1
  O  O446  1  0.52132256  0.08405388  0.68178837  1
  O  O447  1  0.52301262  0.08288352  0.93457935  1
  O  O448  1  0.52149271  0.41704200  0.18150271  1
  O  O449  1  0.52257587  0.41742745  0.43418912  1
  O  O450  1  0.52166002  0.41699735  0.68159883  1
  O  O451  1  0.52312370  0.41660020  0.93468972  1
  O  O452  1  0.52301179  0.75028048  0.18385413  1
  O  O453  1  0.52146644  0.75040540  0.43112437  1
  O  O454  1  0.52143488  0.75043190  0.68120236  1
  O  O455  1  0.52214676  0.75165176  0.93287705  1
  O  O456  1  0.47754401  0.25094741  0.06594054  1
  O  O457  1  0.47841494  0.25018578  0.31824121  1
  O  O458  1  0.47793691  0.25139628  0.56699343  1
  O  O459  1  0.47782205  0.25058487  0.81905884  1
  O  O460  1  0.47823097  0.58277788  0.06692516  1
  O  O461  1  0.47791191  0.58557033  0.31632905  1
  O  O462  1  0.47807249  0.58207602  0.56683196  1
  O  O463  1  0.47878725  0.58368872  0.81888225  1
  O  O464  1  0.47774478  0.91643463  0.06551888  1
  O  O465  1  0.47834899  0.91491612  0.31607116  1
  O  O466  1  0.47787789  0.91855000  0.56676016  1
  O  O467  1  0.47821298  0.91701707  0.81872531  1
  O  O468  1  0.97805749  0.25044615  0.06688133  1
  O  O469  1  0.97814945  0.25089792  0.31652386  1
  O  O470  1  0.97798565  0.25110462  0.56680254  1
  O  O471  1  0.97742287  0.24710076  0.81726252  1
  O  O472  1  0.97788581  0.58408596  0.06749257  1
  O  O473  1  0.97829189  0.58286155  0.31886439  1
  O  O474  1  0.97840758  0.58391708  0.56893281  1
  O  O475  1  0.97744353  0.58482400  0.81756127  1
  O  O476  1  0.97724607  0.91694776  0.06525173  1
  O  O477  1  0.97792620  0.91862447  0.31658745  1
  O  O478  1  0.97697672  0.91640176  0.56588362  1
  O  O479  1  0.97748618  0.91488209  0.81682057  1
  O  O480  1  0.07305892  0.31406785  0.07342350  1
  O  O481  1  0.07343030  0.31428547  0.32366229  1
  O  O482  1  0.07306219  0.31428022  0.57497440  1
  O  O483  1  0.07277257  0.31117571  0.82491416  1
  O  O484  1  0.07309483  0.64755694  0.07409406  1
  O  O485  1  0.07325930  0.64723635  0.32586711  1
  O  O486  1  0.07397935  0.64727700  0.57617034  1
  O  O487  1  0.07272872  0.64787909  0.82493804  1
  O  O488  1  0.07260314  0.98027071  0.07204262  1
  O  O489  1  0.07314556  0.98161969  0.32375407  1
  O  O490  1  0.07116575  0.98112267  0.57341705  1
  O  O491  1  0.07288441  0.97829512  0.82450928  1
  O  O492  1  0.57313286  0.31373343  0.07363090  1
  O  O493  1  0.57381192  0.31393310  0.32495894  1
  O  O494  1  0.57277049  0.31520449  0.57388933  1
  O  O495  1  0.57341807  0.31370968  0.82591251  1
  O  O496  1  0.57372626  0.64643882  0.07477602  1
  O  O497  1  0.57331280  0.64789240  0.32379256  1
  O  O498  1  0.57320393  0.64640120  0.57387129  1
  O  O499  1  0.57424089  0.64693239  0.82555060  1
  O  O500  1  0.57288889  0.97970345  0.07392019  1
  O  O501  1  0.57346053  0.97937013  0.32344737  1
  O  O502  1  0.57312195  0.98166873  0.57347120  1
  O  O503  1  0.57365003  0.98046827  0.82618233  1
  O  O504  1  0.42670032  0.01997818  0.17337763  1
  O  O505  1  0.42702614  0.01823459  0.42528555  1
  O  O506  1  0.42595749  0.02033612  0.67571019  1
  O  O507  1  0.42757552  0.01999121  0.92705266  1
  O  O508  1  0.42630217  0.35324094  0.17406529  1
  O  O509  1  0.42779106  0.35335817  0.42644806  1
  O  O510  1  0.42608802  0.35373663  0.67495853  1
  O  O511  1  0.42761420  0.35358181  0.92713424  1
  O  O512  1  0.42809711  0.68665450  0.17537256  1
  O  O513  1  0.42607687  0.68700485  0.42365212  1
  O  O514  1  0.42602945  0.68684093  0.67529561  1
  O  O515  1  0.42671442  0.68799945  0.92590691  1
  O  O516  1  0.92707599  0.01805212  0.17549117  1
  O  O517  1  0.92678042  0.01856696  0.42606823  1
  O  O518  1  0.92598995  0.02070709  0.67484666  1
  O  O519  1  0.92678091  0.01749525  0.92496896  1
  O  O520  1  0.92684111  0.35158788  0.17601625  1
  O  O521  1  0.92675117  0.35170397  0.42624064  1
  O  O522  1  0.92566355  0.35287873  0.67543115  1
  O  O523  1  0.92734705  0.35081319  0.92615229  1
  O  O524  1  0.92619052  0.68670907  0.17521654  1
  O  O525  1  0.92693071  0.68805592  0.42620517  1
  O  O526  1  0.92828702  0.68678186  0.67676479  1
  O  O527  1  0.92730452  0.68588196  0.92688585  1
  O  O528  1  0.17768100  0.02024595  0.19759119  1
  O  O529  1  0.17647385  0.02136115  0.44869240  1
  O  O530  1  0.17648870  0.01851565  0.69914149  1
  O  O531  1  0.17740395  0.01987505  0.94839912  1
  O  O532  1  0.17655015  0.35457991  0.19928735  1
  O  O533  1  0.17613429  0.35341899  0.44984812  1
  O  O534  1  0.17625722  0.35297539  0.70151380  1
  O  O535  1  0.17797962  0.35251153  0.94935176  1
  O  O536  1  0.17558561  0.68694708  0.19946876  1
  O  O537  1  0.17676126  0.68608238  0.44937910  1
  O  O538  1  0.17702580  0.68670070  0.70190412  1
  O  O539  1  0.17870744  0.68640811  0.94831462  1
  O  O540  1  0.67623010  0.02074195  0.19939854  1
  O  O541  1  0.67568266  0.01978020  0.45025746  1
  O  O542  1  0.67599155  0.01955357  0.70159313  1
  O  O543  1  0.67723405  0.02036859  0.95083795  1
  O  O544  1  0.67659178  0.35491651  0.20020209  1
  O  O545  1  0.67744664  0.35523870  0.44991600  1
  O  O546  1  0.67772809  0.35290126  0.69827236  1
  O  O547  1  0.67747568  0.35200588  0.94959207  1
  O  O548  1  0.67873432  0.68567414  0.19843433  1
  O  O549  1  0.67834454  0.68591392  0.44798304  1
  O  O550  1  0.67833987  0.68583830  0.69765860  1
  O  O551  1  0.67733613  0.68678992  0.95008663  1
  O  O552  1  0.32293229  0.31224971  0.04956735  1
  O  O553  1  0.32327350  0.31231849  0.29911846  1
  O  O554  1  0.32350208  0.31329397  0.54972940  1
  O  O555  1  0.32296936  0.31291804  0.80234666  1
  O  O556  1  0.32301640  0.64571900  0.04952951  1
  O  O557  1  0.32296812  0.64869247  0.30020252  1
  O  O558  1  0.32399020  0.64731363  0.55062425  1
  O  O559  1  0.32204506  0.64719309  0.80277232  1
  O  O560  1  0.32268883  0.98159430  0.04962385  1
  O  O561  1  0.32378141  0.98107171  0.29892818  1
  O  O562  1  0.32214790  0.98211387  0.55102665  1
  O  O563  1  0.32241566  0.98072563  0.80170957  1
  O  O564  1  0.82340882  0.31173512  0.05000469  1
  O  O565  1  0.82412063  0.31347802  0.29913423  1
  O  O566  1  0.82285781  0.31509745  0.55163086  1
  O  O567  1  0.82252359  0.31341653  0.80208108  1
  O  O568  1  0.82200940  0.64655232  0.05243316  1
  O  O569  1  0.82240493  0.64698738  0.30187849  1
  O  O570  1  0.82219701  0.64735014  0.55161554  1
  O  O571  1  0.82420328  0.64623023  0.79936871  1
  O  O572  1  0.82291090  0.97842789  0.04973612  1
  O  O573  1  0.82251374  0.97871073  0.29971690  1
  O  O574  1  0.82256823  0.97846373  0.55016203  1
  O  O575  1  0.82335651  0.97794560  0.79995512  1
  O  O576  1  0.42680866  0.14675912  0.17378759  1
  O  O577  1  0.42645644  0.14555714  0.42479012  1
  O  O578  1  0.42585299  0.14714563  0.67464047  1
  O  O579  1  0.42858387  0.14748894  0.92757236  1
  O  O580  1  0.42583653  0.47995024  0.17420509  1
  O  O581  1  0.42757336  0.48104472  0.42625771  1
  O  O582  1  0.42620513  0.48036956  0.67505813  1
  O  O583  1  0.42862343  0.48113375  0.92748453  1
  O  O584  1  0.42792875  0.81415479  0.17587767  1
  O  O585  1  0.42593522  0.81362546  0.42351733  1
  O  O586  1  0.42590152  0.81393974  0.67468557  1
  O  O587  1  0.42694641  0.81504035  0.92627396  1
  O  O588  1  0.92715609  0.14513739  0.17462826  1
  O  O589  1  0.92638949  0.14557658  0.42436079  1
  O  O590  1  0.92670014  0.14780565  0.67578372  1
  O  O591  1  0.92621034  0.14451391  0.92565665  1
  O  O592  1  0.92718061  0.47874460  0.17505418  1
  O  O593  1  0.92719311  0.47892688  0.42517736  1
  O  O594  1  0.92600814  0.47971720  0.67492187  1
  O  O595  1  0.92624219  0.47812090  0.92584259  1
  O  O596  1  0.92644407  0.81347539  0.17414730  1
  O  O597  1  0.92672642  0.81528452  0.42663397  1
  O  O598  1  0.92811016  0.81407049  0.67753639  1
  O  O599  1  0.92859375  0.81305471  0.92698924  1
  O  O600  1  0.07343768  0.18694351  0.07513656  1
  O  O601  1  0.07330132  0.18724280  0.32456164  1
  O  O602  1  0.07336419  0.18719688  0.57400902  1
  O  O603  1  0.07241048  0.18400442  0.82416839  1
  O  O604  1  0.07326735  0.52042185  0.07464954  1
  O  O605  1  0.07408164  0.52015429  0.32572169  1
  O  O606  1  0.07367722  0.52037180  0.57685393  1
  O  O607  1  0.07243739  0.52069396  0.82614992  1
  O  O608  1  0.07183211  0.85292633  0.07254288  1
  O  O609  1  0.07308292  0.85475239  0.32462343  1
  O  O610  1  0.07258585  0.85370365  0.57350463  1
  O  O611  1  0.07236663  0.85142306  0.82431181  1
  O  O612  1  0.57187532  0.18624208  0.07291981  1
  O  O613  1  0.57384756  0.18699103  0.32579757  1
  O  O614  1  0.57356446  0.18803244  0.57481018  1
  O  O615  1  0.57308245  0.18695764  0.82592053  1
  O  O616  1  0.57312596  0.51935797  0.07474575  1
  O  O617  1  0.57285371  0.52080582  0.32412737  1
  O  O618  1  0.57335309  0.51920210  0.57349548  1
  O  O619  1  0.57434140  0.52000945  0.82525921  1
  O  O620  1  0.57260399  0.85228819  0.07290688  1
  O  O621  1  0.57369324  0.85236184  0.32383903  1
  O  O622  1  0.57308995  0.85440649  0.57408953  1
  O  O623  1  0.57370310  0.85375085  0.82540907  1
  O  O624  1  0.32256293  0.18536404  0.04961291  1
  O  O625  1  0.32317969  0.18513848  0.30009321  1
  O  O626  1  0.32411628  0.18651480  0.55004604  1
  O  O627  1  0.32214984  0.18543562  0.80201090  1
  O  O628  1  0.32275481  0.51867482  0.05037741  1
  O  O629  1  0.32347742  0.52147386  0.30033409  1
  O  O630  1  0.32365657  0.52041558  0.54994436  1
  O  O631  1  0.32330528  0.51968017  0.80246102  1
  O  O632  1  0.32245968  0.85461755  0.04958724  1
  O  O633  1  0.32351217  0.85425464  0.29850989  1
  O  O634  1  0.32272739  0.85490547  0.55032639  1
  O  O635  1  0.32239921  0.85357508  0.80139160  1
  O  O636  1  0.82307294  0.18478909  0.05085546  1
  O  O637  1  0.82383295  0.18653678  0.30015537  1
  O  O638  1  0.82298430  0.18783517  0.55086691  1
  O  O639  1  0.82170111  0.18601843  0.80106429  1
  O  O640  1  0.82256681  0.51908586  0.05173494  1
  O  O641  1  0.82283478  0.51987952  0.30179870  1
  O  O642  1  0.82294128  0.52016611  0.55136247  1
  O  O643  1  0.82419475  0.51957923  0.79962877  1
  O  O644  1  0.82289704  0.85135554  0.05103718  1
  O  O645  1  0.82317227  0.85159920  0.30055565  1
  O  O646  1  0.82301437  0.85140007  0.55090267  1
  O  O647  1  0.82305911  0.85085451  0.80134917  1
  O  O648  1  0.17730228  0.14755779  0.19704603  1
  O  O649  1  0.17655081  0.14839902  0.44857104  1
  O  O650  1  0.17683994  0.14552927  0.70006843  1
  O  O651  1  0.17760715  0.14694026  0.94813097  1
  O  O652  1  0.17711414  0.48182468  0.19870752  1
  O  O653  1  0.17598523  0.48032427  0.45048727  1
  O  O654  1  0.17638691  0.47983746  0.70178322  1
  O  O655  1  0.17732091  0.47985143  0.94851143  1
  O  O656  1  0.17545600  0.81371892  0.19995092  1
  O  O657  1  0.17688434  0.81342214  0.44964984  1
  O  O658  1  0.17610656  0.81342893  0.70124570  1
  O  O659  1  0.17759391  0.81401058  0.94843885  1
  O  O660  1  0.67671314  0.14802342  0.19903721  1
  O  O661  1  0.67612805  0.14687384  0.45075362  1
  O  O662  1  0.67578378  0.14651672  0.70107818  1
  O  O663  1  0.67736120  0.14750808  0.94932086  1
  O  O664  1  0.67697962  0.48197874  0.19880437  1
  O  O665  1  0.67724781  0.48216623  0.44974582  1
  O  O666  1  0.67778445  0.48025424  0.69892616  1
  O  O667  1  0.67774450  0.47907241  0.94942148  1
  O  O668  1  0.67766966  0.81283401  0.19853271  1
  O  O669  1  0.67755535  0.81303267  0.44813738  1
  O  O670  1  0.67738216  0.81304998  0.69806569  1
  O  O671  1  0.67737654  0.81373060  0.94926237  1
