# generated using pymatgen
data_Na2MnFe(PO4)2
_symmetry_space_group_name_H-M   'P 1'
_cell_length_a   22.34199991
_cell_length_b   20.09502258
_cell_length_c   19.45129485
_cell_angle_alpha   89.94818201
_cell_angle_beta   89.95493183
_cell_angle_gamma   90.01509977
_symmetry_Int_Tables_number   1
_chemical_formula_structural   Na2MnFe(PO4)2
_chemical_formula_sum   'Na96 Mn48 Fe48 P96 O384'
_cell_volume   8732.90497052
_cell_formula_units_Z   48
loop_
 _symmetry_equiv_pos_site_id
 _symmetry_equiv_pos_as_xyz
  1  'x, y, z'
loop_
 _atom_site_type_symbol
 _atom_site_label
 _atom_site_symmetry_multiplicity
 _atom_site_fract_x
 _atom_site_fract_y
 _atom_site_fract_z
 _atom_site_occupancy
  Na  Na0  1  0.14078736  0.25229190  0.24299597  1
  Na  Na1  1  0.14030449  0.25072463  0.49299293  1
  Na  Na2  1  0.14029977  0.24963090  0.74360789  1
  Na  Na3  1  0.14104406  0.25101672  0.99232876  1
  Na  Na4  1  0.14109088  0.58338579  0.24196014  1
  Na  Na5  1  0.14061782  0.58452766  0.49330641  1
  Na  Na6  1  0.14021453  0.58489613  0.74333230  1
  Na  Na7  1  0.14047968  0.58355841  0.99215583  1
  Na  Na8  1  0.14051117  0.91568109  0.24360663  1
  Na  Na9  1  0.14036105  0.91639587  0.49438993  1
  Na  Na10  1  0.14078260  0.91618886  0.74316472  1
  Na  Na11  1  0.14100820  0.91593932  0.99292450  1
  Na  Na12  1  0.64053035  0.24900126  0.24510874  1
  Na  Na13  1  0.63977806  0.24957189  0.49361404  1
  Na  Na14  1  0.63972958  0.24850615  0.74371235  1
  Na  Na15  1  0.64043616  0.24984501  0.99388539  1
  Na  Na16  1  0.64049768  0.58360243  0.24447053  1
  Na  Na17  1  0.63997571  0.58259022  0.49376948  1
  Na  Na18  1  0.63995868  0.58242208  0.74369334  1
  Na  Na19  1  0.64029624  0.58404685  0.99359597  1
  Na  Na20  1  0.64071927  0.91774360  0.24413644  1
  Na  Na21  1  0.64058888  0.91797726  0.49416017  1
  Na  Na22  1  0.64067629  0.91578759  0.74471475  1
  Na  Na23  1  0.64063990  0.91766931  0.99542785  1
  Na  Na24  1  0.35892961  0.08369100  0.00612595  1
  Na  Na25  1  0.35914204  0.08331724  0.25704415  1
  Na  Na26  1  0.35918667  0.08370361  0.50723267  1
  Na  Na27  1  0.35879797  0.08356700  0.75765333  1
  Na  Na28  1  0.35921549  0.41790446  0.00545946  1
  Na  Na29  1  0.35911018  0.41754397  0.25657338  1
  Na  Na30  1  0.35975446  0.41811861  0.50712651  1
  Na  Na31  1  0.35901374  0.41766199  0.75727510  1
  Na  Na32  1  0.35868228  0.74926279  0.00549339  1
  Na  Na33  1  0.35884918  0.74920611  0.25588759  1
  Na  Na34  1  0.35874015  0.75037637  0.50738199  1
  Na  Na35  1  0.35867619  0.74980476  0.75685502  1
  Na  Na36  1  0.85938204  0.08247987  0.00606167  1
  Na  Na37  1  0.85987785  0.08278093  0.25661492  1
  Na  Na38  1  0.86024426  0.08398858  0.50617889  1
  Na  Na39  1  0.86024105  0.08152180  0.75641686  1
  Na  Na40  1  0.86012911  0.41602982  0.00584133  1
  Na  Na41  1  0.86014130  0.41515377  0.25549600  1
  Na  Na42  1  0.85992089  0.41588677  0.50471371  1
  Na  Na43  1  0.85972875  0.41529955  0.75673316  1
  Na  Na44  1  0.85975712  0.75027021  0.00614612  1
  Na  Na45  1  0.86030438  0.75027113  0.25595412  1
  Na  Na46  1  0.86035162  0.75096487  0.50610785  1
  Na  Na47  1  0.85982218  0.74829461  0.75624146  1
  Na  Na48  1  0.10973565  0.08350790  0.11828432  1
  Na  Na49  1  0.10957460  0.08468858  0.36913141  1
  Na  Na50  1  0.11003417  0.08190521  0.61955156  1
  Na  Na51  1  0.11019766  0.08292371  0.86735517  1
  Na  Na52  1  0.11029021  0.41703585  0.11695938  1
  Na  Na53  1  0.11072146  0.41797902  0.36723628  1
  Na  Na54  1  0.10974691  0.41749371  0.61812006  1
  Na  Na55  1  0.11028566  0.41706846  0.86798528  1
  Na  Na56  1  0.11047008  0.74862438  0.11733462  1
  Na  Na57  1  0.11021363  0.75136284  0.36855796  1
  Na  Na58  1  0.11004508  0.75003361  0.61831376  1
  Na  Na59  1  0.11027853  0.74992218  0.86772892  1
  Na  Na60  1  0.61013750  0.08303919  0.11958123  1
  Na  Na61  1  0.60947685  0.08451997  0.36964901  1
  Na  Na62  1  0.60930303  0.08419883  0.61919989  1
  Na  Na63  1  0.60980721  0.08460895  0.86879810  1
  Na  Na64  1  0.60960475  0.41701159  0.12001306  1
  Na  Na65  1  0.60964151  0.41606135  0.37015435  1
  Na  Na66  1  0.60882758  0.41552301  0.61952202  1
  Na  Na67  1  0.60926066  0.41684840  0.86737874  1
  Na  Na68  1  0.60969566  0.75058515  0.11951187  1
  Na  Na69  1  0.60952454  0.75080473  0.36880143  1
  Na  Na70  1  0.60929404  0.74844386  0.61931572  1
  Na  Na71  1  0.60980007  0.74955203  0.86873181  1
  Na  Na72  1  0.38973417  0.25087841  0.13150774  1
  Na  Na73  1  0.39028744  0.25175547  0.38216496  1
  Na  Na74  1  0.39016088  0.25119374  0.63156175  1
  Na  Na75  1  0.38932695  0.25083138  0.88111684  1
  Na  Na76  1  0.38921584  0.58326441  0.13173382  1
  Na  Na77  1  0.38980215  0.58192446  0.38187903  1
  Na  Na78  1  0.38973305  0.58206757  0.63267384  1
  Na  Na79  1  0.38916777  0.58323159  0.88080414  1
  Na  Na80  1  0.38954499  0.91637557  0.13129640  1
  Na  Na81  1  0.39004108  0.91761678  0.38188775  1
  Na  Na82  1  0.38959933  0.91689323  0.63263938  1
  Na  Na83  1  0.38941358  0.91661735  0.88152450  1
  Na  Na84  1  0.89046530  0.24912202  0.13107930  1
  Na  Na85  1  0.89060553  0.25034780  0.38047448  1
  Na  Na86  1  0.89069514  0.24811905  0.63044241  1
  Na  Na87  1  0.89044958  0.24899380  0.88132904  1
  Na  Na88  1  0.89103782  0.58211420  0.12993233  1
  Na  Na89  1  0.89125250  0.58466801  0.38038849  1
  Na  Na90  1  0.89046043  0.58338807  0.63037896  1
  Na  Na91  1  0.89070131  0.58217714  0.88153769  1
  Na  Na92  1  0.89032227  0.91575493  0.13224377  1
  Na  Na93  1  0.89079134  0.91685036  0.38146231  1
  Na  Na94  1  0.89062081  0.91608808  0.63176717  1
  Na  Na95  1  0.89036648  0.91564779  0.88177137  1
  Mn  Mn96  1  0.74993539  0.49979183  0.12527770  1
  Mn  Mn97  1  0.24958368  -0.00075271  0.12512866  1
  Mn  Mn98  1  0.49941109  0.00042090  -0.00014330  1
  Mn  Mn99  1  0.00022469  -0.00055097  -0.00022843  1
  Mn  Mn100  1  -0.00026653  0.33235638  0.74884504  1
  Mn  Mn101  1  0.74980731  0.66643862  0.87543744  1
  Mn  Mn102  1  0.74983722  0.33225585  0.87542809  1
  Mn  Mn103  1  0.74954102  0.33225742  0.12479505  1
  Mn  Mn104  1  0.75003463  0.33195521  0.62563367  1
  Mn  Mn105  1  -0.00033609  0.16659408  -0.00029377  1
  Mn  Mn106  1  0.75059391  0.16515160  0.62451771  1
  Mn  Mn107  1  0.00044189  0.83304083  0.24993201  1
  Mn  Mn108  1  0.49990733  0.00115988  0.75051570  1
  Mn  Mn109  1  0.49969031  0.33372516  0.00023540  1
  Mn  Mn110  1  0.25001842  0.16666876  0.62514506  1
  Mn  Mn111  1  0.75000689  0.66636692  0.62505889  1
  Mn  Mn112  1  0.49969129  0.83332176  0.00016403  1
  Mn  Mn113  1  0.49965089  0.16713622  0.00051937  1
  Mn  Mn114  1  0.24967717  0.16783402  0.37548943  1
  Mn  Mn115  1  0.75003114  -0.00070569  0.87600836  1
  Mn  Mn116  1  0.24976314  0.33489649  0.62509372  1
  Mn  Mn117  1  0.00104335  0.83202974  0.00030179  1
  Mn  Mn118  1  0.49919671  0.83425128  0.25012955  1
  Mn  Mn119  1  0.49995140  0.66619227  0.00022416  1
  Mn  Mn120  1  0.00022822  0.33301075  0.49949317  1
  Mn  Mn121  1  0.49989000  0.16656908  0.25104188  1
  Mn  Mn122  1  0.75000299  0.49892954  0.62431919  1
  Mn  Mn123  1  0.49978031  0.83332933  0.50032306  1
  Mn  Mn124  1  0.49988919  0.83267345  0.75058653  1
  Mn  Mn125  1  0.50012898  0.50021572  -0.00052519  1
  Mn  Mn126  1  0.00068309  0.50028294  0.24887654  1
  Mn  Mn127  1  0.74958991  0.83389854  0.62544320  1
  Mn  Mn128  1  0.49922421  0.66516514  0.49968760  1
  Mn  Mn129  1  0.24964802  0.16806390  0.12520587  1
  Mn  Mn130  1  0.75052024  0.66788377  0.12436347  1
  Mn  Mn131  1  0.49969613  0.00131391  0.50139143  1
  Mn  Mn132  1  0.00016874  0.50120483  0.49844257  1
  Mn  Mn133  1  -0.00039274  0.83218306  0.75026754  1
  Mn  Mn134  1  0.75052116  0.66791986  0.37432056  1
  Mn  Mn135  1  -0.00023947  0.00016276  0.50042735  1
  Mn  Mn136  1  0.49969046  0.66579215  0.25034166  1
  Mn  Mn137  1  -0.00025164  0.50041752  0.74916739  1
  Mn  Mn138  1  0.00077565  0.16731931  0.24924812  1
  Mn  Mn139  1  0.50026016  0.33434256  0.25154365  1
  Mn  Mn140  1  0.24947327  -0.00085534  0.37553051  1
  Mn  Mn141  1  0.24997690  0.66685639  0.37473181  1
  Mn  Mn142  1  0.75070273  0.49930851  0.37452778  1
  Mn  Mn143  1  0.75036636  0.00018792  0.37456412  1
  Fe  Fe144  1  0.75047203  0.83416861  0.37542253  1
  Fe  Fe145  1  0.75073491  0.00007808  0.12524843  1
  Fe  Fe146  1  0.49944651  0.49964499  0.74992506  1
  Fe  Fe147  1  0.25015212  0.49997942  0.12420067  1
  Fe  Fe148  1  0.50007693  0.49975074  0.25109594  1
  Fe  Fe149  1  0.00038879  0.16597423  0.75027623  1
  Fe  Fe150  1  0.75027032  -0.00026436  0.62524044  1
  Fe  Fe151  1  0.75026469  0.16612513  0.37508336  1
  Fe  Fe152  1  0.24964274  0.66653760  0.12407720  1
  Fe  Fe153  1  0.25057295  0.33450384  0.12414918  1
  Fe  Fe154  1  0.49892357  0.16780457  0.74950842  1
  Fe  Fe155  1  0.00073888  0.33295515  -0.00078204  1
  Fe  Fe156  1  0.50013248  0.49946512  0.50158194  1
  Fe  Fe157  1  0.24996168  0.66694959  0.62517331  1
  Fe  Fe158  1  0.00031056  0.83321774  0.50017706  1
  Fe  Fe159  1  0.75058155  0.16640177  0.12523747  1
  Fe  Fe160  1  0.24992284  -0.00024127  0.62602286  1
  Fe  Fe161  1  0.49943623  0.33317650  0.74940895  1
  Fe  Fe162  1  0.75017791  0.83333353  0.87546517  1
  Fe  Fe163  1  0.24965530  0.16689113  0.87525314  1
  Fe  Fe164  1  0.74989466  0.33220319  0.37480770  1
  Fe  Fe165  1  0.25016345  0.83261750  0.12389833  1
  Fe  Fe166  1  0.00015019  0.66594220  -0.00060497  1
  Fe  Fe167  1  0.24890303  0.50074225  0.62502434  1
  Fe  Fe168  1  0.00051666  0.49947252  -0.00058072  1
  Fe  Fe169  1  0.24963389  0.33446647  0.87468506  1
  Fe  Fe170  1  0.49950802  0.00085820  0.25071213  1
  Fe  Fe171  1  0.24952367  0.50105191  0.87522999  1
  Fe  Fe172  1  0.24967678  0.83291505  0.87430468  1
  Fe  Fe173  1  0.00004935  0.66633843  0.74953454  1
  Fe  Fe174  1  0.24940266  0.66676138  0.87448291  1
  Fe  Fe175  1  0.00051645  0.00022150  0.25060951  1
  Fe  Fe176  1  0.25033400  0.83327571  0.37544710  1
  Fe  Fe177  1  0.49926264  0.66587544  0.74964062  1
  Fe  Fe178  1  0.74995997  0.83379100  0.12541261  1
  Fe  Fe179  1  0.25012229  0.33493808  0.37451236  1
  Fe  Fe180  1  0.24998668  0.83370600  0.62548432  1
  Fe  Fe181  1  0.00065305  0.16645983  0.49990751  1
  Fe  Fe182  1  0.00078902  0.66681247  0.24944061  1
  Fe  Fe183  1  0.49980410  0.33383054  0.50120651  1
  Fe  Fe184  1  0.00062884  0.33364647  0.24912718  1
  Fe  Fe185  1  0.74986986  0.16551994  0.87511350  1
  Fe  Fe186  1  0.49908012  0.16748323  0.50031351  1
  Fe  Fe187  1  0.24993405  -0.00049935  0.87537411  1
  Fe  Fe188  1  0.00063485  0.66743165  0.49966249  1
  Fe  Fe189  1  0.74990876  0.49946723  0.87499883  1
  Fe  Fe190  1  0.25011159  0.50036184  0.37432982  1
  Fe  Fe191  1  0.00025865  -0.00079949  0.74951553  1
  P  P192  1  0.04273507  0.25127719  0.10193443  1
  P  P193  1  0.04305823  0.25154849  0.35199765  1
  P  P194  1  0.04266083  0.24801491  0.60252913  1
  P  P195  1  0.04229495  0.24914517  0.85233823  1
  P  P196  1  0.04189874  0.58316921  0.10087423  1
  P  P197  1  0.04302540  0.58545249  0.35176804  1
  P  P198  1  0.04240673  0.58497086  0.60195129  1
  P  P199  1  0.04202425  0.58429381  0.85254788  1
  P  P200  1  0.04318377  0.91632015  0.10350160  1
  P  P201  1  0.04237975  0.91777912  0.35296415  1
  P  P202  1  0.04187325  0.91537635  0.60293012  1
  P  P203  1  0.04234719  0.91700969  0.85193833  1
  P  P204  1  0.54279525  0.25033483  0.10372676  1
  P  P205  1  0.54246431  0.25023065  0.35487087  1
  P  P206  1  0.54072391  0.25002194  0.60248677  1
  P  P207  1  0.54103040  0.25049534  0.85121857  1
  P  P208  1  0.54281018  0.58272084  0.10383031  1
  P  P209  1  0.54233696  0.58144355  0.35349746  1
  P  P210  1  0.54174863  0.58160565  0.60371129  1
  P  P211  1  0.54106964  0.58320748  0.85119285  1
  P  P212  1  0.54218784  0.91740288  0.10391690  1
  P  P213  1  0.54203863  0.91868914  0.35287834  1
  P  P214  1  0.54260216  0.91672548  0.60373820  1
  P  P215  1  0.54275688  0.91693089  0.85335976  1
  P  P216  1  0.45703462  0.08263876  0.14811968  1
  P  P217  1  0.45696240  0.08482418  0.39806272  1
  P  P218  1  0.45698427  0.08557390  0.64760412  1
  P  P219  1  0.45676878  0.08472332  0.89642704  1
  P  P220  1  0.45748063  0.41805128  0.14836036  1
  P  P221  1  0.45878024  0.41740888  0.39940320  1
  P  P222  1  0.45795377  0.41635787  0.64828883  1
  P  P223  1  0.45722291  0.41666061  0.89570507  1
  P  P224  1  0.45670683  0.74975611  0.14718053  1
  P  P225  1  0.45654823  0.74983119  0.39717219  1
  P  P226  1  0.45713039  0.74831531  0.64778434  1
  P  P227  1  0.45703909  0.74920574  0.89645409  1
  P  P228  1  0.95798560  0.08200228  0.14781707  1
  P  P229  1  0.95822432  0.08473682  0.39729346  1
  P  P230  1  0.95898273  0.08327978  0.64827362  1
  P  P231  1  0.95771058  0.08276285  0.89582308  1
  P  P232  1  0.95857116  0.41523750  0.14597827  1
  P  P233  1  0.95806196  0.41687030  0.39548323  1
  P  P234  1  0.95700312  0.41656004  0.64614706  1
  P  P235  1  0.95910101  0.41605593  0.89786973  1
  P  P236  1  0.95842691  0.74798216  0.14693172  1
  P  P237  1  0.95914631  0.75030611  0.39794098  1
  P  P238  1  0.95796280  0.74839808  0.64667985  1
  P  P239  1  0.95811271  0.74803219  0.89721659  1
  P  P240  1  0.20720191  0.08366323  0.22809244  1
  P  P241  1  0.20732385  0.08303274  0.47886618  1
  P  P242  1  0.20832382  0.08207889  0.72874049  1
  P  P243  1  0.20848204  0.08314728  0.97652888  1
  P  P244  1  0.20856125  0.41723930  0.22620792  1
  P  P245  1  0.20860696  0.41800075  0.47648430  1
  P  P246  1  0.20743821  0.41887433  0.72820113  1
  P  P247  1  0.20893412  0.41755004  0.97683066  1
  P  P248  1  0.20873990  0.74993620  0.22597675  1
  P  P249  1  0.20814682  0.75144660  0.47810367  1
  P  P250  1  0.20878492  0.75041300  0.72693709  1
  P  P251  1  0.20859960  0.74989513  0.97638134  1
  P  P252  1  0.70922730  0.08363849  0.22702531  1
  P  P253  1  0.70794820  0.08383899  0.47765709  1
  P  P254  1  0.70785936  0.08137464  0.72790108  1
  P  P255  1  0.70781791  0.08416011  0.97861169  1
  P  P256  1  0.70752467  0.41541025  0.22879691  1
  P  P257  1  0.70804929  0.41476641  0.47719239  1
  P  P258  1  0.70729341  0.41602958  0.72881018  1
  P  P259  1  0.70728938  0.41738432  0.97730643  1
  P  P260  1  0.70807594  0.75200932  0.22797973  1
  P  P261  1  0.70766039  0.75185828  0.47744247  1
  P  P262  1  0.70705136  0.74974561  0.72877659  1
  P  P263  1  0.70763260  0.75199012  0.97808045  1
  P  P264  1  0.29185008  0.25195858  0.02157047  1
  P  P265  1  0.29219285  0.25257329  0.27245440  1
  P  P266  1  0.29225242  0.25144654  0.52185563  1
  P  P267  1  0.29031181  0.25058752  0.77364249  1
  P  P268  1  0.29086715  0.58324272  0.02241409  1
  P  P269  1  0.29197318  0.58228200  0.27175029  1
  P  P270  1  0.29093208  0.58360373  0.52345151  1
  P  P271  1  0.29040595  0.58352141  0.77271397  1
  P  P272  1  0.29181078  0.91528239  0.02142045  1
  P  P273  1  0.29199466  0.91477465  0.27243647  1
  P  P274  1  0.29151116  0.91660532  0.52394657  1
  P  P275  1  0.29097905  0.91652902  0.77303898  1
  P  P276  1  0.79235016  0.24807154  0.02212513  1
  P  P277  1  0.79171881  0.24874300  0.27293418  1
  P  P278  1  0.79272632  0.24953844  0.52090367  1
  P  P279  1  0.79236430  0.24741803  0.77280322  1
  P  P280  1  0.79252820  0.58303332  0.02123030  1
  P  P281  1  0.79344291  0.58363566  0.27143738  1
  P  P282  1  0.79305414  0.58334758  0.52140521  1
  P  P283  1  0.79233499  0.58162589  0.77274385  1
  P  P284  1  0.79186708  0.91619276  0.02356075  1
  P  P285  1  0.79269216  0.91554993  0.27197785  1
  P  P286  1  0.79274443  0.91807850  0.52252149  1
  P  P287  1  0.79267512  0.91542049  0.77284347  1
  O  O288  1  0.03778360  0.25154216  0.18191019  1
  O  O289  1  0.03798944  0.25074013  0.43192596  1
  O  O290  1  0.03722250  0.24779044  0.68246783  1
  O  O291  1  0.03700758  0.24989865  0.93228451  1
  O  O292  1  0.03744057  0.58317732  0.18083422  1
  O  O293  1  0.03770306  0.58563531  0.43169983  1
  O  O294  1  0.03719857  0.58477143  0.68189100  1
  O  O295  1  0.03675947  0.58384143  0.93242154  1
  O  O296  1  0.03801589  0.91673591  0.18346476  1
  O  O297  1  0.03678434  0.91715032  0.43289357  1
  O  O298  1  0.03644997  0.91568633  0.68283178  1
  O  O299  1  0.03773136  0.91657345  0.93193190  1
  O  O300  1  0.53805044  0.25028796  0.18370063  1
  O  O301  1  0.53713138  0.24998936  0.43474021  1
  O  O302  1  0.53547203  0.25014314  0.68239289  1
  O  O303  1  0.53650952  0.25040786  0.93123651  1
  O  O304  1  0.53795614  0.58226860  0.18381227  1
  O  O305  1  0.53711232  0.58128584  0.43347908  1
  O  O306  1  0.53618563  0.58222054  0.68357405  1
  O  O307  1  0.53683424  0.58311006  0.93125648  1
  O  O308  1  0.53686577  0.91810194  0.18387049  1
  O  O309  1  0.53685636  0.91834295  0.43286072  1
  O  O310  1  0.53746474  0.91670143  0.68366862  1
  O  O311  1  0.53753146  0.91691807  0.93332515  1
  O  O312  1  0.46192331  0.08299863  0.06810183  1
  O  O313  1  0.46238375  0.08372619  0.31812196  1
  O  O314  1  0.46211259  0.08569195  0.56763740  1
  O  O315  1  0.46194561  0.08540210  0.81646083  1
  O  O316  1  0.46246264  0.41767002  0.06837015  1
  O  O317  1  0.46383650  0.41778250  0.31948066  1
  O  O318  1  0.46305014  0.41672437  0.56842245  1
  O  O319  1  0.46231616  0.41647500  0.81580694  1
  O  O320  1  0.46184813  0.74979730  0.06719689  1
  O  O321  1  0.46165440  0.74997948  0.31722485  1
  O  O322  1  0.46216949  0.74850816  0.56780886  1
  O  O323  1  0.46220023  0.74861835  0.81648877  1
  O  O324  1  0.96280808  0.08231115  0.06784329  1
  O  O325  1  0.96368964  0.08408087  0.31742323  1
  O  O326  1  0.96374061  0.08381021  0.56826429  1
  O  O327  1  0.96314328  0.08255586  0.81591942  1
  O  O328  1  0.96416832  0.41531226  0.06609147  1
  O  O329  1  0.96351527  0.41655352  0.31553960  1
  O  O330  1  0.96218589  0.41672831  0.56620791  1
  O  O331  1  0.96326316  0.41646073  0.81782789  1
  O  O332  1  0.96366674  0.74793376  0.06700354  1
  O  O333  1  0.96426615  0.75004788  0.31800055  1
  O  O334  1  0.96353144  0.74914908  0.56681557  1
  O  O335  1  0.96308253  0.74812356  0.81725043  1
  O  O336  1  0.21307105  0.08351167  0.05653322  1
  O  O337  1  0.21227912  0.08369685  0.30804325  1
  O  O338  1  0.21277679  0.08262880  0.55881262  1
  O  O339  1  0.21382494  0.08211378  0.80861186  1
  O  O340  1  0.21434229  0.41705854  0.05664567  1
  O  O341  1  0.21362567  0.41701618  0.30609549  1
  O  O342  1  0.21306713  0.41863995  0.55646861  1
  O  O343  1  0.21274226  0.41864018  0.80804560  1
  O  O344  1  0.21367602  0.74967575  0.05620989  1
  O  O345  1  0.21353995  0.74964546  0.30588707  1
  O  O346  1  0.21353324  0.75152649  0.55788818  1
  O  O347  1  0.21351376  0.75025638  0.80681089  1
  O  O348  1  0.71352137  0.08417839  0.05842508  1
  O  O349  1  0.71407328  0.08365853  0.30698534  1
  O  O350  1  0.71312348  0.08265867  0.55755732  1
  O  O351  1  0.71275279  0.08196536  0.80786077  1
  O  O352  1  0.71232111  0.41701239  0.05729987  1
  O  O353  1  0.71304993  0.41468204  0.30868237  1
  O  O354  1  0.71292377  0.41483988  0.55718773  1
  O  O355  1  0.71241776  0.41659757  0.80877874  1
  O  O356  1  0.71301090  0.75212062  0.05803465  1
  O  O357  1  0.71338851  0.75209823  0.30792189  1
  O  O358  1  0.71263679  0.75125519  0.55744403  1
  O  O359  1  0.71224945  0.74994158  0.80871313  1
  O  O360  1  0.28694653  0.25280230  0.19248780  1
  O  O361  1  0.28713967  0.25200501  0.44193776  1
  O  O362  1  0.28582642  0.25046815  0.69367693  1
  O  O363  1  0.28620092  0.25144935  0.94174342  1
  O  O364  1  0.28690098  0.58202445  0.19195010  1
  O  O365  1  0.28642085  0.58371473  0.44350329  1
  O  O366  1  0.28536234  0.58360528  0.69289105  1
  O  O367  1  0.28578763  0.58344910  0.94257657  1
  O  O368  1  0.28679724  0.91481765  0.19250967  1
  O  O369  1  0.28651357  0.91615776  0.44400244  1
  O  O370  1  0.28564448  0.91692368  0.69314658  1
  O  O371  1  0.28606581  0.91585060  0.94157986  1
  O  O372  1  0.78666319  0.24838701  0.19294404  1
  O  O373  1  0.78737618  0.24964875  0.44100231  1
  O  O374  1  0.78747290  0.24772640  0.69282115  1
  O  O375  1  0.78700812  0.24793021  0.94221412  1
  O  O376  1  0.78819215  0.58397712  0.19148417  1
  O  O377  1  0.78824645  0.58366015  0.44143931  1
  O  O378  1  0.78724894  0.58197747  0.69275294  1
  O  O379  1  0.78701576  0.58249619  0.94129570  1
  O  O380  1  0.78738597  0.91573049  0.19212051  1
  O  O381  1  0.78774965  0.91761771  0.44255841  1
  O  O382  1  0.78746912  0.91639795  0.69294299  1
  O  O383  1  0.78701580  0.91599979  0.94358127  1
  O  O384  1  0.22777641  0.25249367  0.05794801  1
  O  O385  1  0.22793601  0.25283649  0.30829586  1
  O  O386  1  0.22794022  0.25103140  0.55728604  1
  O  O387  1  0.22620877  0.25058494  0.80937029  1
  O  O388  1  0.22687403  0.58250703  0.05892813  1
  O  O389  1  0.22780649  0.58254495  0.30784335  1
  O  O390  1  0.22670178  0.58320773  0.55927409  1
  O  O391  1  0.22642651  0.58297187  0.80926180  1
  O  O392  1  0.22777310  0.91464781  0.05792322  1
  O  O393  1  0.22770394  0.91457717  0.30828073  1
  O  O394  1  0.22733382  0.91680150  0.56004063  1
  O  O395  1  0.22701219  0.91627143  0.80965442  1
  O  O396  1  0.72807146  0.24765976  0.05792759  1
  O  O397  1  0.72761009  0.24848823  0.30917878  1
  O  O398  1  0.72847269  0.24900200  0.55667859  1
  O  O399  1  0.72795031  0.24765630  0.80815687  1
  O  O400  1  0.72830395  0.58361787  0.05687225  1
  O  O401  1  0.72905868  0.58358270  0.30662129  1
  O  O402  1  0.72850141  0.58305403  0.55627468  1
  O  O403  1  0.72796587  0.58143603  0.80825036  1
  O  O404  1  0.72774195  0.91648303  0.05956876  1
  O  O405  1  0.72850411  0.91521535  0.30815395  1
  O  O406  1  0.72833140  0.91862320  0.55803812  1
  O  O407  1  0.72838330  0.91496524  0.80866451  1
  O  O408  1  0.27152593  0.08371083  0.19279225  1
  O  O409  1  0.27151225  0.08327300  0.44315637  1
  O  O410  1  0.27233931  0.08189685  0.69226893  1
  O  O411  1  0.27267755  0.08282612  0.94086560  1
  O  O412  1  0.27272531  0.41764766  0.18992867  1
  O  O413  1  0.27290039  0.41728134  0.44078753  1
  O  O414  1  0.27161740  0.41945220  0.69205350  1
  O  O415  1  0.27279495  0.41824876  0.94009018  1
  O  O416  1  0.27283578  0.75031277  0.18982412  1
  O  O417  1  0.27223981  0.75122383  0.44170865  1
  O  O418  1  0.27281131  0.75072882  0.69068907  1
  O  O419  1  0.27253580  0.75044494  0.93981165  1
  O  O420  1  0.77337599  0.08383159  0.19100720  1
  O  O421  1  0.77222205  0.08448804  0.44186819  1
  O  O422  1  0.77229360  0.08097592  0.69242133  1
  O  O423  1  0.77191423  0.08434610  0.94216226  1
  O  O424  1  0.77174804  0.41543283  0.19309275  1
  O  O425  1  0.77233867  0.41464573  0.44165084  1
  O  O426  1  0.77169112  0.41589174  0.69355715  1
  O  O427  1  0.77172018  0.41742930  0.94193320  1
  O  O428  1  0.77235502  0.75205554  0.19215129  1
  O  O429  1  0.77214854  0.75221396  0.44214012  1
  O  O430  1  0.77141219  0.74993956  0.69340899  1
  O  O431  1  0.77189105  0.75144590  0.94221466  1
  O  O432  1  0.02239941  0.08205202  0.18303087  1
  O  O433  1  0.02235595  0.08445039  0.43332715  1
  O  O434  1  0.02310285  0.08340636  0.68420848  1
  O  O435  1  0.02194918  0.08314041  0.93144024  1
  O  O436  1  0.02268169  0.41517302  0.18223749  1
  O  O437  1  0.02226098  0.41706967  0.43111703  1
  O  O438  1  0.02142282  0.41649367  0.68115492  1
  O  O439  1  0.02343032  0.41578191  0.93313335  1
  O  O440  1  0.02273876  0.74843433  0.18251979  1
  O  O441  1  0.02324944  0.75052262  0.43406050  1
  O  O442  1  0.02207276  0.74799473  0.68293987  1
  O  O443  1  0.02252604  0.74778749  0.93256917  1
  O  O444  1  0.52151432  0.08223698  0.18330585  1
  O  O445  1  0.52121131  0.08568700  0.43383151  1
  O  O446  1  0.52134939  0.08569726  0.68296446  1
  O  O447  1  0.52116764  0.08418857  0.93157840  1
  O  O448  1  0.52189137  0.41853909  0.18370800  1
  O  O449  1  0.52284488  0.41752576  0.43555901  1
  O  O450  1  0.52201345  0.41566535  0.68446906  1
  O  O451  1  0.52154068  0.41663167  0.93122129  1
  O  O452  1  0.52107824  0.75000348  0.18230542  1
  O  O453  1  0.52103826  0.74947844  0.43203281  1
  O  O454  1  0.52150424  0.74791969  0.68308488  1
  O  O455  1  0.52143261  0.74956733  0.93161778  1
  O  O456  1  0.47818743  0.25044521  0.06910167  1
  O  O457  1  0.47826876  0.25029021  0.31913380  1
  O  O458  1  0.47671490  0.24996777  0.56615442  1
  O  O459  1  0.47666896  0.25106560  0.81576047  1
  O  O460  1  0.47830993  0.58285193  0.06891486  1
  O  O461  1  0.47799189  0.58127495  0.31793145  1
  O  O462  1  0.47752422  0.58110163  0.56775271  1
  O  O463  1  0.47667498  0.58360294  0.81603436  1
  O  O464  1  0.47784667  0.91695594  0.06856746  1
  O  O465  1  0.47765451  0.91909975  0.31748463  1
  O  O466  1  0.47810995  0.91698458  0.56889775  1
  O  O467  1  0.47830321  0.91701169  0.81842998  1
  O  O468  1  0.97832155  0.25131260  0.06664057  1
  O  O469  1  0.97878654  0.25178598  0.31626531  1
  O  O470  1  0.97843998  0.24806366  0.56669022  1
  O  O471  1  0.97804856  0.24830523  0.81660326  1
  O  O472  1  0.97769243  0.58340283  0.06520691  1
  O  O473  1  0.97876579  0.58509278  0.31606575  1
  O  O474  1  0.97819417  0.58512317  0.56619351  1
  O  O475  1  0.97785525  0.58491680  0.81644053  1
  O  O476  1  0.97879632  0.91569225  0.06834080  1
  O  O477  1  0.97827031  0.91790473  0.31684725  1
  O  O478  1  0.97779154  0.91516928  0.56687388  1
  O  O479  1  0.97791232  0.91687760  0.81696571  1
  O  O480  1  0.07375558  0.31435556  0.07265095  1
  O  O481  1  0.07364768  0.31527054  0.32356468  1
  O  O482  1  0.07366058  0.31197957  0.57507009  1
  O  O483  1  0.07319113  0.31270298  0.82392384  1
  O  O484  1  0.07316793  0.64649720  0.07246799  1
  O  O485  1  0.07378520  0.64887909  0.32288384  1
  O  O486  1  0.07349515  0.64827913  0.57333710  1
  O  O487  1  0.07325048  0.64755838  0.82380484  1
  O  O488  1  0.07420285  0.97962114  0.07479854  1
  O  O489  1  0.07296283  0.98163914  0.32484310  1
  O  O490  1  0.07320893  0.97887055  0.57513650  1
  O  O491  1  0.07276311  0.98069367  0.82324522  1
  O  O492  1  0.57365055  0.31383576  0.07523418  1
  O  O493  1  0.57358675  0.31373448  0.32660631  1
  O  O494  1  0.57140038  0.31390643  0.57408117  1
  O  O495  1  0.57220442  0.31387770  0.82287497  1
  O  O496  1  0.57366032  0.64648549  0.07566213  1
  O  O497  1  0.57311331  0.64544365  0.32579408  1
  O  O498  1  0.57283590  0.64503261  0.57502782  1
  O  O499  1  0.57223628  0.64667445  0.82306826  1
  O  O500  1  0.57331974  0.98066029  0.07523445  1
  O  O501  1  0.57288647  0.98229181  0.32459693  1
  O  O502  1  0.57375779  0.98024413  0.57574136  1
  O  O503  1  0.57382674  0.98048206  0.82534209  1
  O  O504  1  0.42618488  0.01916838  0.17664086  1
  O  O505  1  0.42596166  0.02133124  0.42656772  1
  O  O506  1  0.42617756  0.02168227  0.67544583  1
  O  O507  1  0.42560420  0.02104768  0.92412738  1
  O  O508  1  0.42682324  0.35425494  0.17653062  1
  O  O509  1  0.42848106  0.35327333  0.42755009  1
  O  O510  1  0.42636004  0.35304368  0.67644176  1
  O  O511  1  0.42608035  0.35341892  0.92463785  1
  O  O512  1  0.42591064  0.68605719  0.17521973  1
  O  O513  1  0.42534173  0.68629828  0.42509450  1
  O  O514  1  0.42620845  0.68480987  0.67618459  1
  O  O515  1  0.42589676  0.68594026  0.92516751  1
  O  O516  1  0.92752633  0.01838851  0.17650929  1
  O  O517  1  0.92645902  0.02159847  0.42550683  1
  O  O518  1  0.92883212  0.01886454  0.67605025  1
  O  O519  1  0.92658358  0.01935995  0.92445675  1
  O  O520  1  0.92752471  0.35190373  0.17486425  1
  O  O521  1  0.92671842  0.35366682  0.42392368  1
  O  O522  1  0.92598357  0.35296054  0.67419483  1
  O  O523  1  0.92805921  0.35241513  0.92584813  1
  O  O524  1  0.92778624  0.68449233  0.17573088  1
  O  O525  1  0.92813452  0.68677000  0.42626476  1
  O  O526  1  0.92686287  0.68499902  0.67516660  1
  O  O527  1  0.92696445  0.68488818  0.92599760  1
  O  O528  1  0.17622218  0.02012625  0.20009361  1
  O  O529  1  0.17603509  0.01974432  0.45065068  1
  O  O530  1  0.17726057  0.01873423  0.70007326  1
  O  O531  1  0.17731019  0.01958921  0.94873705  1
  O  O532  1  0.17798376  0.35364030  0.19736664  1
  O  O533  1  0.17753048  0.35439309  0.44850350  1
  O  O534  1  0.17670448  0.35506586  0.69999216  1
  O  O535  1  0.17847148  0.35379806  0.94797102  1
  O  O536  1  0.17854953  0.68591273  0.19727020  1
  O  O537  1  0.17688666  0.68795445  0.45008942  1
  O  O538  1  0.17839728  0.68658089  0.69813617  1
  O  O539  1  0.17822095  0.68598890  0.94768047  1
  O  O540  1  0.67908790  0.01951991  0.19869434  1
  O  O541  1  0.67679545  0.02058260  0.44905540  1
  O  O542  1  0.67729230  0.01773859  0.69943766  1
  O  O543  1  0.67673357  0.02043864  0.95085723  1
  O  O544  1  0.67606281  0.35235774  0.20018959  1
  O  O545  1  0.67729028  0.35123182  0.44884362  1
  O  O546  1  0.67651168  0.35212620  0.70114910  1
  O  O547  1  0.67632785  0.35359178  0.94971202  1
  O  O548  1  0.67715854  0.68814867  0.20031975  1
  O  O549  1  0.67669161  0.68825040  0.44944181  1
  O  O550  1  0.67630929  0.68602688  0.70057855  1
  O  O551  1  0.67622278  0.68834149  0.95065405  1
  O  O552  1  0.32322580  0.31526059  0.04986857  1
  O  O553  1  0.32336423  0.31572640  0.30121946  1
  O  O554  1  0.32322504  0.31473567  0.55061324  1
  O  O555  1  0.32101842  0.31447697  0.80145286  1
  O  O556  1  0.32106120  0.64724046  0.05110535  1
  O  O557  1  0.32334749  0.64568596  0.29982001  1
  O  O558  1  0.32109394  0.64762200  0.55203503  1
  O  O559  1  0.32070314  0.64746318  0.80137924  1
  O  O560  1  0.32274979  0.97892876  0.04969810  1
  O  O561  1  0.32275576  0.97865504  0.30028165  1
  O  O562  1  0.32227150  0.98042479  0.55194272  1
  O  O563  1  0.32200004  0.97995748  0.80168091  1
  O  O564  1  0.82282388  0.31224859  0.04966577  1
  O  O565  1  0.82209449  0.31287873  0.30068444  1
  O  O566  1  0.82375564  0.31287963  0.54953347  1
  O  O567  1  0.82363257  0.31095129  0.80058416  1
  O  O568  1  0.82377301  0.64669616  0.04872071  1
  O  O569  1  0.82453459  0.64704639  0.29961834  1
  O  O570  1  0.82376518  0.64688407  0.54987860  1
  O  O571  1  0.82333504  0.64527309  0.80053883  1
  O  O572  1  0.82240102  0.98017866  0.05172038  1
  O  O573  1  0.82359667  0.97931709  0.29992270  1
  O  O574  1  0.82347101  0.98166299  0.55097603  1
  O  O575  1  0.82385273  0.97866472  0.80137858  1
  O  O576  1  0.42623589  0.14638526  0.17602463  1
  O  O577  1  0.42590273  0.14843155  0.42583951  1
  O  O578  1  0.42595490  0.14884036  0.67625946  1
  O  O579  1  0.42581162  0.14795032  0.92528545  1
  O  O580  1  0.42658595  0.48142470  0.17681907  1
  O  O581  1  0.42739673  0.48055008  0.42790962  1
  O  O582  1  0.42766912  0.48020797  0.67715508  1
  O  O583  1  0.42620814  0.48016115  0.92407273  1
  O  O584  1  0.42543542  0.81307750  0.17518390  1
  O  O585  1  0.42581839  0.81338926  0.42553513  1
  O  O586  1  0.42635047  0.81211305  0.67553072  1
  O  O587  1  0.42606100  0.81289434  0.92422192  1
  O  O588  1  0.92698134  0.14570681  0.17549079  1
  O  O589  1  0.92808198  0.14872283  0.42554323  1
  O  O590  1  0.92763159  0.14637271  0.67693496  1
  O  O591  1  0.92635422  0.14601475  0.92427173  1
  O  O592  1  0.92738722  0.47887006  0.17385078  1
  O  O593  1  0.92696403  0.48057858  0.42310099  1
  O  O594  1  0.92603909  0.47996640  0.67448145  1
  O  O595  1  0.92888084  0.47992861  0.92657057  1
  O  O596  1  0.92720683  0.81152924  0.17483713  1
  O  O597  1  0.92842488  0.81413169  0.42605735  1
  O  O598  1  0.92682127  0.81186837  0.67505211  1
  O  O599  1  0.92756358  0.81198997  0.92518130  1
  O  O600  1  0.07346530  0.18725019  0.07442271  1
  O  O601  1  0.07429200  0.18815886  0.32376678  1
  O  O602  1  0.07357900  0.18474987  0.57372468  1
  O  O603  1  0.07333765  0.18560099  0.82433080  1
  O  O604  1  0.07201363  0.51910727  0.07228713  1
  O  O605  1  0.07413488  0.52179928  0.32400081  1
  O  O606  1  0.07328642  0.52118149  0.57402891  1
  O  O607  1  0.07274855  0.52053866  0.82430846  1
  O  O608  1  0.07435470  0.85278913  0.07547244  1
  O  O609  1  0.07378711  0.85445424  0.32493153  1
  O  O610  1  0.07262775  0.85180664  0.57450144  1
  O  O611  1  0.07354418  0.85351320  0.82406669  1
  O  O612  1  0.57357742  0.18681963  0.07532712  1
  O  O613  1  0.57372826  0.18700503  0.32623013  1
  O  O614  1  0.57191690  0.18665402  0.57409387  1
  O  O615  1  0.57128649  0.18655727  0.82285900  1
  O  O616  1  0.57401850  0.51967692  0.07488946  1
  O  O617  1  0.57341297  0.51829450  0.32477749  1
  O  O618  1  0.57288207  0.51812345  0.57552881  1
  O  O619  1  0.57119985  0.51918526  0.82282584  1
  O  O620  1  0.57325549  0.85373948  0.07615546  1
  O  O621  1  0.57285328  0.85493231  0.32508188  1
  O  O622  1  0.57340686  0.85314616  0.57554359  1
  O  O623  1  0.57373948  0.85342917  0.82536948  1
  O  O624  1  0.32274180  0.18829356  0.05000841  1
  O  O625  1  0.32291592  0.18856643  0.30001844  1
  O  O626  1  0.32336803  0.18787976  0.54980656  1
  O  O627  1  0.32101364  0.18687804  0.80201179  1
  O  O628  1  0.32259995  0.52009226  0.05063701  1
  O  O629  1  0.32254138  0.51887560  0.30127229  1
  O  O630  1  0.32213960  0.52030338  0.55192593  1
  O  O631  1  0.32195252  0.52038810  0.80122441  1
  O  O632  1  0.32302115  0.85188340  0.04966450  1
  O  O633  1  0.32291682  0.85152097  0.30133947  1
  O  O634  1  0.32250185  0.85315460  0.55250107  1
  O  O635  1  0.32205900  0.85279475  0.80091486  1
  O  O636  1  0.82384435  0.18519482  0.05100230  1
  O  O637  1  0.82295726  0.18543889  0.30140346  1
  O  O638  1  0.82418081  0.18624310  0.54927946  1
  O  O639  1  0.82272733  0.18367686  0.80113626  1
  O  O640  1  0.82366352  0.51970011  0.04962136  1
  O  O641  1  0.82446796  0.51998902  0.29910497  1
  O  O642  1  0.82408300  0.51974737  0.54928567  1
  O  O643  1  0.82311960  0.51803683  0.80107244  1
  O  O644  1  0.82296471  0.85278137  0.05188011  1
  O  O645  1  0.82382490  0.85239052  0.30097384  1
  O  O646  1  0.82364240  0.85452260  0.55078369  1
  O  O647  1  0.82330474  0.85158443  0.80090689  1
  O  O648  1  0.17619580  0.14720953  0.19997673  1
  O  O649  1  0.17624177  0.14665856  0.45095708  1
  O  O650  1  0.17723094  0.14577445  0.70086607  1
  O  O651  1  0.17818788  0.14715567  0.94812940  1
  O  O652  1  0.17733823  0.48068830  0.19780301  1
  O  O653  1  0.17831205  0.48172946  0.44742234  1
  O  O654  1  0.17613161  0.48197378  0.69932403  1
  O  O655  1  0.17730481  0.48092060  0.94902379  1
  O  O656  1  0.17737934  0.81320553  0.19772403  1
  O  O657  1  0.17746035  0.81488633  0.44898342  1
  O  O658  1  0.17742534  0.81379524  0.69863258  1
  O  O659  1  0.17704171  0.81310958  0.94803643  1
  O  O660  1  0.67782219  0.14691808  0.19888043  1
  O  O661  1  0.67713923  0.14752885  0.44965274  1
  O  O662  1  0.67682576  0.14485786  0.69956164  1
  O  O663  1  0.67672898  0.14734866  0.94952428  1
  O  O664  1  0.67667154  0.47931188  0.20128507  1
  O  O665  1  0.67711128  0.47859311  0.44966851  1
  O  O666  1  0.67600261  0.47904602  0.69991317  1
  O  O667  1  0.67659996  0.48093408  0.94886446  1
  O  O668  1  0.67697941  0.81524057  0.19934849  1
  O  O669  1  0.67705717  0.81560466  0.44932430  1
  O  O670  1  0.67560762  0.81289696  0.70043398  1
  O  O671  1  0.67713274  0.81551748  0.94934291  1
