# generated using pymatgen
data_Na2MnFe(PO4)2
_symmetry_space_group_name_H-M   'P 1'
_cell_length_a   22.34693457
_cell_length_b   20.09645923
_cell_length_c   19.44722625
_cell_angle_alpha   89.97442963
_cell_angle_beta   89.97088663
_cell_angle_gamma   89.97152288
_symmetry_Int_Tables_number   1
_chemical_formula_structural   Na2MnFe(PO4)2
_chemical_formula_sum   'Na96 Mn48 Fe48 P96 O384'
_cell_volume   8733.63460118
_cell_formula_units_Z   48
loop_
 _symmetry_equiv_pos_site_id
 _symmetry_equiv_pos_as_xyz
  1  'x, y, z'
loop_
 _atom_site_type_symbol
 _atom_site_label
 _atom_site_symmetry_multiplicity
 _atom_site_fract_x
 _atom_site_fract_y
 _atom_site_fract_z
 _atom_site_occupancy
  Na  Na0  1  0.14056415  0.24965669  0.24474574  1
  Na  Na1  1  0.14077356  0.25061415  0.49362564  1
  Na  Na2  1  0.14025328  0.24911910  0.74394024  1
  Na  Na3  1  0.14081020  0.24988972  0.99492037  1
  Na  Na4  1  0.14036484  0.58291433  0.24493809  1
  Na  Na5  1  0.14060152  0.58454318  0.49287726  1
  Na  Na6  1  0.13970285  0.58343235  0.74278268  1
  Na  Na7  1  0.14063679  0.58258750  0.99420051  1
  Na  Na8  1  0.14092727  0.91618709  0.24412745  1
  Na  Na9  1  0.14069350  0.91726170  0.49256745  1
  Na  Na10  1  0.14098478  0.91695328  0.74230443  1
  Na  Na11  1  0.14073905  0.91659691  0.99411562  1
  Na  Na12  1  0.64035810  0.24897487  0.24336794  1
  Na  Na13  1  0.64028253  0.24971149  0.49276602  1
  Na  Na14  1  0.63999977  0.25081356  0.74366158  1
  Na  Na15  1  0.63993805  0.24950495  0.99493086  1
  Na  Na16  1  0.63998238  0.58176319  0.24483620  1
  Na  Na17  1  0.64007137  0.58177627  0.49265510  1
  Na  Na18  1  0.64009498  0.58524142  0.74266623  1
  Na  Na19  1  0.64008302  0.58400420  0.99366416  1
  Na  Na20  1  0.64059821  0.91770699  0.24361609  1
  Na  Na21  1  0.64075069  0.91651889  0.49337228  1
  Na  Na22  1  0.64080417  0.91794456  0.74341992  1
  Na  Na23  1  0.64084084  0.91761611  0.99347218  1
  Na  Na24  1  0.35956710  0.08513173  0.00673301  1
  Na  Na25  1  0.36029537  0.08413403  0.25776361  1
  Na  Na26  1  0.36035180  0.08380088  0.50613913  1
  Na  Na27  1  0.35928198  0.08415432  0.75511900  1
  Na  Na28  1  0.35908426  0.41621610  0.00703199  1
  Na  Na29  1  0.35910436  0.41647768  0.25811583  1
  Na  Na30  1  0.35969034  0.41713935  0.50582235  1
  Na  Na31  1  0.35958497  0.41555810  0.75610851  1
  Na  Na32  1  0.35999982  0.74935572  0.00583971  1
  Na  Na33  1  0.35929194  0.74869005  0.25686201  1
  Na  Na34  1  0.35984529  0.75031365  0.50632234  1
  Na  Na35  1  0.36031398  0.74960008  0.75561175  1
  Na  Na36  1  0.85880157  0.08396761  0.00572768  1
  Na  Na37  1  0.85986187  0.08302534  0.25604406  1
  Na  Na38  1  0.85971216  0.08286768  0.50622040  1
  Na  Na39  1  0.85960387  0.08438816  0.75543768  1
  Na  Na40  1  0.85891850  0.41583302  0.00547250  1
  Na  Na41  1  0.85865249  0.41563033  0.25740817  1
  Na  Na42  1  0.85927901  0.41538656  0.50609919  1
  Na  Na43  1  0.85882891  0.41797166  0.75571317  1
  Na  Na44  1  0.85972189  0.75051716  0.00608622  1
  Na  Na45  1  0.85983304  0.74855365  0.25712648  1
  Na  Na46  1  0.85995227  0.74849287  0.50677597  1
  Na  Na47  1  0.85992576  0.75113963  0.75598449  1
  Na  Na48  1  0.11021412  0.08215068  0.11925202  1
  Na  Na49  1  0.11018926  0.08335749  0.36962313  1
  Na  Na50  1  0.11018109  0.08426124  0.61780281  1
  Na  Na51  1  0.11035700  0.08363978  0.86857086  1
  Na  Na52  1  0.10972720  0.41590894  0.11992139  1
  Na  Na53  1  0.10996384  0.41667714  0.36847869  1
  Na  Na54  1  0.10903746  0.41796877  0.61892536  1
  Na  Na55  1  0.10939323  0.41611300  0.86859900  1
  Na  Na56  1  0.11011920  0.74878494  0.11980767  1
  Na  Na57  1  0.11024404  0.75065802  0.36870180  1
  Na  Na58  1  0.10953601  0.75034136  0.61716262  1
  Na  Na59  1  0.10950326  0.74939924  0.86867229  1
  Na  Na60  1  0.61039764  0.08392299  0.11875692  1
  Na  Na61  1  0.60982220  0.08444797  0.36794806  1
  Na  Na62  1  0.60978450  0.08406111  0.61844787  1
  Na  Na63  1  0.61019749  0.08377981  0.86787231  1
  Na  Na64  1  0.60931598  0.41701721  0.12032468  1
  Na  Na65  1  0.60968220  0.41578878  0.36766360  1
  Na  Na66  1  0.60912087  0.41668977  0.61765442  1
  Na  Na67  1  0.60892085  0.41764467  0.86857877  1
  Na  Na68  1  0.60959244  0.74972055  0.11911100  1
  Na  Na69  1  0.60972622  0.74865249  0.36897533  1
  Na  Na70  1  0.60983153  0.74999687  0.61836270  1
  Na  Na71  1  0.60980310  0.74952841  0.86819517  1
  Na  Na72  1  0.38983056  0.25008522  0.13391734  1
  Na  Na73  1  0.38996370  0.24971964  0.38195560  1
  Na  Na74  1  0.39013035  0.24929163  0.63083274  1
  Na  Na75  1  0.38941978  0.25058534  0.88183590  1
  Na  Na76  1  0.39008529  0.58343200  0.13216037  1
  Na  Na77  1  0.38986233  0.58295771  0.38242688  1
  Na  Na78  1  0.39020202  0.58382114  0.63065848  1
  Na  Na79  1  0.39031058  0.58381017  0.88066242  1
  Na  Na80  1  0.39094242  0.91736362  0.13155022  1
  Na  Na81  1  0.39107327  0.91728792  0.38179203  1
  Na  Na82  1  0.39087233  0.91677972  0.63021952  1
  Na  Na83  1  0.39077772  0.91541376  0.88007876  1
  Na  Na84  1  0.88945733  0.24872241  0.13206644  1
  Na  Na85  1  0.88958380  0.24874144  0.38193371  1
  Na  Na86  1  0.89008502  0.25071833  0.63067429  1
  Na  Na87  1  0.88962688  0.24913351  0.88094952  1
  Na  Na88  1  0.89017331  0.58347781  0.13151892  1
  Na  Na89  1  0.88996483  0.58377898  0.38276196  1
  Na  Na90  1  0.89009370  0.58385326  0.63116287  1
  Na  Na91  1  0.89026871  0.58467559  0.88001375  1
  Na  Na92  1  0.89052004  0.91559883  0.13102984  1
  Na  Na93  1  0.89129153  0.91563150  0.38145865  1
  Na  Na94  1  0.89054622  0.91668678  0.63111433  1
  Na  Na95  1  0.89061592  0.91723164  0.88064750  1
  Mn  Mn96  1  0.00032863  0.83287062  0.25084838  1
  Mn  Mn97  1  -0.00056789  0.33371653  0.74997956  1
  Mn  Mn98  1  -0.00105962  0.50034855  0.25031948  1
  Mn  Mn99  1  -0.00009644  0.50056569  0.49984983  1
  Mn  Mn100  1  0.49942555  0.66585065  0.25016191  1
  Mn  Mn101  1  -0.00040440  0.50011836  -0.00020552  1
  Mn  Mn102  1  -0.00008197  -0.00140058  -0.00079102  1
  Mn  Mn103  1  0.25119024  0.00093882  0.12481283  1
  Mn  Mn104  1  0.00103388  0.00080466  0.75010726  1
  Mn  Mn105  1  0.00061184  0.16498213  0.25127567  1
  Mn  Mn106  1  0.00041550  0.66696087  -0.00000117  1
  Mn  Mn107  1  -0.00010654  0.16684680  0.49972620  1
  Mn  Mn108  1  0.74972921  0.66656752  0.62461265  1
  Mn  Mn109  1  0.25067475  0.83248344  0.12458597  1
  Mn  Mn110  1  0.25032317  0.49914999  0.87514739  1
  Mn  Mn111  1  0.24970170  0.66623991  0.87484586  1
  Mn  Mn112  1  0.49933268  0.16739518  0.74948770  1
  Mn  Mn113  1  0.25079975  0.00117965  0.87452999  1
  Mn  Mn114  1  0.49919146  0.50097800  -0.00061126  1
  Mn  Mn115  1  0.74993456  0.66612291  0.12554787  1
  Mn  Mn116  1  0.49929803  0.33405244  0.00109161  1
  Mn  Mn117  1  0.50029248  0.00009498  -0.00006847  1
  Mn  Mn118  1  0.75074231  0.00031608  0.37461627  1
  Mn  Mn119  1  0.49956560  -0.00047498  0.74952028  1
  Mn  Mn120  1  -0.00077646  0.33274410  -0.00062122  1
  Mn  Mn121  1  0.74945540  0.33328967  0.62477249  1
  Mn  Mn122  1  0.75053625  0.49883152  0.12521585  1
  Mn  Mn123  1  0.74985004  0.00075836  0.62435946  1
  Mn  Mn124  1  0.75060318  0.83227379  0.37440201  1
  Mn  Mn125  1  0.74940171  0.83379776  0.12510063  1
  Mn  Mn126  1  0.49977697  0.16719587  0.00039405  1
  Mn  Mn127  1  -0.00053735  0.33271637  0.24999372  1
  Mn  Mn128  1  0.74898762  0.50114467  0.87571128  1
  Mn  Mn129  1  0.50072248  0.83342924  0.49973833  1
  Mn  Mn130  1  0.49961067  0.50021817  0.74959609  1
  Mn  Mn131  1  0.25051157  0.00058385  0.37448941  1
  Mn  Mn132  1  -0.00007858  0.16559690  0.00060358  1
  Mn  Mn133  1  0.24985673  0.83322937  0.87433014  1
  Mn  Mn134  1  0.50068893  0.83263086  0.00068791  1
  Mn  Mn135  1  0.00100661  0.83302951  0.74945956  1
  Mn  Mn136  1  0.75018233  0.83451283  0.87538051  1
  Mn  Mn137  1  0.50006482  0.33303642  0.49897873  1
  Mn  Mn138  1  0.24954834  0.33273455  0.62532825  1
  Mn  Mn139  1  0.25024117  0.83347706  0.62410786  1
  Mn  Mn140  1  0.74893579  0.33295864  0.87502310  1
  Mn  Mn141  1  0.49982702  0.83383606  0.25026390  1
  Mn  Mn142  1  0.24947250  0.50043148  0.62512363  1
  Mn  Mn143  1  0.24988006  0.49924056  0.12571842  1
  Fe  Fe144  1  0.49997888  0.66647941  0.50006999  1
  Fe  Fe145  1  0.50054414  0.16674277  0.49961318  1
  Fe  Fe146  1  0.25020677  0.66706011  0.62397440  1
  Fe  Fe147  1  -0.00004634  0.00026382  0.50046646  1
  Fe  Fe148  1  0.74929305  0.49977510  0.62409364  1
  Fe  Fe149  1  0.74976222  0.16698457  0.87523182  1
  Fe  Fe150  1  0.49939276  0.33364472  0.25081495  1
  Fe  Fe151  1  0.75018220  0.83368763  0.62520458  1
  Fe  Fe152  1  0.00039276  0.66694329  0.50034931  1
  Fe  Fe153  1  0.25013250  0.16756039  0.12587033  1
  Fe  Fe154  1  0.49941368  0.49962815  0.50017729  1
  Fe  Fe155  1  -0.00032405  0.66697230  0.74940223  1
  Fe  Fe156  1  0.24980813  0.49998746  0.37516637  1
  Fe  Fe157  1  0.00067327  -0.00132398  0.25004981  1
  Fe  Fe158  1  -0.00009926  0.16720120  0.74905459  1
  Fe  Fe159  1  0.25030732  0.66681561  0.37484913  1
  Fe  Fe160  1  0.25031084  0.00065797  0.62413847  1
  Fe  Fe161  1  0.00023863  0.83348712  0.49978002  1
  Fe  Fe162  1  0.75007894  0.16659994  0.12474430  1
  Fe  Fe163  1  0.75073321  0.00069112  0.12446343  1
  Fe  Fe164  1  0.50100209  0.00044045  0.50007906  1
  Fe  Fe165  1  0.74987621  0.33205906  0.37527164  1
  Fe  Fe166  1  -0.00008832  0.66682970  0.25040651  1
  Fe  Fe167  1  0.49955539  0.16660436  0.25063625  1
  Fe  Fe168  1  0.49989444  0.66667500  -0.00006306  1
  Fe  Fe169  1  0.74946097  0.33240004  0.12563772  1
  Fe  Fe170  1  0.74970909  0.16697595  0.62476849  1
  Fe  Fe171  1  0.50033148  0.66652371  0.74942227  1
  Fe  Fe172  1  0.25087523  0.83344550  0.37474696  1
  Fe  Fe173  1  0.25009095  0.33299548  0.37556397  1
  Fe  Fe174  1  -0.00065772  0.50062394  0.74899605  1
  Fe  Fe175  1  0.50080214  0.83275594  0.74980695  1
  Fe  Fe176  1  0.24979865  0.16737917  0.87555215  1
  Fe  Fe177  1  0.24976431  0.33285065  0.12635922  1
  Fe  Fe178  1  0.74967779  0.16649284  0.37415598  1
  Fe  Fe179  1  0.24959383  0.33264385  0.87605395  1
  Fe  Fe180  1  0.74990726  0.49867187  0.37472246  1
  Fe  Fe181  1  0.49959117  0.33339553  0.74922761  1
  Fe  Fe182  1  0.25034891  0.16699942  0.62489136  1
  Fe  Fe183  1  0.00032999  0.83260425  0.00043050  1
  Fe  Fe184  1  0.00015030  0.33395459  0.50063149  1
  Fe  Fe185  1  0.74952008  0.66556019  0.37584988  1
  Fe  Fe186  1  0.25009171  0.16694483  0.37551126  1
  Fe  Fe187  1  0.24979031  0.66582511  0.12590255  1
  Fe  Fe188  1  0.75009702  0.66759783  0.87451607  1
  Fe  Fe189  1  0.75016409  0.00121846  0.87441031  1
  Fe  Fe190  1  0.50086859  0.00074682  0.25082004  1
  Fe  Fe191  1  0.50007321  0.50023922  0.25042846  1
  P  P192  1  0.04251903  0.24945014  0.10347794  1
  P  P193  1  0.04244148  0.25006157  0.35419030  1
  P  P194  1  0.04222643  0.25149915  0.60267029  1
  P  P195  1  0.04182433  0.24864548  0.85209685  1
  P  P196  1  0.04279538  0.58336874  0.10364518  1
  P  P197  1  0.04161655  0.58504917  0.35312760  1
  P  P198  1  0.04211928  0.58474149  0.60283502  1
  P  P199  1  0.04130885  0.58345813  0.85086361  1
  P  P200  1  0.04264190  0.91479441  0.10286385  1
  P  P201  1  0.04277082  0.91770141  0.35365757  1
  P  P202  1  0.04189397  0.91694179  0.60118930  1
  P  P203  1  0.04370364  0.91605949  0.85302150  1
  P  P204  1  0.54171691  0.25040238  0.10491722  1
  P  P205  1  0.54092149  0.24962566  0.35179752  1
  P  P206  1  0.54209575  0.24929710  0.60209606  1
  P  P207  1  0.54181092  0.25171386  0.85224766  1
  P  P208  1  0.54198843  0.58416826  0.10269669  1
  P  P209  1  0.54164956  0.58168609  0.35357083  1
  P  P210  1  0.54120320  0.58338827  0.60151711  1
  P  P211  1  0.54218264  0.58484659  0.85217407  1
  P  P212  1  0.54330704  0.91738639  0.10391681  1
  P  P213  1  0.54256506  0.91835249  0.35305643  1
  P  P214  1  0.54274451  0.91751210  0.60242873  1
  P  P215  1  0.54262581  0.91515385  0.85209942  1
  P  P216  1  0.45872243  0.08331774  0.14915080  1
  P  P217  1  0.45934550  0.08355891  0.39791207  1
  P  P218  1  0.45768139  0.08328970  0.64556179  1
  P  P219  1  0.45711690  0.08365701  0.89688295  1
  P  P220  1  0.45791974  0.41735588  0.14936774  1
  P  P221  1  0.45805497  0.41784291  0.39683565  1
  P  P222  1  0.45750878  0.41570431  0.64672750  1
  P  P223  1  0.45651441  0.41667351  0.89651080  1
  P  P224  1  0.45702371  0.74980797  0.14697688  1
  P  P225  1  0.45786105  0.74867015  0.39786497  1
  P  P226  1  0.45916453  0.74987424  0.64768876  1
  P  P227  1  0.45828740  0.74871205  0.89681417  1
  P  P228  1  0.95816031  0.08084014  0.14799337  1
  P  P229  1  0.95795633  0.08118131  0.39738141  1
  P  P230  1  0.95821134  0.08448280  0.64681662  1
  P  P231  1  0.95727179  0.08337780  0.89622554  1
  P  P232  1  0.95615163  0.41639457  0.14700524  1
  P  P233  1  0.95757396  0.41561995  0.39794135  1
  P  P234  1  0.95728269  0.41805298  0.64690619  1
  P  P235  1  0.95675134  0.41720637  0.89583108  1
  P  P236  1  0.95768559  0.74903891  0.14778231  1
  P  P237  1  0.95888885  0.74967956  0.39852448  1
  P  P238  1  0.95814217  0.74918591  0.64648516  1
  P  P239  1  0.95780116  0.75117583  0.89721431  1
  P  P240  1  0.20855424  0.08488245  0.22801264  1
  P  P241  1  0.20856440  0.08473046  0.47810929  1
  P  P242  1  0.20862829  0.08394756  0.72636275  1
  P  P243  1  0.20818966  0.08533848  0.97794776  1
  P  P244  1  0.20792091  0.41511100  0.22906009  1
  P  P245  1  0.20871196  0.41681521  0.47666674  1
  P  P246  1  0.20685120  0.41598028  0.72866458  1
  P  P247  1  0.20754911  0.41481511  0.97836490  1
  P  P248  1  0.20849228  0.74843585  0.22849835  1
  P  P249  1  0.20919039  0.75015688  0.47637699  1
  P  P250  1  0.20774336  0.74886419  0.72643954  1
  P  P251  1  0.20712391  0.74961900  0.97840417  1
  P  P252  1  0.70912286  0.08351760  0.22642847  1
  P  P253  1  0.70808126  0.08472414  0.47715479  1
  P  P254  1  0.70769301  0.08519313  0.72773028  1
  P  P255  1  0.70832018  0.08370352  0.97702060  1
  P  P256  1  0.70794484  0.41450975  0.22861571  1
  P  P257  1  0.70841969  0.41584271  0.47646177  1
  P  P258  1  0.70697017  0.41835454  0.72689540  1
  P  P259  1  0.70645773  0.41601817  0.97874756  1
  P  P260  1  0.70709694  0.74926443  0.22886623  1
  P  P261  1  0.70783005  0.74849838  0.47776390  1
  P  P262  1  0.70809381  0.75178990  0.72755754  1
  P  P263  1  0.70767495  0.74942459  0.97736461  1
  P  P264  1  0.29187886  0.25058695  0.02398226  1
  P  P265  1  0.29107513  0.24989530  0.27356197  1
  P  P266  1  0.29216210  0.24907607  0.52192191  1
  P  P267  1  0.29128797  0.24973080  0.77349980  1
  P  P268  1  0.29220059  0.58387793  0.02330240  1
  P  P269  1  0.29129281  0.58317438  0.27355217  1
  P  P270  1  0.29177527  0.58464716  0.52144046  1
  P  P271  1  0.29261998  0.58318399  0.77124207  1
  P  P272  1  0.29352179  0.91704329  0.02162623  1
  P  P273  1  0.29298975  0.91545927  0.27252310  1
  P  P274  1  0.29229315  0.91806688  0.52156819  1
  P  P275  1  0.29274014  0.91721709  0.77065189  1
  P  P276  1  0.79103710  0.24980555  0.02327511  1
  P  P277  1  0.79133698  0.24959476  0.27265764  1
  P  P278  1  0.79173001  0.24865126  0.52169167  1
  P  P279  1  0.79164504  0.24897304  0.77213715  1
  P  P280  1  0.79272440  0.58337082  0.02176677  1
  P  P281  1  0.79136879  0.58269894  0.27409276  1
  P  P282  1  0.79160522  0.58141580  0.52158456  1
  P  P283  1  0.79154247  0.58497408  0.77206476  1
  P  P284  1  0.79212803  0.91859670  0.02203758  1
  P  P285  1  0.79326480  0.91690077  0.27122621  1
  P  P286  1  0.79240124  0.91524762  0.52248133  1
  P  P287  1  0.79240603  0.91858217  0.77205126  1
  O  O288  1  0.03759461  0.24922805  0.18349290  1
  O  O289  1  0.03711078  0.25072938  0.43414474  1
  O  O290  1  0.03678734  0.25075599  0.68260448  1
  O  O291  1  0.03666787  0.24873941  0.93206301  1
  O  O292  1  0.03751267  0.58375033  0.18360963  1
  O  O293  1  0.03645035  0.58508588  0.43309948  1
  O  O294  1  0.03665149  0.58433781  0.68270489  1
  O  O295  1  0.03619835  0.58346352  0.93086130  1
  O  O296  1  0.03737706  0.91546179  0.18285439  1
  O  O297  1  0.03719751  0.91770963  0.43351990  1
  O  O298  1  0.03761274  0.91678768  0.68121755  1
  O  O299  1  0.03846672  0.91529122  0.93298041  1
  O  O300  1  0.53627933  0.25007907  0.18480991  1
  O  O301  1  0.53642530  0.24924229  0.43181706  1
  O  O302  1  0.53660503  0.25026812  0.68200721  1
  O  O303  1  0.53671251  0.25140560  0.93226578  1
  O  O304  1  0.53679074  0.58320916  0.18266054  1
  O  O305  1  0.53622633  0.58175430  0.43343932  1
  O  O306  1  0.53629434  0.58388351  0.68153129  1
  O  O307  1  0.53702896  0.58495974  0.93212907  1
  O  O308  1  0.53812487  0.91803621  0.18390639  1
  O  O309  1  0.53723940  0.91855809  0.43303708  1
  O  O310  1  0.53747611  0.91661070  0.68234088  1
  O  O311  1  0.53759328  0.91539354  0.93209661  1
  O  O312  1  0.46328034  0.08367909  0.06912535  1
  O  O313  1  0.46448121  0.08339559  0.31794652  1
  O  O314  1  0.46350578  0.08342308  0.56567564  1
  O  O315  1  0.46188726  0.08371983  0.81688550  1
  O  O316  1  0.46228875  0.41724467  0.06932136  1
  O  O317  1  0.46336860  0.41788897  0.31697807  1
  O  O318  1  0.46300503  0.41632637  0.56678150  1
  O  O319  1  0.46170291  0.41615968  0.81653761  1
  O  O320  1  0.46223503  0.74935904  0.06701667  1
  O  O321  1  0.46262732  0.74895184  0.31791295  1
  O  O322  1  0.46432295  0.74950550  0.56770581  1
  O  O323  1  0.46393239  0.74896679  0.81690289  1
  O  O324  1  0.96317238  0.08118363  0.06801480  1
  O  O325  1  0.96339822  0.08071688  0.31746377  1
  O  O326  1  0.96332137  0.08374801  0.56683026  1
  O  O327  1  0.96258159  0.08434648  0.81626196  1
  O  O328  1  0.96112558  0.41637664  0.06697908  1
  O  O329  1  0.96239170  0.41592788  0.31797218  1
  O  O330  1  0.96296851  0.41737775  0.56698722  1
  O  O331  1  0.96210519  0.41784472  0.81584544  1
  O  O332  1  0.96292051  0.74985414  0.06783304  1
  O  O333  1  0.96362238  0.74956082  0.31851494  1
  O  O334  1  0.96356287  0.74935298  0.56659982  1
  O  O335  1  0.96300660  0.75059005  0.81726126  1
  O  O336  1  0.21363906  0.08541537  0.05788099  1
  O  O337  1  0.21371922  0.08471085  0.30798018  1
  O  O338  1  0.21410908  0.08424985  0.55795535  1
  O  O339  1  0.21349382  0.08393387  0.80633759  1
  O  O340  1  0.21279370  0.41491949  0.05836056  1
  O  O341  1  0.21329820  0.41564251  0.30892922  1
  O  O342  1  0.21319011  0.41666260  0.55666942  1
  O  O343  1  0.21197879  0.41553758  0.80862790  1
  O  O344  1  0.21227226  0.74919234  0.05836496  1
  O  O345  1  0.21439080  0.74898351  0.30837350  1
  O  O346  1  0.21399855  0.75004514  0.55636448  1
  O  O347  1  0.21249080  0.74924523  0.80642947  1
  O  O348  1  0.71369928  0.08339198  0.05690676  1
  O  O349  1  0.71384158  0.08408759  0.30639020  1
  O  O350  1  0.71321157  0.08483812  0.55708943  1
  O  O351  1  0.71312552  0.08483958  0.80760308  1
  O  O352  1  0.71202673  0.41533308  0.05867379  1
  O  O353  1  0.71348525  0.41444068  0.30850899  1
  O  O354  1  0.71298309  0.41661602  0.55646039  1
  O  O355  1  0.71183374  0.41822693  0.80683239  1
  O  O356  1  0.71253687  0.74960808  0.05736568  1
  O  O357  1  0.71246977  0.74856247  0.30882710  1
  O  O358  1  0.71307797  0.74918500  0.55768864  1
  O  O359  1  0.71337311  0.75131370  0.80747985  1
  O  O360  1  0.28615403  0.25020605  0.19366686  1
  O  O361  1  0.28681211  0.24940702  0.44207092  1
  O  O362  1  0.28630856  0.24945982  0.69353413  1
  O  O363  1  0.28681819  0.25061989  0.94408003  1
  O  O364  1  0.28633086  0.58306303  0.19359147  1
  O  O365  1  0.28624380  0.58445999  0.44155604  1
  O  O366  1  0.28753839  0.58374851  0.69126051  1
  O  O367  1  0.28710080  0.58323748  0.94333903  1
  O  O368  1  0.28804264  0.91568959  0.19257720  1
  O  O369  1  0.28721363  0.91741352  0.44159882  1
  O  O370  1  0.28720044  0.91760984  0.69067124  1
  O  O371  1  0.28831758  0.91722337  0.94162494  1
  O  O372  1  0.78619114  0.25003542  0.19277376  1
  O  O373  1  0.78619924  0.24888035  0.44180454  1
  O  O374  1  0.78639049  0.24904762  0.69218499  1
  O  O375  1  0.78604276  0.24911177  0.94331920  1
  O  O376  1  0.78695590  0.58246684  0.19408599  1
  O  O377  1  0.78624762  0.58164339  0.44172599  1
  O  O378  1  0.78630528  0.58433001  0.69214791  1
  O  O379  1  0.78735998  0.58422469  0.94183488  1
  O  O380  1  0.78799198  0.91741246  0.19128092  1
  O  O381  1  0.78746886  0.91527096  0.44253111  1
  O  O382  1  0.78699720  0.91781724  0.69211562  1
  O  O383  1  0.78664448  0.91887609  0.94208937  1
  O  O384  1  0.22769184  0.25033668  0.06024172  1
  O  O385  1  0.22707438  0.24922600  0.30986174  1
  O  O386  1  0.22801214  0.24842530  0.55806775  1
  O  O387  1  0.22717524  0.24975125  0.80975431  1
  O  O388  1  0.22788909  0.58385080  0.05890781  1
  O  O389  1  0.22719613  0.58385486  0.30959868  1
  O  O390  1  0.22768430  0.58516443  0.55774315  1
  O  O391  1  0.22825196  0.58255659  0.80649098  1
  O  O392  1  0.22918974  0.91706571  0.05690144  1
  O  O393  1  0.22864454  0.91563272  0.30792138  1
  O  O394  1  0.22810121  0.91803133  0.55733216  1
  O  O395  1  0.22854650  0.91743071  0.80639959  1
  O  O396  1  0.72694183  0.25018066  0.05941170  1
  O  O397  1  0.72721113  0.24965787  0.30901819  1
  O  O398  1  0.72760853  0.24842373  0.55795267  1
  O  O399  1  0.72739114  0.24853029  0.80796333  1
  O  O400  1  0.72840782  0.58265924  0.05718317  1
  O  O401  1  0.72706761  0.58336493  0.30953770  1
  O  O402  1  0.72743355  0.58172012  0.55771056  1
  O  O403  1  0.72732761  0.58572449  0.80797330  1
  O  O404  1  0.72797814  0.91889340  0.05814437  1
  O  O405  1  0.72893597  0.91652280  0.30658577  1
  O  O406  1  0.72807882  0.91548637  0.55798350  1
  O  O407  1  0.72828281  0.91897553  0.80814679  1
  O  O408  1  0.27283686  0.08542962  0.19235310  1
  O  O409  1  0.27261869  0.08505294  0.44174169  1
  O  O410  1  0.27276563  0.08421581  0.69022942  1
  O  O411  1  0.27237822  0.08576122  0.94195361  1
  O  O412  1  0.27200592  0.41489402  0.19278713  1
  O  O413  1  0.27291587  0.41724558  0.44111672  1
  O  O414  1  0.27117761  0.41633418  0.69326183  1
  O  O415  1  0.27180921  0.41467714  0.94255104  1
  O  O416  1  0.27243667  0.74786191  0.19186381  1
  O  O417  1  0.27339663  0.74970567  0.44063050  1
  O  O418  1  0.27219939  0.74889135  0.69121828  1
  O  O419  1  0.27150740  0.74973185  0.94310569  1
  O  O420  1  0.77325128  0.08299368  0.19044861  1
  O  O421  1  0.77235980  0.08510473  0.44146566  1
  O  O422  1  0.77178868  0.08539029  0.69135096  1
  O  O423  1  0.77233430  0.08391453  0.94037487  1
  O  O424  1  0.77197441  0.41394409  0.19218584  1
  O  O425  1  0.77261009  0.41480446  0.44075946  1
  O  O426  1  0.77135406  0.41822292  0.69147444  1
  O  O427  1  0.77064520  0.41656063  0.94299384  1
  O  O428  1  0.77142338  0.74988380  0.19355321  1
  O  O429  1  0.77211096  0.74772074  0.44202868  1
  O  O430  1  0.77226425  0.75150414  0.69155557  1
  O  O431  1  0.77204225  0.74944696  0.94195490  1
  O  O432  1  0.02252130  0.08069003  0.18346590  1
  O  O433  1  0.02213817  0.08179435  0.43319750  1
  O  O434  1  0.02249600  0.08517789  0.68243370  1
  O  O435  1  0.02162503  0.08277171  0.93147054  1
  O  O436  1  0.02066152  0.41672384  0.18179889  1
  O  O437  1  0.02198735  0.41563164  0.43316470  1
  O  O438  1  0.02140689  0.41830652  0.68285990  1
  O  O439  1  0.02105301  0.41650596  0.93128063  1
  O  O440  1  0.02195220  0.74838160  0.18353903  1
  O  O441  1  0.02308702  0.74960329  0.43424295  1
  O  O442  1  0.02230616  0.74830936  0.68252167  1
  O  O443  1  0.02210918  0.75161085  0.93291459  1
  O  O444  1  0.52305879  0.08330446  0.18453405  1
  O  O445  1  0.52341257  0.08392704  0.43417254  1
  O  O446  1  0.52167716  0.08354401  0.68170438  1
  O  O447  1  0.52167571  0.08384075  0.93158986  1
  O  O448  1  0.52224084  0.41757963  0.18474511  1
  O  O449  1  0.52215791  0.41805708  0.43292573  1
  O  O450  1  0.52163316  0.41546344  0.68277386  1
  O  O451  1  0.52084537  0.41720295  0.93184134  1
  O  O452  1  0.52135703  0.74987322  0.18221756  1
  O  O453  1  0.52225680  0.74857441  0.43302409  1
  O  O454  1  0.52321846  0.75008946  0.68384988  1
  O  O455  1  0.52235495  0.74802900  0.93327634  1
  O  O456  1  0.47750902  0.25017093  0.06914193  1
  O  O457  1  0.47667272  0.24942703  0.31636072  1
  O  O458  1  0.47796623  0.24863941  0.56614488  1
  O  O459  1  0.47746345  0.25215628  0.81673611  1
  O  O460  1  0.47767891  0.58510804  0.06699645  1
  O  O461  1  0.47749859  0.58117073  0.31749721  1
  O  O462  1  0.47702438  0.58328076  0.56569714  1
  O  O463  1  0.47791616  0.58476233  0.81650935  1
  O  O464  1  0.47898222  0.91675015  0.06859648  1
  O  O465  1  0.47834631  0.91861206  0.31729059  1
  O  O466  1  0.47858983  0.91785766  0.56654393  1
  O  O467  1  0.47833899  0.91458911  0.81653556  1
  O  O468  1  0.97801223  0.24948120  0.06863850  1
  O  O469  1  0.97814979  0.24910925  0.31887859  1
  O  O470  1  0.97799253  0.25184663  0.56690009  1
  O  O471  1  0.97752464  0.24855333  0.81655262  1
  O  O472  1  0.97844249  0.58357093  0.06839268  1
  O  O473  1  0.97734965  0.58525338  0.31742863  1
  O  O474  1  0.97793790  0.58492224  0.56687936  1
  O  O475  1  0.97715529  0.58383730  0.81482274  1
  O  O476  1  0.97838154  0.91424472  0.06700575  1
  O  O477  1  0.97867117  0.91780984  0.31739281  1
  O  O478  1  0.97753580  0.91680137  0.56594305  1
  O  O479  1  0.97937985  0.91660231  0.81773633  1
  O  O480  1  0.07330653  0.31300011  0.07520027  1
  O  O481  1  0.07334243  0.31333586  0.32549208  1
  O  O482  1  0.07291201  0.31535281  0.57469640  1
  O  O483  1  0.07283279  0.31239060  0.82454743  1
  O  O484  1  0.07419538  0.64641186  0.07493709  1
  O  O485  1  0.07266657  0.64824146  0.32438799  1
  O  O486  1  0.07314815  0.64802504  0.57400502  1
  O  O487  1  0.07220757  0.64721801  0.82303331  1
  O  O488  1  0.07367560  0.97829290  0.07461303  1
  O  O489  1  0.07390036  0.98083934  0.32462737  1
  O  O490  1  0.07247216  0.98083865  0.57331745  1
  O  O491  1  0.07477927  0.97976284  0.82515993  1
  O  O492  1  0.57263531  0.31398395  0.07665080  1
  O  O493  1  0.57098446  0.31387321  0.32374902  1
  O  O494  1  0.57319228  0.31274355  0.57373917  1
  O  O495  1  0.57265774  0.31514500  0.82368824  1
  O  O496  1  0.57301843  0.64768187  0.07459493  1
  O  O497  1  0.57248884  0.64543251  0.32549971  1
  O  O498  1  0.57214559  0.64688946  0.57302444  1
  O  O499  1  0.57316673  0.64796994  0.82309124  1
  O  O500  1  0.57413081  0.98070649  0.07496305  1
  O  O501  1  0.57375860  0.98151974  0.32431945  1
  O  O502  1  0.57353127  0.98122178  0.57425236  1
  O  O503  1  0.57321915  0.97909178  0.82435103  1
  O  O504  1  0.42791466  0.01967584  0.17723911  1
  O  O505  1  0.42868325  0.01984765  0.42647537  1
  O  O506  1  0.42658186  0.01977244  0.67369416  1
  O  O507  1  0.42642534  0.02000623  0.92507462  1
  O  O508  1  0.42771756  0.35340247  0.17799769  1
  O  O509  1  0.42703789  0.35401639  0.42454864  1
  O  O510  1  0.42687357  0.35187742  0.67475983  1
  O  O511  1  0.42550965  0.35357421  0.92562226  1
  O  O512  1  0.42570930  0.68665388  0.17555052  1
  O  O513  1  0.42724579  0.68513113  0.42641911  1
  O  O514  1  0.42822711  0.68631763  0.67601864  1
  O  O515  1  0.42696251  0.68549257  0.92545494  1
  O  O516  1  0.92753142  0.01722510  0.17620617  1
  O  O517  1  0.92720047  0.01795887  0.42658084  1
  O  O518  1  0.92733582  0.02090965  0.67505952  1
  O  O519  1  0.92628983  0.01961048  0.92384224  1
  O  O520  1  0.92534936  0.35285250  0.17527385  1
  O  O521  1  0.92704232  0.35202027  0.42647203  1
  O  O522  1  0.92580910  0.35472591  0.67487788  1
  O  O523  1  0.92557532  0.35347675  0.92343004  1
  O  O524  1  0.92684220  0.68544862  0.17613617  1
  O  O525  1  0.92760980  0.68644490  0.42692771  1
  O  O526  1  0.92674212  0.68612642  0.67537111  1
  O  O527  1  0.92676631  0.68765217  0.92537473  1
  O  O528  1  0.17805310  0.02086057  0.20017265  1
  O  O529  1  0.17743531  0.02126071  0.44982701  1
  O  O530  1  0.17831373  0.02002832  0.69782444  1
  O  O531  1  0.17746162  0.02144351  0.95020254  1
  O  O532  1  0.17694692  0.35170675  0.20055595  1
  O  O533  1  0.17852277  0.35281556  0.44836917  1
  O  O534  1  0.17580105  0.35271233  0.70008440  1
  O  O535  1  0.17665334  0.35149411  0.94973023  1
  O  O536  1  0.17739119  0.68497942  0.20024086  1
  O  O537  1  0.17758098  0.68711955  0.44809037  1
  O  O538  1  0.17735017  0.68524542  0.69789443  1
  O  O539  1  0.17588675  0.68635342  0.94996879  1
  O  O540  1  0.67809695  0.01993988  0.19849865  1
  O  O541  1  0.67762467  0.02059657  0.44957007  1
  O  O542  1  0.67666399  0.02158531  0.69951132  1
  O  O543  1  0.67753597  0.02020230  0.94822645  1
  O  O544  1  0.67655200  0.35147027  0.19990672  1
  O  O545  1  0.67694026  0.35237554  0.44879739  1
  O  O546  1  0.67600824  0.35468797  0.69903282  1
  O  O547  1  0.67544280  0.35274439  0.95005968  1
  O  O548  1  0.67596649  0.68599015  0.20039308  1
  O  O549  1  0.67689390  0.68485502  0.44978443  1
  O  O550  1  0.67643401  0.68867774  0.69943357  1
  O  O551  1  0.67725990  0.68583930  0.94871618  1
  O  O552  1  0.32259551  0.31412257  0.05281252  1
  O  O553  1  0.32134258  0.31378980  0.30238006  1
  O  O554  1  0.32291303  0.31285952  0.55005765  1
  O  O555  1  0.32175179  0.31361769  0.80167338  1
  O  O556  1  0.32269731  0.64753172  0.05154788  1
  O  O557  1  0.32307350  0.64619035  0.30165322  1
  O  O558  1  0.32289311  0.64796081  0.55006889  1
  O  O559  1  0.32357049  0.64651534  0.79982193  1
  O  O560  1  0.32451394  0.98056674  0.04977071  1
  O  O561  1  0.32418382  0.97902176  0.30022309  1
  O  O562  1  0.32267989  0.98185772  0.54988801  1
  O  O563  1  0.32437034  0.98025232  0.79889045  1
  O  O564  1  0.82201466  0.31343011  0.05115540  1
  O  O565  1  0.82251371  0.31272755  0.30167844  1
  O  O566  1  0.82266829  0.31231568  0.54984867  1
  O  O567  1  0.82212172  0.31308613  0.79979989  1
  O  O568  1  0.82376451  0.64660278  0.05051337  1
  O  O569  1  0.82256383  0.64605524  0.30226516  1
  O  O570  1  0.82308896  0.64473450  0.54965142  1
  O  O571  1  0.82242450  0.64863676  0.80019494  1
  O  O572  1  0.82340345  0.98172620  0.05055788  1
  O  O573  1  0.82418969  0.98016395  0.30000673  1
  O  O574  1  0.82348984  0.97893867  0.54999011  1
  O  O575  1  0.82317588  0.98228248  0.79999005  1
  O  O576  1  0.42799286  0.14696741  0.17776493  1
  O  O577  1  0.42816211  0.14714227  0.42598165  1
  O  O578  1  0.42607518  0.14649702  0.67384200  1
  O  O579  1  0.42612807  0.14708825  0.92531228  1
  O  O580  1  0.42693630  0.48089615  0.17747337  1
  O  O581  1  0.42683008  0.48086206  0.42604186  1
  O  O582  1  0.42612768  0.47907763  0.67472257  1
  O  O583  1  0.42544275  0.48036804  0.92437022  1
  O  O584  1  0.42617227  0.81349771  0.17509638  1
  O  O585  1  0.42693693  0.81238792  0.42568113  1
  O  O586  1  0.42838448  0.81374195  0.67559546  1
  O  O587  1  0.42740523  0.81244555  0.92494760  1
  O  O588  1  0.92723461  0.14456030  0.17590612  1
  O  O589  1  0.92658719  0.14494640  0.42458415  1
  O  O590  1  0.92737579  0.14819936  0.67480267  1
  O  O591  1  0.92601760  0.14636583  0.92531946  1
  O  O592  1  0.92509210  0.47983099  0.17534380  1
  O  O593  1  0.92652107  0.47933460  0.42555784  1
  O  O594  1  0.92658307  0.48182880  0.67492703  1
  O  O595  1  0.92578173  0.48051885  0.92444227  1
  O  O596  1  0.92661318  0.81242469  0.17621045  1
  O  O597  1  0.92856707  0.81379027  0.42673481  1
  O  O598  1  0.92749738  0.81307733  0.67453195  1
  O  O599  1  0.92709449  0.81477122  0.92571154  1
  O  O600  1  0.07354203  0.18589718  0.07550512  1
  O  O601  1  0.07383280  0.18644537  0.32666666  1
  O  O602  1  0.07349246  0.18819339  0.57438689  1
  O  O603  1  0.07257383  0.18518789  0.82346324  1
  O  O604  1  0.07355495  0.51959853  0.07553545  1
  O  O605  1  0.07235207  0.52101751  0.32563468  1
  O  O606  1  0.07337681  0.52123732  0.57460659  1
  O  O607  1  0.07190681  0.51960036  0.82284756  1
  O  O608  1  0.07339243  0.85106938  0.07481939  1
  O  O609  1  0.07379046  0.85394850  0.32575368  1
  O  O610  1  0.07259052  0.85325962  0.57271838  1
  O  O611  1  0.07487122  0.85297875  0.82409086  1
  O  O612  1  0.57314393  0.18723033  0.07620279  1
  O  O613  1  0.57232128  0.18649324  0.32317900  1
  O  O614  1  0.57318859  0.18578894  0.57403826  1
  O  O615  1  0.57266474  0.18793532  0.82447220  1
  O  O616  1  0.57270833  0.52052695  0.07427616  1
  O  O617  1  0.57294981  0.51858724  0.32457837  1
  O  O618  1  0.57183984  0.51942376  0.57365708  1
  O  O619  1  0.57309463  0.52098811  0.82444497  1
  O  O620  1  0.57458221  0.85383469  0.07615743  1
  O  O621  1  0.57325381  0.85424786  0.32572990  1
  O  O622  1  0.57400922  0.85415052  0.57411054  1
  O  O623  1  0.57363182  0.85176627  0.82370446  1
  O  O624  1  0.32289631  0.18703909  0.05256975  1
  O  O625  1  0.32265726  0.18662034  0.30174669  1
  O  O626  1  0.32343737  0.18590387  0.55061555  1
  O  O627  1  0.32233009  0.18623750  0.80183839  1
  O  O628  1  0.32337264  0.52032067  0.05130489  1
  O  O629  1  0.32124534  0.51892700  0.30191179  1
  O  O630  1  0.32270001  0.52090233  0.54943062  1
  O  O631  1  0.32383287  0.51966570  0.79927672  1
  O  O632  1  0.32460582  0.85355087  0.04957132  1
  O  O633  1  0.32351216  0.85178546  0.30105341  1
  O  O634  1  0.32389740  0.85475540  0.54953915  1
  O  O635  1  0.32344296  0.85328211  0.79844471  1
  O  O636  1  0.82181052  0.18617965  0.05200319  1
  O  O637  1  0.82205792  0.18564215  0.30065548  1
  O  O638  1  0.82296814  0.18544092  0.55032494  1
  O  O639  1  0.82296905  0.18596574  0.80092611  1
  O  O640  1  0.82392917  0.51974503  0.04957961  1
  O  O641  1  0.82143079  0.51849865  0.30233898  1
  O  O642  1  0.82209256  0.51773755  0.55035898  1
  O  O643  1  0.82248561  0.52142966  0.80027795  1
  O  O644  1  0.82279810  0.85449604  0.04947847  1
  O  O645  1  0.82449678  0.85334944  0.29916374  1
  O  O646  1  0.82285227  0.85159927  0.55109887  1
  O  O647  1  0.82370743  0.85517698  0.80024145  1
  O  O648  1  0.17716380  0.14799411  0.19953972  1
  O  O649  1  0.17739278  0.14812633  0.44971048  1
  O  O650  1  0.17745677  0.14740441  0.69814961  1
  O  O651  1  0.17691063  0.14847686  0.94919865  1
  O  O652  1  0.17669567  0.47863831  0.20082675  1
  O  O653  1  0.17746050  0.48034075  0.44869495  1
  O  O654  1  0.17577682  0.47949512  0.70041120  1
  O  O655  1  0.17662608  0.47862859  0.95048235  1
  O  O656  1  0.17735799  0.81209416  0.20057542  1
  O  O657  1  0.17917943  0.81444797  0.44815619  1
  O  O658  1  0.17658835  0.81240828  0.69840058  1
  O  O659  1  0.17634861  0.81328987  0.95009748  1
  O  O660  1  0.67861483  0.14725355  0.19770035  1
  O  O661  1  0.67678376  0.14769931  0.44812878  1
  O  O662  1  0.67658069  0.14850479  0.69909581  1
  O  O663  1  0.67724016  0.14741176  0.94898677  1
  O  O664  1  0.67724354  0.47853183  0.20087299  1
  O  O665  1  0.67829788  0.47968737  0.44743119  1
  O  O666  1  0.67640394  0.48189791  0.69814723  1
  O  O667  1  0.67513256  0.47959997  0.95107640  1
  O  O668  1  0.67592097  0.81289831  0.20105569  1
  O  O669  1  0.67686463  0.81201683  0.44949514  1
  O  O670  1  0.67787882  0.81577606  0.69923901  1
  O  O671  1  0.67656468  0.81313571  0.94976546  1
