# generated using pymatgen
data_Na2MnFe(PO4)2
_symmetry_space_group_name_H-M   'P 1'
_cell_length_a   22.33991128
_cell_length_b   20.08881394
_cell_length_c   19.45300599
_cell_angle_alpha   90.00047357
_cell_angle_beta   89.98728989
_cell_angle_gamma   89.92892713
_symmetry_Int_Tables_number   1
_chemical_formula_structural   Na2MnFe(PO4)2
_chemical_formula_sum   'Na96 Mn48 Fe48 P96 O384'
_cell_volume   8730.15824818
_cell_formula_units_Z   48
loop_
 _symmetry_equiv_pos_site_id
 _symmetry_equiv_pos_as_xyz
  1  'x, y, z'
loop_
 _atom_site_type_symbol
 _atom_site_label
 _atom_site_symmetry_multiplicity
 _atom_site_fract_x
 _atom_site_fract_y
 _atom_site_fract_z
 _atom_site_occupancy
  Na  Na0  1  0.14086116  0.24870406  0.24363222  1
  Na  Na1  1  0.14082146  0.24959541  0.49271222  1
  Na  Na2  1  0.14050093  0.25035347  0.74347847  1
  Na  Na3  1  0.13993538  0.24912483  0.99373351  1
  Na  Na4  1  0.14040154  0.58164320  0.24470763  1
  Na  Na5  1  0.14007233  0.58302252  0.49456821  1
  Na  Na6  1  0.14036490  0.58369076  0.74400804  1
  Na  Na7  1  0.14049135  0.58349330  0.99374366  1
  Na  Na8  1  0.14021382  0.91805740  0.24375175  1
  Na  Na9  1  0.14042846  0.91843919  0.49361836  1
  Na  Na10  1  0.14039233  0.91707116  0.74406875  1
  Na  Na11  1  0.14033863  0.91610561  0.99370783  1
  Na  Na12  1  0.64042062  0.24991704  0.24463349  1
  Na  Na13  1  0.64056987  0.25108561  0.49355621  1
  Na  Na14  1  0.64047522  0.25269235  0.74344382  1
  Na  Na15  1  0.64037656  0.25111976  0.99331562  1
  Na  Na16  1  0.64002073  0.58241072  0.24421244  1
  Na  Na17  1  0.63970934  0.58339974  0.49379064  1
  Na  Na18  1  0.64085894  0.58456042  0.74409099  1
  Na  Na19  1  0.64015375  0.58300486  0.99297110  1
  Na  Na20  1  0.64053819  0.91448166  0.24369120  1
  Na  Na21  1  0.64048741  0.91606289  0.49335226  1
  Na  Na22  1  0.64066486  0.91710556  0.74292952  1
  Na  Na23  1  0.64035393  0.91521206  0.99291479  1
  Na  Na24  1  0.35903464  0.08362973  0.00620850  1
  Na  Na25  1  0.35911754  0.08407906  0.25617853  1
  Na  Na26  1  0.35986148  0.08349739  0.50505510  1
  Na  Na27  1  0.35984651  0.08307682  0.75511222  1
  Na  Na28  1  0.35967681  0.41616514  0.00676698  1
  Na  Na29  1  0.35930009  0.41496760  0.25725136  1
  Na  Na30  1  0.35996525  0.41746745  0.50644952  1
  Na  Na31  1  0.36003374  0.41815959  0.75594601  1
  Na  Na32  1  0.36021664  0.75029325  0.00700894  1
  Na  Na33  1  0.36013089  0.74979507  0.25712210  1
  Na  Na34  1  0.35940331  0.75004452  0.50675854  1
  Na  Na35  1  0.35977603  0.75090432  0.75662728  1
  Na  Na36  1  0.85927911  0.08391812  0.00588180  1
  Na  Na37  1  0.85988012  0.08237621  0.25641936  1
  Na  Na38  1  0.86025640  0.08295281  0.50671651  1
  Na  Na39  1  0.85953635  0.08461658  0.75578689  1
  Na  Na40  1  0.85968512  0.41700683  0.00546623  1
  Na  Na41  1  0.85906871  0.41561135  0.25600168  1
  Na  Na42  1  0.85921220  0.41705475  0.50730712  1
  Na  Na43  1  0.85970800  0.41804256  0.75736558  1
  Na  Na44  1  0.86024379  0.74941140  0.00606789  1
  Na  Na45  1  0.85949304  0.74790640  0.25586062  1
  Na  Na46  1  0.85881364  0.74812794  0.50724118  1
  Na  Na47  1  0.85912902  0.75039600  0.75616119  1
  Na  Na48  1  0.11006633  0.08269310  0.11789251  1
  Na  Na49  1  0.11028837  0.08290401  0.36834543  1
  Na  Na50  1  0.10997570  0.08260815  0.61833740  1
  Na  Na51  1  0.10982933  0.08393465  0.86897007  1
  Na  Na52  1  0.10972509  0.41553612  0.11878533  1
  Na  Na53  1  0.10997525  0.41619681  0.36887920  1
  Na  Na54  1  0.10964627  0.41709632  0.61870726  1
  Na  Na55  1  0.10940920  0.41628831  0.86889499  1
  Na  Na56  1  0.10939091  0.74985300  0.11881226  1
  Na  Na57  1  0.10914004  0.75011617  0.37027070  1
  Na  Na58  1  0.10960119  0.75026348  0.61909936  1
  Na  Na59  1  0.10960439  0.74972492  0.86897795  1
  Na  Na60  1  0.60949954  0.08238713  0.11876354  1
  Na  Na61  1  0.60985865  0.08304461  0.36873263  1
  Na  Na62  1  0.60982547  0.08499660  0.61795871  1
  Na  Na63  1  0.60944345  0.08341385  0.86771513  1
  Na  Na64  1  0.60969296  0.41665272  0.11881808  1
  Na  Na65  1  0.60975971  0.41793263  0.36891422  1
  Na  Na66  1  0.60963934  0.41864499  0.61854784  1
  Na  Na67  1  0.61014471  0.41809972  0.86872309  1
  Na  Na68  1  0.60946430  0.74801013  0.11890972  1
  Na  Na69  1  0.60962104  0.74853163  0.36916819  1
  Na  Na70  1  0.60996512  0.75045512  0.61767881  1
  Na  Na71  1  0.61000739  0.74965446  0.86893546  1
  Na  Na72  1  0.38962357  0.24992955  0.13219237  1
  Na  Na73  1  0.39000300  0.25057066  0.38180867  1
  Na  Na74  1  0.39070986  0.25099043  0.62955360  1
  Na  Na75  1  0.39070990  0.25129654  0.88115749  1
  Na  Na76  1  0.39081209  0.58318694  0.13136108  1
  Na  Na77  1  0.39027929  0.58257392  0.38252895  1
  Na  Na78  1  0.38977408  0.58392825  0.63169798  1
  Na  Na79  1  0.39034106  0.58487683  0.88191644  1
  Na  Na80  1  0.39036503  0.91559160  0.13129372  1
  Na  Na81  1  0.39055469  0.91611740  0.38093247  1
  Na  Na82  1  0.39052257  0.91792147  0.63073525  1
  Na  Na83  1  0.39052666  0.91616144  0.88133524  1
  Na  Na84  1  0.89005389  0.24917912  0.13041077  1
  Na  Na85  1  0.89028739  0.24821588  0.38170352  1
  Na  Na86  1  0.89077277  0.24928335  0.63167493  1
  Na  Na87  1  0.89048811  0.25078300  0.88091964  1
  Na  Na88  1  0.89011885  0.58367367  0.13057471  1
  Na  Na89  1  0.88922117  0.58292661  0.38216651  1
  Na  Na90  1  0.88961439  0.58282149  0.63224762  1
  Na  Na91  1  0.89005490  0.58284978  0.88217342  1
  Na  Na92  1  0.89051369  0.91599671  0.12998572  1
  Na  Na93  1  0.89083824  0.91672699  0.38165670  1
  Na  Na94  1  0.89014725  0.91701785  0.63107709  1
  Na  Na95  1  0.89033874  0.91754030  0.88103483  1
  Mn  Mn96  1  0.49977517  -0.00145095  -0.00090994  1
  Mn  Mn97  1  0.50051309  0.33448030  0.00042380  1
  Mn  Mn98  1  0.50027158  0.50053816  0.75006662  1
  Mn  Mn99  1  -0.00028496  0.33254241  0.50026585  1
  Mn  Mn100  1  -0.00074024  0.50014972  0.50015701  1
  Mn  Mn101  1  0.49984053  0.83336210  0.49956803  1
  Mn  Mn102  1  -0.00090557  0.66643273  0.75032834  1
  Mn  Mn103  1  -0.00008966  0.33224619  0.24984692  1
  Mn  Mn104  1  0.75042500  -0.00029371  0.37496110  1
  Mn  Mn105  1  0.74906675  0.16701198  0.12447062  1
  Mn  Mn106  1  0.75032438  0.83331780  0.87450098  1
  Mn  Mn107  1  0.74986243  -0.00059895  0.12504968  1
  Mn  Mn108  1  0.49980575  0.16834833  0.74878820  1
  Mn  Mn109  1  0.25072168  0.16585277  0.87453545  1
  Mn  Mn110  1  0.49970480  0.16690624  0.24998965  1
  Mn  Mn111  1  0.50003627  -0.00016923  0.74959278  1
  Mn  Mn112  1  -0.00038137  0.83424956  0.74930778  1
  Mn  Mn113  1  0.25011934  0.66620162  0.12622531  1
  Mn  Mn114  1  -0.00095743  0.83353727  0.25014174  1
  Mn  Mn115  1  0.25014973  0.33329093  0.87475815  1
  Mn  Mn116  1  -0.00000431  0.49949681  0.00004545  1
  Mn  Mn117  1  0.25042752  0.16631238  0.62388885  1
  Mn  Mn118  1  -0.00003772  0.00005725  -0.00025248  1
  Mn  Mn119  1  0.75014392  0.33435202  0.62463072  1
  Mn  Mn120  1  0.50015684  0.16710790  -0.00025207  1
  Mn  Mn121  1  0.74975073  0.16776048  0.87510495  1
  Mn  Mn122  1  0.00055885  0.16659480  0.74987132  1
  Mn  Mn123  1  -0.00040828  0.49990609  0.24966147  1
  Mn  Mn124  1  0.50057263  0.16746738  0.49951516  1
  Mn  Mn125  1  0.74996943  0.49970534  0.12475854  1
  Mn  Mn126  1  0.25072637  0.33441362  0.62392456  1
  Mn  Mn127  1  0.25044694  0.49858444  0.12506722  1
  Mn  Mn128  1  0.49952131  0.50021547  0.25053480  1
  Mn  Mn129  1  0.50024734  0.66783279  0.75064513  1
  Mn  Mn130  1  0.25022816  0.83347616  0.87497610  1
  Mn  Mn131  1  0.24932688  0.83404722  0.12556005  1
  Mn  Mn132  1  0.24947914  0.66599429  0.37607338  1
  Mn  Mn133  1  -0.00022252  0.66662899  0.24997760  1
  Mn  Mn134  1  0.49997328  -0.00154474  0.24904798  1
  Mn  Mn135  1  0.75033625  0.83118151  0.37433894  1
  Mn  Mn136  1  0.75040489  0.33292430  0.37585326  1
  Mn  Mn137  1  0.00015994  0.16533675  0.25020509  1
  Mn  Mn138  1  -0.00011793  0.83373860  0.50003816  1
  Mn  Mn139  1  0.24948823  0.83448578  0.37599792  1
  Mn  Mn140  1  0.74963141  0.00075414  0.62422536  1
  Mn  Mn141  1  0.24987058  0.50087904  0.87571295  1
  Mn  Mn142  1  0.25031673  0.83406876  0.62563450  1
  Mn  Mn143  1  0.75054448  0.83147874  0.12401437  1
  Fe  Fe144  1  0.25015019  0.16648381  0.37388546  1
  Fe  Fe145  1  0.74961071  0.66520731  0.37588936  1
  Fe  Fe146  1  0.00018094  0.49964315  0.75080544  1
  Fe  Fe147  1  0.24934885  0.33230575  0.12590977  1
  Fe  Fe148  1  0.74968382  0.00066648  0.87403351  1
  Fe  Fe149  1  0.75009501  0.33458836  0.87422803  1
  Fe  Fe150  1  0.25026666  0.49950721  0.37536037  1
  Fe  Fe151  1  -0.00049202  0.66635090  0.50061856  1
  Fe  Fe152  1  0.49967165  0.50063602  0.49995142  1
  Fe  Fe153  1  0.49984316  0.33481623  0.75002205  1
  Fe  Fe154  1  0.75001110  0.16639868  0.37490229  1
  Fe  Fe155  1  0.24990520  -0.00002706  0.87506988  1
  Fe  Fe156  1  0.49963884  0.50033205  0.00030386  1
  Fe  Fe157  1  0.24972885  0.33315287  0.37496712  1
  Fe  Fe158  1  0.50008352  0.33386161  0.25027010  1
  Fe  Fe159  1  0.74992112  0.66531662  0.12488377  1
  Fe  Fe160  1  0.00028058  0.83336954  -0.00006495  1
  Fe  Fe161  1  0.74978043  0.66620517  0.62537046  1
  Fe  Fe162  1  0.24984358  0.50043231  0.62512990  1
  Fe  Fe163  1  0.00050323  0.00017334  0.50023161  1
  Fe  Fe164  1  0.25033801  0.00045983  0.12477429  1
  Fe  Fe165  1  0.50033018  0.83200841  0.25050119  1
  Fe  Fe166  1  0.00088703  0.16578121  0.50055982  1
  Fe  Fe167  1  -0.00051313  0.16660976  -0.00074625  1
  Fe  Fe168  1  0.25013269  0.00044127  0.62441862  1
  Fe  Fe169  1  0.75019296  0.66689086  0.87434460  1
  Fe  Fe170  1  0.24978524  0.16651652  0.12515171  1
  Fe  Fe171  1  0.74984573  0.16752070  0.62542415  1
  Fe  Fe172  1  0.25031532  0.66706203  0.87513144  1
  Fe  Fe173  1  0.50046839  0.33436616  0.50010801  1
  Fe  Fe174  1  0.75021863  0.50083283  0.87535785  1
  Fe  Fe175  1  0.24971332  0.66681034  0.62549672  1
  Fe  Fe176  1  0.00007873  -0.00032707  0.24959408  1
  Fe  Fe177  1  0.75003632  0.33341615  0.12516301  1
  Fe  Fe178  1  0.74969647  0.49974949  0.37517968  1
  Fe  Fe179  1  0.50007292  0.66700278  0.00063405  1
  Fe  Fe180  1  -0.00002191  0.00051774  0.75035210  1
  Fe  Fe181  1  0.00033618  0.66642044  -0.00037394  1
  Fe  Fe182  1  0.50045459  0.83355624  0.74950283  1
  Fe  Fe183  1  0.50056064  0.83233903  0.00064343  1
  Fe  Fe184  1  0.75000894  0.83325742  0.62488576  1
  Fe  Fe185  1  0.25051647  0.00084377  0.37405378  1
  Fe  Fe186  1  0.50053585  -0.00019282  0.49958656  1
  Fe  Fe187  1  0.49995548  0.66624868  0.24997588  1
  Fe  Fe188  1  0.00060489  0.33298296  0.75007843  1
  Fe  Fe189  1  0.74972469  0.50085953  0.62584314  1
  Fe  Fe190  1  0.49896608  0.66718554  0.49983963  1
  Fe  Fe191  1  -0.00045172  0.33294364  -0.00056177  1
  P  P192  1  0.04103696  0.24924825  0.10108498  1
  P  P193  1  0.04289549  0.24874937  0.35364132  1
  P  P194  1  0.04281517  0.24862554  0.60269166  1
  P  P195  1  0.04241687  0.25107189  0.85297430  1
  P  P196  1  0.04244936  0.58417084  0.10215376  1
  P  P197  1  0.04229015  0.58339992  0.35382861  1
  P  P198  1  0.04162492  0.58392635  0.60333052  1
  P  P199  1  0.04180666  0.58243092  0.85299427  1
  P  P200  1  0.04237290  0.91558947  0.10247456  1
  P  P201  1  0.04200587  0.91816754  0.35279150  1
  P  P202  1  0.04231547  0.91824274  0.60280145  1
  P  P203  1  0.04202584  0.91780089  0.85272912  1
  P  P204  1  0.54277810  0.25051972  0.10372999  1
  P  P205  1  0.54182231  0.25199125  0.35289342  1
  P  P206  1  0.54261950  0.25260067  0.60248380  1
  P  P207  1  0.54250029  0.25229857  0.85197354  1
  P  P208  1  0.54130542  0.58322424  0.10193497  1
  P  P209  1  0.54149529  0.58462936  0.35336925  1
  P  P210  1  0.54059949  0.58440401  0.60144701  1
  P  P211  1  0.54266029  0.58382814  0.85411596  1
  P  P212  1  0.54253975  0.91422616  0.10264166  1
  P  P213  1  0.54258418  0.91483029  0.35246857  1
  P  P214  1  0.54262231  0.91766178  0.60223550  1
  P  P215  1  0.54255419  0.91473307  0.85238796  1
  P  P216  1  0.45701779  0.08282210  0.14659133  1
  P  P217  1  0.45832758  0.08192604  0.39729709  1
  P  P218  1  0.45775368  0.08368147  0.64573760  1
  P  P219  1  0.45716607  0.08345933  0.89641745  1
  P  P220  1  0.45757790  0.41616399  0.14785114  1
  P  P221  1  0.45882402  0.41679497  0.39844045  1
  P  P222  1  0.45810178  0.41646934  0.64668677  1
  P  P223  1  0.45755376  0.41843250  0.89752698  1
  P  P224  1  0.45856350  0.74949429  0.14821640  1
  P  P225  1  0.45720700  0.74868461  0.39690114  1
  P  P226  1  0.45775216  0.75151966  0.64728166  1
  P  P227  1  0.45885525  0.75051424  0.89855827  1
  P  P228  1  0.95762980  0.08181967  0.14708085  1
  P  P229  1  0.95884957  0.08284980  0.39848140  1
  P  P230  1  0.95815160  0.08202946  0.64701159  1
  P  P231  1  0.95752649  0.08452721  0.89696973  1
  P  P232  1  0.95696167  0.41580194  0.14618813  1
  P  P233  1  0.95660485  0.41600374  0.39714038  1
  P  P234  1  0.95867847  0.41621507  0.64896055  1
  P  P235  1  0.95821522  0.41536976  0.89663596  1
  P  P236  1  0.95726521  0.74999249  0.14576193  1
  P  P237  1  0.95707952  0.74879461  0.39819286  1
  P  P238  1  0.95698070  0.74991665  0.64647667  1
  P  P239  1  0.95872471  0.75032918  0.89831193  1
  P  P240  1  0.20878287  0.08335042  0.22687549  1
  P  P241  1  0.20902814  0.08337780  0.47590966  1
  P  P242  1  0.20793364  0.08202465  0.72721520  1
  P  P243  1  0.20780654  0.08203440  0.97794437  1
  P  P244  1  0.20771377  0.41450686  0.22853365  1
  P  P245  1  0.20860907  0.41707992  0.47692934  1
  P  P246  1  0.20794840  0.41824934  0.72725007  1
  P  P247  1  0.20708256  0.41592508  0.97867976  1
  P  P248  1  0.20681425  0.75017486  0.22897732  1
  P  P249  1  0.20713353  0.75012237  0.47943675  1
  P  P250  1  0.20788452  0.74906867  0.72803536  1
  P  P251  1  0.20791323  0.74914567  0.97766051  1
  P  P252  1  0.70699356  0.08337176  0.22849286  1
  P  P253  1  0.70805885  0.08482760  0.47772506  1
  P  P254  1  0.70756180  0.08520565  0.72753338  1
  P  P255  1  0.70721667  0.08252920  0.97686904  1
  P  P256  1  0.70771106  0.41549912  0.22780225  1
  P  P257  1  0.70799738  0.41834748  0.47804045  1
  P  P258  1  0.70809897  0.41885264  0.72819092  1
  P  P259  1  0.70872105  0.41677795  0.97663628  1
  P  P260  1  0.70788431  0.74700130  0.22745270  1
  P  P261  1  0.70782108  0.74794738  0.47836548  1
  P  P262  1  0.70873122  0.75010415  0.72649956  1
  P  P263  1  0.70822268  0.74806921  0.97720994  1
  P  P264  1  0.29125512  0.24983205  0.02382335  1
  P  P265  1  0.29120884  0.25000868  0.27283619  1
  P  P266  1  0.29279308  0.25027640  0.52024556  1
  P  P267  1  0.29332319  0.24994048  0.77135995  1
  P  P268  1  0.29289727  0.58352214  0.02208783  1
  P  P269  1  0.29251934  0.58149868  0.27334578  1
  P  P270  1  0.29128479  0.58310531  0.52352464  1
  P  P271  1  0.29228669  0.58509291  0.77220165  1
  P  P272  1  0.29215851  0.91804021  0.02241326  1
  P  P273  1  0.29213106  0.91831076  0.27216497  1
  P  P274  1  0.29233461  0.91853435  0.52210962  1
  P  P275  1  0.29234967  0.91831898  0.77230772  1
  P  P276  1  0.79164068  0.25201595  0.02187539  1
  P  P277  1  0.79250592  0.24875306  0.27253357  1
  P  P278  1  0.79243543  0.24863416  0.52252478  1
  P  P279  1  0.79226990  0.25202376  0.77213589  1
  P  P280  1  0.79203920  0.58417278  0.02164333  1
  P  P281  1  0.79129390  0.58268058  0.27349137  1
  P  P282  1  0.79087069  0.58279173  0.52337027  1
  P  P283  1  0.79151705  0.58387667  0.77298516  1
  P  P284  1  0.79260829  0.91646031  0.02082495  1
  P  P285  1  0.79323286  0.91532878  0.27172138  1
  P  P286  1  0.79209850  0.91509835  0.52243952  1
  P  P287  1  0.79195835  0.91811733  0.77166265  1
  O  O288  1  0.03597683  0.24887505  0.18106047  1
  O  O289  1  0.03797740  0.24820862  0.43356998  1
  O  O290  1  0.03767351  0.24922009  0.68263201  1
  O  O291  1  0.03686053  0.25091838  0.93280963  1
  O  O292  1  0.03736786  0.58384171  0.18213449  1
  O  O293  1  0.03695161  0.58388334  0.43380504  1
  O  O294  1  0.03645426  0.58295483  0.68326646  1
  O  O295  1  0.03670092  0.58305643  0.93293516  1
  O  O296  1  0.03691167  0.91614477  0.18237089  1
  O  O297  1  0.03689688  0.91837366  0.43276116  1
  O  O298  1  0.03701433  0.91855638  0.68271307  1
  O  O299  1  0.03659789  0.91684973  0.93263900  1
  O  O300  1  0.53752755  0.25084182  0.18366817  1
  O  O301  1  0.53647732  0.25215595  0.43283066  1
  O  O302  1  0.53714243  0.25276998  0.68237884  1
  O  O303  1  0.53739358  0.25176322  0.93196134  1
  O  O304  1  0.53647146  0.58378612  0.18190002  1
  O  O305  1  0.53598987  0.58461658  0.43318489  1
  O  O306  1  0.53607060  0.58416176  0.68142736  1
  O  O307  1  0.53753651  0.58355579  0.93396243  1
  O  O308  1  0.53726643  0.91407404  0.18256039  1
  O  O309  1  0.53729951  0.91583792  0.43240263  1
  O  O310  1  0.53743242  0.91703404  0.68215378  1
  O  O311  1  0.53754898  0.91440009  0.93235378  1
  O  O312  1  0.46213151  0.08293615  0.06664490  1
  O  O313  1  0.46331008  0.08205929  0.31734849  1
  O  O314  1  0.46337227  0.08314026  0.56583636  1
  O  O315  1  0.46236310  0.08381205  0.81644385  1
  O  O316  1  0.46281420  0.41711490  0.06795300  1
  O  O317  1  0.46335154  0.41672033  0.31846553  1
  O  O318  1  0.46364799  0.41676984  0.56683847  1
  O  O319  1  0.46269373  0.41771255  0.81758151  1
  O  O320  1  0.46390626  0.74953146  0.06834032  1
  O  O321  1  0.46252956  0.74858182  0.31705897  1
  O  O322  1  0.46258825  0.75084795  0.56735381  1
  O  O323  1  0.46356880  0.75075772  0.81859953  1
  O  O324  1  0.96249759  0.08271439  0.06717578  1
  O  O325  1  0.96361531  0.08240865  0.31848587  1
  O  O326  1  0.96373024  0.08229524  0.56715198  1
  O  O327  1  0.96284937  0.08398294  0.81708624  1
  O  O328  1  0.96226505  0.41541692  0.06622783  1
  O  O329  1  0.96154082  0.41610280  0.31717822  1
  O  O330  1  0.96321927  0.41644157  0.56892993  1
  O  O331  1  0.96397542  0.41578757  0.81680593  1
  O  O332  1  0.96290879  0.74997791  0.06587489  1
  O  O333  1  0.96207041  0.74908511  0.31820341  1
  O  O334  1  0.96226929  0.74933859  0.56659284  1
  O  O335  1  0.96347539  0.75043596  0.81830296  1
  O  O336  1  0.21311175  0.08243271  0.05779051  1
  O  O337  1  0.21378307  0.08361665  0.30674556  1
  O  O338  1  0.21380856  0.08325466  0.55583282  1
  O  O339  1  0.21320851  0.08194234  0.80713592  1
  O  O340  1  0.21211431  0.41507153  0.05864407  1
  O  O341  1  0.21324716  0.41479035  0.30840486  1
  O  O342  1  0.21375978  0.41785372  0.55687034  1
  O  O343  1  0.21293459  0.41793010  0.80719609  1
  O  O344  1  0.21278008  0.74961232  0.05762609  1
  O  O345  1  0.21181019  0.75037782  0.30896231  1
  O  O346  1  0.21271746  0.74991901  0.55935074  1
  O  O347  1  0.21309843  0.74899397  0.80799591  1
  O  O348  1  0.71214603  0.08266004  0.05686558  1
  O  O349  1  0.71237935  0.08374968  0.30844355  1
  O  O350  1  0.71335702  0.08517249  0.55767653  1
  O  O351  1  0.71286181  0.08439752  0.80745266  1
  O  O352  1  0.71327058  0.41645514  0.05662772  1
  O  O353  1  0.71291868  0.41604349  0.30770720  1
  O  O354  1  0.71322806  0.41857291  0.55794771  1
  O  O355  1  0.71359827  0.41841548  0.80802163  1
  O  O356  1  0.71339081  0.74780233  0.05711665  1
  O  O357  1  0.71317818  0.74684752  0.30739044  1
  O  O358  1  0.71329121  0.74878369  0.55818936  1
  O  O359  1  0.71390833  0.74970253  0.80642467  1
  O  O360  1  0.28611076  0.24991036  0.19295143  1
  O  O361  1  0.28728154  0.25045283  0.44040067  1
  O  O362  1  0.28827867  0.25010048  0.69141570  1
  O  O363  1  0.28689311  0.24950185  0.94381643  1
  O  O364  1  0.28757263  0.58151602  0.19339731  1
  O  O365  1  0.28627586  0.58242692  0.44358102  1
  O  O366  1  0.28672717  0.58487212  0.69233622  1
  O  O367  1  0.28772770  0.58437286  0.94214023  1
  O  O368  1  0.28674107  0.91821773  0.19224983  1
  O  O369  1  0.28698232  0.91851317  0.44219288  1
  O  O370  1  0.28705188  0.91824521  0.69237430  1
  O  O371  1  0.28693061  0.91781367  0.94246694  1
  O  O372  1  0.78705797  0.24957535  0.19263393  1
  O  O373  1  0.78722867  0.24830079  0.44259570  1
  O  O374  1  0.78707467  0.25141493  0.69221897  1
  O  O375  1  0.78639664  0.25229911  0.94195225  1
  O  O376  1  0.78629878  0.58288193  0.19354425  1
  O  O377  1  0.78611043  0.58277596  0.44348429  1
  O  O378  1  0.78645042  0.58344252  0.69312282  1
  O  O379  1  0.78683757  0.58414639  0.94181449  1
  O  O380  1  0.78804644  0.91535823  0.19176535  1
  O  O381  1  0.78708524  0.91513101  0.44250335  1
  O  O382  1  0.78638423  0.91739535  0.69176977  1
  O  O383  1  0.78724682  0.91725866  0.94086817  1
  O  O384  1  0.22692349  0.25035755  0.05930726  1
  O  O385  1  0.22720542  0.25026224  0.30918739  1
  O  O386  1  0.22867473  0.25032445  0.55626528  1
  O  O387  1  0.22886697  0.24962964  0.80642149  1
  O  O388  1  0.22855777  0.58291082  0.05743517  1
  O  O389  1  0.22808518  0.58116417  0.30862091  1
  O  O390  1  0.22715582  0.58309015  0.55967131  1
  O  O391  1  0.22814577  0.58559800  0.80851979  1
  O  O392  1  0.22786863  0.91849834  0.05814155  1
  O  O393  1  0.22787680  0.91878396  0.30803148  1
  O  O394  1  0.22812058  0.91844506  0.55803716  1
  O  O395  1  0.22809560  0.91819014  0.80815485  1
  O  O396  1  0.72743747  0.25213263  0.05784118  1
  O  O397  1  0.72829376  0.24838654  0.30859919  1
  O  O398  1  0.72812931  0.24928479  0.55821797  1
  O  O399  1  0.72801724  0.25233650  0.80791358  1
  O  O400  1  0.72784290  0.58408645  0.05775622  1
  O  O401  1  0.72712382  0.58269851  0.30968237  1
  O  O402  1  0.72672315  0.58227473  0.55950115  1
  O  O403  1  0.72745147  0.58447696  0.80920504  1
  O  O404  1  0.72835538  0.91584480  0.05639623  1
  O  O405  1  0.72882338  0.91548324  0.30683361  1
  O  O406  1  0.72779539  0.91521676  0.55798582  1
  O  O407  1  0.72781969  0.91803983  0.80771514  1
  O  O408  1  0.27281851  0.08308837  0.19057212  1
  O  O409  1  0.27318970  0.08298794  0.43992441  1
  O  O410  1  0.27219907  0.08187165  0.69134369  1
  O  O411  1  0.27203031  0.08136250  0.94182893  1
  O  O412  1  0.27187550  0.41394744  0.19232864  1
  O  O413  1  0.27274580  0.41676350  0.44080489  1
  O  O414  1  0.27231922  0.41870546  0.69180409  1
  O  O415  1  0.27150487  0.41658992  0.94350121  1
  O  O416  1  0.27131466  0.75040088  0.19407682  1
  O  O417  1  0.27132191  0.75028423  0.44370986  1
  O  O418  1  0.27213034  0.74909811  0.69230600  1
  O  O419  1  0.27230171  0.74894998  0.94222466  1
  O  O420  1  0.77127839  0.08347564  0.19298454  1
  O  O421  1  0.77232057  0.08485366  0.44188378  1
  O  O422  1  0.77180324  0.08526635  0.69168260  1
  O  O423  1  0.77161405  0.08261705  0.94152139  1
  O  O424  1  0.77191448  0.41541487  0.19182267  1
  O  O425  1  0.77220302  0.41836391  0.44220365  1
  O  O426  1  0.77220598  0.41905919  0.69189745  1
  O  O427  1  0.77290099  0.41647324  0.94079052  1
  O  O428  1  0.77212342  0.74677074  0.19155145  1
  O  O429  1  0.77194314  0.74716716  0.44210141  1
  O  O430  1  0.77280993  0.75037735  0.69047076  1
  O  O431  1  0.77248484  0.74834256  0.94141077  1
  O  O432  1  0.02205256  0.08125923  0.18251150  1
  O  O433  1  0.02313210  0.08313752  0.43428852  1
  O  O434  1  0.02231399  0.08155600  0.68316709  1
  O  O435  1  0.02176376  0.08481797  0.93274646  1
  O  O436  1  0.02131455  0.41604724  0.18158407  1
  O  O437  1  0.02109488  0.41622625  0.43201102  1
  O  O438  1  0.02300178  0.41605609  0.68439648  1
  O  O439  1  0.02217479  0.41506991  0.93314938  1
  O  O440  1  0.02138409  0.75035267  0.18176384  1
  O  O441  1  0.02145696  0.74866345  0.43355093  1
  O  O442  1  0.02125011  0.74990937  0.68190908  1
  O  O443  1  0.02293438  0.75032868  0.93405951  1
  O  O444  1  0.52142182  0.08289415  0.18167497  1
  O  O445  1  0.52261448  0.08209509  0.43285341  1
  O  O446  1  0.52192524  0.08394056  0.68144986  1
  O  O447  1  0.52158610  0.08311020  0.93150567  1
  O  O448  1  0.52187586  0.41582457  0.18357947  1
  O  O449  1  0.52304824  0.41688615  0.43408287  1
  O  O450  1  0.52222703  0.41586687  0.68298163  1
  O  O451  1  0.52191458  0.41914551  0.93309526  1
  O  O452  1  0.52261526  0.74933921  0.18475826  1
  O  O453  1  0.52140686  0.74831889  0.43289387  1
  O  O454  1  0.52218357  0.75174401  0.68268044  1
  O  O455  1  0.52306106  0.75057638  0.93437456  1
  O  O456  1  0.47840965  0.25065781  0.06845877  1
  O  O457  1  0.47761097  0.25218988  0.31700860  1
  O  O458  1  0.47845977  0.25236183  0.56652383  1
  O  O459  1  0.47811525  0.25274877  0.81653020  1
  O  O460  1  0.47716025  0.58275921  0.06601587  1
  O  O461  1  0.47741924  0.58477581  0.31709380  1
  O  O462  1  0.47637916  0.58463929  0.56580534  1
  O  O463  1  0.47841974  0.58403087  0.81847155  1
  O  O464  1  0.47823807  0.91406357  0.06691311  1
  O  O465  1  0.47831668  0.91414951  0.31673509  1
  O  O466  1  0.47832263  0.91829011  0.56657536  1
  O  O467  1  0.47818619  0.91483874  0.81688244  1
  O  O468  1  0.97688370  0.24928704  0.06509777  1
  O  O469  1  0.97847578  0.24870190  0.31851905  1
  O  O470  1  0.97847437  0.24785484  0.56716305  1
  O  O471  1  0.97834394  0.25141466  0.81667429  1
  O  O472  1  0.97811599  0.58430891  0.06674435  1
  O  O473  1  0.97790533  0.58316883  0.31856578  1
  O  O474  1  0.97730215  0.58450668  0.56768439  1
  O  O475  1  0.97750296  0.58184082  0.81743921  1
  O  O476  1  0.97819456  0.91510824  0.06651554  1
  O  O477  1  0.97771226  0.91845596  0.31711088  1
  O  O478  1  0.97806919  0.91824020  0.56706252  1
  O  O479  1  0.97779746  0.91857195  0.81680807  1
  O  O480  1  0.07179489  0.31309215  0.07346791  1
  O  O481  1  0.07348729  0.31259354  0.32565135  1
  O  O482  1  0.07360426  0.31230955  0.57457420  1
  O  O483  1  0.07357608  0.31424725  0.82405021  1
  O  O484  1  0.07307879  0.64774410  0.07364549  1
  O  O485  1  0.07363076  0.64657070  0.32546854  1
  O  O486  1  0.07227107  0.64766357  0.57517970  1
  O  O487  1  0.07276614  0.64596483  0.82484021  1
  O  O488  1  0.07340679  0.97910332  0.07438070  1
  O  O489  1  0.07295002  0.98128204  0.32362817  1
  O  O490  1  0.07340930  0.98129412  0.57375104  1
  O  O491  1  0.07286020  0.98150202  0.82482218  1
  O  O492  1  0.57415473  0.31368547  0.07524470  1
  O  O493  1  0.57292700  0.31524573  0.32431628  1
  O  O494  1  0.57362067  0.31586685  0.57382691  1
  O  O495  1  0.57320295  0.31599425  0.82398784  1
  O  O496  1  0.57174156  0.64689435  0.07308661  1
  O  O497  1  0.57257247  0.64772877  0.32427768  1
  O  O498  1  0.57154279  0.64799466  0.57354162  1
  O  O499  1  0.57380025  0.64722180  0.82557668  1
  O  O500  1  0.57324541  0.97812077  0.07476339  1
  O  O501  1  0.57371075  0.97814585  0.32402716  1
  O  O502  1  0.57348063  0.98122442  0.57391010  1
  O  O503  1  0.57345650  0.97859020  0.82474092  1
  O  O504  1  0.42615301  0.01921697  0.17449609  1
  O  O505  1  0.42791054  0.01819991  0.42566278  1
  O  O506  1  0.42644957  0.02056275  0.67435374  1
  O  O507  1  0.42616492  0.01983384  0.92416294  1
  O  O508  1  0.42700697  0.35240436  0.17604886  1
  O  O509  1  0.42767655  0.35351270  0.42683830  1
  O  O510  1  0.42681245  0.35328805  0.67529838  1
  O  O511  1  0.42667164  0.35485911  0.92584355  1
  O  O512  1  0.42752114  0.68588734  0.17645874  1
  O  O513  1  0.42603815  0.68560042  0.42604671  1
  O  O514  1  0.42667876  0.68821070  0.67583655  1
  O  O515  1  0.42862853  0.68650894  0.92707861  1
  O  O516  1  0.92706389  0.01810011  0.17543044  1
  O  O517  1  0.92795460  0.01935350  0.42695623  1
  O  O518  1  0.92691279  0.01886562  0.67573748  1
  O  O519  1  0.92628278  0.02122809  0.92516543  1
  O  O520  1  0.92586388  0.35256845  0.17476024  1
  O  O521  1  0.92587911  0.35239676  0.42536512  1
  O  O522  1  0.92789603  0.35240850  0.67670405  1
  O  O523  1  0.92716279  0.35198668  0.92513063  1
  O  O524  1  0.92625919  0.68645732  0.17409754  1
  O  O525  1  0.92649474  0.68523678  0.42677629  1
  O  O526  1  0.92551042  0.68697126  0.67523399  1
  O  O527  1  0.92820519  0.68633845  0.92616087  1
  O  O528  1  0.17758086  0.01998673  0.19852907  1
  O  O529  1  0.17769690  0.02014364  0.44754594  1
  O  O530  1  0.17692761  0.01883154  0.69839724  1
  O  O531  1  0.17657359  0.01884739  0.94926196  1
  O  O532  1  0.17649056  0.35126234  0.19988183  1
  O  O533  1  0.17779721  0.35316818  0.44933024  1
  O  O534  1  0.17727672  0.35451917  0.69917461  1
  O  O535  1  0.17622922  0.35271040  0.94966006  1
  O  O536  1  0.17615531  0.68638704  0.20109031  1
  O  O537  1  0.17591285  0.68678577  0.45129231  1
  O  O538  1  0.17689498  0.68586465  0.69916719  1
  O  O539  1  0.17723053  0.68560363  0.94933894  1
  O  O540  1  0.67614872  0.01955314  0.20072949  1
  O  O541  1  0.67732098  0.02074121  0.45039154  1
  O  O542  1  0.67613970  0.02200958  0.69915360  1
  O  O543  1  0.67675130  0.01894606  0.94822370  1
  O  O544  1  0.67729725  0.35176970  0.19939130  1
  O  O545  1  0.67732002  0.35434764  0.45048760  1
  O  O546  1  0.67700414  0.35545366  0.69972614  1
  O  O547  1  0.67729758  0.35375781  0.94791481  1
  O  O548  1  0.67678264  0.68380761  0.19873380  1
  O  O549  1  0.67667556  0.68454995  0.45001355  1
  O  O550  1  0.67795813  0.68643341  0.69807861  1
  O  O551  1  0.67738043  0.68483816  0.94829087  1
  O  O552  1  0.32240107  0.31322569  0.05196757  1
  O  O553  1  0.32254465  0.31318525  0.30147133  1
  O  O554  1  0.32404213  0.31359780  0.54870872  1
  O  O555  1  0.32404070  0.31351971  0.79969348  1
  O  O556  1  0.32387927  0.64675101  0.05091430  1
  O  O557  1  0.32312812  0.64535124  0.30115709  1
  O  O558  1  0.32172711  0.64717482  0.55134004  1
  O  O559  1  0.32345947  0.64837992  0.80086634  1
  O  O560  1  0.32335874  0.98119101  0.05097069  1
  O  O561  1  0.32337655  0.98157319  0.30051421  1
  O  O562  1  0.32316754  0.98191556  0.55064370  1
  O  O563  1  0.32326939  0.98152962  0.80100233  1
  O  O564  1  0.82262567  0.31510406  0.05092373  1
  O  O565  1  0.82358788  0.31218419  0.30089135  1
  O  O566  1  0.82360918  0.31249459  0.54981145  1
  O  O567  1  0.82296813  0.31566686  0.80034732  1
  O  O568  1  0.82285132  0.64746970  0.05062644  1
  O  O569  1  0.82236058  0.64598766  0.30206548  1
  O  O570  1  0.82106077  0.64667836  0.55228355  1
  O  O571  1  0.82293245  0.64734873  0.80090300  1
  O  O572  1  0.82371207  0.97967526  0.04951001  1
  O  O573  1  0.82425954  0.97879230  0.29990372  1
  O  O574  1  0.82314523  0.97884422  0.54992363  1
  O  O575  1  0.82228884  0.98203374  0.79982207  1
  O  O576  1  0.42591136  0.14627321  0.17492515  1
  O  O577  1  0.42710845  0.14565556  0.42477500  1
  O  O578  1  0.42654894  0.14746973  0.67322111  1
  O  O579  1  0.42623043  0.14703569  0.92472125  1
  O  O580  1  0.42628483  0.47948959  0.17631484  1
  O  O581  1  0.42845478  0.48088173  0.42689639  1
  O  O582  1  0.42728477  0.48031151  0.67483142  1
  O  O583  1  0.42660192  0.48197271  0.92586411  1
  O  O584  1  0.42766454  0.81316074  0.17666056  1
  O  O585  1  0.42623878  0.81247757  0.42493313  1
  O  O586  1  0.42729554  0.81540608  0.67561584  1
  O  O587  1  0.42752085  0.81376695  0.92710342  1
  O  O588  1  0.92652715  0.14523004  0.17567735  1
  O  O589  1  0.92822456  0.14669993  0.42677442  1
  O  O590  1  0.92717239  0.14577761  0.67511098  1
  O  O591  1  0.92686200  0.14833616  0.92521389  1
  O  O592  1  0.92597456  0.47964752  0.17391395  1
  O  O593  1  0.92537630  0.47931781  0.42558893  1
  O  O594  1  0.92813992  0.48005973  0.67743698  1
  O  O595  1  0.92687582  0.47893592  0.92463119  1
  O  O596  1  0.92570127  0.81318454  0.17426563  1
  O  O597  1  0.92607249  0.81262365  0.42575183  1
  O  O598  1  0.92618766  0.81382841  0.67427504  1
  O  O599  1  0.92785668  0.81408833  0.92624815  1
  O  O600  1  0.07178153  0.18543910  0.07291688  1
  O  O601  1  0.07426051  0.18571259  0.32464824  1
  O  O602  1  0.07381950  0.18506669  0.57437980  1
  O  O603  1  0.07356419  0.18735633  0.82501770  1
  O  O604  1  0.07366722  0.52048604  0.07457238  1
  O  O605  1  0.07320649  0.51966246  0.32569276  1
  O  O606  1  0.07275651  0.52045972  0.57491170  1
  O  O607  1  0.07273335  0.51878020  0.82472430  1
  O  O608  1  0.07339784  0.85206491  0.07409394  1
  O  O609  1  0.07272518  0.85407376  0.32533525  1
  O  O610  1  0.07326780  0.85427033  0.57532936  1
  O  O611  1  0.07305438  0.85424485  0.82442182  1
  O  O612  1  0.57367656  0.18680786  0.07557151  1
  O  O613  1  0.57267374  0.18792729  0.32552794  1
  O  O614  1  0.57373771  0.18877754  0.57482646  1
  O  O615  1  0.57341370  0.18860649  0.82390593  1
  O  O616  1  0.57235639  0.51944639  0.07412329  1
  O  O617  1  0.57264570  0.52088749  0.32541420  1
  O  O618  1  0.57103454  0.52043340  0.57309418  1
  O  O619  1  0.57383761  0.52059278  0.82514848  1
  O  O620  1  0.57374327  0.85092944  0.07410612  1
  O  O621  1  0.57339560  0.85094246  0.32465613  1
  O  O622  1  0.57357697  0.85405709  0.57397846  1
  O  O623  1  0.57339220  0.85144965  0.82321281  1
  O  O624  1  0.32140506  0.18577314  0.05239532  1
  O  O625  1  0.32182648  0.18601931  0.30117541  1
  O  O626  1  0.32408053  0.18681091  0.54840354  1
  O  O627  1  0.32445697  0.18644985  0.79948572  1
  O  O628  1  0.32405036  0.51979785  0.04972796  1
  O  O629  1  0.32346057  0.51802037  0.30185021  1
  O  O630  1  0.32246686  0.51970465  0.55205320  1
  O  O631  1  0.32326577  0.52131206  0.80019869  1
  O  O632  1  0.32285501  0.85406157  0.05035063  1
  O  O633  1  0.32285243  0.85442767  0.30015079  1
  O  O634  1  0.32348321  0.85480027  0.54992244  1
  O  O635  1  0.32333309  0.85439425  0.79999479  1
  O  O636  1  0.82242446  0.18787393  0.04922373  1
  O  O637  1  0.82339758  0.18505115  0.30060018  1
  O  O638  1  0.82307028  0.18531887  0.55171533  1
  O  O639  1  0.82349230  0.18853093  0.80030734  1
  O  O640  1  0.82325871  0.52056731  0.04979610  1
  O  O641  1  0.82182034  0.51861080  0.30147465  1
  O  O642  1  0.82247518  0.51961667  0.55194787  1
  O  O643  1  0.82189692  0.52011332  0.80212366  1
  O  O644  1  0.82379147  0.85269059  0.04835073  1
  O  O645  1  0.82422423  0.85172366  0.29970174  1
  O  O646  1  0.82277704  0.85152106  0.55095028  1
  O  O647  1  0.82366645  0.85481751  0.79964361  1
  O  O648  1  0.17820623  0.14722578  0.19815730  1
  O  O649  1  0.17883844  0.14749572  0.44751024  1
  O  O650  1  0.17708812  0.14597282  0.69946254  1
  O  O651  1  0.17714172  0.14589648  0.94958813  1
  O  O652  1  0.17678840  0.47826516  0.20041106  1
  O  O653  1  0.17759278  0.48056167  0.44833920  1
  O  O654  1  0.17697272  0.48178680  0.69904636  1
  O  O655  1  0.17594057  0.47965537  0.95099155  1
  O  O656  1  0.17558065  0.81351341  0.20060907  1
  O  O657  1  0.17592107  0.81374349  0.45156650  1
  O  O658  1  0.17679809  0.81297638  0.70055284  1
  O  O659  1  0.17694974  0.81282057  0.94956423  1
  O  O660  1  0.67546647  0.14650294  0.19998164  1
  O  O661  1  0.67685550  0.14799653  0.44896999  1
  O  O662  1  0.67706264  0.14920556  0.69958004  1
  O  O663  1  0.67604933  0.14631357  0.94935545  1
  O  O664  1  0.67635921  0.47893530  0.19962902  1
  O  O665  1  0.67678723  0.48145284  0.44913166  1
  O  O666  1  0.67692547  0.48236059  0.69987042  1
  O  O667  1  0.67867896  0.48113658  0.94850744  1
  O  O668  1  0.67714412  0.81097449  0.19971352  1
  O  O669  1  0.67684473  0.81149910  0.44975870  1
  O  O670  1  0.67769452  0.81383676  0.69854504  1
  O  O671  1  0.67713412  0.81183614  0.94943639  1
