# generated using pymatgen
data_Na2MnFe(PO4)2
_symmetry_space_group_name_H-M   'P 1'
_cell_length_a   22.34531736
_cell_length_b   20.09834957
_cell_length_c   19.44728983
_cell_angle_alpha   90.02735627
_cell_angle_beta   90.01683279
_cell_angle_gamma   89.98672547
_symmetry_Int_Tables_number   1
_chemical_formula_structural   Na2MnFe(PO4)2
_chemical_formula_sum   'Na96 Mn48 Fe48 P96 O384'
_cell_volume   8733.85403542
_cell_formula_units_Z   48
loop_
 _symmetry_equiv_pos_site_id
 _symmetry_equiv_pos_as_xyz
  1  'x, y, z'
loop_
 _atom_site_type_symbol
 _atom_site_label
 _atom_site_symmetry_multiplicity
 _atom_site_fract_x
 _atom_site_fract_y
 _atom_site_fract_z
 _atom_site_occupancy
  Na  Na0  1  0.14010980  0.25086523  0.24335062  1
  Na  Na1  1  0.14027252  0.25194025  0.49349675  1
  Na  Na2  1  0.14042974  0.25041791  0.74359174  1
  Na  Na3  1  0.14062876  0.24921321  0.99521382  1
  Na  Na4  1  0.14084012  0.58418232  0.24539916  1
  Na  Na5  1  0.14125434  0.58423572  0.49256195  1
  Na  Na6  1  0.14096067  0.58357905  0.74263293  1
  Na  Na7  1  0.14074478  0.58198514  0.99452822  1
  Na  Na8  1  0.14071526  0.91680956  0.24322163  1
  Na  Na9  1  0.14085687  0.91566899  0.49442145  1
  Na  Na10  1  0.14008979  0.91597878  0.74309714  1
  Na  Na11  1  0.13998662  0.91712364  0.99443062  1
  Na  Na12  1  0.63969977  0.24921289  0.24220831  1
  Na  Na13  1  0.63964627  0.24938899  0.49276332  1
  Na  Na14  1  0.63984771  0.25028888  0.74477126  1
  Na  Na15  1  0.63970616  0.25014526  0.99423182  1
  Na  Na16  1  0.64030535  0.58229397  0.24188474  1
  Na  Na17  1  0.64032897  0.58308234  0.49375281  1
  Na  Na18  1  0.64023875  0.58420564  0.74510279  1
  Na  Na19  1  0.64028712  0.58289780  0.99319263  1
  Na  Na20  1  0.64002383  0.91643552  0.24272921  1
  Na  Na21  1  0.64032332  0.91617473  0.49381196  1
  Na  Na22  1  0.63904801  0.91630304  0.74379844  1
  Na  Na23  1  0.63949754  0.91595289  0.99278737  1
  Na  Na24  1  0.35987209  0.08224163  0.00833016  1
  Na  Na25  1  0.35997297  0.08341720  0.25637729  1
  Na  Na26  1  0.35950868  0.08393951  0.50629600  1
  Na  Na27  1  0.36015281  0.08408203  0.75785340  1
  Na  Na28  1  0.36016378  0.41516381  0.00736488  1
  Na  Na29  1  0.36025043  0.41764888  0.25721566  1
  Na  Na30  1  0.36041198  0.41753461  0.50590755  1
  Na  Na31  1  0.35996275  0.41677490  0.75677137  1
  Na  Na32  1  0.35997949  0.74946272  0.00756818  1
  Na  Na33  1  0.35929926  0.74982574  0.25550282  1
  Na  Na34  1  0.35979517  0.75031032  0.50573220  1
  Na  Na35  1  0.36005831  0.75020355  0.75624206  1
  Na  Na36  1  0.85970482  0.08353692  0.00616542  1
  Na  Na37  1  0.85893609  0.08303674  0.25606416  1
  Na  Na38  1  0.85905246  0.08238982  0.50537881  1
  Na  Na39  1  0.85976682  0.08341448  0.75701571  1
  Na  Na40  1  0.85928450  0.41709035  0.00668208  1
  Na  Na41  1  0.85956881  0.41630256  0.25663589  1
  Na  Na42  1  0.85998578  0.41661643  0.50560253  1
  Na  Na43  1  0.85984639  0.41763426  0.75541185  1
  Na  Na44  1  0.85918637  0.75045032  0.00604154  1
  Na  Na45  1  0.85925112  0.75038860  0.25590367  1
  Na  Na46  1  0.85968117  0.74947124  0.50535210  1
  Na  Na47  1  0.85961260  0.75096406  0.75582329  1
  Na  Na48  1  0.10986020  0.08401938  0.11946862  1
  Na  Na49  1  0.10951777  0.08371606  0.36807728  1
  Na  Na50  1  0.10926849  0.08417082  0.62010280  1
  Na  Na51  1  0.10943985  0.08209885  0.86946242  1
  Na  Na52  1  0.11015293  0.41671259  0.11968869  1
  Na  Na53  1  0.11019794  0.41639154  0.36890734  1
  Na  Na54  1  0.10980254  0.41723634  0.61736022  1
  Na  Na55  1  0.11000579  0.41541091  0.86863129  1
  Na  Na56  1  0.10961698  0.75195539  0.11939049  1
  Na  Na57  1  0.11044502  0.74958363  0.36917143  1
  Na  Na58  1  0.11054427  0.75009058  0.61765019  1
  Na  Na59  1  0.10989676  0.75083077  0.86841784  1
  Na  Na60  1  0.60909596  0.08250601  0.11869074  1
  Na  Na61  1  0.60951805  0.08381199  0.36705483  1
  Na  Na62  1  0.60893346  0.08444581  0.61945151  1
  Na  Na63  1  0.60848811  0.08237731  0.86972191  1
  Na  Na64  1  0.60962195  0.41578738  0.11727373  1
  Na  Na65  1  0.60921564  0.41520087  0.36713058  1
  Na  Na66  1  0.60945526  0.41706906  0.61980943  1
  Na  Na67  1  0.60970178  0.41541219  0.87009998  1
  Na  Na68  1  0.60912333  0.74910731  0.11663223  1
  Na  Na69  1  0.60963892  0.74897172  0.36747321  1
  Na  Na70  1  0.60974484  0.75111799  0.61964915  1
  Na  Na71  1  0.60969700  0.74999818  0.86849373  1
  Na  Na72  1  0.39074670  0.24947117  0.13222747  1
  Na  Na73  1  0.39018818  0.25059508  0.38060080  1
  Na  Na74  1  0.39058029  0.25128885  0.63200710  1
  Na  Na75  1  0.39065704  0.24947362  0.88279877  1
  Na  Na76  1  0.39043760  0.58178206  0.13163928  1
  Na  Na77  1  0.39058193  0.58228774  0.38147362  1
  Na  Na78  1  0.39051888  0.58448369  0.63143580  1
  Na  Na79  1  0.39100210  0.58238822  0.88232587  1
  Na  Na80  1  0.39001840  0.91681010  0.13175682  1
  Na  Na81  1  0.39021390  0.91688117  0.38033333  1
  Na  Na82  1  0.39064227  0.91744496  0.63230506  1
  Na  Na83  1  0.39094557  0.91615718  0.88207647  1
  Na  Na84  1  0.89025149  0.25057478  0.13163596  1
  Na  Na85  1  0.89026305  0.25015063  0.38028957  1
  Na  Na86  1  0.89023779  0.25016827  0.63056060  1
  Na  Na87  1  0.89035461  0.24919558  0.88111853  1
  Na  Na88  1  0.88975242  0.58385543  0.13218130  1
  Na  Na89  1  0.89009149  0.58309548  0.38112054  1
  Na  Na90  1  0.89106375  0.58453894  0.62979096  1
  Na  Na91  1  0.89049679  0.58415765  0.88137819  1
  Na  Na92  1  0.88994505  0.91855524  0.13107563  1
  Na  Na93  1  0.88999914  0.91605842  0.38072056  1
  Na  Na94  1  0.89016764  0.91673065  0.63136301  1
  Na  Na95  1  0.89014371  0.91647785  0.88005057  1
  Mn  Mn96  1  0.25048513  0.50046969  0.62453773  1
  Mn  Mn97  1  0.00057674  0.50039767  0.74891593  1
  Mn  Mn98  1  0.74917205  -0.00051954  0.87490675  1
  Mn  Mn99  1  0.25033939  0.16824658  0.62607434  1
  Mn  Mn100  1  0.00001262  0.00038873  0.25029456  1
  Mn  Mn101  1  0.25019956  0.83288554  0.87532173  1
  Mn  Mn102  1  0.50015144  0.66663475  0.75115571  1
  Mn  Mn103  1  0.74993394  0.16636697  0.62481014  1
  Mn  Mn104  1  0.00068492  0.83305999  0.50057835  1
  Mn  Mn105  1  0.49984600  0.33312261  0.75105126  1
  Mn  Mn106  1  0.74966964  0.16621952  0.12472198  1
  Mn  Mn107  1  0.74943433  0.83317335  0.12484800  1
  Mn  Mn108  1  -0.00044021  0.83500859  -0.00082390  1
  Mn  Mn109  1  -0.00082758  0.33280771  0.74925644  1
  Mn  Mn110  1  0.25006429  -0.00034502  0.62532972  1
  Mn  Mn111  1  0.74931049  0.50031191  0.37410494  1
  Mn  Mn112  1  0.00019209  0.66761738  0.00030812  1
  Mn  Mn113  1  0.25053365  0.49852349  0.87394865  1
  Mn  Mn114  1  -0.00016422  0.49997383  0.00033907  1
  Mn  Mn115  1  0.24972362  0.16708179  0.87582059  1
  Mn  Mn116  1  0.00027892  0.33290760  -0.00040683  1
  Mn  Mn117  1  0.24971381  -0.00063760  0.37572966  1
  Mn  Mn118  1  0.50035444  0.83424739  0.49949071  1
  Mn  Mn119  1  0.49992427  0.00109017  0.50038751  1
  Mn  Mn120  1  0.49944298  0.83368143  0.24875353  1
  Mn  Mn121  1  0.00048977  0.49960074  0.25092982  1
  Mn  Mn122  1  0.49920627  0.16771240  0.49931246  1
  Mn  Mn123  1  0.00040863  0.66748173  0.25051999  1
  Mn  Mn124  1  0.75002931  0.50072304  0.62546362  1
  Mn  Mn125  1  0.74935435  0.16766344  0.87596369  1
  Mn  Mn126  1  0.00118297  0.66736396  0.74988648  1
  Mn  Mn127  1  0.75013506  0.50036697  0.87544903  1
  Mn  Mn128  1  0.75023675  0.66777036  0.62457110  1
  Mn  Mn129  1  -0.00073124  0.16731400  0.49974800  1
  Mn  Mn130  1  0.74915400  0.33240450  0.37472345  1
  Mn  Mn131  1  0.74968750  0.33334059  0.62436484  1
  Mn  Mn132  1  0.49953563  0.66537632  0.24863737  1
  Mn  Mn133  1  0.00022819  0.00011291  0.49988280  1
  Mn  Mn134  1  0.25016759  0.33359625  0.12555485  1
  Mn  Mn135  1  0.74931586  -0.00094689  0.62515062  1
  Mn  Mn136  1  0.24929765  0.16769755  0.37591077  1
  Mn  Mn137  1  0.50101180  0.49923979  0.50018097  1
  Mn  Mn138  1  0.50052610  0.66689647  0.50031661  1
  Mn  Mn139  1  0.00024090  0.16588880  0.00046828  1
  Mn  Mn140  1  0.25016448  0.66611817  0.87540300  1
  Mn  Mn141  1  0.24979037  0.66600568  0.12559263  1
  Mn  Mn142  1  0.74936504  0.83271672  0.37396791  1
  Mn  Mn143  1  0.25023698  -0.00037917  0.87590339  1
  Fe  Fe144  1  0.25025738  0.33296541  0.87578347  1
  Fe  Fe145  1  0.49983976  0.16640657  0.75134850  1
  Fe  Fe146  1  0.49964391  0.83328794  -0.00013201  1
  Fe  Fe147  1  0.25061827  0.83322891  0.37489616  1
  Fe  Fe148  1  0.49945748  0.16588594  0.00072509  1
  Fe  Fe149  1  0.74969056  0.83300978  0.62444772  1
  Fe  Fe150  1  0.49962745  0.49878845  0.00064455  1
  Fe  Fe151  1  0.25111552  0.83284041  0.62442795  1
  Fe  Fe152  1  -0.00042391  0.16721697  0.24979170  1
  Fe  Fe153  1  0.00049309  0.33321619  0.49968839  1
  Fe  Fe154  1  0.74980418  -0.00075373  0.37481761  1
  Fe  Fe155  1  -0.00010579  0.33352235  0.25035406  1
  Fe  Fe156  1  0.49982328  0.16662698  0.24931131  1
  Fe  Fe157  1  0.25068089  0.50091568  0.37559409  1
  Fe  Fe158  1  -0.00006706  0.66708792  0.49970312  1
  Fe  Fe159  1  0.74963574  0.66644412  0.37440573  1
  Fe  Fe160  1  0.75044516  0.33293976  0.12505893  1
  Fe  Fe161  1  0.74946973  0.66675112  0.12443988  1
  Fe  Fe162  1  0.49998878  0.66569975  -0.00047948  1
  Fe  Fe163  1  0.25070250  0.66753769  0.37463067  1
  Fe  Fe164  1  0.49988597  0.33281040  0.24920335  1
  Fe  Fe165  1  0.49945787  -0.00028234  -0.00017834  1
  Fe  Fe166  1  0.74963910  0.16556574  0.37380872  1
  Fe  Fe167  1  0.25042331  0.33435771  0.37453332  1
  Fe  Fe168  1  0.49979355  0.83348321  0.75082497  1
  Fe  Fe169  1  0.24985209  -0.00029325  0.12600313  1
  Fe  Fe170  1  0.00014227  0.16640607  0.74993066  1
  Fe  Fe171  1  0.50007851  0.33324969  0.49978864  1
  Fe  Fe172  1  0.49979185  0.33251578  0.00042560  1
  Fe  Fe173  1  0.50063565  0.49906731  0.24929875  1
  Fe  Fe174  1  0.25094351  0.66718305  0.62386846  1
  Fe  Fe175  1  0.75042490  0.66700225  0.87510179  1
  Fe  Fe176  1  0.24952551  0.83301687  0.12580281  1
  Fe  Fe177  1  0.75011613  0.49998554  0.12441796  1
  Fe  Fe178  1  0.50004828  0.00003511  0.24920298  1
  Fe  Fe179  1  -0.00009419  0.83368962  0.74964090  1
  Fe  Fe180  1  0.50026638  0.49961853  0.75106966  1
  Fe  Fe181  1  0.75031614  0.33391057  0.87523380  1
  Fe  Fe182  1  0.00022757  0.49995431  0.49947819  1
  Fe  Fe183  1  0.25030982  0.33435435  0.62454017  1
  Fe  Fe184  1  -0.00001561  0.83392699  0.25007628  1
  Fe  Fe185  1  0.74940240  -0.00038195  0.12480319  1
  Fe  Fe186  1  0.25030349  0.49980123  0.12591216  1
  Fe  Fe187  1  -0.00028345  0.00003732  -0.00046926  1
  Fe  Fe188  1  0.49960123  0.00022785  0.75090965  1
  Fe  Fe189  1  -0.00025920  0.00001762  0.74991263  1
  Fe  Fe190  1  0.25051486  0.16669439  0.12562201  1
  Fe  Fe191  1  0.74974213  0.83333767  0.87510297  1
  P  P192  1  0.04260411  0.25016506  0.10420818  1
  P  P193  1  0.04148857  0.25040957  0.35172669  1
  P  P194  1  0.04228431  0.25092013  0.60245984  1
  P  P195  1  0.04233764  0.24835803  0.85215230  1
  P  P196  1  0.04283990  0.58380130  0.10368112  1
  P  P197  1  0.04252168  0.58338835  0.35454910  1
  P  P198  1  0.04218126  0.58378516  0.60064711  1
  P  P199  1  0.04362461  0.58335242  0.85298752  1
  P  P200  1  0.04187637  0.91862218  0.10275352  1
  P  P201  1  0.04282208  0.91542114  0.35248539  1
  P  P202  1  0.04277880  0.91727087  0.60419457  1
  P  P203  1  0.04159454  0.91706796  0.85142616  1
  P  P204  1  0.54077617  0.24923802  0.10227980  1
  P  P205  1  0.54111526  0.25007122  0.35087818  1
  P  P206  1  0.54195141  0.25135955  0.60269534  1
  P  P207  1  0.54178456  0.24810785  0.85404839  1
  P  P208  1  0.54117805  0.58201335  0.10133338  1
  P  P209  1  0.54239108  0.58141639  0.35154532  1
  P  P210  1  0.54312812  0.58329303  0.60402861  1
  P  P211  1  0.54187692  0.58146748  0.85410867  1
  P  P212  1  0.54090929  0.91685124  0.10135094  1
  P  P213  1  0.54227990  0.91807846  0.35152352  1
  P  P214  1  0.54242684  0.91753005  0.60418075  1
  P  P215  1  0.54077888  0.91649866  0.85273590  1
  P  P216  1  0.45874887  0.08312341  0.14761634  1
  P  P217  1  0.45704688  0.08367460  0.39580658  1
  P  P218  1  0.45820046  0.08414432  0.64924895  1
  P  P219  1  0.45814067  0.08300886  0.89851583  1
  P  P220  1  0.45887255  0.41607529  0.14772662  1
  P  P221  1  0.45850602  0.41493872  0.39664998  1
  P  P222  1  0.45795513  0.41786347  0.64816206  1
  P  P223  1  0.45865737  0.41615240  0.89884009  1
  P  P224  1  0.45738709  0.74952799  0.14508053  1
  P  P225  1  0.45755432  0.74990744  0.39636213  1
  P  P226  1  0.45817958  0.75136876  0.64824903  1
  P  P227  1  0.45880648  0.74999567  0.89850248  1
  P  P228  1  0.95743483  0.08465602  0.14755375  1
  P  P229  1  0.95729780  0.08370516  0.39618872  1
  P  P230  1  0.95793390  0.08352159  0.64848987  1
  P  P231  1  0.95767228  0.08171729  0.89677917  1
  P  P232  1  0.95777251  0.41579749  0.14806227  1
  P  P233  1  0.95880013  0.41593274  0.39801087  1
  P  P234  1  0.95747999  0.41704466  0.64512796  1
  P  P235  1  0.95696203  0.41647179  0.89660095  1
  P  P236  1  0.95759943  0.75217000  0.14770504  1
  P  P237  1  0.95797514  0.74955344  0.39717086  1
  P  P238  1  0.95826814  0.75097721  0.64706953  1
  P  P239  1  0.95739892  0.75092011  0.89618663  1
  P  P240  1  0.20885508  0.08376686  0.22718449  1
  P  P241  1  0.20680068  0.08356469  0.47863288  1
  P  P242  1  0.20754130  0.08358416  0.72864474  1
  P  P243  1  0.20768275  0.08320098  0.97985686  1
  P  P244  1  0.20848843  0.41844344  0.22882392  1
  P  P245  1  0.20933867  0.41713604  0.47661503  1
  P  P246  1  0.20785978  0.41558219  0.72717465  1
  P  P247  1  0.20796380  0.41518082  0.97793009  1
  P  P248  1  0.20798047  0.75088115  0.22846058  1
  P  P249  1  0.20934860  0.75028887  0.47701949  1
  P  P250  1  0.20900844  0.74964649  0.72598530  1
  P  P251  1  0.20732910  0.74985266  0.97899780  1
  P  P252  1  0.70773677  0.08150410  0.22788896  1
  P  P253  1  0.70800246  0.08273680  0.47605738  1
  P  P254  1  0.70686420  0.08328114  0.72828450  1
  P  P255  1  0.70679789  0.08294596  0.97872492  1
  P  P256  1  0.70867228  0.41637046  0.22580890  1
  P  P257  1  0.70667978  0.41670183  0.47743804  1
  P  P258  1  0.70730527  0.41672790  0.72882850  1
  P  P259  1  0.70823482  0.41552223  0.97850784  1
  P  P260  1  0.70692300  0.74835814  0.22694172  1
  P  P261  1  0.70725906  0.74891208  0.47693511  1
  P  P262  1  0.70788791  0.75164127  0.72820605  1
  P  P263  1  0.70843395  0.74953809  0.97677174  1
  P  P264  1  0.29260433  0.24875134  0.02315219  1
  P  P265  1  0.29173189  0.25117394  0.27241364  1
  P  P266  1  0.29239145  0.25233293  0.52229714  1
  P  P267  1  0.29257208  0.25182123  0.77295700  1
  P  P268  1  0.29239808  0.58118756  0.02304592  1
  P  P269  1  0.29176756  0.58359131  0.27343739  1
  P  P270  1  0.29269999  0.58498792  0.52134194  1
  P  P271  1  0.29332264  0.58355950  0.77133022  1
  P  P272  1  0.29095962  0.91615572  0.02442637  1
  P  P273  1  0.29188394  0.91552585  0.27191841  1
  P  P274  1  0.29283389  0.91522344  0.52233528  1
  P  P275  1  0.29294320  0.91603068  0.77184523  1
  P  P276  1  0.79216800  0.25140647  0.02240330  1
  P  P277  1  0.79138481  0.24866389  0.27173345  1
  P  P278  1  0.79227048  0.24905918  0.52072122  1
  P  P279  1  0.79216616  0.25146291  0.77279463  1
  P  P280  1  0.79125654  0.58395355  0.02303207  1
  P  P281  1  0.79187116  0.58470812  0.27128629  1
  P  P282  1  0.79269560  0.58376280  0.52116067  1
  P  P283  1  0.79261502  0.58517103  0.77277975  1
  P  P284  1  0.79151518  0.91723023  0.02212335  1
  P  P285  1  0.79177939  0.91765915  0.27187557  1
  P  P286  1  0.79203818  0.91523237  0.52187753  1
  P  P287  1  0.79149211  0.91499912  0.77212575  1
  O  O288  1  0.03707894  0.25042996  0.18411667  1
  O  O289  1  0.03649087  0.25081872  0.43172102  1
  O  O290  1  0.03697927  0.25019164  0.68235605  1
  O  O291  1  0.03732712  0.24862303  0.93215045  1
  O  O292  1  0.03780444  0.58377416  0.18369657  1
  O  O293  1  0.03700215  0.58342718  0.43443499  1
  O  O294  1  0.03767496  0.58377499  0.68073866  1
  O  O295  1  0.03842567  0.58348943  0.93297835  1
  O  O296  1  0.03681217  0.91771110  0.18267798  1
  O  O297  1  0.03801705  0.91574380  0.43248297  1
  O  O298  1  0.03730149  0.91716183  0.68410166  1
  O  O299  1  0.03650587  0.91768930  0.93144934  1
  O  O300  1  0.53570779  0.24996112  0.18216769  1
  O  O301  1  0.53659242  0.25039377  0.43086358  1
  O  O302  1  0.53686775  0.25073264  0.68259992  1
  O  O303  1  0.53626198  0.24802287  0.93387611  1
  O  O304  1  0.53652993  0.58191966  0.18134442  1
  O  O305  1  0.53760072  0.58184851  0.43154075  1
  O  O306  1  0.53781765  0.58306784  0.68398559  1
  O  O307  1  0.53603461  0.58152372  0.93394946  1
  O  O308  1  0.53615005  0.91748343  0.18131275  1
  O  O309  1  0.53739962  0.91796057  0.43152841  1
  O  O310  1  0.53693596  0.91738463  0.68409318  1
  O  O311  1  0.53543777  0.91610622  0.93262586  1
  O  O312  1  0.46355567  0.08351864  0.06772797  1
  O  O313  1  0.46220536  0.08327857  0.31591636  1
  O  O314  1  0.46297978  0.08442148  0.56921217  1
  O  O315  1  0.46332096  0.08266055  0.81863982  1
  O  O316  1  0.46376687  0.41628190  0.06782316  1
  O  O317  1  0.46386060  0.41506076  0.31676106  1
  O  O318  1  0.46327560  0.41714999  0.56825575  1
  O  O319  1  0.46360765  0.41647916  0.81891775  1
  O  O320  1  0.46291011  0.74955987  0.06520251  1
  O  O321  1  0.46238497  0.74965888  0.31633927  1
  O  O322  1  0.46346420  0.75112394  0.56828979  1
  O  O323  1  0.46372588  0.75035064  0.81850147  1
  O  O324  1  0.96253276  0.08382111  0.06762512  1
  O  O325  1  0.96260741  0.08420714  0.31627495  1
  O  O326  1  0.96287151  0.08360096  0.56846222  1
  O  O327  1  0.96295809  0.08192640  0.81690065  1
  O  O328  1  0.96265986  0.41607510  0.06808058  1
  O  O329  1  0.96389598  0.41550950  0.31800939  1
  O  O330  1  0.96305999  0.41706537  0.56520562  1
  O  O331  1  0.96180910  0.41652116  0.81658401  1
  O  O332  1  0.96265203  0.75202164  0.06770972  1
  O  O333  1  0.96320986  0.75039565  0.31723716  1
  O  O334  1  0.96338008  0.75001970  0.56708373  1
  O  O335  1  0.96283425  0.75117883  0.81625806  1
  O  O336  1  0.21318010  0.08346414  0.05978130  1
  O  O337  1  0.21326197  0.08351247  0.30721664  1
  O  O338  1  0.21217913  0.08377744  0.55855015  1
  O  O339  1  0.21269256  0.08350665  0.80863811  1
  O  O340  1  0.21306726  0.41596842  0.05787964  1
  O  O341  1  0.21405610  0.41817618  0.30866638  1
  O  O342  1  0.21386890  0.41714923  0.55661534  1
  O  O343  1  0.21299966  0.41514929  0.80714611  1
  O  O344  1  0.21231625  0.75030920  0.05895833  1
  O  O345  1  0.21385079  0.75078467  0.30829565  1
  O  O346  1  0.21491145  0.75030810  0.55692446  1
  O  O347  1  0.21363786  0.74954117  0.80605117  1
  O  O348  1  0.71206590  0.08243958  0.05868461  1
  O  O349  1  0.71341474  0.08171180  0.30778313  1
  O  O350  1  0.71298005  0.08291194  0.55609869  1
  O  O351  1  0.71178106  0.08352376  0.80826050  1
  O  O352  1  0.71383414  0.41564978  0.05838383  1
  O  O353  1  0.71291412  0.41679921  0.30584590  1
  O  O354  1  0.71177832  0.41676733  0.55740040  1
  O  O355  1  0.71278007  0.41639566  0.80880028  1
  O  O356  1  0.71329352  0.74931055  0.05677427  1
  O  O357  1  0.71186536  0.74821712  0.30690534  1
  O  O358  1  0.71264885  0.75007778  0.55687342  1
  O  O359  1  0.71346826  0.75151965  0.80808708  1
  O  O360  1  0.28646933  0.25026442  0.19246559  1
  O  O361  1  0.28695970  0.25220919  0.44234046  1
  O  O362  1  0.28760559  0.25215982  0.69295388  1
  O  O363  1  0.28751332  0.24929232  0.94322486  1
  O  O364  1  0.28666143  0.58260592  0.19348154  1
  O  O365  1  0.28725350  0.58495373  0.44145756  1
  O  O366  1  0.28845712  0.58417440  0.69131188  1
  O  O367  1  0.28730706  0.58131818  0.94308112  1
  O  O368  1  0.28610796  0.91571484  0.19205392  1
  O  O369  1  0.28741564  0.91512159  0.44236044  1
  O  O370  1  0.28805971  0.91552127  0.69185721  1
  O  O371  1  0.28659753  0.91648050  0.94437354  1
  O  O372  1  0.78633044  0.24940896  0.19175883  1
  O  O373  1  0.78678194  0.24807250  0.44076987  1
  O  O374  1  0.78689020  0.25082402  0.69280522  1
  O  O375  1  0.78693167  0.25172490  0.94246221  1
  O  O376  1  0.78643943  0.58444057  0.19137968  1
  O  O377  1  0.78742929  0.58400132  0.44120544  1
  O  O378  1  0.78754297  0.58499786  0.69281349  1
  O  O379  1  0.78648090  0.58405472  0.94303638  1
  O  O380  1  0.78656764  0.91787077  0.19193137  1
  O  O381  1  0.78668324  0.91594145  0.44190223  1
  O  O382  1  0.78653367  0.91468660  0.69213589  1
  O  O383  1  0.78609470  0.91625896  0.94220328  1
  O  O384  1  0.22835015  0.24851257  0.05877921  1
  O  O385  1  0.22755468  0.25203248  0.30828484  1
  O  O386  1  0.22814563  0.25223706  0.55811288  1
  O  O387  1  0.22816599  0.25191967  0.80835950  1
  O  O388  1  0.22810030  0.58123719  0.05861064  1
  O  O389  1  0.22779538  0.58458024  0.30966605  1
  O  O390  1  0.22861677  0.58517220  0.55763138  1
  O  O391  1  0.22887923  0.58292592  0.80635155  1
  O  O392  1  0.22671046  0.91600811  0.05982741  1
  O  O393  1  0.22790149  0.91496431  0.30845375  1
  O  O394  1  0.22860761  0.91509172  0.55811599  1
  O  O395  1  0.22848792  0.91629442  0.80686892  1
  O  O396  1  0.72788930  0.25115704  0.05803301  1
  O  O397  1  0.72711219  0.24823285  0.30731201  1
  O  O398  1  0.72795149  0.24940596  0.55613212  1
  O  O399  1  0.72786039  0.25206542  0.80843124  1
  O  O400  1  0.72704709  0.58389834  0.05878918  1
  O  O401  1  0.72765822  0.58511038  0.30733285  1
  O  O402  1  0.72842934  0.58391198  0.55666233  1
  O  O403  1  0.72831123  0.58515372  0.80833185  1
  O  O404  1  0.72727470  0.91769906  0.05796355  1
  O  O405  1  0.72752868  0.91752946  0.30754493  1
  O  O406  1  0.72778417  0.91462786  0.55772728  1
  O  O407  1  0.72720205  0.91506510  0.80767999  1
  O  O408  1  0.27309096  0.08383060  0.19164713  1
  O  O409  1  0.27117307  0.08357078  0.44347852  1
  O  O410  1  0.27192436  0.08369926  0.69351847  1
  O  O411  1  0.27189490  0.08337418  0.94408086  1
  O  O412  1  0.27258369  0.41827861  0.19255073  1
  O  O413  1  0.27349577  0.41646200  0.44086082  1
  O  O414  1  0.27223306  0.41593536  0.69167478  1
  O  O415  1  0.27233962  0.41467557  0.94235526  1
  O  O416  1  0.27195648  0.75090096  0.19197326  1
  O  O417  1  0.27325247  0.75027887  0.44023443  1
  O  O418  1  0.27331943  0.74929329  0.69042924  1
  O  O419  1  0.27181444  0.74961748  0.94397045  1
  O  O420  1  0.77175046  0.08141705  0.19145384  1
  O  O421  1  0.77220224  0.08291396  0.44026288  1
  O  O422  1  0.77132182  0.08285275  0.69335576  1
  O  O423  1  0.77106391  0.08315767  0.94333357  1
  O  O424  1  0.77305299  0.41614965  0.19071432  1
  O  O425  1  0.77108137  0.41654163  0.44235903  1
  O  O426  1  0.77154060  0.41672314  0.69317644  1
  O  O427  1  0.77225848  0.41541538  0.94206975  1
  O  O428  1  0.77131417  0.74858941  0.19157537  1
  O  O429  1  0.77149891  0.74846789  0.44107055  1
  O  O430  1  0.77198109  0.75216541  0.69181790  1
  O  O431  1  0.77258859  0.74966503  0.94086035  1
  O  O432  1  0.02170759  0.08518864  0.18327422  1
  O  O433  1  0.02160129  0.08374714  0.43161670  1
  O  O434  1  0.02214127  0.08356172  0.68437481  1
  O  O435  1  0.02184714  0.08143098  0.93296175  1
  O  O436  1  0.02217297  0.41533469  0.18335519  1
  O  O437  1  0.02289466  0.41605921  0.43419482  1
  O  O438  1  0.02167080  0.41638377  0.68102096  1
  O  O439  1  0.02152960  0.41674171  0.93135687  1
  O  O440  1  0.02199132  0.75241975  0.18310381  1
  O  O441  1  0.02224419  0.74869223  0.43292755  1
  O  O442  1  0.02261086  0.75179858  0.68259938  1
  O  O443  1  0.02170941  0.75100980  0.93161699  1
  O  O444  1  0.52278638  0.08252379  0.18386999  1
  O  O445  1  0.52135072  0.08414824  0.43140520  1
  O  O446  1  0.52235610  0.08385043  0.68519495  1
  O  O447  1  0.52213239  0.08359420  0.93494458  1
  O  O448  1  0.52304007  0.41582102  0.18379165  1
  O  O449  1  0.52261832  0.41455566  0.43292173  1
  O  O450  1  0.52212409  0.41798458  0.68423920  1
  O  O451  1  0.52275756  0.41634083  0.93489006  1
  O  O452  1  0.52151227  0.74949748  0.18100572  1
  O  O453  1  0.52202160  0.75011025  0.43136307  1
  O  O454  1  0.52231994  0.75141796  0.68421190  1
  O  O455  1  0.52293533  0.75040950  0.93437943  1
  O  O456  1  0.47679635  0.24881421  0.06589245  1
  O  O457  1  0.47690472  0.25050933  0.31514835  1
  O  O458  1  0.47764441  0.25186313  0.56684741  1
  O  O459  1  0.47771016  0.24815979  0.81771670  1
  O  O460  1  0.47694697  0.58186224  0.06572083  1
  O  O461  1  0.47797902  0.58096143  0.31622638  1
  O  O462  1  0.47890589  0.58322545  0.56833210  1
  O  O463  1  0.47793448  0.58145275  0.81745928  1
  O  O464  1  0.47668785  0.91597241  0.06563425  1
  O  O465  1  0.47787307  0.91840106  0.31614482  1
  O  O466  1  0.47822642  0.91743667  0.56828310  1
  O  O467  1  0.47688288  0.91674927  0.81606255  1
  O  O468  1  0.97844175  0.24994473  0.06834089  1
  O  O469  1  0.97730065  0.25012853  0.31573056  1
  O  O470  1  0.97797647  0.25185914  0.56674885  1
  O  O471  1  0.97794003  0.24796152  0.81673679  1
  O  O472  1  0.97835832  0.58388102  0.06869163  1
  O  O473  1  0.97841960  0.58355212  0.31858812  1
  O  O474  1  0.97786548  0.58377791  0.56516420  1
  O  O475  1  0.97919326  0.58369192  0.81791832  1
  O  O476  1  0.97757189  0.91911362  0.06704179  1
  O  O477  1  0.97835423  0.91561138  0.31731696  1
  O  O478  1  0.97855223  0.91690083  0.56842730  1
  O  O479  1  0.97743785  0.91668896  0.81537393  1
  O  O480  1  0.07389674  0.31341357  0.07561947  1
  O  O481  1  0.07232982  0.31399418  0.32341876  1
  O  O482  1  0.07342022  0.31428519  0.57409185  1
  O  O483  1  0.07309145  0.31207135  0.82424656  1
  O  O484  1  0.07378582  0.64737877  0.07576283  1
  O  O485  1  0.07396289  0.64656599  0.32616830  1
  O  O486  1  0.07283663  0.64757754  0.57269136  1
  O  O487  1  0.07489456  0.64670585  0.82480324  1
  O  O488  1  0.07245899  0.98234750  0.07458224  1
  O  O489  1  0.07401131  0.97894786  0.32463624  1
  O  O490  1  0.07366857  0.98077660  0.57573729  1
  O  O491  1  0.07252825  0.98050221  0.82301949  1
  O  O492  1  0.57127670  0.31295733  0.07332234  1
  O  O493  1  0.57272338  0.31298539  0.32216012  1
  O  O494  1  0.57263889  0.31493834  0.57420929  1
  O  O495  1  0.57301050  0.31168791  0.82621936  1
  O  O496  1  0.57140950  0.64604262  0.07290118  1
  O  O497  1  0.57313613  0.64503686  0.32336703  1
  O  O498  1  0.57395164  0.64703180  0.57597889  1
  O  O499  1  0.57315609  0.64513257  0.82648234  1
  O  O500  1  0.57117500  0.98057888  0.07247225  1
  O  O501  1  0.57307488  0.98146695  0.32298099  1
  O  O502  1  0.57344957  0.98106319  0.57587210  1
  O  O503  1  0.57186810  0.98013072  0.82475260  1
  O  O504  1  0.42737395  0.01973989  0.17569335  1
  O  O505  1  0.42604869  0.02047550  0.42492473  1
  O  O506  1  0.42726007  0.02052092  0.67724509  1
  O  O507  1  0.42779239  0.01905742  0.92719278  1
  O  O508  1  0.42766566  0.35260968  0.17586638  1
  O  O509  1  0.42754072  0.35166852  0.42560022  1
  O  O510  1  0.42669092  0.35454863  0.67650035  1
  O  O511  1  0.42851251  0.35196864  0.92702435  1
  O  O512  1  0.42606884  0.68615005  0.17324893  1
  O  O513  1  0.42685154  0.68637033  0.42475652  1
  O  O514  1  0.42705444  0.68775601  0.67594703  1
  O  O515  1  0.42869404  0.68568427  0.92641144  1
  O  O516  1  0.92632283  0.02125036  0.17579447  1
  O  O517  1  0.92657097  0.01988971  0.42405421  1
  O  O518  1  0.92714656  0.01977641  0.67638321  1
  O  O519  1  0.92681065  0.01829753  0.92559416  1
  O  O520  1  0.92686686  0.35239992  0.17651414  1
  O  O521  1  0.92769847  0.35251526  0.42620931  1
  O  O522  1  0.92569116  0.35401905  0.67343822  1
  O  O523  1  0.92632242  0.35284133  0.92481418  1
  O  O524  1  0.92676252  0.68844431  0.17548275  1
  O  O525  1  0.92697371  0.68601493  0.42527683  1
  O  O526  1  0.92734459  0.68746224  0.67533768  1
  O  O527  1  0.92658267  0.68731836  0.92443488  1
  O  O528  1  0.17839952  0.01984467  0.19884794  1
  O  O529  1  0.17582239  0.02003322  0.45052289  1
  O  O530  1  0.17650697  0.02016592  0.70050894  1
  O  O531  1  0.17668621  0.01964942  0.95149994  1
  O  O532  1  0.17705054  0.35508013  0.20068006  1
  O  O533  1  0.17773592  0.35407999  0.44812964  1
  O  O534  1  0.17710150  0.35235426  0.69805411  1
  O  O535  1  0.17735908  0.35132030  0.94984115  1
  O  O536  1  0.17665893  0.68729368  0.20070929  1
  O  O537  1  0.17834453  0.68671787  0.44871376  1
  O  O538  1  0.17804137  0.68615527  0.69760268  1
  O  O539  1  0.17649863  0.68618459  0.95085112  1
  O  O540  1  0.67681699  0.01813642  0.19908375  1
  O  O541  1  0.67745425  0.01872460  0.44832452  1
  O  O542  1  0.67579279  0.01981674  0.70020346  1
  O  O543  1  0.67546184  0.01984336  0.95014974  1
  O  O544  1  0.67770935  0.35264272  0.19801079  1
  O  O545  1  0.67560149  0.35323968  0.44922281  1
  O  O546  1  0.67584544  0.35362201  0.70037016  1
  O  O547  1  0.67715750  0.35221424  0.94984770  1
  O  O548  1  0.67601528  0.68527226  0.19770462  1
  O  O549  1  0.67657906  0.68511377  0.44901982  1
  O  O550  1  0.67697829  0.68780107  0.70038225  1
  O  O551  1  0.67749505  0.68605124  0.94835937  1
  O  O552  1  0.32372167  0.31223313  0.05131043  1
  O  O553  1  0.32277860  0.31484709  0.30018883  1
  O  O554  1  0.32321358  0.31572799  0.55091548  1
  O  O555  1  0.32353959  0.31493338  0.80217851  1
  O  O556  1  0.32342808  0.64483035  0.05081494  1
  O  O557  1  0.32321638  0.64723404  0.30069980  1
  O  O558  1  0.32376513  0.64827327  0.55011511  1
  O  O559  1  0.32415037  0.64680753  0.80044401  1
  O  O560  1  0.32135545  0.98003220  0.05299877  1
  O  O561  1  0.32274148  0.97934701  0.29986435  1
  O  O562  1  0.32368630  0.97915838  0.54993945  1
  O  O563  1  0.32389382  0.97957386  0.80014818  1
  O  O564  1  0.82309432  0.31458138  0.05148515  1
  O  O565  1  0.82254201  0.31213248  0.29989390  1
  O  O566  1  0.82322652  0.31288171  0.54820958  1
  O  O567  1  0.82324996  0.31491988  0.80081580  1
  O  O568  1  0.82244035  0.64732246  0.05133899  1
  O  O569  1  0.82290434  0.64798040  0.30010641  1
  O  O570  1  0.82408312  0.64695413  0.54956371  1
  O  O571  1  0.82323217  0.64878732  0.80118996  1
  O  O572  1  0.82232901  0.98092142  0.05012185  1
  O  O573  1  0.82278064  0.98075648  0.30095989  1
  O  O574  1  0.82294332  0.97883405  0.55020141  1
  O  O575  1  0.82243875  0.97889856  0.79968199  1
  O  O576  1  0.42847196  0.14699897  0.17658510  1
  O  O577  1  0.42569860  0.14706526  0.42418476  1
  O  O578  1  0.42767123  0.14799819  0.67747238  1
  O  O579  1  0.42660927  0.14618270  0.92688385  1
  O  O580  1  0.42828974  0.47976243  0.17660748  1
  O  O581  1  0.42749168  0.47858528  0.42477219  1
  O  O582  1  0.42732788  0.48161431  0.67638212  1
  O  O583  1  0.42707246  0.47922025  0.92727218  1
  O  O584  1  0.42618072  0.81288809  0.17352655  1
  O  O585  1  0.42662391  0.81351054  0.42435399  1
  O  O586  1  0.42739956  0.81491448  0.67661334  1
  O  O587  1  0.42710509  0.81304112  0.92688096  1
  O  O588  1  0.92663915  0.14832161  0.17576002  1
  O  O589  1  0.92587447  0.14679546  0.42471013  1
  O  O590  1  0.92728507  0.14733635  0.67659262  1
  O  O591  1  0.92657702  0.14524619  0.92509819  1
  O  O592  1  0.92701877  0.47956788  0.17605896  1
  O  O593  1  0.92811141  0.47998027  0.42565335  1
  O  O594  1  0.92676065  0.48077578  0.67350079  1
  O  O595  1  0.92589252  0.47989066  0.92498899  1
  O  O596  1  0.92684202  0.81574541  0.17608500  1
  O  O597  1  0.92706025  0.81311223  0.42545029  1
  O  O598  1  0.92733451  0.81457601  0.67522810  1
  O  O599  1  0.92593462  0.81410727  0.92446496  1
  O  O600  1  0.07387033  0.18675982  0.07598380  1
  O  O601  1  0.07221799  0.18658333  0.32366036  1
  O  O602  1  0.07305327  0.18726647  0.57418693  1
  O  O603  1  0.07312388  0.18475786  0.82393439  1
  O  O604  1  0.07375757  0.52021488  0.07561131  1
  O  O605  1  0.07364487  0.51983760  0.32640949  1
  O  O606  1  0.07282899  0.51997104  0.57250685  1
  O  O607  1  0.07441797  0.51979364  0.82467746  1
  O  O608  1  0.07301213  0.85529127  0.07421614  1
  O  O609  1  0.07312105  0.85170731  0.32394260  1
  O  O610  1  0.07431436  0.85407735  0.57577323  1
  O  O611  1  0.07240243  0.85313237  0.82368566  1
  O  O612  1  0.57213919  0.18570955  0.07452311  1
  O  O613  1  0.57112274  0.18585846  0.32240562  1
  O  O614  1  0.57288400  0.18784792  0.57416171  1
  O  O615  1  0.57264479  0.18476544  0.82503141  1
  O  O616  1  0.57253043  0.51867976  0.07324397  1
  O  O617  1  0.57319554  0.51784529  0.32310783  1
  O  O618  1  0.57455695  0.52016134  0.57556748  1
  O  O619  1  0.57285986  0.51807494  0.82549193  1
  O  O620  1  0.57228091  0.85331629  0.07352320  1
  O  O621  1  0.57300865  0.85426135  0.32359062  1
  O  O622  1  0.57375091  0.85433122  0.57541874  1
  O  O623  1  0.57167047  0.85285380  0.82424943  1
  O  O624  1  0.32337959  0.18522027  0.05169060  1
  O  O625  1  0.32263019  0.18766843  0.30070720  1
  O  O626  1  0.32351215  0.18863948  0.55017807  1
  O  O627  1  0.32328695  0.18788166  0.80064960  1
  O  O628  1  0.32303643  0.51764886  0.05159972  1
  O  O629  1  0.32215920  0.51989818  0.30240629  1
  O  O630  1  0.32378461  0.52131137  0.54924759  1
  O  O631  1  0.32441781  0.51996397  0.79926588  1
  O  O632  1  0.32196870  0.85254082  0.05225785  1
  O  O633  1  0.32336560  0.85234939  0.30031465  1
  O  O634  1  0.32394635  0.85199382  0.55096023  1
  O  O635  1  0.32394135  0.85275308  0.80065587  1
  O  O636  1  0.82325107  0.18756015  0.04981220  1
  O  O637  1  0.82207058  0.18494599  0.29985645  1
  O  O638  1  0.82358738  0.18601707  0.54965407  1
  O  O639  1  0.82284132  0.18764007  0.80079260  1
  O  O640  1  0.82165291  0.51994196  0.05138915  1
  O  O641  1  0.82286285  0.52094970  0.29930299  1
  O  O642  1  0.82348420  0.52008997  0.54932761  1
  O  O643  1  0.82376255  0.52161930  0.80061031  1
  O  O644  1  0.82261909  0.85380955  0.05048282  1
  O  O645  1  0.82274091  0.85373902  0.29932359  1
  O  O646  1  0.82297295  0.85169101  0.55000679  1
  O  O647  1  0.82247481  0.85194309  0.80136282  1
  O  O648  1  0.17795309  0.14741570  0.19927114  1
  O  O649  1  0.17566020  0.14699712  0.45047333  1
  O  O650  1  0.17652993  0.14717889  0.70080637  1
  O  O651  1  0.17618781  0.14632965  0.95129619  1
  O  O652  1  0.17776157  0.48200421  0.20019171  1
  O  O653  1  0.17943702  0.48146369  0.44841276  1
  O  O654  1  0.17682327  0.47936027  0.69943157  1
  O  O655  1  0.17686392  0.47843257  0.94927780  1
  O  O656  1  0.17694509  0.81422404  0.19979158  1
  O  O657  1  0.17825651  0.81387627  0.44887785  1
  O  O658  1  0.17866146  0.81360810  0.69786602  1
  O  O659  1  0.17626346  0.81310088  0.95019367  1
  O  O660  1  0.67645152  0.14512132  0.20015647  1
  O  O661  1  0.67701340  0.14625822  0.44767835  1
  O  O662  1  0.67606011  0.14680636  0.69994568  1
  O  O663  1  0.67585027  0.14674160  0.95114881  1
  O  O664  1  0.67837011  0.48016072  0.19702305  1
  O  O665  1  0.67568883  0.48011896  0.44916431  1
  O  O666  1  0.67658865  0.48064782  0.70114021  1
  O  O667  1  0.67708757  0.47919209  0.95065711  1
  O  O668  1  0.67601059  0.81224573  0.19927026  1
  O  O669  1  0.67594302  0.81216813  0.44845018  1
  O  O670  1  0.67663321  0.81468380  0.69916148  1
  O  O671  1  0.67781561  0.81346861  0.94877520  1
