# generated using pymatgen
data_Na2MnFe(PO4)2
_symmetry_space_group_name_H-M   'P 1'
_cell_length_a   22.34224513
_cell_length_b   20.09349559
_cell_length_c   19.44975664
_cell_angle_alpha   90.05513261
_cell_angle_beta   90.06149108
_cell_angle_gamma   90.02782061
_symmetry_Int_Tables_number   1
_chemical_formula_structural   Na2MnFe(PO4)2
_chemical_formula_sum   'Na96 Mn48 Fe48 P96 O384'
_cell_volume   8731.64312978
_cell_formula_units_Z   48
loop_
 _symmetry_equiv_pos_site_id
 _symmetry_equiv_pos_as_xyz
  1  'x, y, z'
loop_
 _atom_site_type_symbol
 _atom_site_label
 _atom_site_symmetry_multiplicity
 _atom_site_fract_x
 _atom_site_fract_y
 _atom_site_fract_z
 _atom_site_occupancy
  Na  Na0  1  0.14062012  0.25125533  0.24374147  1
  Na  Na1  1  0.14017113  0.25030146  0.49411715  1
  Na  Na2  1  0.13986742  0.25114656  0.74326459  1
  Na  Na3  1  0.14061149  0.25067091  0.99307660  1
  Na  Na4  1  0.14029547  0.58275432  0.24281053  1
  Na  Na5  1  0.13973418  0.58187845  0.49349762  1
  Na  Na6  1  0.14014828  0.58280186  0.74313584  1
  Na  Na7  1  0.14030920  0.58197622  0.99232365  1
  Na  Na8  1  0.14010299  0.91696463  0.24445903  1
  Na  Na9  1  0.14006552  0.91649424  0.49361669  1
  Na  Na10  1  0.14047240  0.91625063  0.74393802  1
  Na  Na11  1  0.14033377  0.91483233  0.99420696  1
  Na  Na12  1  0.64062501  0.25166607  0.24441909  1
  Na  Na13  1  0.64015801  0.24901761  0.49324480  1
  Na  Na14  1  0.64004330  0.24967084  0.74394880  1
  Na  Na15  1  0.64055752  0.25121267  0.99308567  1
  Na  Na16  1  0.64026760  0.58453017  0.24387680  1
  Na  Na17  1  0.63937570  0.58250976  0.49472186  1
  Na  Na18  1  0.63931243  0.58315484  0.74348939  1
  Na  Na19  1  0.63982961  0.58320410  0.99255843  1
  Na  Na20  1  0.63999231  0.91705054  0.24429984  1
  Na  Na21  1  0.63968874  0.91587961  0.49347170  1
  Na  Na22  1  0.64010074  0.91491854  0.74371302  1
  Na  Na23  1  0.64032160  0.91515586  0.99369973  1
  Na  Na24  1  0.35886608  0.08278837  0.00549437  1
  Na  Na25  1  0.35957861  0.08447371  0.25686925  1
  Na  Na26  1  0.36036383  0.08460949  0.50753684  1
  Na  Na27  1  0.35979163  0.08483654  0.75650486  1
  Na  Na28  1  0.35997476  0.41685389  0.00537783  1
  Na  Na29  1  0.36000452  0.41747013  0.25434717  1
  Na  Na30  1  0.35927263  0.41808176  0.50711078  1
  Na  Na31  1  0.35950301  0.41840426  0.75652893  1
  Na  Na32  1  0.36008398  0.74873826  0.00648445  1
  Na  Na33  1  0.36013887  0.75069704  0.25586608  1
  Na  Na34  1  0.36017620  0.74934149  0.50812916  1
  Na  Na35  1  0.35981050  0.74955629  0.75756866  1
  Na  Na36  1  0.85957078  0.08311629  0.00630212  1
  Na  Na37  1  0.86032784  0.08406514  0.25767195  1
  Na  Na38  1  0.86036210  0.08268297  0.50597912  1
  Na  Na39  1  0.85981151  0.08350402  0.75595955  1
  Na  Na40  1  0.86005839  0.41774483  0.00530868  1
  Na  Na41  1  0.86017663  0.41802811  0.25552261  1
  Na  Na42  1  0.85981107  0.41667505  0.50583810  1
  Na  Na43  1  0.85960861  0.41681961  0.75642042  1
  Na  Na44  1  0.86001912  0.74881712  0.00668086  1
  Na  Na45  1  0.85974018  0.75105233  0.25581325  1
  Na  Na46  1  0.86039910  0.74866729  0.50773477  1
  Na  Na47  1  0.86021376  0.74771838  0.75629339  1
  Na  Na48  1  0.10926683  0.08231644  0.11954204  1
  Na  Na49  1  0.10947195  0.08342116  0.36946350  1
  Na  Na50  1  0.10890096  0.08301451  0.61892761  1
  Na  Na51  1  0.10944522  0.08368135  0.86843811  1
  Na  Na52  1  0.11047783  0.41765853  0.11745068  1
  Na  Na53  1  0.11002198  0.41605274  0.36828927  1
  Na  Na54  1  0.10997251  0.41583391  0.61771280  1
  Na  Na55  1  0.11005634  0.41710120  0.86737760  1
  Na  Na56  1  0.10932429  0.74940665  0.11765227  1
  Na  Na57  1  0.10939857  0.74963207  0.36961218  1
  Na  Na58  1  0.10917268  0.74827866  0.61796405  1
  Na  Na59  1  0.10970421  0.74919260  0.86913848  1
  Na  Na60  1  0.60937962  0.08334996  0.11867365  1
  Na  Na61  1  0.60930798  0.08200933  0.36918191  1
  Na  Na62  1  0.60876049  0.08276164  0.61851928  1
  Na  Na63  1  0.60935297  0.08292349  0.86859557  1
  Na  Na64  1  0.60977847  0.41835824  0.11742027  1
  Na  Na65  1  0.60961871  0.41733759  0.36937695  1
  Na  Na66  1  0.60933873  0.41790127  0.61839670  1
  Na  Na67  1  0.60928792  0.41772453  0.86814722  1
  Na  Na68  1  0.60942404  0.75013951  0.11825207  1
  Na  Na69  1  0.60944768  0.74992017  0.37052222  1
  Na  Na70  1  0.60889313  0.74935348  0.61925770  1
  Na  Na71  1  0.60926284  0.74868867  0.86862247  1
  Na  Na72  1  0.39026684  0.25150297  0.13048992  1
  Na  Na73  1  0.39054454  0.25111899  0.38198091  1
  Na  Na74  1  0.39046476  0.25109824  0.63136964  1
  Na  Na75  1  0.39024373  0.25138309  0.88090967  1
  Na  Na76  1  0.39044468  0.58389523  0.12981946  1
  Na  Na77  1  0.39056416  0.58445203  0.38219794  1
  Na  Na78  1  0.38971519  0.58443416  0.63277390  1
  Na  Na79  1  0.38987166  0.58354688  0.88193689  1
  Na  Na80  1  0.39019005  0.91578234  0.13081848  1
  Na  Na81  1  0.39113066  0.91612589  0.38197277  1
  Na  Na82  1  0.39093443  0.91682151  0.63171580  1
  Na  Na83  1  0.39028404  0.91583873  0.88172910  1
  Na  Na84  1  0.89103771  0.25040336  0.13147645  1
  Na  Na85  1  0.89080696  0.24973106  0.38159310  1
  Na  Na86  1  0.89064320  0.24923897  0.63078289  1
  Na  Na87  1  0.89043924  0.25037898  0.88071111  1
  Na  Na88  1  0.89046558  0.58315276  0.12974692  1
  Na  Na89  1  0.89111456  0.58326330  0.38143492  1
  Na  Na90  1  0.88978452  0.58181005  0.63183981  1
  Na  Na91  1  0.89007043  0.58397743  0.88161133  1
  Na  Na92  1  0.89044888  0.91642368  0.13208567  1
  Na  Na93  1  0.89090440  0.91723588  0.38222318  1
  Na  Na94  1  0.89111136  0.91596282  0.63047500  1
  Na  Na95  1  0.89072508  0.91556934  0.88162784  1
  Mn  Mn96  1  0.50022332  0.33417960  0.50059572  1
  Mn  Mn97  1  0.24934052  0.16837424  0.62594009  1
  Mn  Mn98  1  0.75075149  0.83142444  0.87427467  1
  Mn  Mn99  1  0.24958180  0.16744671  0.87511967  1
  Mn  Mn100  1  0.74967488  -0.00083524  0.62560257  1
  Mn  Mn101  1  0.00027603  -0.00012612  0.75008734  1
  Mn  Mn102  1  0.25010191  0.66641737  0.37465104  1
  Mn  Mn103  1  0.75012144  0.16685320  0.37484242  1
  Mn  Mn104  1  0.50037008  0.50117604  0.24942199  1
  Mn  Mn105  1  0.50031881  0.16685268  0.24986105  1
  Mn  Mn106  1  0.24971501  0.16784741  0.12504055  1
  Mn  Mn107  1  0.25022305  0.16872932  0.37561479  1
  Mn  Mn108  1  0.49920827  0.16741046  -0.00022263  1
  Mn  Mn109  1  0.74962217  0.16601118  0.62422746  1
  Mn  Mn110  1  0.75025341  -0.00020901  0.87493295  1
  Mn  Mn111  1  0.74966571  -0.00006992  0.12483472  1
  Mn  Mn112  1  0.49975472  -0.00043285  0.74971049  1
  Mn  Mn113  1  0.25075698  0.00058259  0.37512999  1
  Mn  Mn114  1  -0.00059316  -0.00068645  -0.00007310  1
  Mn  Mn115  1  0.49953707  -0.00083793  -0.00080473  1
  Mn  Mn116  1  0.25004517  0.66609818  0.12476214  1
  Mn  Mn117  1  -0.00020335  0.66582790  0.24959958  1
  Mn  Mn118  1  0.49994458  0.33436637  0.25053884  1
  Mn  Mn119  1  0.25037746  0.83255975  0.62578532  1
  Mn  Mn120  1  -0.00026026  0.83344274  0.25042928  1
  Mn  Mn121  1  0.25052214  0.49946289  0.37444291  1
  Mn  Mn122  1  0.74986680  0.66670056  0.12489494  1
  Mn  Mn123  1  0.50011092  0.33388806  0.74956731  1
  Mn  Mn124  1  0.74978997  0.83382644  0.37608390  1
  Mn  Mn125  1  0.00009068  0.16671481  0.00018612  1
  Mn  Mn126  1  0.75078426  0.83175855  0.62481373  1
  Mn  Mn127  1  0.50039696  0.66764962  0.25082132  1
  Mn  Mn128  1  0.00015581  0.33366307  0.25007634  1
  Mn  Mn129  1  0.25003163  0.83243228  0.87483300  1
  Mn  Mn130  1  0.75029731  0.33348624  0.62538481  1
  Mn  Mn131  1  0.25021113  0.83305280  0.37568992  1
  Mn  Mn132  1  0.75052345  0.49963259  0.37481090  1
  Mn  Mn133  1  0.49933029  -0.00106345  0.24987110  1
  Mn  Mn134  1  0.00021880  0.33266348  0.49919592  1
  Mn  Mn135  1  0.00020811  0.49992850  0.74905702  1
  Mn  Mn136  1  0.00049316  0.83195466  0.74993483  1
  Mn  Mn137  1  0.74998739  0.33377586  0.87469601  1
  Mn  Mn138  1  0.75063072  0.33508535  0.12367263  1
  Mn  Mn139  1  0.75049013  0.66660002  0.37484482  1
  Mn  Mn140  1  0.75035748  0.16761463  0.12565666  1
  Mn  Mn141  1  0.24979982  -0.00060184  0.12558585  1
  Mn  Mn142  1  0.24978057  0.00047611  0.62543783  1
  Mn  Mn143  1  0.00099865  0.33427580  0.00025875  1
  Fe  Fe144  1  0.25033897  0.33419477  0.12398984  1
  Fe  Fe145  1  0.49942176  0.50090832  0.75008868  1
  Fe  Fe146  1  0.49994039  0.66714415  -0.00066803  1
  Fe  Fe147  1  0.24953127  0.50009976  0.62542406  1
  Fe  Fe148  1  0.75008601  0.33397762  0.37479081  1
  Fe  Fe149  1  0.00090556  0.50019332  0.24947536  1
  Fe  Fe150  1  0.00004978  0.83299322  0.00039537  1
  Fe  Fe151  1  -0.00049628  0.49922393  0.50001971  1
  Fe  Fe152  1  -0.00060055  0.16664945  0.74954942  1
  Fe  Fe153  1  0.50014195  0.83282369  0.00015227  1
  Fe  Fe154  1  0.00037386  0.16611199  0.25084035  1
  Fe  Fe155  1  0.50011514  0.16676132  0.50035882  1
  Fe  Fe156  1  -0.00024042  0.33327728  0.74919587  1
  Fe  Fe157  1  0.50021843  0.83295915  0.25060710  1
  Fe  Fe158  1  0.49942457  0.50105945  0.50042123  1
  Fe  Fe159  1  0.74971549  0.66511085  0.62581500  1
  Fe  Fe160  1  0.74975446  0.16667369  0.87506069  1
  Fe  Fe161  1  0.00010773  0.83285954  0.49997914  1
  Fe  Fe162  1  0.24977148  0.49957860  0.87409977  1
  Fe  Fe163  1  0.00030268  0.16621825  0.50035387  1
  Fe  Fe164  1  0.24956380  0.66563775  0.87552074  1
  Fe  Fe165  1  0.75006175  0.83343901  0.12522044  1
  Fe  Fe166  1  0.49984980  0.50082908  -0.00065473  1
  Fe  Fe167  1  0.00026725  -0.00014755  0.25116416  1
  Fe  Fe168  1  0.25021941  0.33443687  0.62493829  1
  Fe  Fe169  1  0.75037216  0.00004233  0.37478916  1
  Fe  Fe170  1  0.74975426  0.50061958  0.12477213  1
  Fe  Fe171  1  0.50071859  0.33401935  -0.00072677  1
  Fe  Fe172  1  0.25045587  0.49964655  0.12367443  1
  Fe  Fe173  1  0.49916909  0.66688979  0.75036100  1
  Fe  Fe174  1  0.74951789  0.66556449  0.87536176  1
  Fe  Fe175  1  0.25000866  0.33432393  0.87433602  1
  Fe  Fe176  1  0.24935705  0.66577753  0.62599033  1
  Fe  Fe177  1  0.74943164  0.50022305  0.87449045  1
  Fe  Fe178  1  0.00022684  0.66654574  -0.00020988  1
  Fe  Fe179  1  0.00030001  0.50036586  -0.00136543  1
  Fe  Fe180  1  0.49985976  0.16677561  0.74987930  1
  Fe  Fe181  1  0.50007676  0.83298206  0.75019900  1
  Fe  Fe182  1  0.25019726  0.83268980  0.12476968  1
  Fe  Fe183  1  0.49995442  -0.00040508  0.50025743  1
  Fe  Fe184  1  0.00006479  0.00008713  0.50040368  1
  Fe  Fe185  1  0.24954323  -0.00029998  0.87553785  1
  Fe  Fe186  1  0.49969814  0.83288752  0.50104823  1
  Fe  Fe187  1  -0.00025162  0.66608878  0.74982030  1
  Fe  Fe188  1  0.49953808  0.66719603  0.50127225  1
  Fe  Fe189  1  0.25046440  0.33437146  0.37460078  1
  Fe  Fe190  1  -0.00001553  0.66534184  0.49931711  1
  Fe  Fe191  1  0.74933252  0.49976964  0.62521226  1
  P  P192  1  0.04320184  0.24990629  0.10364641  1
  P  P193  1  0.04225401  0.24862145  0.35277805  1
  P  P194  1  0.04195079  0.24864643  0.60301992  1
  P  P195  1  0.04115725  0.25025522  0.85106856  1
  P  P196  1  0.04173828  0.58282935  0.10090161  1
  P  P197  1  0.04247731  0.58185297  0.35282238  1
  P  P198  1  0.04094600  0.58240086  0.60143953  1
  P  P199  1  0.04183333  0.58437231  0.85246106  1
  P  P200  1  0.04217383  0.91561950  0.10305161  1
  P  P201  1  0.04204875  0.91756909  0.35388705  1
  P  P202  1  0.04162128  0.91604940  0.60152313  1
  P  P203  1  0.04272987  0.91570261  0.85347112  1
  P  P204  1  0.54251650  0.25184757  0.10207493  1
  P  P205  1  0.54264090  0.25000912  0.35394306  1
  P  P206  1  0.54218108  0.24899484  0.60288113  1
  P  P207  1  0.54184807  0.24961231  0.85245693  1
  P  P208  1  0.54144539  0.58447522  0.10082341  1
  P  P209  1  0.54275917  0.58388221  0.35426533  1
  P  P210  1  0.54031596  0.58373497  0.60292479  1
  P  P211  1  0.54045346  0.58370350  0.85210398  1
  P  P212  1  0.54214737  0.91519063  0.10260413  1
  P  P213  1  0.54189885  0.91497611  0.35367413  1
  P  P214  1  0.54130666  0.91599816  0.60225684  1
  P  P215  1  0.54212584  0.91468259  0.85266547  1
  P  P216  1  0.45670408  0.08329273  0.14680239  1
  P  P217  1  0.45861690  0.08318832  0.39880934  1
  P  P218  1  0.45773909  0.08470908  0.64688230  1
  P  P219  1  0.45690029  0.08347776  0.89606105  1
  P  P220  1  0.45814750  0.41737908  0.14546276  1
  P  P221  1  0.45754065  0.41867338  0.39813166  1
  P  P222  1  0.45793867  0.41898924  0.64738194  1
  P  P223  1  0.45901104  0.41746977  0.89765815  1
  P  P224  1  0.45815516  0.75118928  0.14717808  1
  P  P225  1  0.45835022  0.75032578  0.39920630  1
  P  P226  1  0.45816377  0.75026114  0.64855467  1
  P  P227  1  0.45843031  0.75006176  0.89780577  1
  P  P228  1  0.95855649  0.08271710  0.14926467  1
  P  P229  1  0.95916983  0.08334436  0.39811334  1
  P  P230  1  0.95787498  0.08402355  0.64686132  1
  P  P231  1  0.95716573  0.08369711  0.89647286  1
  P  P232  1  0.95860193  0.41857367  0.14684462  1
  P  P233  1  0.95813560  0.41787827  0.39683435  1
  P  P234  1  0.95775244  0.41512649  0.64683354  1
  P  P235  1  0.95830949  0.41760258  0.89646206  1
  P  P236  1  0.95758580  0.74968839  0.14618035  1
  P  P237  1  0.95849646  0.74959167  0.39864158  1
  P  P238  1  0.95818230  0.74772894  0.64655657  1
  P  P239  1  0.95874042  0.74965028  0.89839985  1
  P  P240  1  0.20735329  0.08422406  0.22840765  1
  P  P241  1  0.20749933  0.08435341  0.47843347  1
  P  P242  1  0.20694870  0.08376566  0.72905978  1
  P  P243  1  0.20734771  0.08216396  0.97759777  1
  P  P244  1  0.20863786  0.41692787  0.22581327  1
  P  P245  1  0.20787876  0.41572122  0.47771726  1
  P  P246  1  0.20850810  0.41696483  0.72696604  1
  P  P247  1  0.20862305  0.41671586  0.97629909  1
  P  P248  1  0.20738859  0.75092426  0.22712941  1
  P  P249  1  0.20757048  0.74867160  0.47908002  1
  P  P250  1  0.20760069  0.74793037  0.72822321  1
  P  P251  1  0.20804810  0.74826877  0.97782626  1
  P  P252  1  0.70735187  0.08349229  0.22862874  1
  P  P253  1  0.70771296  0.08171946  0.47715769  1
  P  P254  1  0.70674277  0.08339595  0.72868546  1
  P  P255  1  0.70773199  0.08433032  0.97740306  1
  P  P256  1  0.70769208  0.41823021  0.22729817  1
  P  P257  1  0.70769824  0.41573326  0.47787596  1
  P  P258  1  0.70757150  0.41829212  0.72785672  1
  P  P259  1  0.70752282  0.41867567  0.97700022  1
  P  P260  1  0.70756337  0.75168891  0.22754469  1
  P  P261  1  0.70766963  0.74862565  0.47913766  1
  P  P262  1  0.70783695  0.74747986  0.72780161  1
  P  P263  1  0.70783876  0.74834794  0.97761555  1
  P  P264  1  0.29197327  0.25189421  0.02162541  1
  P  P265  1  0.29268156  0.25270704  0.27199571  1
  P  P266  1  0.29231546  0.25252369  0.52267525  1
  P  P267  1  0.29196082  0.25251909  0.77219632  1
  P  P268  1  0.29192137  0.58171632  0.02114413  1
  P  P269  1  0.29329221  0.58304100  0.27117550  1
  P  P270  1  0.29107917  0.58311488  0.52412454  1
  P  P271  1  0.29087980  0.58347478  0.77297228  1
  P  P272  1  0.29194459  0.91509383  0.02221652  1
  P  P273  1  0.29310960  0.91620914  0.27177064  1
  P  P274  1  0.29297943  0.91662935  0.52259488  1
  P  P275  1  0.29231522  0.91774746  0.77309626  1
  P  P276  1  0.79316670  0.25012896  0.02110980  1
  P  P277  1  0.79275728  0.25222760  0.27257612  1
  P  P278  1  0.79264490  0.25028685  0.52127148  1
  P  P279  1  0.79196691  0.24898741  0.77255885  1
  P  P280  1  0.79175808  0.58196722  0.02159071  1
  P  P281  1  0.79324030  0.58341911  0.27131962  1
  P  P282  1  0.79135175  0.58241625  0.52373808  1
  P  P283  1  0.79098802  0.58305326  0.77282912  1
  P  P284  1  0.79249256  0.91497712  0.02261109  1
  P  P285  1  0.79243078  0.91766097  0.27257355  1
  P  P286  1  0.79279474  0.91661566  0.52166059  1
  P  P287  1  0.79337653  0.91565672  0.77190486  1
  O  O288  1  0.03793824  0.24973515  0.18356407  1
  O  O289  1  0.03694518  0.24847629  0.43271298  1
  O  O290  1  0.03614065  0.24924590  0.68283576  1
  O  O291  1  0.03673229  0.25066186  0.93112309  1
  O  O292  1  0.03732775  0.58272339  0.18089403  1
  O  O293  1  0.03683700  0.58178669  0.43265320  1
  O  O294  1  0.03631065  0.58297459  0.68137965  1
  O  O295  1  0.03675863  0.58393512  0.93230370  1
  O  O296  1  0.03699846  0.91636168  0.18299754  1
  O  O297  1  0.03647420  0.91701248  0.43374016  1
  O  O298  1  0.03675427  0.91614233  0.68152322  1
  O  O299  1  0.03731040  0.91529406  0.93338360  1
  O  O300  1  0.53761490  0.25171926  0.18210517  1
  O  O301  1  0.53737734  0.24957168  0.43390733  1
  O  O302  1  0.53678416  0.24888271  0.68281674  1
  O  O303  1  0.53649182  0.25074676  0.93238050  1
  O  O304  1  0.53719330  0.58450203  0.18083540  1
  O  O305  1  0.53749828  0.58358049  0.43412675  1
  O  O306  1  0.53516855  0.58381362  0.68278832  1
  O  O307  1  0.53565662  0.58400026  0.93196386  1
  O  O308  1  0.53694734  0.91512397  0.18257673  1
  O  O309  1  0.53652095  0.91539477  0.43354782  1
  O  O310  1  0.53631044  0.91616986  0.68221628  1
  O  O311  1  0.53684425  0.91466668  0.93259187  1
  O  O312  1  0.46164279  0.08328466  0.06682308  1
  O  O313  1  0.46333073  0.08271239  0.31879175  1
  O  O314  1  0.46336688  0.08445419  0.56700650  1
  O  O315  1  0.46235900  0.08368322  0.81612568  1
  O  O316  1  0.46371789  0.41693647  0.06558321  1
  O  O317  1  0.46268545  0.41835450  0.31815837  1
  O  O318  1  0.46325529  0.41913371  0.56750060  1
  O  O319  1  0.46376066  0.41791692  0.81767559  1
  O  O320  1  0.46345440  0.75085797  0.06733735  1
  O  O321  1  0.46328160  0.75034320  0.31926824  1
  O  O322  1  0.46314078  0.75002566  0.56870115  1
  O  O323  1  0.46337187  0.75007228  0.81793919  1
  O  O324  1  0.96313479  0.08275698  0.06923998  1
  O  O325  1  0.96430828  0.08302991  0.31821837  1
  O  O326  1  0.96338859  0.08385947  0.56699173  1
  O  O327  1  0.96241313  0.08408878  0.81655129  1
  O  O328  1  0.96400271  0.41857238  0.06689436  1
  O  O329  1  0.96372015  0.41819208  0.31695340  1
  O  O330  1  0.96265294  0.41543861  0.56688853  1
  O  O331  1  0.96353032  0.41660315  0.81651887  1
  O  O332  1  0.96290712  0.74994527  0.06631250  1
  O  O333  1  0.96313250  0.74940576  0.31864505  1
  O  O334  1  0.96361614  0.74803605  0.56672309  1
  O  O335  1  0.96336235  0.74894365  0.81841538  1
  O  O336  1  0.21274271  0.08252599  0.05755770  1
  O  O337  1  0.21272094  0.08453835  0.30835163  1
  O  O338  1  0.21218195  0.08454547  0.55845707  1
  O  O339  1  0.21217134  0.08318466  0.80903438  1
  O  O340  1  0.21366705  0.41695525  0.05616167  1
  O  O341  1  0.21388741  0.41670211  0.30575988  1
  O  O342  1  0.21294278  0.41612993  0.55757822  1
  O  O343  1  0.21331829  0.41705461  0.80685914  1
  O  O344  1  0.21352018  0.74915475  0.05772206  1
  O  O345  1  0.21246841  0.75049362  0.30714552  1
  O  O346  1  0.21272563  0.74807224  0.55906090  1
  O  O347  1  0.21284339  0.74782536  0.80818277  1
  O  O348  1  0.71279136  0.08431365  0.05742408  1
  O  O349  1  0.71258518  0.08288660  0.30859885  1
  O  O350  1  0.71254016  0.08192523  0.55715626  1
  O  O351  1  0.71199629  0.08416486  0.80866491  1
  O  O352  1  0.71254820  0.41901493  0.05695284  1
  O  O353  1  0.71302245  0.41707029  0.30725845  1
  O  O354  1  0.71293238  0.41644209  0.55783006  1
  O  O355  1  0.71290566  0.41863457  0.80779057  1
  O  O356  1  0.71282887  0.74927750  0.05754753  1
  O  O357  1  0.71273076  0.75141154  0.30750425  1
  O  O358  1  0.71298675  0.74784461  0.55907177  1
  O  O359  1  0.71284089  0.74718116  0.80778947  1
  O  O360  1  0.28736134  0.25248780  0.19203220  1
  O  O361  1  0.28732862  0.25265735  0.44267579  1
  O  O362  1  0.28656578  0.25262590  0.69226441  1
  O  O363  1  0.28641094  0.25177960  0.94170297  1
  O  O364  1  0.28827894  0.58295655  0.19121905  1
  O  O365  1  0.28692708  0.58277110  0.44409397  1
  O  O366  1  0.28595918  0.58349847  0.69307021  1
  O  O367  1  0.28623186  0.58214275  0.94130284  1
  O  O368  1  0.28773291  0.91554084  0.19179716  1
  O  O369  1  0.28813524  0.91647581  0.44260309  1
  O  O370  1  0.28719878  0.91728157  0.69314681  1
  O  O371  1  0.28632624  0.91581363  0.94228916  1
  O  O372  1  0.78781350  0.25199954  0.19256357  1
  O  O373  1  0.78741837  0.25108705  0.44132467  1
  O  O374  1  0.78705236  0.24905707  0.69256741  1
  O  O375  1  0.78767921  0.24935823  0.94115917  1
  O  O376  1  0.78803214  0.58332964  0.19138249  1
  O  O377  1  0.78700038  0.58268302  0.44372294  1
  O  O378  1  0.78590776  0.58304838  0.69287781  1
  O  O379  1  0.78619403  0.58206762  0.94170344  1
  O  O380  1  0.78719436  0.91692049  0.19260618  1
  O  O381  1  0.78758970  0.91739856  0.44169294  1
  O  O382  1  0.78823195  0.91548634  0.69194399  1
  O  O383  1  0.78759489  0.91507458  0.94263567  1
  O  O384  1  0.22783585  0.25229596  0.05758502  1
  O  O385  1  0.22839673  0.25283682  0.30773387  1
  O  O386  1  0.22793966  0.25273622  0.55807694  1
  O  O387  1  0.22772370  0.25251561  0.80792427  1
  O  O388  1  0.22795010  0.58135880  0.05761177  1
  O  O389  1  0.22882954  0.58297482  0.30617506  1
  O  O390  1  0.22668367  0.58342922  0.55927986  1
  O  O391  1  0.22678201  0.58362743  0.80900645  1
  O  O392  1  0.22784979  0.91450081  0.05831838  1
  O  O393  1  0.22875482  0.91665610  0.30705052  1
  O  O394  1  0.22844635  0.91621233  0.55729039  1
  O  O395  1  0.22796236  0.91746759  0.80842669  1
  O  O396  1  0.72884295  0.25067061  0.05640908  1
  O  O397  1  0.72838843  0.25209619  0.30791408  1
  O  O398  1  0.72830234  0.25028215  0.55652112  1
  O  O399  1  0.72762753  0.24945042  0.80780098  1
  O  O400  1  0.72767236  0.58188484  0.05787340  1
  O  O401  1  0.72884275  0.58326062  0.30641313  1
  O  O402  1  0.72698566  0.58219916  0.55911861  1
  O  O403  1  0.72683686  0.58329240  0.80892774  1
  O  O404  1  0.72805493  0.91496389  0.05782109  1
  O  O405  1  0.72811863  0.91819141  0.30820256  1
  O  O406  1  0.72841578  0.91565145  0.55679099  1
  O  O407  1  0.72893170  0.91554292  0.80677011  1
  O  O408  1  0.27164466  0.08391165  0.19312770  1
  O  O409  1  0.27202380  0.08469065  0.44371004  1
  O  O410  1  0.27129371  0.08422762  0.69385160  1
  O  O411  1  0.27153433  0.08234334  0.94181116  1
  O  O412  1  0.27272489  0.41724302  0.18949893  1
  O  O413  1  0.27219133  0.41540772  0.44192981  1
  O  O414  1  0.27264103  0.41690814  0.69099844  1
  O  O415  1  0.27271745  0.41620276  0.94012389  1
  O  O416  1  0.27180487  0.75099428  0.19185231  1
  O  O417  1  0.27198565  0.74908354  0.44395258  1
  O  O418  1  0.27194872  0.74775570  0.69277358  1
  O  O419  1  0.27216832  0.74795925  0.94185019  1
  O  O420  1  0.77175840  0.08340515  0.19354066  1
  O  O421  1  0.77212175  0.08184120  0.44191736  1
  O  O422  1  0.77116243  0.08312062  0.69357196  1
  O  O423  1  0.77209990  0.08425051  0.94218231  1
  O  O424  1  0.77201735  0.41930135  0.19158667  1
  O  O425  1  0.77201004  0.41503403  0.44217234  1
  O  O426  1  0.77184074  0.41851310  0.69222918  1
  O  O427  1  0.77184129  0.41838348  0.94158317  1
  O  O428  1  0.77188754  0.75146681  0.19207099  1
  O  O429  1  0.77199210  0.74958220  0.44384362  1
  O  O430  1  0.77219969  0.74729611  0.69248732  1
  O  O431  1  0.77218774  0.74736453  0.94214004  1
  O  O432  1  0.02281323  0.08225856  0.18503957  1
  O  O433  1  0.02311426  0.08373980  0.43473772  1
  O  O434  1  0.02195764  0.08455395  0.68320316  1
  O  O435  1  0.02149631  0.08306082  0.93193879  1
  O  O436  1  0.02281177  0.41807969  0.18284774  1
  O  O437  1  0.02228883  0.41806091  0.43294649  1
  O  O438  1  0.02213789  0.41526185  0.68226764  1
  O  O439  1  0.02260041  0.41837197  0.93227048  1
  O  O440  1  0.02173111  0.74960151  0.18217626  1
  O  O441  1  0.02271175  0.75006913  0.43433895  1
  O  O442  1  0.02230543  0.74733174  0.68291317  1
  O  O443  1  0.02292548  0.75064909  0.93427824  1
  O  O444  1  0.52120248  0.08290575  0.18180779  1
  O  O445  1  0.52279286  0.08341180  0.43463175  1
  O  O446  1  0.52179258  0.08477886  0.68336789  1
  O  O447  1  0.52114820  0.08341447  0.93168969  1
  O  O448  1  0.52226561  0.41739964  0.18160765  1
  O  O449  1  0.52187966  0.41908127  0.43369949  1
  O  O450  1  0.52212271  0.41906397  0.68333120  1
  O  O451  1  0.52312594  0.41719310  0.93359538  1
  O  O452  1  0.52232043  0.75161047  0.18349807  1
  O  O453  1  0.52246705  0.75056602  0.43537889  1
  O  O454  1  0.52226204  0.75050217  0.68483187  1
  O  O455  1  0.52255174  0.75012948  0.93410791  1
  O  O456  1  0.47808797  0.25229491  0.06673862  1
  O  O457  1  0.47831731  0.25021557  0.31843591  1
  O  O458  1  0.47796945  0.24939557  0.56697918  1
  O  O459  1  0.47768277  0.24934124  0.81641372  1
  O  O460  1  0.47715642  0.58464966  0.06532053  1
  O  O461  1  0.47849504  0.58416613  0.31850571  1
  O  O462  1  0.47634394  0.58336558  0.56635594  1
  O  O463  1  0.47632005  0.58334480  0.81594648  1
  O  O464  1  0.47786066  0.91494688  0.06677704  1
  O  O465  1  0.47778357  0.91446111  0.31729232  1
  O  O466  1  0.47721091  0.91565217  0.56611716  1
  O  O467  1  0.47786096  0.91474119  0.81685073  1
  O  O468  1  0.97883815  0.25055175  0.06823858  1
  O  O469  1  0.97807180  0.24892721  0.31684790  1
  O  O470  1  0.97798042  0.24819877  0.56635216  1
  O  O471  1  0.97689046  0.24989819  0.81546275  1
  O  O472  1  0.97751735  0.58241225  0.06509005  1
  O  O473  1  0.97832447  0.58131418  0.31652562  1
  O  O474  1  0.97672050  0.58169920  0.56564440  1
  O  O475  1  0.97764045  0.58426502  0.81637170  1
  O  O476  1  0.97787437  0.91478880  0.06719588  1
  O  O477  1  0.97795075  0.91812469  0.31748268  1
  O  O478  1  0.97749406  0.91577778  0.56554404  1
  O  O479  1  0.97847813  0.91576367  0.81786366  1
  O  O480  1  0.07453088  0.31325538  0.07540571  1
  O  O481  1  0.07349904  0.31235561  0.32535031  1
  O  O482  1  0.07302155  0.31222394  0.57475526  1
  O  O483  1  0.07156154  0.31415589  0.82267961  1
  O  O484  1  0.07181901  0.64701009  0.07256137  1
  O  O485  1  0.07320723  0.64575007  0.32483701  1
  O  O486  1  0.07133624  0.64605171  0.57252321  1
  O  O487  1  0.07245072  0.64794404  0.82380133  1
  O  O488  1  0.07303287  0.97920822  0.07480600  1
  O  O489  1  0.07321393  0.98092118  0.32547218  1
  O  O490  1  0.07217591  0.97998565  0.57361600  1
  O  O491  1  0.07376935  0.97929780  0.82555567  1
  O  O492  1  0.57349077  0.31514923  0.07336676  1
  O  O493  1  0.57362153  0.31375659  0.32621297  1
  O  O494  1  0.57343327  0.31284173  0.57566647  1
  O  O495  1  0.57317723  0.31294908  0.82415006  1
  O  O496  1  0.57242433  0.64797417  0.07258679  1
  O  O497  1  0.57399227  0.64733328  0.32596174  1
  O  O498  1  0.57076639  0.64767563  0.57449678  1
  O  O499  1  0.57092407  0.64741700  0.82319968  1
  O  O500  1  0.57291473  0.97910838  0.07485064  1
  O  O501  1  0.57276132  0.97860308  0.32528186  1
  O  O502  1  0.57157537  0.97999083  0.57376441  1
  O  O503  1  0.57322785  0.97833727  0.82488922  1
  O  O504  1  0.42550181  0.01995081  0.17495709  1
  O  O505  1  0.42817754  0.01932738  0.42726840  1
  O  O506  1  0.42645299  0.02107928  0.67466596  1
  O  O507  1  0.42594412  0.01977986  0.92391810  1
  O  O508  1  0.42670189  0.35433520  0.17428417  1
  O  O509  1  0.42677345  0.35492951  0.42603476  1
  O  O510  1  0.42714051  0.35502505  0.67487775  1
  O  O511  1  0.42808336  0.35374424  0.92551749  1
  O  O512  1  0.42717798  0.68747292  0.17525584  1
  O  O513  1  0.42808003  0.68626769  0.42760710  1
  O  O514  1  0.42758791  0.68651677  0.67732403  1
  O  O515  1  0.42769620  0.68628622  0.92623349  1
  O  O516  1  0.92744571  0.01927214  0.17742579  1
  O  O517  1  0.92859952  0.01960188  0.42685810  1
  O  O518  1  0.92693398  0.02022255  0.67468342  1
  O  O519  1  0.92585294  0.02017695  0.92430610  1
  O  O520  1  0.92716475  0.35499944  0.17446305  1
  O  O521  1  0.92734906  0.35384895  0.42412271  1
  O  O522  1  0.92721494  0.35149773  0.67544947  1
  O  O523  1  0.92732934  0.35428252  0.92511432  1
  O  O524  1  0.92640996  0.68614091  0.17424252  1
  O  O525  1  0.92829194  0.68545980  0.42679842  1
  O  O526  1  0.92715296  0.68441793  0.67543372  1
  O  O527  1  0.92863176  0.68568281  0.92714124  1
  O  O528  1  0.17601865  0.02070322  0.20068023  1
  O  O529  1  0.17686502  0.02057407  0.45033757  1
  O  O530  1  0.17574426  0.02047697  0.70041940  1
  O  O531  1  0.17683186  0.01832121  0.94943161  1
  O  O532  1  0.17774522  0.35331651  0.19751611  1
  O  O533  1  0.17687384  0.35242879  0.44872238  1
  O  O534  1  0.17735368  0.35360751  0.69832305  1
  O  O535  1  0.17709563  0.35345340  0.94782101  1
  O  O536  1  0.17631961  0.68723110  0.19919283  1
  O  O537  1  0.17648852  0.68548229  0.45005129  1
  O  O538  1  0.17643003  0.68480300  0.69926509  1
  O  O539  1  0.17729518  0.68440512  0.94995177  1
  O  O540  1  0.67581066  0.02049109  0.19977956  1
  O  O541  1  0.67717468  0.01803231  0.44874048  1
  O  O542  1  0.67583313  0.01942381  0.70111655  1
  O  O543  1  0.67657345  0.02053337  0.94984910  1
  O  O544  1  0.67695709  0.35470047  0.19855383  1
  O  O545  1  0.67673807  0.35223679  0.44947366  1
  O  O546  1  0.67676491  0.35426800  0.70040575  1
  O  O547  1  0.67647833  0.35484954  0.94929631  1
  O  O548  1  0.67628501  0.68808649  0.19972613  1
  O  O549  1  0.67683705  0.68528284  0.45023187  1
  O  O550  1  0.67669627  0.68432849  0.69878423  1
  O  O551  1  0.67685248  0.68473036  0.94940611  1
  O  O552  1  0.32327009  0.31514135  0.05004589  1
  O  O553  1  0.32365911  0.31607919  0.30064102  1
  O  O554  1  0.32345377  0.31571913  0.55152956  1
  O  O555  1  0.32307891  0.31585386  0.80076522  1
  O  O556  1  0.32313654  0.64525070  0.04933862  1
  O  O557  1  0.32411151  0.64669078  0.29969977  1
  O  O558  1  0.32214123  0.64658799  0.55250777  1
  O  O559  1  0.32221577  0.64671168  0.80175004  1
  O  O560  1  0.32313799  0.97865752  0.05021026  1
  O  O561  1  0.32424401  0.97997143  0.29952960  1
  O  O562  1  0.32368371  0.98036203  0.55063357  1
  O  O563  1  0.32274745  0.98149385  0.80152527  1
  O  O564  1  0.82424182  0.31403205  0.04858689  1
  O  O565  1  0.82332256  0.31592095  0.30093263  1
  O  O566  1  0.82415089  0.31322227  0.55029253  1
  O  O567  1  0.82333764  0.31268690  0.80001159  1
  O  O568  1  0.82299416  0.64558255  0.04953893  1
  O  O569  1  0.82403670  0.64718631  0.29959924  1
  O  O570  1  0.82193702  0.64610010  0.55235214  1
  O  O571  1  0.82207921  0.64649293  0.80158971  1
  O  O572  1  0.82356221  0.97872745  0.05035159  1
  O  O573  1  0.82321206  0.98138804  0.30084454  1
  O  O574  1  0.82368554  0.97994254  0.55043906  1
  O  O575  1  0.82428903  0.97922318  0.80008813  1
  O  O576  1  0.42613172  0.14705910  0.17501713  1
  O  O577  1  0.42760552  0.14694926  0.42649014  1
  O  O578  1  0.42679788  0.14816680  0.67549764  1
  O  O579  1  0.42548532  0.14669566  0.92431439  1
  O  O580  1  0.42712417  0.48108833  0.17340524  1
  O  O581  1  0.42652214  0.48209262  0.42646995  1
  O  O582  1  0.42675240  0.48206392  0.67631483  1
  O  O583  1  0.42838831  0.48118587  0.92626594  1
  O  O584  1  0.42717753  0.81441427  0.17618745  1
  O  O585  1  0.42695251  0.81347494  0.42763882  1
  O  O586  1  0.42694451  0.81366353  0.67689093  1
  O  O587  1  0.42737060  0.81343754  0.92648969  1
  O  O588  1  0.92840332  0.14688163  0.17743890  1
  O  O589  1  0.92783898  0.14683844  0.42613234  1
  O  O590  1  0.92667384  0.14731246  0.67553490  1
  O  O591  1  0.92637306  0.14709306  0.92519005  1
  O  O592  1  0.92798512  0.48204400  0.17551730  1
  O  O593  1  0.92677038  0.48083295  0.42581466  1
  O  O594  1  0.92646414  0.47848658  0.67503219  1
  O  O595  1  0.92741582  0.48133932  0.92430689  1
  O  O596  1  0.92634042  0.81286668  0.17501573  1
  O  O597  1  0.92724760  0.81301637  0.42662368  1
  O  O598  1  0.92722378  0.81141589  0.67470332  1
  O  O599  1  0.92738514  0.81306958  0.92640365  1
  O  O600  1  0.07393830  0.18636507  0.07513942  1
  O  O601  1  0.07295243  0.18518272  0.32407232  1
  O  O602  1  0.07324711  0.18530591  0.57481273  1
  O  O603  1  0.07209085  0.18657789  0.82318331  1
  O  O604  1  0.07308927  0.51970123  0.07224186  1
  O  O605  1  0.07390925  0.51882796  0.32389806  1
  O  O606  1  0.07207841  0.51868630  0.57372362  1
  O  O607  1  0.07315607  0.52102032  0.82398046  1
  O  O608  1  0.07311838  0.85209216  0.07477872  1
  O  O609  1  0.07301623  0.85391660  0.32563186  1
  O  O610  1  0.07260097  0.85234155  0.57372915  1
  O  O611  1  0.07402321  0.85249188  0.82492159  1
  O  O612  1  0.57321234  0.18790933  0.07441328  1
  O  O613  1  0.57379081  0.18675359  0.32533514  1
  O  O614  1  0.57297765  0.18567210  0.57400790  1
  O  O615  1  0.57249821  0.18578016  0.82460106  1
  O  O616  1  0.57170822  0.52057452  0.07226912  1
  O  O617  1  0.57389221  0.52071172  0.32519450  1
  O  O618  1  0.57177136  0.52047155  0.57457077  1
  O  O619  1  0.57172762  0.52031435  0.82369514  1
  O  O620  1  0.57323030  0.85201810  0.07377181  1
  O  O621  1  0.57298694  0.85157611  0.32515402  1
  O  O622  1  0.57269909  0.85255757  0.57448664  1
  O  O623  1  0.57304791  0.85131808  0.82401840  1
  O  O624  1  0.32269985  0.18795996  0.04935813  1
  O  O625  1  0.32360278  0.18896743  0.29999335  1
  O  O626  1  0.32299607  0.18866792  0.55061397  1
  O  O627  1  0.32293257  0.18879193  0.79988716  1
  O  O628  1  0.32301044  0.51830090  0.04944480  1
  O  O629  1  0.32445214  0.51983385  0.29971003  1
  O  O630  1  0.32121824  0.51924691  0.55289140  1
  O  O631  1  0.32138628  0.51956233  0.80142267  1
  O  O632  1  0.32276841  0.85137230  0.05018140  1
  O  O633  1  0.32415619  0.85300821  0.30053828  1
  O  O634  1  0.32407128  0.85328608  0.55099176  1
  O  O635  1  0.32358426  0.85413316  0.80067121  1
  O  O636  1  0.82440957  0.18716208  0.05021186  1
  O  O637  1  0.82382402  0.18858296  0.30033576  1
  O  O638  1  0.82333216  0.18632334  0.54884688  1
  O  O639  1  0.82229069  0.18535850  0.80124263  1
  O  O640  1  0.82272455  0.51864852  0.05032220  1
  O  O641  1  0.82456439  0.52035370  0.29994071  1
  O  O642  1  0.82204632  0.51865663  0.55176925  1
  O  O643  1  0.82181835  0.51937383  0.80113388  1
  O  O644  1  0.82293877  0.85139341  0.05129927  1
  O  O645  1  0.82353526  0.85424437  0.30091553  1
  O  O646  1  0.82416055  0.85305942  0.54926214  1
  O  O647  1  0.82455539  0.85216727  0.79981059  1
  O  O648  1  0.17652568  0.14776373  0.20019522  1
  O  O649  1  0.17639465  0.14772942  0.45019868  1
  O  O650  1  0.17597992  0.14745610  0.70124275  1
  O  O651  1  0.17604579  0.14577397  0.95005948  1
  O  O652  1  0.17789533  0.48067885  0.19765297  1
  O  O653  1  0.17707820  0.47933087  0.44917108  1
  O  O654  1  0.17790944  0.48075776  0.69829553  1
  O  O655  1  0.17827374  0.48050336  0.94736359  1
  O  O656  1  0.17674728  0.81447218  0.19878797  1
  O  O657  1  0.17652824  0.81232657  0.45129086  1
  O  O658  1  0.17684298  0.81191179  0.70065364  1
  O  O659  1  0.17665726  0.81146175  0.94952288  1
  O  O660  1  0.67660418  0.14738164  0.20091622  1
  O  O661  1  0.67666283  0.14535587  0.44944259  1
  O  O662  1  0.67553808  0.14636040  0.69959325  1
  O  O663  1  0.67713537  0.14791497  0.94887114  1
  O  O664  1  0.67664481  0.48186223  0.19943712  1
  O  O665  1  0.67689155  0.47936517  0.44965733  1
  O  O666  1  0.67639493  0.48134791  0.69887570  1
  O  O667  1  0.67661119  0.48181572  0.94793402  1
  O  O668  1  0.67717843  0.81533854  0.19901522  1
  O  O669  1  0.67623072  0.81212056  0.45158180  1
  O  O670  1  0.67711233  0.81140949  0.70011320  1
  O  O671  1  0.67705869  0.81178396  0.94897721  1
