# generated using pymatgen
data_Na2MnFe(PO4)2
_symmetry_space_group_name_H-M   'P 1'
_cell_length_a   22.34599830
_cell_length_b   20.09723663
_cell_length_c   19.44700031
_cell_angle_alpha   89.99422375
_cell_angle_beta   89.95956008
_cell_angle_gamma   90.03842146
_symmetry_Int_Tables_number   1
_chemical_formula_structural   Na2MnFe(PO4)2
_chemical_formula_sum   'Na96 Mn48 Fe48 P96 O384'
_cell_volume   8733.50393982
_cell_formula_units_Z   48
loop_
 _symmetry_equiv_pos_site_id
 _symmetry_equiv_pos_as_xyz
  1  'x, y, z'
loop_
 _atom_site_type_symbol
 _atom_site_label
 _atom_site_symmetry_multiplicity
 _atom_site_fract_x
 _atom_site_fract_y
 _atom_site_fract_z
 _atom_site_occupancy
  Na  Na0  1  0.14028209  0.25129571  0.24307741  1
  Na  Na1  1  0.13981499  0.25148408  0.49261642  1
  Na  Na2  1  0.14001999  0.25029029  0.74405598  1
  Na  Na3  1  0.14005503  0.24990411  0.99447641  1
  Na  Na4  1  0.14069737  0.58260338  0.24306766  1
  Na  Na5  1  0.14075596  0.58312376  0.49220516  1
  Na  Na6  1  0.14047962  0.58216822  0.74291136  1
  Na  Na7  1  0.14030556  0.58220613  0.99380249  1
  Na  Na8  1  0.14016555  0.91608295  0.24297027  1
  Na  Na9  1  0.14050228  0.91541884  0.49277234  1
  Na  Na10  1  0.14052609  0.91537146  0.74382370  1
  Na  Na11  1  0.14042955  0.91710737  0.99445119  1
  Na  Na12  1  0.64061740  0.25033682  0.24446613  1
  Na  Na13  1  0.64040897  0.24976000  0.49162619  1
  Na  Na14  1  0.64024458  0.24871594  0.74389789  1
  Na  Na15  1  0.64068315  0.24973704  0.99403919  1
  Na  Na16  1  0.64075762  0.58315301  0.24427455  1
  Na  Na17  1  0.64042143  0.58342221  0.49269093  1
  Na  Na18  1  0.64036827  0.58479370  0.74333134  1
  Na  Na19  1  0.64057981  0.58388864  0.99450997  1
  Na  Na20  1  0.64024249  0.91659454  0.24455853  1
  Na  Na21  1  0.64089927  0.91742243  0.49388695  1
  Na  Na22  1  0.64099699  0.91697445  0.74481766  1
  Na  Na23  1  0.64119525  0.91755611  0.99500697  1
  Na  Na24  1  0.35887254  0.08494780  0.00623858  1
  Na  Na25  1  0.35907750  0.08456969  0.25661990  1
  Na  Na26  1  0.35908524  0.08385150  0.50656934  1
  Na  Na27  1  0.35887928  0.08341248  0.75622668  1
  Na  Na28  1  0.35953901  0.41660998  0.00791467  1
  Na  Na29  1  0.35963314  0.41815674  0.25600519  1
  Na  Na30  1  0.35981736  0.41778858  0.50596756  1
  Na  Na31  1  0.35952781  0.41560014  0.75606315  1
  Na  Na32  1  0.35909122  0.74958466  0.00578257  1
  Na  Na33  1  0.35925445  0.74887565  0.25717752  1
  Na  Na34  1  0.35936122  0.74930976  0.50566032  1
  Na  Na35  1  0.35945164  0.74885736  0.75489743  1
  Na  Na36  1  0.85969725  0.08262809  0.00701186  1
  Na  Na37  1  0.85956891  0.08276318  0.25764296  1
  Na  Na38  1  0.85956281  0.08311174  0.50507079  1
  Na  Na39  1  0.85886372  0.08233889  0.75656856  1
  Na  Na40  1  0.86002290  0.41677066  0.00618189  1
  Na  Na41  1  0.85964738  0.41577948  0.25756862  1
  Na  Na42  1  0.86057701  0.41635235  0.50600740  1
  Na  Na43  1  0.86027294  0.41590264  0.75618898  1
  Na  Na44  1  0.85961962  0.75046232  0.00736810  1
  Na  Na45  1  0.85993517  0.75052721  0.25713328  1
  Na  Na46  1  0.85956069  0.75149095  0.50533533  1
  Na  Na47  1  0.85935892  0.75153289  0.75617720  1
  Na  Na48  1  0.10965266  0.08373150  0.11948621  1
  Na  Na49  1  0.10894986  0.08414594  0.36757219  1
  Na  Na50  1  0.10918528  0.08434738  0.61876683  1
  Na  Na51  1  0.10948382  0.08522007  0.86923429  1
  Na  Na52  1  0.10999984  0.41504098  0.11858165  1
  Na  Na53  1  0.11036051  0.41623160  0.36753052  1
  Na  Na54  1  0.10979813  0.41499218  0.61791795  1
  Na  Na55  1  0.10987788  0.41622231  0.86910914  1
  Na  Na56  1  0.10975974  0.74854150  0.11922885  1
  Na  Na57  1  0.10998597  0.75019925  0.36695716  1
  Na  Na58  1  0.11001781  0.74890531  0.61735221  1
  Na  Na59  1  0.10972432  0.74909124  0.86786920  1
  Na  Na60  1  0.60987800  0.08376430  0.11923010  1
  Na  Na61  1  0.60968824  0.08303507  0.36876164  1
  Na  Na62  1  0.60971677  0.08354806  0.61827511  1
  Na  Na63  1  0.61021772  0.08369416  0.86872441  1
  Na  Na64  1  0.61018251  0.41801651  0.11949312  1
  Na  Na65  1  0.61045768  0.41691709  0.36875455  1
  Na  Na66  1  0.60930633  0.41670376  0.61729448  1
  Na  Na67  1  0.60934614  0.41772250  0.87020732  1
  Na  Na68  1  0.60991899  0.75072916  0.11942748  1
  Na  Na69  1  0.60976309  0.74950694  0.36877920  1
  Na  Na70  1  0.61002735  0.74964966  0.61898581  1
  Na  Na71  1  0.61007322  0.75047047  0.86950157  1
  Na  Na72  1  0.38982928  0.25229455  0.13119282  1
  Na  Na73  1  0.39033013  0.25173818  0.38165164  1
  Na  Na74  1  0.39007063  0.25075447  0.63069536  1
  Na  Na75  1  0.38949755  0.25132912  0.88247738  1
  Na  Na76  1  0.38968521  0.58372030  0.13189702  1
  Na  Na77  1  0.38999261  0.58249663  0.38155209  1
  Na  Na78  1  0.39012282  0.58345089  0.62934405  1
  Na  Na79  1  0.39048542  0.58330317  0.88095543  1
  Na  Na80  1  0.39000317  0.91682801  0.13122941  1
  Na  Na81  1  0.38996182  0.91518996  0.38167095  1
  Na  Na82  1  0.38995461  0.91506813  0.63099213  1
  Na  Na83  1  0.38988460  0.91606687  0.88050304  1
  Na  Na84  1  0.89037909  0.24853819  0.13226778  1
  Na  Na85  1  0.89059940  0.25062947  0.38173546  1
  Na  Na86  1  0.89026702  0.25060152  0.62985148  1
  Na  Na87  1  0.89035673  0.25085697  0.88116898  1
  Na  Na88  1  0.89056299  0.58204569  0.13209284  1
  Na  Na89  1  0.89086659  0.58268460  0.38118978  1
  Na  Na90  1  0.89091574  0.58184929  0.63021912  1
  Na  Na91  1  0.89072471  0.58273285  0.88075938  1
  Na  Na92  1  0.89049150  0.91658696  0.13352588  1
  Na  Na93  1  0.88984999  0.91739331  0.38098143  1
  Na  Na94  1  0.88965558  0.91684673  0.63167384  1
  Na  Na95  1  0.88969211  0.91725684  0.88268127  1
  Mn  Mn96  1  0.74976817  0.33260979  0.62478336  1
  Mn  Mn97  1  0.25059191  0.49876522  0.87471089  1
  Mn  Mn98  1  0.49928388  0.66635187  0.00057409  1
  Mn  Mn99  1  0.50030318  0.83183916  0.50062571  1
  Mn  Mn100  1  0.50027847  0.66612798  0.24987725  1
  Mn  Mn101  1  0.75084899  0.33343500  0.12502195  1
  Mn  Mn102  1  0.00007769  0.49891158  0.25015582  1
  Mn  Mn103  1  -0.00019626  0.00076222  0.75032687  1
  Mn  Mn104  1  0.00001828  0.66478078  0.74897459  1
  Mn  Mn105  1  0.25053177  0.00091803  0.12433963  1
  Mn  Mn106  1  -0.00097129  0.16822213  0.74920518  1
  Mn  Mn107  1  0.75074363  0.66803168  0.87517136  1
  Mn  Mn108  1  -0.00006015  0.83302272  0.75027649  1
  Mn  Mn109  1  0.75016053  0.16531404  0.62397431  1
  Mn  Mn110  1  0.24977452  0.66663373  0.87402613  1
  Mn  Mn111  1  0.24933007  -0.00111316  0.62560367  1
  Mn  Mn112  1  0.25045869  0.83239447  0.12462683  1
  Mn  Mn113  1  0.24925346  0.16775086  0.62545783  1
  Mn  Mn114  1  0.24952772  0.16819846  0.37556850  1
  Mn  Mn115  1  0.49993646  0.00053044  0.00026871  1
  Mn  Mn116  1  0.00038962  0.83285935  0.00078954  1
  Mn  Mn117  1  0.75035579  0.66710643  0.12570722  1
  Mn  Mn118  1  0.49933383  0.00018721  0.74961409  1
  Mn  Mn119  1  -0.00049854  0.33293742  0.00006789  1
  Mn  Mn120  1  0.75079213  0.66832552  0.62416538  1
  Mn  Mn121  1  0.49888153  -0.00017779  0.25012220  1
  Mn  Mn122  1  0.49991978  0.83332882  -0.00017493  1
  Mn  Mn123  1  -0.00036040  0.66512900  -0.00043195  1
  Mn  Mn124  1  0.75051597  0.16541677  0.12527120  1
  Mn  Mn125  1  0.50018153  0.33413603  0.74977997  1
  Mn  Mn126  1  0.50045015  0.83208935  0.75016191  1
  Mn  Mn127  1  0.75015060  0.50016216  0.87476158  1
  Mn  Mn128  1  0.75021514  0.66739607  0.37497556  1
  Mn  Mn129  1  0.49944372  0.16826408  -0.00003485  1
  Mn  Mn130  1  0.24954420  -0.00055663  0.37530619  1
  Mn  Mn131  1  0.74919754  0.33232385  0.87545054  1
  Mn  Mn132  1  0.24963662  -0.00014313  0.87483340  1
  Mn  Mn133  1  0.49952036  0.50088976  0.74940001  1
  Mn  Mn134  1  0.50000464  0.16773161  0.24996895  1
  Mn  Mn135  1  0.00037102  0.00079687  0.49974403  1
  Mn  Mn136  1  -0.00035746  0.66558686  0.49953996  1
  Mn  Mn137  1  0.00042281  0.00085331  0.00127317  1
  Mn  Mn138  1  0.00014528  0.83325947  0.49915940  1
  Mn  Mn139  1  0.49986631  0.00010876  0.49999618  1
  Mn  Mn140  1  0.49957703  0.16768739  0.74984750  1
  Mn  Mn141  1  0.50059516  0.33495308  0.25101899  1
  Mn  Mn142  1  0.24962520  0.49967519  0.62433108  1
  Mn  Mn143  1  0.74985939  0.50011429  0.62464761  1
  Fe  Fe144  1  0.74991477  -0.00034127  0.12569946  1
  Fe  Fe145  1  0.74976572  0.16584473  0.37480937  1
  Fe  Fe146  1  0.00002960  0.83292327  0.25011088  1
  Fe  Fe147  1  0.00055508  0.49879925  0.74970992  1
  Fe  Fe148  1  0.24980930  0.50018979  0.37449849  1
  Fe  Fe149  1  0.49941791  0.16696299  0.49983106  1
  Fe  Fe150  1  0.49974150  0.83285497  0.25028248  1
  Fe  Fe151  1  0.24968138  0.16726418  0.87555856  1
  Fe  Fe152  1  0.00099039  0.49874264  0.49971681  1
  Fe  Fe153  1  0.75021169  0.83431047  0.87601596  1
  Fe  Fe154  1  0.75054129  0.16549936  0.87494913  1
  Fe  Fe155  1  0.50025472  0.66577191  0.49928379  1
  Fe  Fe156  1  0.00010971  0.49906499  0.00011231  1
  Fe  Fe157  1  0.50002561  0.33365716  0.49975516  1
  Fe  Fe158  1  0.50037323  0.33480975  0.00080739  1
  Fe  Fe159  1  0.75001278  0.33347611  0.37433783  1
  Fe  Fe160  1  0.50025118  0.50023606  0.25066034  1
  Fe  Fe161  1  -0.00045945  0.16654699  0.00111241  1
  Fe  Fe162  1  0.50026630  0.66596544  0.74979300  1
  Fe  Fe163  1  0.24978766  0.83226097  0.62391831  1
  Fe  Fe164  1  0.74988278  -0.00023304  0.62544822  1
  Fe  Fe165  1  -0.00023485  0.33260758  0.24974209  1
  Fe  Fe166  1  0.25019344  0.33339102  0.62507011  1
  Fe  Fe167  1  0.50055751  0.50019269  0.50038345  1
  Fe  Fe168  1  0.24982469  0.66679283  0.62359424  1
  Fe  Fe169  1  0.75047524  0.50001366  0.12540222  1
  Fe  Fe170  1  -0.00008600  0.00036683  0.25019607  1
  Fe  Fe171  1  -0.00031084  0.16737286  0.49900886  1
  Fe  Fe172  1  0.00033290  0.33332275  0.49958156  1
  Fe  Fe173  1  0.24998665  0.83248410  0.37432439  1
  Fe  Fe174  1  0.75025624  -0.00053185  0.87572713  1
  Fe  Fe175  1  0.24944581  0.33268219  0.87593111  1
  Fe  Fe176  1  0.00029920  0.66565494  0.25009380  1
  Fe  Fe177  1  0.74989842  0.83476414  0.62560195  1
  Fe  Fe178  1  0.75084911  0.50010500  0.37477544  1
  Fe  Fe179  1  0.74965634  0.83436226  0.37542934  1
  Fe  Fe180  1  -0.00017395  0.16695437  0.25042787  1
  Fe  Fe181  1  0.24985961  0.66629136  0.37466508  1
  Fe  Fe182  1  0.24971296  0.16790023  0.12537126  1
  Fe  Fe183  1  0.24992397  0.33377926  0.12504604  1
  Fe  Fe184  1  0.24997535  0.50003498  0.12535265  1
  Fe  Fe185  1  0.75021803  0.83407551  0.12590815  1
  Fe  Fe186  1  0.25047603  0.33447709  0.37415416  1
  Fe  Fe187  1  0.24976113  0.83256518  0.87450846  1
  Fe  Fe188  1  0.00026269  0.33361354  0.74954211  1
  Fe  Fe189  1  0.75001814  -0.00066264  0.37543600  1
  Fe  Fe190  1  0.50025652  0.50064593  0.00013530  1
  Fe  Fe191  1  0.24940533  0.66610116  0.12511813  1
  P  P192  1  0.04168465  0.24859016  0.10343353  1
  P  P193  1  0.04135117  0.25027279  0.35189337  1
  P  P194  1  0.04129685  0.25016755  0.60104960  1
  P  P195  1  0.04185139  0.25166934  0.85250979  1
  P  P196  1  0.04209401  0.58129010  0.10276958  1
  P  P197  1  0.04270596  0.58339410  0.35238604  1
  P  P198  1  0.04276717  0.58059957  0.60204148  1
  P  P199  1  0.04264136  0.58095111  0.85229893  1
  P  P200  1  0.04255562  0.91665328  0.10480335  1
  P  P201  1  0.04134770  0.91706736  0.35114400  1
  P  P202  1  0.04281517  0.91680729  0.60274191  1
  P  P203  1  0.04277603  0.91715625  0.85356591  1
  P  P204  1  0.54266110  0.25245027  0.10276889  1
  P  P205  1  0.54265069  0.25055338  0.35438014  1
  P  P206  1  0.54158608  0.25020601  0.60086994  1
  P  P207  1  0.54247187  0.25144977  0.85378311  1
  P  P208  1  0.54220203  0.58220645  0.10316414  1
  P  P209  1  0.54247961  0.58191804  0.35333130  1
  P  P210  1  0.54216568  0.58371985  0.60159850  1
  P  P211  1  0.54255477  0.58414680  0.85275262  1
  P  P212  1  0.54246651  0.91653713  0.10393660  1
  P  P213  1  0.54159519  0.91520259  0.35260568  1
  P  P214  1  0.54288285  0.91626955  0.60314560  1
  P  P215  1  0.54273846  0.91674657  0.85306797  1
  P  P216  1  0.45665747  0.08434933  0.14699076  1
  P  P217  1  0.45711443  0.08462493  0.39768509  1
  P  P218  1  0.45666127  0.08419075  0.64614152  1
  P  P219  1  0.45665872  0.08403598  0.89693714  1
  P  P220  1  0.45826400  0.41879415  0.14734443  1
  P  P221  1  0.45912817  0.41776640  0.39853117  1
  P  P222  1  0.45737196  0.41709677  0.64563340  1
  P  P223  1  0.45802240  0.41752157  0.89896231  1
  P  P224  1  0.45728363  0.75091469  0.14798018  1
  P  P225  1  0.45794077  0.74822373  0.39711773  1
  P  P226  1  0.45809244  0.74743588  0.64695033  1
  P  P227  1  0.45697660  0.74916255  0.89644048  1
  P  P228  1  0.95841859  0.08377755  0.14893756  1
  P  P229  1  0.95822463  0.08502408  0.39636880  1
  P  P230  1  0.95670505  0.08419655  0.64622826  1
  P  P231  1  0.95776747  0.08514410  0.89822148  1
  P  P232  1  0.95749669  0.41473328  0.14764259  1
  P  P233  1  0.95919862  0.41619664  0.39785084  1
  P  P234  1  0.95879595  0.41618278  0.64734202  1
  P  P235  1  0.95797419  0.41775068  0.89690786  1
  P  P236  1  0.95882697  0.74888350  0.14888676  1
  P  P237  1  0.95766456  0.74950188  0.39545355  1
  P  P238  1  0.95732363  0.74911100  0.64654721  1
  P  P239  1  0.95711171  0.74947520  0.89709475  1
  P  P240  1  0.20794150  0.08508971  0.22737648  1
  P  P241  1  0.20655416  0.08354901  0.47819399  1
  P  P242  1  0.20683591  0.08364135  0.72881214  1
  P  P243  1  0.20769163  0.08519860  0.97791690  1
  P  P244  1  0.20885132  0.41687639  0.22702935  1
  P  P245  1  0.20887505  0.41674497  0.47621175  1
  P  P246  1  0.20780778  0.41469967  0.72748272  1
  P  P247  1  0.20819367  0.41520601  0.97847154  1
  P  P248  1  0.20812925  0.74812019  0.22799710  1
  P  P249  1  0.20832560  0.74956556  0.47624222  1
  P  P250  1  0.20815212  0.74938956  0.72590124  1
  P  P251  1  0.20732367  0.75036542  0.97727038  1
  P  P252  1  0.70796784  0.08163234  0.22864053  1
  P  P253  1  0.70842239  0.08235966  0.47661525  1
  P  P254  1  0.70769483  0.08177017  0.72808242  1
  P  P255  1  0.70889805  0.08271507  0.97714658  1
  P  P256  1  0.70888711  0.41780936  0.22835238  1
  P  P257  1  0.70924497  0.41680686  0.47611489  1
  P  P258  1  0.70685421  0.41624348  0.72786570  1
  P  P259  1  0.70770426  0.41707022  0.97893527  1
  P  P260  1  0.70816990  0.75193448  0.22840030  1
  P  P261  1  0.70790226  0.75240077  0.47784926  1
  P  P262  1  0.70816097  0.75228705  0.72787268  1
  P  P263  1  0.70824366  0.75213946  0.97857460  1
  P  P264  1  0.29107827  0.25051454  0.02315665  1
  P  P265  1  0.29215362  0.25222862  0.27196275  1
  P  P266  1  0.29174259  0.25223275  0.52214131  1
  P  P267  1  0.29130142  0.25045054  0.77365921  1
  P  P268  1  0.29107165  0.58318486  0.02352820  1
  P  P269  1  0.29115318  0.58330663  0.27270095  1
  P  P270  1  0.29154151  0.58454708  0.52106322  1
  P  P271  1  0.29265150  0.58277620  0.77097250  1
  P  P272  1  0.29276797  0.91650027  0.02111794  1
  P  P273  1  0.29208341  0.91534059  0.27246540  1
  P  P274  1  0.29183856  0.91474681  0.52192852  1
  P  P275  1  0.29177218  0.91440372  0.77182534  1
  P  P276  1  0.79296727  0.24886884  0.02174095  1
  P  P277  1  0.79141692  0.24942798  0.27365242  1
  P  P278  1  0.79206151  0.24955836  0.52024961  1
  P  P279  1  0.79211258  0.24799485  0.77257169  1
  P  P280  1  0.79260723  0.58271591  0.02313842  1
  P  P281  1  0.79245335  0.58230656  0.27230272  1
  P  P282  1  0.79285910  0.58358676  0.52092432  1
  P  P283  1  0.79304238  0.58415981  0.77158177  1
  P  P284  1  0.79216530  0.91693086  0.02391913  1
  P  P285  1  0.79136354  0.91677952  0.27318750  1
  P  P286  1  0.79157797  0.91723200  0.52302511  1
  P  P287  1  0.79166983  0.91683633  0.77357256  1
  O  O288  1  0.03631034  0.24892934  0.18330972  1
  O  O289  1  0.03629389  0.25042849  0.43179406  1
  O  O290  1  0.03647615  0.25119835  0.68098741  1
  O  O291  1  0.03660481  0.25109158  0.93236850  1
  O  O292  1  0.03670228  0.58212303  0.18271668  1
  O  O293  1  0.03756960  0.58283131  0.43228857  1
  O  O294  1  0.03745605  0.58034773  0.68200611  1
  O  O295  1  0.03743907  0.58106543  0.93228723  1
  O  O296  1  0.03709038  0.91674916  0.18471666  1
  O  O297  1  0.03690792  0.91693493  0.43117523  1
  O  O298  1  0.03771873  0.91673764  0.68273369  1
  O  O299  1  0.03788872  0.91708436  0.93363043  1
  O  O300  1  0.53782343  0.25227741  0.18280880  1
  O  O301  1  0.53728757  0.25009000  0.43427345  1
  O  O302  1  0.53693765  0.25051909  0.68095570  1
  O  O303  1  0.53731790  0.25216062  0.93376343  1
  O  O304  1  0.53705470  0.58210553  0.18313843  1
  O  O305  1  0.53728206  0.58229497  0.43324919  1
  O  O306  1  0.53705469  0.58416022  0.68159073  1
  O  O307  1  0.53726991  0.58336288  0.93271338  1
  O  O308  1  0.53682580  0.91588835  0.18389431  1
  O  O309  1  0.53664621  0.91542510  0.43258827  1
  O  O310  1  0.53771595  0.91633261  0.68307097  1
  O  O311  1  0.53767474  0.91683059  0.93305865  1
  O  O312  1  0.46181910  0.08438597  0.06702220  1
  O  O313  1  0.46220586  0.08438797  0.31767697  1
  O  O314  1  0.46186770  0.08463186  0.56613540  1
  O  O315  1  0.46158362  0.08414966  0.81689744  1
  O  O316  1  0.46365203  0.41846582  0.06746496  1
  O  O317  1  0.46393426  0.41819380  0.31854628  1
  O  O318  1  0.46285112  0.41689045  0.56575632  1
  O  O319  1  0.46276941  0.41737204  0.81889928  1
  O  O320  1  0.46206818  0.75062488  0.06797649  1
  O  O321  1  0.46312759  0.74917080  0.31715031  1
  O  O322  1  0.46341604  0.74723845  0.56698068  1
  O  O323  1  0.46242544  0.74839737  0.81650067  1
  O  O324  1  0.96331931  0.08411441  0.06893846  1
  O  O325  1  0.96382563  0.08462876  0.31647769  1
  O  O326  1  0.96201823  0.08433595  0.56626673  1
  O  O327  1  0.96252376  0.08491509  0.81822511  1
  O  O328  1  0.96255352  0.41535764  0.06772497  1
  O  O329  1  0.96363806  0.41534591  0.31787903  1
  O  O330  1  0.96419531  0.41625408  0.56742404  1
  O  O331  1  0.96331979  0.41749839  0.81701673  1
  O  O332  1  0.96348741  0.74906131  0.06885765  1
  O  O333  1  0.96309862  0.74912243  0.31553224  1
  O  O334  1  0.96243768  0.74923652  0.56652499  1
  O  O335  1  0.96205248  0.74941061  0.81710906  1
  O  O336  1  0.21338218  0.08557766  0.05785373  1
  O  O337  1  0.21298716  0.08471428  0.30733481  1
  O  O338  1  0.21150107  0.08342540  0.55819147  1
  O  O339  1  0.21233233  0.08420539  0.80876361  1
  O  O340  1  0.21358505  0.41559661  0.05833632  1
  O  O341  1  0.21379212  0.41716729  0.30691933  1
  O  O342  1  0.21346508  0.41660890  0.55614870  1
  O  O343  1  0.21298263  0.41441368  0.80741267  1
  O  O344  1  0.21269738  0.74951647  0.05718958  1
  O  O345  1  0.21356376  0.74836449  0.30786845  1
  O  O346  1  0.21348433  0.74981838  0.55618049  1
  O  O347  1  0.21302526  0.74980175  0.80590886  1
  O  O348  1  0.71383199  0.08214222  0.05713289  1
  O  O349  1  0.71339087  0.08194364  0.30849964  1
  O  O350  1  0.71315040  0.08221452  0.55656734  1
  O  O351  1  0.71311412  0.08240784  0.80793114  1
  O  O352  1  0.71342245  0.41758606  0.05886921  1
  O  O353  1  0.71437947  0.41772619  0.30827679  1
  O  O354  1  0.71350431  0.41643738  0.55614385  1
  O  O355  1  0.71175146  0.41611196  0.80786710  1
  O  O356  1  0.71362380  0.75186482  0.05853996  1
  O  O357  1  0.71340033  0.75190810  0.30835315  1
  O  O358  1  0.71331540  0.75256417  0.55778472  1
  O  O359  1  0.71344487  0.75218494  0.80785189  1
  O  O360  1  0.28669901  0.25186004  0.19209403  1
  O  O361  1  0.28656503  0.25248053  0.44221848  1
  O  O362  1  0.28652900  0.25077295  0.69365340  1
  O  O363  1  0.28581437  0.25028300  0.94325159  1
  O  O364  1  0.28619827  0.58306691  0.19279225  1
  O  O365  1  0.28600542  0.58449263  0.44121073  1
  O  O366  1  0.28730996  0.58304847  0.69106625  1
  O  O367  1  0.28641851  0.58283113  0.94354595  1
  O  O368  1  0.28727233  0.91585857  0.19246891  1
  O  O369  1  0.28655098  0.91465518  0.44194582  1
  O  O370  1  0.28622255  0.91422475  0.69184709  1
  O  O371  1  0.28728957  0.91606445  0.94119883  1
  O  O372  1  0.78713217  0.24934695  0.19361141  1
  O  O373  1  0.78653058  0.24989153  0.44039302  1
  O  O374  1  0.78684841  0.24815724  0.69257198  1
  O  O375  1  0.78759194  0.24826063  0.94182297  1
  O  O376  1  0.78706790  0.58209467  0.19234518  1
  O  O377  1  0.78749871  0.58309545  0.44094601  1
  O  O378  1  0.78788812  0.58430237  0.69159781  1
  O  O379  1  0.78768514  0.58316845  0.94315481  1
  O  O380  1  0.78613551  0.91682581  0.19333879  1
  O  O381  1  0.78612299  0.91712147  0.44313622  1
  O  O382  1  0.78653384  0.91706890  0.69368334  1
  O  O383  1  0.78715695  0.91683568  0.94401462  1
  O  O384  1  0.22706829  0.25063531  0.05970772  1
  O  O385  1  0.22793888  0.25267853  0.30800840  1
  O  O386  1  0.22743834  0.25229504  0.55787088  1
  O  O387  1  0.22704330  0.25049068  0.80955604  1
  O  O388  1  0.22687160  0.58374470  0.05934109  1
  O  O389  1  0.22710712  0.58362061  0.30895997  1
  O  O390  1  0.22757570  0.58467428  0.55763363  1
  O  O391  1  0.22839701  0.58232194  0.80655562  1
  O  O392  1  0.22859666  0.91652884  0.05689023  1
  O  O393  1  0.22766364  0.91507717  0.30773700  1
  O  O394  1  0.22759331  0.91461940  0.55770272  1
  O  O395  1  0.22768715  0.91466685  0.80807387  1
  O  O396  1  0.72874972  0.24922898  0.05738430  1
  O  O397  1  0.72716460  0.24984996  0.30902060  1
  O  O398  1  0.72794040  0.24933060  0.55632709  1
  O  O399  1  0.72785905  0.24734906  0.80833827  1
  O  O400  1  0.72825859  0.58307632  0.05856401  1
  O  O401  1  0.72829568  0.58228951  0.30827401  1
  O  O402  1  0.72856767  0.58413102  0.55636272  1
  O  O403  1  0.72868002  0.58437970  0.80684451  1
  O  O404  1  0.72798354  0.91697326  0.06016753  1
  O  O405  1  0.72729920  0.91710182  0.30968203  1
  O  O406  1  0.72759239  0.91740445  0.55973439  1
  O  O407  1  0.72766600  0.91653445  0.81012405  1
  O  O408  1  0.27220408  0.08560651  0.19173924  1
  O  O409  1  0.27101862  0.08365934  0.44322049  1
  O  O410  1  0.27102430  0.08353730  0.69305757  1
  O  O411  1  0.27174206  0.08489095  0.94161613  1
  O  O412  1  0.27284089  0.41643680  0.19067446  1
  O  O413  1  0.27308927  0.41652802  0.44036982  1
  O  O414  1  0.27207702  0.41515856  0.69166744  1
  O  O415  1  0.27230658  0.41457731  0.94220575  1
  O  O416  1  0.27221476  0.74752800  0.19170346  1
  O  O417  1  0.27241243  0.74955518  0.43992216  1
  O  O418  1  0.27232914  0.74897999  0.68979077  1
  O  O419  1  0.27160546  0.75095457  0.94136916  1
  O  O420  1  0.77215879  0.08103824  0.19252269  1
  O  O421  1  0.77256504  0.08185070  0.44064047  1
  O  O422  1  0.77187142  0.08132665  0.69184355  1
  O  O423  1  0.77302655  0.08326817  0.94105252  1
  O  O424  1  0.77298558  0.41773376  0.19218077  1
  O  O425  1  0.77354296  0.41682663  0.44070136  1
  O  O426  1  0.77142267  0.41627303  0.69307922  1
  O  O427  1  0.77182509  0.41646031  0.94305230  1
  O  O428  1  0.77238582  0.75167741  0.19255871  1
  O  O429  1  0.77205626  0.75228810  0.44182737  1
  O  O430  1  0.77234731  0.75264794  0.69184878  1
  O  O431  1  0.77245040  0.75241376  0.94261221  1
  O  O432  1  0.02259706  0.08410465  0.18469243  1
  O  O433  1  0.02222840  0.08553000  0.43272978  1
  O  O434  1  0.02102259  0.08435532  0.68160059  1
  O  O435  1  0.02215067  0.08538874  0.93356886  1
  O  O436  1  0.02188177  0.41446544  0.18305362  1
  O  O437  1  0.02347614  0.41686162  0.43337936  1
  O  O438  1  0.02284094  0.41582455  0.68380629  1
  O  O439  1  0.02207331  0.41767020  0.93312765  1
  O  O440  1  0.02303838  0.74883859  0.18445754  1
  O  O441  1  0.02186077  0.74928719  0.43115292  1
  O  O442  1  0.02174692  0.74898812  0.68152135  1
  O  O443  1  0.02161687  0.74917051  0.93191255  1
  O  O444  1  0.52110066  0.08369832  0.18192689  1
  O  O445  1  0.52150749  0.08500939  0.43296389  1
  O  O446  1  0.52106120  0.08406862  0.68127574  1
  O  O447  1  0.52117858  0.08440486  0.93173845  1
  O  O448  1  0.52242889  0.41935980  0.18346626  1
  O  O449  1  0.52324909  0.41794503  0.43438694  1
  O  O450  1  0.52158292  0.41752304  0.68137230  1
  O  O451  1  0.52233788  0.41763979  0.93451945  1
  O  O452  1  0.52175080  0.75113954  0.18307152  1
  O  O453  1  0.52221851  0.74785298  0.43273224  1
  O  O454  1  0.52229926  0.74743431  0.68283823  1
  O  O455  1  0.52128598  0.74911096  0.93184403  1
  O  O456  1  0.47822920  0.25275614  0.06763199  1
  O  O457  1  0.47846068  0.25105836  0.31864717  1
  O  O458  1  0.47723662  0.24998163  0.56555214  1
  O  O459  1  0.47806958  0.25119544  0.81858928  1
  O  O460  1  0.47787878  0.58180637  0.06761362  1
  O  O461  1  0.47826291  0.58174008  0.31744295  1
  O  O462  1  0.47798281  0.58317740  0.56559628  1
  O  O463  1  0.47819873  0.58488876  0.81708963  1
  O  O464  1  0.47818789  0.91679429  0.06848784  1
  O  O465  1  0.47724760  0.91480644  0.31729379  1
  O  O466  1  0.47845093  0.91611664  0.56818194  1
  O  O467  1  0.47833228  0.91608547  0.81800146  1
  O  O468  1  0.97755061  0.24840571  0.06736974  1
  O  O469  1  0.97719783  0.25011861  0.31574807  1
  O  O470  1  0.97717437  0.24960615  0.56508897  1
  O  O471  1  0.97762636  0.25254292  0.81663055  1
  O  O472  1  0.97786609  0.58066629  0.06697670  1
  O  O473  1  0.97837839  0.58350273  0.31687448  1
  O  O474  1  0.97852196  0.58020494  0.56626028  1
  O  O475  1  0.97837826  0.58079888  0.81663121  1
  O  O476  1  0.97838991  0.91676482  0.06901900  1
  O  O477  1  0.97708404  0.91725568  0.31577671  1
  O  O478  1  0.97838193  0.91687385  0.56774927  1
  O  O479  1  0.97824483  0.91707935  0.81879752  1
  O  O480  1  0.07287442  0.31204670  0.07513370  1
  O  O481  1  0.07207471  0.31393687  0.32312708  1
  O  O482  1  0.07194252  0.31372468  0.57195077  1
  O  O483  1  0.07293959  0.31505485  0.82399814  1
  O  O484  1  0.07314234  0.64473779  0.07438170  1
  O  O485  1  0.07322476  0.64706286  0.32377593  1
  O  O486  1  0.07333456  0.64467844  0.57442626  1
  O  O487  1  0.07354099  0.64478698  0.82432511  1
  O  O488  1  0.07388988  0.98003893  0.07643351  1
  O  O489  1  0.07244502  0.98069742  0.32327472  1
  O  O490  1  0.07389348  0.98030026  0.57461131  1
  O  O491  1  0.07362018  0.98079311  0.82550181  1
  O  O492  1  0.57341727  0.31598798  0.07435576  1
  O  O493  1  0.57403149  0.31399756  0.32631331  1
  O  O494  1  0.57209559  0.31407107  0.57247258  1
  O  O495  1  0.57369140  0.31459601  0.82493965  1
  O  O496  1  0.57280670  0.64636314  0.07565438  1
  O  O497  1  0.57363492  0.64545373  0.32498611  1
  O  O498  1  0.57295467  0.64720354  0.57291823  1
  O  O499  1  0.57354919  0.64766751  0.82448488  1
  O  O500  1  0.57354543  0.98028615  0.07621920  1
  O  O501  1  0.57236820  0.97910536  0.32496909  1
  O  O502  1  0.57378657  0.97979268  0.57482605  1
  O  O503  1  0.57327562  0.98049921  0.82489902  1
  O  O504  1  0.42509995  0.02111967  0.17507968  1
  O  O505  1  0.42628000  0.02072027  0.42528619  1
  O  O506  1  0.42567139  0.02042276  0.67395215  1
  O  O507  1  0.42586449  0.02036007  0.92489594  1
  O  O508  1  0.42748454  0.35506697  0.17572993  1
  O  O509  1  0.42890480  0.35347015  0.42640172  1
  O  O510  1  0.42639413  0.35369704  0.67443895  1
  O  O511  1  0.42745911  0.35382481  0.92748950  1
  O  O512  1  0.42657020  0.68704570  0.17582234  1
  O  O513  1  0.42734104  0.68435427  0.42508902  1
  O  O514  1  0.42706587  0.68420581  0.67565935  1
  O  O515  1  0.42543588  0.68618745  0.92529056  1
  O  O516  1  0.92814500  0.01958365  0.17696299  1
  O  O517  1  0.92717914  0.02131672  0.42433170  1
  O  O518  1  0.92590500  0.02060206  0.67472684  1
  O  O519  1  0.92698074  0.02141657  0.92634593  1
  O  O520  1  0.92683704  0.35105292  0.17608703  1
  O  O521  1  0.92873809  0.35260093  0.42698989  1
  O  O522  1  0.92764619  0.35262419  0.67569406  1
  O  O523  1  0.92652117  0.35433232  0.92500719  1
  O  O524  1  0.92786415  0.68516985  0.17673749  1
  O  O525  1  0.92613151  0.68640114  0.42407970  1
  O  O526  1  0.92632579  0.68544515  0.67431429  1
  O  O527  1  0.92600237  0.68596623  0.92521586  1
  O  O528  1  0.17718974  0.02128404  0.19950401  1
  O  O529  1  0.17562986  0.02006005  0.44986827  1
  O  O530  1  0.17580725  0.01992300  0.70114937  1
  O  O531  1  0.17636949  0.02143013  0.95073773  1
  O  O532  1  0.17729825  0.35361690  0.19883287  1
  O  O533  1  0.17755917  0.35360929  0.44751515  1
  O  O534  1  0.17715199  0.35136300  0.69833924  1
  O  O535  1  0.17674318  0.35197062  0.95010992  1
  O  O536  1  0.17689475  0.68484969  0.19934321  1
  O  O537  1  0.17722993  0.68597879  0.44813853  1
  O  O538  1  0.17739643  0.68553377  0.69786748  1
  O  O539  1  0.17632257  0.68682454  0.94891719  1
  O  O540  1  0.67667489  0.01850549  0.19990295  1
  O  O541  1  0.67678495  0.01928931  0.44831295  1
  O  O542  1  0.67675760  0.01832444  0.69949767  1
  O  O543  1  0.67829806  0.01900396  0.94862863  1
  O  O544  1  0.67753862  0.35418176  0.20065189  1
  O  O545  1  0.67859609  0.35311005  0.44756586  1
  O  O546  1  0.67588018  0.35276470  0.69952919  1
  O  O547  1  0.67637855  0.35341933  0.95148221  1
  O  O548  1  0.67700191  0.68814451  0.20084912  1
  O  O549  1  0.67687545  0.68856653  0.45027069  1
  O  O550  1  0.67740349  0.68842155  0.69990738  1
  O  O551  1  0.67738849  0.68827581  0.95070305  1
  O  O552  1  0.32222429  0.31406328  0.05137112  1
  O  O553  1  0.32332920  0.31564000  0.30044110  1
  O  O554  1  0.32279428  0.31544563  0.55095483  1
  O  O555  1  0.32239006  0.31377761  0.80233281  1
  O  O556  1  0.32228877  0.64667927  0.05144129  1
  O  O557  1  0.32262554  0.64651969  0.30108628  1
  O  O558  1  0.32258577  0.64790089  0.54971153  1
  O  O559  1  0.32368789  0.64608779  0.79951577  1
  O  O560  1  0.32370459  0.98030035  0.04886571  1
  O  O561  1  0.32308292  0.97894317  0.30051030  1
  O  O562  1  0.32274420  0.97857582  0.54969394  1
  O  O563  1  0.32306310  0.97817486  0.79910990  1
  O  O564  1  0.82410510  0.31256040  0.04940935  1
  O  O565  1  0.82244463  0.31305265  0.30172382  1
  O  O566  1  0.82330840  0.31284143  0.54893016  1
  O  O567  1  0.82275613  0.31197796  0.80016710  1
  O  O568  1  0.82406959  0.64608702  0.05111745  1
  O  O569  1  0.82334065  0.64626497  0.29964034  1
  O  O570  1  0.82414490  0.64719027  0.54852421  1
  O  O571  1  0.82426109  0.64750249  0.79979934  1
  O  O572  1  0.82293565  0.98059252  0.05245065  1
  O  O573  1  0.82260065  0.98013193  0.30173141  1
  O  O574  1  0.82259187  0.98081228  0.55132343  1
  O  O575  1  0.82239089  0.98048916  0.80234368  1
  O  O576  1  0.42621290  0.14818860  0.17500431  1
  O  O577  1  0.42618821  0.14806912  0.42602132  1
  O  O578  1  0.42546204  0.14737805  0.67484525  1
  O  O579  1  0.42553528  0.14741440  0.92522866  1
  O  O580  1  0.42696970  0.48189761  0.17616046  1
  O  O581  1  0.42763444  0.48079806  0.42707664  1
  O  O582  1  0.42600264  0.48042423  0.67384619  1
  O  O583  1  0.42729729  0.48130164  0.92694428  1
  O  O584  1  0.42651413  0.81429933  0.17659489  1
  O  O585  1  0.42672716  0.81145821  0.42565729  1
  O  O586  1  0.42724373  0.81138892  0.67441556  1
  O  O587  1  0.42621719  0.81297918  0.92413725  1
  O  O588  1  0.92688896  0.14680429  0.17748698  1
  O  O589  1  0.92711243  0.14835360  0.42483894  1
  O  O590  1  0.92540686  0.14748914  0.67442227  1
  O  O591  1  0.92716676  0.14869314  0.92672527  1
  O  O592  1  0.92641730  0.47805478  0.17611527  1
  O  O593  1  0.92820247  0.47984697  0.42571713  1
  O  O594  1  0.92796991  0.47974928  0.67583677  1
  O  O595  1  0.92730490  0.48116172  0.92599527  1
  O  O596  1  0.92838060  0.81279382  0.17722179  1
  O  O597  1  0.92674169  0.81322388  0.42348590  1
  O  O598  1  0.92634950  0.81259230  0.67471383  1
  O  O599  1  0.92638654  0.81294632  0.92565345  1
  O  O600  1  0.07246330  0.18513617  0.07468790  1
  O  O601  1  0.07247840  0.18683843  0.32355564  1
  O  O602  1  0.07223603  0.18647235  0.57323647  1
  O  O603  1  0.07253994  0.18804630  0.82415872  1
  O  O604  1  0.07288256  0.51758558  0.07477060  1
  O  O605  1  0.07389649  0.51999471  0.32417289  1
  O  O606  1  0.07404804  0.51753693  0.57324818  1
  O  O607  1  0.07372732  0.51776895  0.82357953  1
  O  O608  1  0.07376312  0.85322545  0.07652822  1
  O  O609  1  0.07169066  0.85313431  0.32278622  1
  O  O610  1  0.07374726  0.85333729  0.57440132  1
  O  O611  1  0.07372297  0.85366340  0.82529515  1
  O  O612  1  0.57350165  0.18864687  0.07504119  1
  O  O613  1  0.57364491  0.18724542  0.32555612  1
  O  O614  1  0.57246924  0.18654239  0.57292649  1
  O  O615  1  0.57333704  0.18772323  0.82584982  1
  O  O616  1  0.57345975  0.51932330  0.07412120  1
  O  O617  1  0.57344098  0.51861892  0.32459880  1
  O  O618  1  0.57312083  0.51994385  0.57377910  1
  O  O619  1  0.57328449  0.52061091  0.82419609  1
  O  O620  1  0.57371561  0.85338021  0.07538895  1
  O  O621  1  0.57241791  0.85171175  0.32421253  1
  O  O622  1  0.57392989  0.85277409  0.57520664  1
  O  O623  1  0.57407888  0.85336929  0.82519143  1
  O  O624  1  0.32197002  0.18698983  0.05172423  1
  O  O625  1  0.32312551  0.18873127  0.30039295  1
  O  O626  1  0.32246409  0.18836479  0.54991226  1
  O  O627  1  0.32172863  0.18647762  0.80176447  1
  O  O628  1  0.32121220  0.51923156  0.05208839  1
  O  O629  1  0.32153960  0.51946049  0.30155190  1
  O  O630  1  0.32266555  0.52093025  0.54888758  1
  O  O631  1  0.32381441  0.51928015  0.79907395  1
  O  O632  1  0.32418391  0.85337768  0.04956211  1
  O  O633  1  0.32269166  0.85163213  0.30061577  1
  O  O634  1  0.32295655  0.85144317  0.55040564  1
  O  O635  1  0.32250630  0.85090861  0.80031129  1
  O  O636  1  0.82411462  0.18575700  0.05059747  1
  O  O637  1  0.82159290  0.18545264  0.30195332  1
  O  O638  1  0.82329353  0.18609315  0.54823713  1
  O  O639  1  0.82327394  0.18471006  0.80085043  1
  O  O640  1  0.82289563  0.51887785  0.05148495  1
  O  O641  1  0.82360063  0.51913105  0.30102969  1
  O  O642  1  0.82383302  0.52021889  0.54941974  1
  O  O643  1  0.82382254  0.52043567  0.79943099  1
  O  O644  1  0.82305546  0.85341733  0.05259332  1
  O  O645  1  0.82205957  0.85307436  0.30156592  1
  O  O646  1  0.82245884  0.85363460  0.55140240  1
  O  O647  1  0.82282995  0.85345360  0.80204144  1
  O  O648  1  0.17701119  0.14864538  0.19934032  1
  O  O649  1  0.17564243  0.14709904  0.45015448  1
  O  O650  1  0.17550252  0.14686525  0.70039935  1
  O  O651  1  0.17684358  0.14860264  0.94930650  1
  O  O652  1  0.17846952  0.48072028  0.19823794  1
  O  O653  1  0.17873166  0.48082886  0.44782894  1
  O  O654  1  0.17666675  0.47830921  0.69972219  1
  O  O655  1  0.17748318  0.47889579  0.95007030  1
  O  O656  1  0.17723617  0.81180061  0.19997580  1
  O  O657  1  0.17746668  0.81313815  0.44757169  1
  O  O658  1  0.17735303  0.81290669  0.69741427  1
  O  O659  1  0.17654111  0.81399364  0.94913801  1
  O  O660  1  0.67718789  0.14539589  0.20038621  1
  O  O661  1  0.67844494  0.14652981  0.44819724  1
  O  O662  1  0.67662178  0.14517073  0.69940179  1
  O  O663  1  0.67783606  0.14636583  0.94932014  1
  O  O664  1  0.67809160  0.48125685  0.19955177  1
  O  O665  1  0.67848651  0.48059580  0.44829691  1
  O  O666  1  0.67604024  0.47983798  0.69970526  1
  O  O667  1  0.67659001  0.48037323  0.95055193  1
  O  O668  1  0.67734202  0.81521965  0.19970528  1
  O  O669  1  0.67691804  0.81564775  0.44917380  1
  O  O670  1  0.67700551  0.81549677  0.69936079  1
  O  O671  1  0.67713369  0.81538057  0.95014097  1
