# generated using pymatgen
data_Na2MnFe(PO4)2
_symmetry_space_group_name_H-M   'P 1'
_cell_length_a   22.34604995
_cell_length_b   20.09787082
_cell_length_c   19.44791478
_cell_angle_alpha   90.03292244
_cell_angle_beta   90.01598279
_cell_angle_gamma   89.96161788
_symmetry_Int_Tables_number   1
_chemical_formula_structural   Na2MnFe(PO4)2
_chemical_formula_sum   'Na96 Mn48 Fe48 P96 O384'
_cell_volume   8734.21085797
_cell_formula_units_Z   48
loop_
 _symmetry_equiv_pos_site_id
 _symmetry_equiv_pos_as_xyz
  1  'x, y, z'
loop_
 _atom_site_type_symbol
 _atom_site_label
 _atom_site_symmetry_multiplicity
 _atom_site_fract_x
 _atom_site_fract_y
 _atom_site_fract_z
 _atom_site_occupancy
  Na  Na0  1  0.13985772  0.25039755  0.24351720  1
  Na  Na1  1  0.14042830  0.25046175  0.49542413  1
  Na  Na2  1  0.14074598  0.24839226  0.74450219  1
  Na  Na3  1  0.14040905  0.24892880  0.99433127  1
  Na  Na4  1  0.14069584  0.58440580  0.24417601  1
  Na  Na5  1  0.14031755  0.58438020  0.49455227  1
  Na  Na6  1  0.14071566  0.58388566  0.74406513  1
  Na  Na7  1  0.14078745  0.58381589  0.99448537  1
  Na  Na8  1  0.13995825  0.91605064  0.24343335  1
  Na  Na9  1  0.14048569  0.91632337  0.49461953  1
  Na  Na10  1  0.14070318  0.91554817  0.74571923  1
  Na  Na11  1  0.14055588  0.91517684  0.99348745  1
  Na  Na12  1  0.63944542  0.24996265  0.24330780  1
  Na  Na13  1  0.64020927  0.25129773  0.49250502  1
  Na  Na14  1  0.64083661  0.24998545  0.74304368  1
  Na  Na15  1  0.63978270  0.25034252  0.99345534  1
  Na  Na16  1  0.63993174  0.58430822  0.24348705  1
  Na  Na17  1  0.64006591  0.58211007  0.49261802  1
  Na  Na18  1  0.64070954  0.58172659  0.74260852  1
  Na  Na19  1  0.64063845  0.58395509  0.99346597  1
  Na  Na20  1  0.63974861  0.91712732  0.24215377  1
  Na  Na21  1  0.63985909  0.91759287  0.49240133  1
  Na  Na22  1  0.64016861  0.91562713  0.74247953  1
  Na  Na23  1  0.63973440  0.91754607  0.99296064  1
  Na  Na24  1  0.36003152  0.08208311  0.00733276  1
  Na  Na25  1  0.36023480  0.08351005  0.25615283  1
  Na  Na26  1  0.35981615  0.08373952  0.50606176  1
  Na  Na27  1  0.35995181  0.08154936  0.75603128  1
  Na  Na28  1  0.36024011  0.41646423  0.00697610  1
  Na  Na29  1  0.36051842  0.41751535  0.25728853  1
  Na  Na30  1  0.36037417  0.41820462  0.50712372  1
  Na  Na31  1  0.36011946  0.41732209  0.75603659  1
  Na  Na32  1  0.36125713  0.74985027  0.00639274  1
  Na  Na33  1  0.36076590  0.75084257  0.25599790  1
  Na  Na34  1  0.36017517  0.75137739  0.50598193  1
  Na  Na35  1  0.36031772  0.75048081  0.75704287  1
  Na  Na36  1  0.85939207  0.08307825  0.00620910  1
  Na  Na37  1  0.85889267  0.08343366  0.25548051  1
  Na  Na38  1  0.85848656  0.08457301  0.50665663  1
  Na  Na39  1  0.85876501  0.08336245  0.75637506  1
  Na  Na40  1  0.85946602  0.41589389  0.00539907  1
  Na  Na41  1  0.85913346  0.41603476  0.25787288  1
  Na  Na42  1  0.85832994  0.41649288  0.50594871  1
  Na  Na43  1  0.85881660  0.41540097  0.75541876  1
  Na  Na44  1  0.85980030  0.75167687  0.00679423  1
  Na  Na45  1  0.85988584  0.75003431  0.25691854  1
  Na  Na46  1  0.85930930  0.74863258  0.50631256  1
  Na  Na47  1  0.85920868  0.74910510  0.75591909  1
  Na  Na48  1  0.10897962  0.08204505  0.11820618  1
  Na  Na49  1  0.10905433  0.08317268  0.36956561  1
  Na  Na50  1  0.10977720  0.08300551  0.62010628  1
  Na  Na51  1  0.10981584  0.08229390  0.86999059  1
  Na  Na52  1  0.10939725  0.41500067  0.11962626  1
  Na  Na53  1  0.10932288  0.41732686  0.36900417  1
  Na  Na54  1  0.10942898  0.41700782  0.61909095  1
  Na  Na55  1  0.10952284  0.41602363  0.86894176  1
  Na  Na56  1  0.10975729  0.75091445  0.11921760  1
  Na  Na57  1  0.10956564  0.74929118  0.36907161  1
  Na  Na58  1  0.11011191  0.74897913  0.61985639  1
  Na  Na59  1  0.11049904  0.75032746  0.86935612  1
  Na  Na60  1  0.60929581  0.08325677  0.11799848  1
  Na  Na61  1  0.60912746  0.08359906  0.36755975  1
  Na  Na62  1  0.60999935  0.08359863  0.61658676  1
  Na  Na63  1  0.60960014  0.08224395  0.86801379  1
  Na  Na64  1  0.60962022  0.41759492  0.11983554  1
  Na  Na65  1  0.60931986  0.41707369  0.36787080  1
  Na  Na66  1  0.60979369  0.41730244  0.61687748  1
  Na  Na67  1  0.60986119  0.41561309  0.86813264  1
  Na  Na68  1  0.60984501  0.75161929  0.11816124  1
  Na  Na69  1  0.60923097  0.75063058  0.36763546  1
  Na  Na70  1  0.60951743  0.75030636  0.61773102  1
  Na  Na71  1  0.61023949  0.74948455  0.86847720  1
  Na  Na72  1  0.39111640  0.25113884  0.13244536  1
  Na  Na73  1  0.39068232  0.25089127  0.38110631  1
  Na  Na74  1  0.39077800  0.25188181  0.63118192  1
  Na  Na75  1  0.39085872  0.24948923  0.88160968  1
  Na  Na76  1  0.39165200  0.58438463  0.13206926  1
  Na  Na77  1  0.39083735  0.58453799  0.38166278  1
  Na  Na78  1  0.39069981  0.58461441  0.63158388  1
  Na  Na79  1  0.39136442  0.58345735  0.88149155  1
  Na  Na80  1  0.39117180  0.91627175  0.13088553  1
  Na  Na81  1  0.39106960  0.91690765  0.38028296  1
  Na  Na82  1  0.39060778  0.91705237  0.63113612  1
  Na  Na83  1  0.39087368  0.91504673  0.88234365  1
  Na  Na84  1  0.89006214  0.24901803  0.13037981  1
  Na  Na85  1  0.88921135  0.25021444  0.38162209  1
  Na  Na86  1  0.88900547  0.24972851  0.63206010  1
  Na  Na87  1  0.88950100  0.24861540  0.88092234  1
  Na  Na88  1  0.89065340  0.58307656  0.13228294  1
  Na  Na89  1  0.88964652  0.58373545  0.38162569  1
  Na  Na90  1  0.88914231  0.58363063  0.63084503  1
  Na  Na91  1  0.89062428  0.58427399  0.88013361  1
  Na  Na92  1  0.88997507  0.91589497  0.13100709  1
  Na  Na93  1  0.89010157  0.91526439  0.38048687  1
  Na  Na94  1  0.89002071  0.91650645  0.63180061  1
  Na  Na95  1  0.88993187  0.91697145  0.88269076  1
  Mn  Mn96  1  0.00010235  0.83268018  0.75074879  1
  Mn  Mn97  1  0.25027319  0.83317402  0.62557140  1
  Mn  Mn98  1  0.24990826  0.33421830  0.37543079  1
  Mn  Mn99  1  -0.00119386  0.16664816  0.24968659  1
  Mn  Mn100  1  -0.00086437  -0.00137063  0.24918809  1
  Mn  Mn101  1  0.25125030  0.66784394  0.12441779  1
  Mn  Mn102  1  -0.00046819  0.16661573  0.49976452  1
  Mn  Mn103  1  0.50015816  0.16641033  0.74949215  1
  Mn  Mn104  1  0.00069610  0.66744089  0.00100581  1
  Mn  Mn105  1  -0.00064940  0.33182413  -0.00089391  1
  Mn  Mn106  1  0.25047242  0.33314822  0.87533089  1
  Mn  Mn107  1  0.50100388  0.66669853  0.74949038  1
  Mn  Mn108  1  -0.00028604  0.33241980  0.74991758  1
  Mn  Mn109  1  0.50074966  0.33431000  0.74995162  1
  Mn  Mn110  1  -0.00075310  -0.00053514  0.50034900  1
  Mn  Mn111  1  0.50060506  0.50017708  0.00093119  1
  Mn  Mn112  1  0.75059014  0.66709183  0.87450945  1
  Mn  Mn113  1  0.25043029  0.50091256  0.62566259  1
  Mn  Mn114  1  0.25035342  0.16629129  0.62574296  1
  Mn  Mn115  1  0.24975622  0.00016815  0.37483460  1
  Mn  Mn116  1  0.75097561  0.66770450  0.12436580  1
  Mn  Mn117  1  -0.00025104  0.50105848  0.74941284  1
  Mn  Mn118  1  0.50016007  -0.00118495  0.74881598  1
  Mn  Mn119  1  0.50011945  0.66745228  0.49984787  1
  Mn  Mn120  1  0.74989927  0.00088606  0.37446388  1
  Mn  Mn121  1  -0.00091915  0.50114838  0.49921357  1
  Mn  Mn122  1  -0.00038170  0.49964220  0.25021257  1
  Mn  Mn123  1  -0.00050207  0.33337594  0.50054806  1
  Mn  Mn124  1  -0.00006012  0.83183954  0.50108865  1
  Mn  Mn125  1  0.74997654  0.50013936  0.12506724  1
  Mn  Mn126  1  0.49978369  0.16700669  0.49882852  1
  Mn  Mn127  1  0.24957704  0.50160054  0.37618374  1
  Mn  Mn128  1  0.75047126  0.49895489  0.87367131  1
  Mn  Mn129  1  0.25059599  0.83315083  0.37548209  1
  Mn  Mn130  1  0.00026242  0.00044775  0.75139800  1
  Mn  Mn131  1  0.50017688  0.16660635  0.00037201  1
  Mn  Mn132  1  0.74989685  -0.00003956  0.87435737  1
  Mn  Mn133  1  0.25000851  0.16671033  0.12538521  1
  Mn  Mn134  1  0.74968524  0.83271849  0.62393888  1
  Mn  Mn135  1  0.24996031  -0.00121236  0.12549721  1
  Mn  Mn136  1  0.24982539  0.16731908  0.37571548  1
  Mn  Mn137  1  0.74995637  0.33310644  0.12530016  1
  Mn  Mn138  1  0.74989357  0.83323789  0.37488175  1
  Mn  Mn139  1  -0.00002928  0.49972319  0.00052893  1
  Mn  Mn140  1  0.24969331  0.50040658  0.87543057  1
  Mn  Mn141  1  0.75002309  0.16642424  0.12431536  1
  Mn  Mn142  1  0.25093754  0.50007432  0.12497442  1
  Mn  Mn143  1  0.25150684  0.16536141  0.87484328  1
  Fe  Fe144  1  0.25031245  0.66757692  0.37491531  1
  Fe  Fe145  1  0.50005453  0.83405384  0.49860879  1
  Fe  Fe146  1  0.49993758  -0.00017852  -0.00000296  1
  Fe  Fe147  1  0.25082172  0.83267685  0.87488011  1
  Fe  Fe148  1  0.74985638  0.83371645  0.87446841  1
  Fe  Fe149  1  0.74902731  0.00023465  0.12444118  1
  Fe  Fe150  1  0.25041848  0.83281292  0.12455573  1
  Fe  Fe151  1  0.50053360  0.83324244  0.75007798  1
  Fe  Fe152  1  0.50025016  0.50054729  0.49958681  1
  Fe  Fe153  1  0.25007558  0.33367967  0.62556391  1
  Fe  Fe154  1  0.74984781  -0.00000413  0.62490339  1
  Fe  Fe155  1  -0.00069714  0.33265797  0.24963693  1
  Fe  Fe156  1  -0.00022827  0.16594629  0.75086564  1
  Fe  Fe157  1  0.74929329  0.33280314  0.62399571  1
  Fe  Fe158  1  0.50015670  0.50070719  0.25000779  1
  Fe  Fe159  1  0.49971516  -0.00015738  0.49832794  1
  Fe  Fe160  1  0.50068794  0.83312243  0.00024306  1
  Fe  Fe161  1  0.49975431  0.33389303  0.49944193  1
  Fe  Fe162  1  0.74897489  0.66658270  0.37504782  1
  Fe  Fe163  1  0.00035080  0.83278001  0.25029022  1
  Fe  Fe164  1  -0.00016205  0.66667829  0.25023636  1
  Fe  Fe165  1  -0.00035231  -0.00060578  0.00027691  1
  Fe  Fe166  1  0.74934577  0.16686288  0.62478723  1
  Fe  Fe167  1  0.49988389  0.33424383  0.25049820  1
  Fe  Fe168  1  0.25116607  0.66674684  0.87534970  1
  Fe  Fe169  1  0.74878496  0.16707838  0.37544979  1
  Fe  Fe170  1  0.50021466  0.66752746  0.25020004  1
  Fe  Fe171  1  0.25035290  0.33349661  0.12536808  1
  Fe  Fe172  1  0.00027505  0.16584286  0.00037397  1
  Fe  Fe173  1  0.74929963  0.33303618  0.37559663  1
  Fe  Fe174  1  0.74909204  0.16628107  0.87410406  1
  Fe  Fe175  1  0.50076998  0.83396337  0.24917975  1
  Fe  Fe176  1  0.50027143  0.50012094  0.75042608  1
  Fe  Fe177  1  0.25057450  0.66724551  0.62565464  1
  Fe  Fe178  1  0.74962453  0.83395703  0.12512473  1
  Fe  Fe179  1  0.74969507  0.33271526  0.87413864  1
  Fe  Fe180  1  0.74897938  0.66586259  0.62467724  1
  Fe  Fe181  1  0.25074766  -0.00131016  0.87608078  1
  Fe  Fe182  1  0.49983174  0.16695048  0.24954258  1
  Fe  Fe183  1  0.50147593  0.66694198  0.00048932  1
  Fe  Fe184  1  -0.00002443  0.66694242  0.75061978  1
  Fe  Fe185  1  0.50011523  -0.00004005  0.24930583  1
  Fe  Fe186  1  0.25005369  -0.00046185  0.62576764  1
  Fe  Fe187  1  -0.00026542  0.66664031  0.49980388  1
  Fe  Fe188  1  0.74947897  0.49918373  0.62394113  1
  Fe  Fe189  1  0.50034581  0.33371714  0.00068870  1
  Fe  Fe190  1  0.74967591  0.50016970  0.37538023  1
  Fe  Fe191  1  -0.00052289  0.83293757  0.00028775  1
  P  P192  1  0.04203818  0.24851825  0.10273284  1
  P  P193  1  0.04179414  0.25110992  0.35232448  1
  P  P194  1  0.04227541  0.24919785  0.60401514  1
  P  P195  1  0.04231327  0.24771444  0.85308380  1
  P  P196  1  0.04288085  0.58341667  0.10422973  1
  P  P197  1  0.04187065  0.58478236  0.35264988  1
  P  P198  1  0.04181171  0.58514020  0.60267204  1
  P  P199  1  0.04289712  0.58477255  0.85281824  1
  P  P200  1  0.04132786  0.91568111  0.10178078  1
  P  P201  1  0.04219741  0.91498081  0.35254479  1
  P  P202  1  0.04272840  0.91623570  0.60390067  1
  P  P203  1  0.04227548  0.91643129  0.85489650  1
  P  P204  1  0.54194047  0.25165388  0.10354742  1
  P  P205  1  0.54078572  0.25064672  0.35150898  1
  P  P206  1  0.54202633  0.25169761  0.60145300  1
  P  P207  1  0.54291268  0.24969436  0.85315988  1
  P  P208  1  0.54288331  0.58526345  0.10360391  1
  P  P209  1  0.54102113  0.58377743  0.35180653  1
  P  P210  1  0.54215518  0.58263178  0.60229321  1
  P  P211  1  0.54306910  0.58222021  0.85265443  1
  P  P212  1  0.54129420  0.91708075  0.10192148  1
  P  P213  1  0.54152255  0.91720002  0.35128107  1
  P  P214  1  0.54146058  0.91665908  0.60050432  1
  P  P215  1  0.54242636  0.91510095  0.85271403  1
  P  P216  1  0.45897572  0.08301051  0.14782867  1
  P  P217  1  0.45784868  0.08219728  0.39592854  1
  P  P218  1  0.45775322  0.08309641  0.64560422  1
  P  P219  1  0.45789801  0.08162096  0.89767318  1
  P  P220  1  0.45906350  0.41712242  0.14863852  1
  P  P221  1  0.45883964  0.41748023  0.39773291  1
  P  P222  1  0.45840505  0.41895080  0.64691344  1
  P  P223  1  0.45827251  0.41591505  0.89805883  1
  P  P224  1  0.45969546  0.75034630  0.14771665  1
  P  P225  1  0.45829459  0.75151849  0.39644105  1
  P  P226  1  0.45826753  0.75202273  0.64720120  1
  P  P227  1  0.46001418  0.74953437  0.89839806  1
  P  P228  1  0.95681950  0.08248800  0.14565315  1
  P  P229  1  0.95611991  0.08273563  0.39669717  1
  P  P230  1  0.95708918  0.08413059  0.64825302  1
  P  P231  1  0.95839239  0.08329182  0.89873755  1
  P  P232  1  0.95695348  0.41480661  0.14759514  1
  P  P233  1  0.95666252  0.41651032  0.39636070  1
  P  P234  1  0.95669807  0.41693066  0.64679388  1
  P  P235  1  0.95696512  0.41665773  0.89646075  1
  P  P236  1  0.95847609  0.75038086  0.14855082  1
  P  P237  1  0.95751075  0.74844515  0.39703448  1
  P  P238  1  0.95740720  0.74819723  0.64771236  1
  P  P239  1  0.95763851  0.75070614  0.89775171  1
  P  P240  1  0.20663629  0.08318646  0.22817858  1
  P  P241  1  0.20711171  0.08329031  0.47913538  1
  P  P242  1  0.20832614  0.08099631  0.72866581  1
  P  P243  1  0.20836817  0.08149130  0.97775458  1
  P  P244  1  0.20817949  0.41636320  0.22764893  1
  P  P245  1  0.20711116  0.41735453  0.47933361  1
  P  P246  1  0.20763431  0.41588550  0.72779063  1
  P  P247  1  0.20736240  0.41628951  0.97900231  1
  P  P248  1  0.20821914  0.75118583  0.22761295  1
  P  P249  1  0.20802294  0.74876300  0.47816583  1
  P  P250  1  0.20862461  0.74882282  0.72872288  1
  P  P251  1  0.20958291  0.74999604  0.97683880  1
  P  P252  1  0.70712966  0.08273134  0.22708920  1
  P  P253  1  0.70708810  0.08507089  0.47788322  1
  P  P254  1  0.70791910  0.08328732  0.72623907  1
  P  P255  1  0.70747050  0.08426019  0.97688335  1
  P  P256  1  0.70755232  0.41697418  0.22933784  1
  P  P257  1  0.70838198  0.41674722  0.47681412  1
  P  P258  1  0.70854082  0.41553186  0.72571138  1
  P  P259  1  0.70768600  0.41536858  0.97674619  1
  P  P260  1  0.70798815  0.75101406  0.22751275  1
  P  P261  1  0.70741030  0.74845669  0.47749965  1
  P  P262  1  0.70745073  0.74877823  0.72697756  1
  P  P263  1  0.70838571  0.75223719  0.97748209  1
  P  P264  1  0.29287174  0.25077385  0.02314678  1
  P  P265  1  0.29275071  0.25068820  0.27175002  1
  P  P266  1  0.29259303  0.25156214  0.52319726  1
  P  P267  1  0.29348736  0.24989540  0.77161484  1
  P  P268  1  0.29388767  0.58391276  0.02154352  1
  P  P269  1  0.29278888  0.58517600  0.27291175  1
  P  P270  1  0.29255601  0.58579772  0.52273947  1
  P  P271  1  0.29279862  0.58480923  0.77264168  1
  P  P272  1  0.29253521  0.91467111  0.02188221  1
  P  P273  1  0.29297376  0.91609420  0.27151258  1
  P  P274  1  0.29244436  0.91782791  0.52299677  1
  P  P275  1  0.29196375  0.91644160  0.77369602  1
  P  P276  1  0.79221474  0.24992840  0.02063427  1
  P  P277  1  0.79046543  0.24955126  0.27386846  1
  P  P278  1  0.79063306  0.24979676  0.52266714  1
  P  P279  1  0.79073577  0.24932120  0.77221555  1
  P  P280  1  0.79332138  0.58336151  0.02165412  1
  P  P281  1  0.79102550  0.58357971  0.27376756  1
  P  P282  1  0.79007751  0.58294775  0.52236656  1
  P  P283  1  0.79238132  0.58292765  0.77040083  1
  P  P284  1  0.79071997  0.91698721  0.02295068  1
  P  P285  1  0.79203304  0.91675932  0.27080466  1
  P  P286  1  0.79193342  0.91801722  0.52234164  1
  P  P287  1  0.79219757  0.91548543  0.77189527  1
  O  O288  1  0.03655601  0.24947715  0.18266742  1
  O  O289  1  0.03681266  0.25090093  0.43233163  1
  O  O290  1  0.03713193  0.24838870  0.68398706  1
  O  O291  1  0.03706409  0.24764251  0.93306207  1
  O  O292  1  0.03738315  0.58389272  0.18415562  1
  O  O293  1  0.03655084  0.58497912  0.43260769  1
  O  O294  1  0.03680488  0.58529068  0.68264905  1
  O  O295  1  0.03784796  0.58429494  0.93282225  1
  O  O296  1  0.03633547  0.91511642  0.18178172  1
  O  O297  1  0.03700158  0.91524365  0.43250371  1
  O  O298  1  0.03781196  0.91637916  0.68389843  1
  O  O299  1  0.03675321  0.91641566  0.93478824  1
  O  O300  1  0.53612008  0.25140970  0.18339524  1
  O  O301  1  0.53579704  0.25070626  0.43146389  1
  O  O302  1  0.53725205  0.25153748  0.68141386  1
  O  O303  1  0.53776831  0.24992109  0.93312343  1
  O  O304  1  0.53714387  0.58521895  0.18344036  1
  O  O305  1  0.53596272  0.58316420  0.43177295  1
  O  O306  1  0.53710829  0.58250960  0.68225080  1
  O  O307  1  0.53816361  0.58280773  0.93261817  1
  O  O308  1  0.53627598  0.91738716  0.18178995  1
  O  O309  1  0.53627908  0.91709442  0.43115608  1
  O  O310  1  0.53687223  0.91637466  0.68050536  1
  O  O311  1  0.53723859  0.91566565  0.93256058  1
  O  O312  1  0.46395244  0.08289588  0.06784567  1
  O  O313  1  0.46325287  0.08230115  0.31603695  1
  O  O314  1  0.46280559  0.08290689  0.56563837  1
  O  O315  1  0.46287451  0.08163125  0.81767967  1
  O  O316  1  0.46394875  0.41695025  0.06870043  1
  O  O317  1  0.46385452  0.41707248  0.31783668  1
  O  O318  1  0.46355898  0.41884252  0.56702552  1
  O  O319  1  0.46350781  0.41652000  0.81813058  1
  O  O320  1  0.46496971  0.75023895  0.06785762  1
  O  O321  1  0.46376359  0.75090369  0.31662523  1
  O  O322  1  0.46325235  0.75222357  0.56724837  1
  O  O323  1  0.46476242  0.74986312  0.81845224  1
  O  O324  1  0.96243051  0.08252076  0.06575607  1
  O  O325  1  0.96102783  0.08262404  0.31668905  1
  O  O326  1  0.96189296  0.08373126  0.56824155  1
  O  O327  1  0.96358918  0.08378376  0.81877144  1
  O  O328  1  0.96217635  0.41503206  0.06759961  1
  O  O329  1  0.96183403  0.41585069  0.31638218  1
  O  O330  1  0.96149600  0.41704198  0.56678163  1
  O  O331  1  0.96227688  0.41677664  0.81651430  1
  O  O332  1  0.96363774  0.75088013  0.06857648  1
  O  O333  1  0.96292164  0.74879056  0.31716407  1
  O  O334  1  0.96240629  0.74810236  0.56772789  1
  O  O335  1  0.96283773  0.74987952  0.81782774  1
  O  O336  1  0.21313122  0.08189013  0.05773172  1
  O  O337  1  0.21136683  0.08337908  0.30820045  1
  O  O338  1  0.21261916  0.08284026  0.55910217  1
  O  O339  1  0.21418354  0.08076214  0.80855964  1
  O  O340  1  0.21275474  0.41591425  0.05896741  1
  O  O341  1  0.21262754  0.41692970  0.30772669  1
  O  O342  1  0.21236547  0.41686179  0.55929413  1
  O  O343  1  0.21270570  0.41628323  0.80779546  1
  O  O344  1  0.21434743  0.75102160  0.05681857  1
  O  O345  1  0.21312925  0.75054983  0.30757540  1
  O  O346  1  0.21324734  0.74862967  0.55813705  1
  O  O347  1  0.21409442  0.74871837  0.80856493  1
  O  O348  1  0.71257315  0.08349761  0.05681448  1
  O  O349  1  0.71194551  0.08322070  0.30701886  1
  O  O350  1  0.71246618  0.08490591  0.55773481  1
  O  O351  1  0.71307681  0.08335315  0.80624309  1
  O  O352  1  0.71282936  0.41587013  0.05673769  1
  O  O353  1  0.71281331  0.41724510  0.30923083  1
  O  O354  1  0.71314040  0.41629469  0.55670122  1
  O  O355  1  0.71340051  0.41512329  0.80566217  1
  O  O356  1  0.71378743  0.75259697  0.05744672  1
  O  O357  1  0.71279706  0.75017962  0.30750660  1
  O  O358  1  0.71250155  0.74825198  0.55746152  1
  O  O359  1  0.71287550  0.74957325  0.80689436  1
  O  O360  1  0.28772662  0.25121320  0.19176048  1
  O  O361  1  0.28721831  0.25130201  0.44320551  1
  O  O362  1  0.28785585  0.25053503  0.69169706  1
  O  O363  1  0.28837054  0.25031221  0.94309461  1
  O  O364  1  0.28812839  0.58464504  0.19291939  1
  O  O365  1  0.28714544  0.58587801  0.44278078  1
  O  O366  1  0.28745855  0.58492007  0.69265706  1
  O  O367  1  0.28871334  0.58411776  0.94159860  1
  O  O368  1  0.28786154  0.91529657  0.19154677  1
  O  O369  1  0.28729439  0.91744786  0.44306373  1
  O  O370  1  0.28706222  0.91668881  0.69371148  1
  O  O371  1  0.28721325  0.91510342  0.94197831  1
  O  O372  1  0.78595863  0.24982210  0.19387263  1
  O  O373  1  0.78547850  0.24988475  0.44278613  1
  O  O374  1  0.78536173  0.24884913  0.69234358  1
  O  O375  1  0.78698753  0.24989512  0.94074204  1
  O  O376  1  0.78668485  0.58385850  0.19371555  1
  O  O377  1  0.78481378  0.58285754  0.44245705  1
  O  O378  1  0.78665224  0.58327449  0.69053796  1
  O  O379  1  0.78838787  0.58331193  0.94168347  1
  O  O380  1  0.78647588  0.91665189  0.19088226  1
  O  O381  1  0.78672264  0.91783866  0.44239010  1
  O  O382  1  0.78718530  0.91605996  0.69196259  1
  O  O383  1  0.78595849  0.91667189  0.94291333  1
  O  O384  1  0.22834569  0.25076418  0.05797332  1
  O  O385  1  0.22831742  0.25057612  0.30684854  1
  O  O386  1  0.22837505  0.25146484  0.55894196  1
  O  O387  1  0.22925212  0.24917691  0.80715633  1
  O  O388  1  0.22952706  0.58386008  0.05673425  1
  O  O389  1  0.22831333  0.58572026  0.30810236  1
  O  O390  1  0.22836945  0.58555893  0.55863605  1
  O  O391  1  0.22853675  0.58538996  0.80841047  1
  O  O392  1  0.22831354  0.91407244  0.05787308  1
  O  O393  1  0.22859165  0.91613045  0.30666343  1
  O  O394  1  0.22820498  0.91773818  0.55872662  1
  O  O395  1  0.22786931  0.91657632  0.80964651  1
  O  O396  1  0.72799744  0.24997481  0.05635416  1
  O  O397  1  0.72617144  0.24902556  0.30935362  1
  O  O398  1  0.72655122  0.24933841  0.55888095  1
  O  O399  1  0.72680360  0.24983300  0.80891307  1
  O  O400  1  0.72883635  0.58381531  0.05654764  1
  O  O401  1  0.72669705  0.58310275  0.30917973  1
  O  O402  1  0.72616149  0.58312301  0.55891272  1
  O  O403  1  0.72832905  0.58293055  0.80650990  1
  O  O404  1  0.72653637  0.91679031  0.05882603  1
  O  O405  1  0.72786356  0.91687470  0.30663613  1
  O  O406  1  0.72762888  0.91792658  0.55784379  1
  O  O407  1  0.72785176  0.91543252  0.80742400  1
  O  O408  1  0.27124798  0.08289331  0.19362276  1
  O  O409  1  0.27143085  0.08352458  0.44365803  1
  O  O410  1  0.27239971  0.08113170  0.69242142  1
  O  O411  1  0.27283109  0.08108719  0.94262833  1
  O  O412  1  0.27270369  0.41615999  0.19279451  1
  O  O413  1  0.27146935  0.41786176  0.44409111  1
  O  O414  1  0.27200314  0.41576715  0.69241542  1
  O  O415  1  0.27171958  0.41692072  0.94372742  1
  O  O416  1  0.27266278  0.75205238  0.19222626  1
  O  O417  1  0.27234142  0.74861681  0.44249103  1
  O  O418  1  0.27274196  0.74915275  0.69251686  1
  O  O419  1  0.27378666  0.74921696  0.94108796  1
  O  O420  1  0.77143716  0.08192490  0.19155453  1
  O  O421  1  0.77126284  0.08560911  0.44179768  1
  O  O422  1  0.77205169  0.08332850  0.69019345  1
  O  O423  1  0.77168763  0.08474550  0.94110945  1
  O  O424  1  0.77177073  0.41683014  0.19354688  1
  O  O425  1  0.77238253  0.41727758  0.44064171  1
  O  O426  1  0.77257858  0.41557691  0.68971654  1
  O  O427  1  0.77196101  0.41462069  0.94110163  1
  O  O428  1  0.77231278  0.75200061  0.19202125  1
  O  O429  1  0.77168717  0.74846010  0.44196124  1
  O  O430  1  0.77160751  0.74840083  0.69106209  1
  O  O431  1  0.77252998  0.75220920  0.94151834  1
  O  O432  1  0.02090708  0.08280213  0.18165742  1
  O  O433  1  0.02067375  0.08271041  0.43151103  1
  O  O434  1  0.02158344  0.08471696  0.68346015  1
  O  O435  1  0.02248069  0.08263441  0.93496212  1
  O  O436  1  0.02128782  0.41465932  0.18313508  1
  O  O437  1  0.02096930  0.41692919  0.43172960  1
  O  O438  1  0.02115802  0.41673184  0.68171248  1
  O  O439  1  0.02130999  0.41617746  0.93174977  1
  O  O440  1  0.02263216  0.75020090  0.18462856  1
  O  O441  1  0.02174739  0.74798349  0.43308558  1
  O  O442  1  0.02179670  0.74815114  0.68324429  1
  O  O443  1  0.02201792  0.75156422  0.93325255  1
  O  O444  1  0.52302881  0.08275081  0.18388909  1
  O  O445  1  0.52196621  0.08235175  0.43202567  1
  O  O446  1  0.52208764  0.08287119  0.68098324  1
  O  O447  1  0.52221984  0.08178409  0.93319542  1
  O  O448  1  0.52314435  0.41688471  0.18467374  1
  O  O449  1  0.52290873  0.41745266  0.43398560  1
  O  O450  1  0.52264031  0.41917950  0.68291883  1
  O  O451  1  0.52251439  0.41544641  0.93391017  1
  O  O452  1  0.52358279  0.74970575  0.18436543  1
  O  O453  1  0.52238276  0.75178391  0.43273255  1
  O  O454  1  0.52260717  0.75177955  0.68279412  1
  O  O455  1  0.52408923  0.74929591  0.93447355  1
  O  O456  1  0.47798945  0.25169186  0.06689026  1
  O  O457  1  0.47676576  0.25092084  0.31540630  1
  O  O458  1  0.47767964  0.25155221  0.56607024  1
  O  O459  1  0.47861165  0.25016014  0.81775231  1
  O  O460  1  0.47886386  0.58544351  0.06716013  1
  O  O461  1  0.47702107  0.58458669  0.31559820  1
  O  O462  1  0.47792977  0.58280564  0.56655141  1
  O  O463  1  0.47877071  0.58233075  0.81691924  1
  O  O464  1  0.47736041  0.91707034  0.06544204  1
  O  O465  1  0.47759249  0.91751888  0.31477877  1
  O  O466  1  0.47723288  0.91633878  0.56467775  1
  O  O467  1  0.47819654  0.91485106  0.81667123  1
  O  O468  1  0.97780866  0.24761876  0.06690246  1
  O  O469  1  0.97730415  0.25143476  0.31705202  1
  O  O470  1  0.97783722  0.24953972  0.56885550  1
  O  O471  1  0.97797868  0.24774243  0.81742730  1
  O  O472  1  0.97859805  0.58364345  0.06875151  1
  O  O473  1  0.97760910  0.58458500  0.31694351  1
  O  O474  1  0.97746340  0.58542184  0.56701932  1
  O  O475  1  0.97847021  0.58530706  0.81740430  1
  O  O476  1  0.97710518  0.91586684  0.06582598  1
  O  O477  1  0.97785893  0.91429036  0.31696609  1
  O  O478  1  0.97822504  0.91578177  0.56897112  1
  O  O479  1  0.97815297  0.91643435  0.81895949  1
  O  O480  1  0.07292169  0.31197669  0.07434823  1
  O  O481  1  0.07253047  0.31457269  0.32380284  1
  O  O482  1  0.07316995  0.31300235  0.57644281  1
  O  O483  1  0.07321950  0.31153613  0.82544113  1
  O  O484  1  0.07444439  0.64651310  0.07590769  1
  O  O485  1  0.07274721  0.64801197  0.32380989  1
  O  O486  1  0.07296486  0.64817790  0.57380429  1
  O  O487  1  0.07365309  0.64833378  0.82470669  1
  O  O488  1  0.07203484  0.97955977  0.07400160  1
  O  O489  1  0.07279925  0.97874072  0.32447280  1
  O  O490  1  0.07329394  0.97979764  0.57549240  1
  O  O491  1  0.07350811  0.97982869  0.82671671  1
  O  O492  1  0.57282433  0.31512746  0.07503793  1
  O  O493  1  0.57222390  0.31396335  0.32357422  1
  O  O494  1  0.57236544  0.31542006  0.57286092  1
  O  O495  1  0.57450670  0.31267695  0.82472722  1
  O  O496  1  0.57401310  0.64844318  0.07474613  1
  O  O497  1  0.57245320  0.64728821  0.32429993  1
  O  O498  1  0.57303591  0.64646411  0.57461972  1
  O  O499  1  0.57444523  0.64540424  0.82427368  1
  O  O500  1  0.57228897  0.98049943  0.07328790  1
  O  O501  1  0.57295976  0.98042377  0.32294359  1
  O  O502  1  0.57157427  0.98072271  0.57210907  1
  O  O503  1  0.57354739  0.97846679  0.82407619  1
  O  O504  1  0.42747209  0.01979051  0.17585246  1
  O  O505  1  0.42719312  0.01869136  0.42475366  1
  O  O506  1  0.42642775  0.01994689  0.67407006  1
  O  O507  1  0.42742754  0.01800381  0.92623572  1
  O  O508  1  0.42758741  0.35407743  0.17705894  1
  O  O509  1  0.42817763  0.35384096  0.42661044  1
  O  O510  1  0.42743199  0.35530612  0.67497643  1
  O  O511  1  0.42749810  0.35233855  0.92641111  1
  O  O512  1  0.42793434  0.68733700  0.17613939  1
  O  O513  1  0.42721874  0.68816286  0.42506035  1
  O  O514  1  0.42739537  0.68824777  0.67498066  1
  O  O515  1  0.42915749  0.68590302  0.92653779  1
  O  O516  1  0.92585890  0.01894147  0.17383349  1
  O  O517  1  0.92525240  0.01926623  0.42497353  1
  O  O518  1  0.92659095  0.02031996  0.67638428  1
  O  O519  1  0.92730219  0.01950649  0.92631525  1
  O  O520  1  0.92621735  0.35123096  0.17586134  1
  O  O521  1  0.92541713  0.35347621  0.42511921  1
  O  O522  1  0.92568757  0.35345847  0.67485068  1
  O  O523  1  0.92565017  0.35319208  0.92407778  1
  O  O524  1  0.92773110  0.68645401  0.17626727  1
  O  O525  1  0.92643251  0.68519160  0.42573974  1
  O  O526  1  0.92652970  0.68503430  0.67661522  1
  O  O527  1  0.92681572  0.68728132  0.92629319  1
  O  O528  1  0.17564470  0.01969798  0.19996363  1
  O  O529  1  0.17585464  0.02010314  0.45059767  1
  O  O530  1  0.17729494  0.01770020  0.70005472  1
  O  O531  1  0.17757550  0.01790620  0.94959223  1
  O  O532  1  0.17776083  0.35263706  0.19910889  1
  O  O533  1  0.17587844  0.35422612  0.45064096  1
  O  O534  1  0.17696670  0.35223072  0.69964394  1
  O  O535  1  0.17636355  0.35296902  0.95042570  1
  O  O536  1  0.17761466  0.68756406  0.19910391  1
  O  O537  1  0.17705020  0.68572153  0.44894833  1
  O  O538  1  0.17785707  0.68552921  0.69958607  1
  O  O539  1  0.17839611  0.68625855  0.94945769  1
  O  O540  1  0.67631894  0.01927016  0.19833825  1
  O  O541  1  0.67631875  0.02133755  0.44969880  1
  O  O542  1  0.67751361  0.01922922  0.69810415  1
  O  O543  1  0.67649747  0.02077948  0.94849530  1
  O  O544  1  0.67636978  0.35356192  0.20106496  1
  O  O545  1  0.67811737  0.35280874  0.44793379  1
  O  O546  1  0.67732521  0.35226349  0.69707362  1
  O  O547  1  0.67659797  0.35206851  0.94839699  1
  O  O548  1  0.67741891  0.68738340  0.19897534  1
  O  O549  1  0.67643129  0.68525393  0.44853190  1
  O  O550  1  0.67661586  0.68510212  0.69890966  1
  O  O551  1  0.67748842  0.68825093  0.95016597  1
  O  O552  1  0.32310438  0.31453739  0.05183467  1
  O  O553  1  0.32407715  0.31375751  0.30050758  1
  O  O554  1  0.32312742  0.31533497  0.55131249  1
  O  O555  1  0.32459662  0.31314567  0.80019304  1
  O  O556  1  0.32509621  0.64717873  0.04996697  1
  O  O557  1  0.32354759  0.64876502  0.30110750  1
  O  O558  1  0.32353348  0.64905277  0.55151324  1
  O  O559  1  0.32427477  0.64779878  0.80127750  1
  O  O560  1  0.32326717  0.97837863  0.05023782  1
  O  O561  1  0.32368041  0.97998539  0.29917282  1
  O  O562  1  0.32306205  0.98137415  0.55138682  1
  O  O563  1  0.32333211  0.97953421  0.80234534  1
  O  O564  1  0.82344969  0.31312422  0.04945071  1
  O  O565  1  0.82056233  0.31351178  0.30255321  1
  O  O566  1  0.82100599  0.31376230  0.55118280  1
  O  O567  1  0.82201221  0.31285041  0.80018216  1
  O  O568  1  0.82444797  0.64682175  0.04982036  1
  O  O569  1  0.82115611  0.64759449  0.30217971  1
  O  O570  1  0.82134797  0.64634536  0.55065116  1
  O  O571  1  0.82374627  0.64608489  0.79912178  1
  O  O572  1  0.82095030  0.98115753  0.05088312  1
  O  O573  1  0.82335601  0.98009384  0.29902373  1
  O  O574  1  0.82245540  0.98160654  0.55090414  1
  O  O575  1  0.82337333  0.97887568  0.80031571  1
  O  O576  1  0.42868751  0.14718484  0.17597759  1
  O  O577  1  0.42634330  0.14562106  0.42395031  1
  O  O578  1  0.42704387  0.14684285  0.67380855  1
  O  O579  1  0.42665486  0.14514288  0.92556413  1
  O  O580  1  0.42882578  0.48135062  0.17678233  1
  O  O581  1  0.42774417  0.48110222  0.42587634  1
  O  O582  1  0.42746597  0.48222658  0.67611007  1
  O  O583  1  0.42721952  0.47948743  0.92618772  1
  O  O584  1  0.42942773  0.81446316  0.17610646  1
  O  O585  1  0.42729465  0.81504852  0.42479461  1
  O  O586  1  0.42754608  0.81528233  0.67644778  1
  O  O587  1  0.42932710  0.81319223  0.92710484  1
  O  O588  1  0.92515579  0.14566208  0.17399695  1
  O  O589  1  0.92533030  0.14638932  0.42483632  1
  O  O590  1  0.92609730  0.14747265  0.67679745  1
  O  O591  1  0.92763094  0.14689640  0.92710570  1
  O  O592  1  0.92590312  0.47848618  0.17538604  1
  O  O593  1  0.92565873  0.48034897  0.42399059  1
  O  O594  1  0.92587224  0.48055963  0.67480595  1
  O  O595  1  0.92625857  0.48032015  0.92470175  1
  O  O596  1  0.92747907  0.81380775  0.17703972  1
  O  O597  1  0.92650225  0.81202283  0.42546374  1
  O  O598  1  0.92654845  0.81213499  0.67535351  1
  O  O599  1  0.92656637  0.81425215  0.92593660  1
  O  O600  1  0.07318000  0.18490816  0.07481317  1
  O  O601  1  0.07257359  0.18726639  0.32456142  1
  O  O602  1  0.07351096  0.18611933  0.57504461  1
  O  O603  1  0.07326069  0.18431201  0.82462892  1
  O  O604  1  0.07359655  0.51956758  0.07631832  1
  O  O605  1  0.07308842  0.52098205  0.32524760  1
  O  O606  1  0.07243784  0.52110972  0.57489518  1
  O  O607  1  0.07362646  0.52104156  0.82463697  1
  O  O608  1  0.07230750  0.85224025  0.07318973  1
  O  O609  1  0.07334288  0.85158048  0.32424448  1
  O  O610  1  0.07393631  0.85273864  0.57596517  1
  O  O611  1  0.07363993  0.85315253  0.82646559  1
  O  O612  1  0.57331234  0.18808752  0.07565831  1
  O  O613  1  0.57110938  0.18659993  0.32313388  1
  O  O614  1  0.57326626  0.18823655  0.57356137  1
  O  O615  1  0.57342085  0.18582258  0.82488302  1
  O  O616  1  0.57406405  0.52156310  0.07575896  1
  O  O617  1  0.57137809  0.51992893  0.32313742  1
  O  O618  1  0.57312978  0.51945684  0.57328151  1
  O  O619  1  0.57331641  0.51829602  0.82419523  1
  O  O620  1  0.57207209  0.85327143  0.07363733  1
  O  O621  1  0.57206675  0.85330067  0.32270352  1
  O  O622  1  0.57280196  0.85338870  0.57200014  1
  O  O623  1  0.57319687  0.85157813  0.82390475  1
  O  O624  1  0.32407972  0.18719328  0.05099204  1
  O  O625  1  0.32349926  0.18686438  0.29968919  1
  O  O626  1  0.32396945  0.18798419  0.55062504  1
  O  O627  1  0.32481589  0.18623013  0.79919021  1
  O  O628  1  0.32490679  0.52042494  0.04986177  1
  O  O629  1  0.32340008  0.52148375  0.30126225  1
  O  O630  1  0.32369749  0.52202350  0.55031366  1
  O  O631  1  0.32324812  0.52065327  0.80019714  1
  O  O632  1  0.32378958  0.85138588  0.05034674  1
  O  O633  1  0.32442686  0.85318286  0.30045174  1
  O  O634  1  0.32352159  0.85412706  0.55069157  1
  O  O635  1  0.32230470  0.85228017  0.80181464  1
  O  O636  1  0.82330208  0.18649227  0.04919724  1
  O  O637  1  0.82169299  0.18605560  0.30168430  1
  O  O638  1  0.82220056  0.18672283  0.55128771  1
  O  O639  1  0.82126579  0.18556844  0.80096322  1
  O  O640  1  0.82397736  0.51978624  0.05008527  1
  O  O641  1  0.82219499  0.52011205  0.30180790  1
  O  O642  1  0.82076607  0.51909085  0.55076362  1
  O  O643  1  0.82361720  0.51935500  0.79828470  1
  O  O644  1  0.82204633  0.85378244  0.05146527  1
  O  O645  1  0.82321894  0.85343515  0.29944477  1
  O  O646  1  0.82319575  0.85431113  0.54968400  1
  O  O647  1  0.82268768  0.85178061  0.80037509  1
  O  O648  1  0.17584866  0.14666001  0.19975835  1
  O  O649  1  0.17613256  0.14704747  0.45133983  1
  O  O650  1  0.17715498  0.14480029  0.70130730  1
  O  O651  1  0.17768948  0.14523416  0.94965949  1
  O  O652  1  0.17713823  0.47995451  0.19968213  1
  O  O653  1  0.17604364  0.48104720  0.45140430  1
  O  O654  1  0.17661976  0.47961825  0.70008550  1
  O  O655  1  0.17609292  0.47984143  0.95108448  1
  O  O656  1  0.17721555  0.81453832  0.19902943  1
  O  O657  1  0.17724379  0.81280370  0.45075344  1
  O  O658  1  0.17719275  0.81239775  0.70096388  1
  O  O659  1  0.17917104  0.81356678  0.94764372  1
  O  O660  1  0.67632062  0.14634456  0.19885785  1
  O  O661  1  0.67585345  0.14827301  0.44900133  1
  O  O662  1  0.67662468  0.14666224  0.69818075  1
  O  O663  1  0.67652198  0.14778481  0.94862080  1
  O  O664  1  0.67649397  0.48035999  0.20063290  1
  O  O665  1  0.67683531  0.47998037  0.44855383  1
  O  O666  1  0.67807622  0.47952750  0.69748065  1
  O  O667  1  0.67709445  0.47929015  0.94883208  1
  O  O668  1  0.67682576  0.81446765  0.19930750  1
  O  O669  1  0.67655148  0.81238721  0.44993684  1
  O  O670  1  0.67619159  0.81214384  0.69864699  1
  O  O671  1  0.67733668  0.81539061  0.94852403  1
