# generated using pymatgen
data_Na2MnFe(PO4)2
_symmetry_space_group_name_H-M   'P 1'
_cell_length_a   22.33928810
_cell_length_b   20.08992294
_cell_length_c   19.45451976
_cell_angle_alpha   90.02741692
_cell_angle_beta   90.00281459
_cell_angle_gamma   89.97044869
_symmetry_Int_Tables_number   1
_chemical_formula_structural   Na2MnFe(PO4)2
_chemical_formula_sum   'Na96 Mn48 Fe48 P96 O384'
_cell_volume   8731.08078717
_cell_formula_units_Z   48
loop_
 _symmetry_equiv_pos_site_id
 _symmetry_equiv_pos_as_xyz
  1  'x, y, z'
loop_
 _atom_site_type_symbol
 _atom_site_label
 _atom_site_symmetry_multiplicity
 _atom_site_fract_x
 _atom_site_fract_y
 _atom_site_fract_z
 _atom_site_occupancy
  Na  Na0  1  0.14043959  0.25003942  0.24330344  1
  Na  Na1  1  0.14040035  0.25063957  0.49432897  1
  Na  Na2  1  0.14026728  0.25161633  0.74347377  1
  Na  Na3  1  0.13989279  0.25247271  0.99310127  1
  Na  Na4  1  0.13991912  0.58301123  0.24249645  1
  Na  Na5  1  0.13989117  0.58423807  0.49319786  1
  Na  Na6  1  0.14025846  0.58342282  0.74396682  1
  Na  Na7  1  0.14021984  0.58259553  0.99362762  1
  Na  Na8  1  0.14005350  0.91576567  0.24338546  1
  Na  Na9  1  0.13981611  0.91754157  0.49220268  1
  Na  Na10  1  0.13933004  0.91685989  0.74264818  1
  Na  Na11  1  0.13951083  0.91616369  0.99281413  1
  Na  Na12  1  0.64079077  0.24918244  0.24440501  1
  Na  Na13  1  0.64079388  0.24846175  0.49355176  1
  Na  Na14  1  0.64076273  0.25059706  0.74375871  1
  Na  Na15  1  0.64032201  0.24906558  0.99309795  1
  Na  Na16  1  0.64066573  0.58302714  0.24553532  1
  Na  Na17  1  0.64092424  0.58198212  0.49396034  1
  Na  Na18  1  0.64061734  0.58377610  0.74363595  1
  Na  Na19  1  0.64084435  0.58404379  0.99375696  1
  Na  Na20  1  0.64031805  0.91555520  0.24485344  1
  Na  Na21  1  0.64035339  0.91444861  0.49318177  1
  Na  Na22  1  0.64055536  0.91760992  0.74373481  1
  Na  Na23  1  0.64081618  0.91705855  0.99470724  1
  Na  Na24  1  0.35922152  0.08475849  0.00557536  1
  Na  Na25  1  0.35944237  0.08300747  0.25668737  1
  Na  Na26  1  0.35990858  0.08493082  0.50686938  1
  Na  Na27  1  0.35955929  0.08474872  0.75551788  1
  Na  Na28  1  0.35948279  0.41729217  0.00599974  1
  Na  Na29  1  0.35907567  0.41678439  0.25514614  1
  Na  Na30  1  0.35886048  0.41747434  0.50632783  1
  Na  Na31  1  0.35937987  0.41812193  0.75655645  1
  Na  Na32  1  0.35907247  0.74863755  0.00614858  1
  Na  Na33  1  0.35927812  0.74978925  0.25681459  1
  Na  Na34  1  0.35945867  0.75059922  0.50597357  1
  Na  Na35  1  0.35912989  0.74946595  0.75527250  1
  Na  Na36  1  0.86023758  0.08240675  0.00656928  1
  Na  Na37  1  0.86050299  0.08282154  0.25691725  1
  Na  Na38  1  0.85993638  0.08071450  0.50639010  1
  Na  Na39  1  0.85967969  0.08292852  0.75700073  1
  Na  Na40  1  0.86042013  0.41710521  0.00658730  1
  Na  Na41  1  0.85972843  0.41725217  0.25661335  1
  Na  Na42  1  0.85953073  0.41518337  0.50570279  1
  Na  Na43  1  0.86017697  0.41686003  0.75676543  1
  Na  Na44  1  0.85989980  0.75160605  0.00620346  1
  Na  Na45  1  0.86008750  0.74872457  0.25741019  1
  Na  Na46  1  0.86061274  0.74790972  0.50753152  1
  Na  Na47  1  0.86031388  0.75150516  0.75652536  1
  Na  Na48  1  0.10891129  0.08342912  0.11894408  1
  Na  Na49  1  0.10953855  0.08301595  0.36854106  1
  Na  Na50  1  0.10930224  0.08173390  0.61837936  1
  Na  Na51  1  0.10897460  0.08279165  0.86808361  1
  Na  Na52  1  0.10968059  0.41735182  0.11736867  1
  Na  Na53  1  0.10927983  0.41699239  0.36779119  1
  Na  Na54  1  0.10998306  0.41713707  0.61877023  1
  Na  Na55  1  0.11022769  0.41783852  0.86820889  1
  Na  Na56  1  0.10939080  0.74891256  0.11857575  1
  Na  Na57  1  0.10971603  0.74977555  0.36755408  1
  Na  Na58  1  0.10901559  0.75087850  0.61789543  1
  Na  Na59  1  0.10902265  0.75074173  0.86823724  1
  Na  Na60  1  0.60985282  0.08303581  0.11902402  1
  Na  Na61  1  0.60990562  0.08134961  0.36949322  1
  Na  Na62  1  0.60959977  0.08327851  0.61828633  1
  Na  Na63  1  0.61004620  0.08367963  0.86928893  1
  Na  Na64  1  0.60996038  0.41572790  0.11901295  1
  Na  Na65  1  0.61020130  0.41630732  0.36909712  1
  Na  Na66  1  0.61007889  0.41761585  0.61840611  1
  Na  Na67  1  0.61014090  0.41519734  0.86853593  1
  Na  Na68  1  0.61009585  0.75030872  0.12001581  1
  Na  Na69  1  0.61008887  0.74932284  0.37000568  1
  Na  Na70  1  0.60968739  0.75079549  0.61836254  1
  Na  Na71  1  0.60973662  0.75008818  0.86889014  1
  Na  Na72  1  0.38997016  0.25020138  0.12996833  1
  Na  Na73  1  0.39004051  0.24924625  0.38154800  1
  Na  Na74  1  0.39033969  0.25135681  0.63118503  1
  Na  Na75  1  0.39017839  0.25052969  0.88069179  1
  Na  Na76  1  0.38982621  0.58367252  0.13151558  1
  Na  Na77  1  0.38976116  0.58452314  0.38123663  1
  Na  Na78  1  0.38985552  0.58396609  0.63105461  1
  Na  Na79  1  0.38974529  0.58186277  0.88176712  1
  Na  Na80  1  0.39020447  0.91664338  0.13095922  1
  Na  Na81  1  0.39071417  0.91622076  0.38271464  1
  Na  Na82  1  0.39005548  0.91831829  0.62985827  1
  Na  Na83  1  0.39033722  0.91771120  0.88031008  1
  Na  Na84  1  0.89096154  0.25059295  0.13148490  1
  Na  Na85  1  0.89073840  0.24822844  0.38146011  1
  Na  Na86  1  0.89034984  0.24863977  0.63212454  1
  Na  Na87  1  0.89096748  0.25105237  0.88175463  1
  Na  Na88  1  0.89027967  0.58341897  0.13220618  1
  Na  Na89  1  0.89013759  0.58366666  0.38180762  1
  Na  Na90  1  0.89044886  0.58361097  0.63133246  1
  Na  Na91  1  0.89092630  0.58425532  0.88166912  1
  Na  Na92  1  0.89059995  0.91704308  0.13114687  1
  Na  Na93  1  0.89096492  0.91593999  0.38200654  1
  Na  Na94  1  0.89066407  0.91499308  0.63184651  1
  Na  Na95  1  0.89007702  0.91672703  0.88159729  1
  Mn  Mn96  1  0.50013065  0.16622279  0.25018286  1
  Mn  Mn97  1  0.24889331  0.16838143  0.87507067  1
  Mn  Mn98  1  0.75058450  0.16683514  0.87541143  1
  Mn  Mn99  1  0.00012432  0.50025180  0.74995829  1
  Mn  Mn100  1  0.50030381  0.00093829  0.00046478  1
  Mn  Mn101  1  0.49971122  0.66648690  0.00006365  1
  Mn  Mn102  1  0.49987942  0.83348617  -0.00017091  1
  Mn  Mn103  1  -0.00053310  0.50065866  0.50003290  1
  Mn  Mn104  1  0.75031758  -0.00092128  0.62563235  1
  Mn  Mn105  1  0.24996505  0.83181390  0.12400321  1
  Mn  Mn106  1  0.75092123  0.50017577  0.87528276  1
  Mn  Mn107  1  0.00010394  0.33336365  0.24980356  1
  Mn  Mn108  1  0.24982314  -0.00040936  0.12529599  1
  Mn  Mn109  1  0.24897330  0.16763599  0.12454537  1
  Mn  Mn110  1  0.74941002  0.50074533  0.12600152  1
  Mn  Mn111  1  0.75016274  0.66618093  0.62553081  1
  Mn  Mn112  1  0.49948229  0.83395859  0.74925493  1
  Mn  Mn113  1  0.25028012  0.83257793  0.87419493  1
  Mn  Mn114  1  0.75080795  0.83190213  0.37469728  1
  Mn  Mn115  1  0.49934606  -0.00101761  0.25003764  1
  Mn  Mn116  1  0.24957399  0.16807951  0.62538230  1
  Mn  Mn117  1  0.24910973  0.66640687  0.62490123  1
  Mn  Mn118  1  0.49975972  0.49993663  0.25000854  1
  Mn  Mn119  1  0.00014905  0.16611148  0.75057221  1
  Mn  Mn120  1  0.75093604  0.16545805  0.12478973  1
  Mn  Mn121  1  0.24997896  0.00065238  0.37443396  1
  Mn  Mn122  1  0.24884336  0.50084429  0.37457372  1
  Mn  Mn123  1  0.00020033  0.33249662  0.49939668  1
  Mn  Mn124  1  0.24906769  0.83430203  0.62485080  1
  Mn  Mn125  1  0.50036535  0.00161410  0.74995851  1
  Mn  Mn126  1  0.24951177  0.00024302  0.87469021  1
  Mn  Mn127  1  0.75060552  0.66823934  0.87435425  1
  Mn  Mn128  1  0.49915489  0.50093204  0.49967314  1
  Mn  Mn129  1  0.00004336  0.16677214  -0.00030172  1
  Mn  Mn130  1  0.49919694  0.66612735  0.74951040  1
  Mn  Mn131  1  0.75053798  0.83322763  0.12586615  1
  Mn  Mn132  1  0.75014491  0.33314370  0.12543775  1
  Mn  Mn133  1  0.50039092  0.33311874  0.74950919  1
  Mn  Mn134  1  0.49968513  0.33312131  0.50025000  1
  Mn  Mn135  1  -0.00012183  0.83332582  0.24999005  1
  Mn  Mn136  1  0.00037041  0.16480114  0.50108670  1
  Mn  Mn137  1  0.75025979  0.16503733  0.37471641  1
  Mn  Mn138  1  0.50091736  0.49894852  0.00051069  1
  Mn  Mn139  1  0.24912896  0.33346800  0.37497478  1
  Mn  Mn140  1  0.50020973  0.33254701  0.25001917  1
  Mn  Mn141  1  0.50035361  0.66764113  0.25079623  1
  Mn  Mn142  1  -0.00037310  0.66705211  0.00004707  1
  Mn  Mn143  1  0.75037972  0.33304124  0.62446461  1
  Fe  Fe144  1  0.74986634  0.00013274  0.87486770  1
  Fe  Fe145  1  0.50002245  0.33261873  -0.00081725  1
  Fe  Fe146  1  0.75024507  0.66537518  0.37622921  1
  Fe  Fe147  1  -0.00030084  -0.00110868  0.74983688  1
  Fe  Fe148  1  0.50056151  0.66722835  0.50042405  1
  Fe  Fe149  1  0.50014862  0.16715898  0.75003289  1
  Fe  Fe150  1  -0.00002578  -0.00027483  -0.00019788  1
  Fe  Fe151  1  0.00001645  0.83309690  0.50002090  1
  Fe  Fe152  1  0.24940254  0.66574625  0.87532173  1
  Fe  Fe153  1  0.75023496  0.83293983  0.62538061  1
  Fe  Fe154  1  0.24989559  0.50037081  0.87509126  1
  Fe  Fe155  1  0.24998435  0.16742959  0.37516297  1
  Fe  Fe156  1  0.50046263  0.49985940  0.75005779  1
  Fe  Fe157  1  0.00069059  0.66698510  0.49989084  1
  Fe  Fe158  1  0.49974622  0.83308561  0.25082089  1
  Fe  Fe159  1  0.75038553  -0.00135825  0.37572701  1
  Fe  Fe160  1  0.24985720  0.50061383  0.62514229  1
  Fe  Fe161  1  -0.00030011  -0.00091442  0.49970302  1
  Fe  Fe162  1  0.00001589  0.66750895  0.75044632  1
  Fe  Fe163  1  0.50014541  0.00019111  0.49994844  1
  Fe  Fe164  1  0.75064088  0.33368043  0.87466938  1
  Fe  Fe165  1  0.49986714  0.83347684  0.50011844  1
  Fe  Fe166  1  0.75023560  0.49909512  0.37524104  1
  Fe  Fe167  1  0.00013557  0.83370667  0.74927353  1
  Fe  Fe168  1  0.25013597  0.66678809  0.37449569  1
  Fe  Fe169  1  0.25003550  0.33464992  0.62465489  1
  Fe  Fe170  1  -0.00037286  0.50026291  0.24965636  1
  Fe  Fe171  1  0.50057728  0.16648388  0.50046171  1
  Fe  Fe172  1  0.25008800  0.33393092  0.12466588  1
  Fe  Fe173  1  0.24957186  0.66605742  0.12514004  1
  Fe  Fe174  1  0.00016672  0.50045468  -0.00014053  1
  Fe  Fe175  1  0.75038574  -0.00046007  0.12521667  1
  Fe  Fe176  1  0.24966860  0.00104602  0.62420092  1
  Fe  Fe177  1  0.75039915  0.33224849  0.37552645  1
  Fe  Fe178  1  0.74950706  0.83419382  0.87608854  1
  Fe  Fe179  1  0.00025689  0.16629439  0.24981525  1
  Fe  Fe180  1  0.49967118  0.16692113  -0.00033399  1
  Fe  Fe181  1  0.24977599  0.83343878  0.37445278  1
  Fe  Fe182  1  -0.00032806  0.66665690  0.24976023  1
  Fe  Fe183  1  0.24975949  0.50014974  0.12415835  1
  Fe  Fe184  1  0.00016025  -0.00039472  0.24985839  1
  Fe  Fe185  1  0.00010233  0.33421609  0.00056488  1
  Fe  Fe186  1  0.75048140  0.49923466  0.62465056  1
  Fe  Fe187  1  0.00020237  0.33355734  0.75039496  1
  Fe  Fe188  1  0.75042748  0.16616103  0.62517415  1
  Fe  Fe189  1  0.25007165  0.33499713  0.87430586  1
  Fe  Fe190  1  -0.00007380  0.83392794  -0.00085319  1
  Fe  Fe191  1  0.75024177  0.66677232  0.12561248  1
  P  P192  1  0.04198904  0.25116370  0.10245036  1
  P  P193  1  0.04236226  0.24815102  0.35224551  1
  P  P194  1  0.04266230  0.24962918  0.60397958  1
  P  P195  1  0.04212209  0.25175450  0.85302006  1
  P  P196  1  0.04167244  0.58233148  0.10281973  1
  P  P197  1  0.04105939  0.58366559  0.35145645  1
  P  P198  1  0.04208229  0.58514334  0.60276204  1
  P  P199  1  0.04182444  0.58486009  0.85261534  1
  P  P200  1  0.04129450  0.91641991  0.10155324  1
  P  P201  1  0.04221487  0.91763607  0.35269403  1
  P  P202  1  0.04119486  0.91638787  0.60168968  1
  P  P203  1  0.04125238  0.91650122  0.85184492  1
  P  P204  1  0.54190260  0.24971135  0.10113062  1
  P  P205  1  0.54301345  0.24901502  0.35397960  1
  P  P206  1  0.54253459  0.24895879  0.60282209  1
  P  P207  1  0.54244067  0.24877902  0.85287304  1
  P  P208  1  0.54313393  0.58351105  0.10347490  1
  P  P209  1  0.54251149  0.58378403  0.35398017  1
  P  P210  1  0.54231660  0.58450777  0.60274772  1
  P  P211  1  0.54250855  0.58175877  0.85235738  1
  P  P212  1  0.54282890  0.91632260  0.10382686  1
  P  P213  1  0.54196446  0.91488247  0.35373148  1
  P  P214  1  0.54145246  0.91717616  0.60126170  1
  P  P215  1  0.54285208  0.91729854  0.85282382  1
  P  P216  1  0.45685346  0.08364203  0.14665723  1
  P  P217  1  0.45860166  0.08317473  0.39885441  1
  P  P218  1  0.45801567  0.08566764  0.64669938  1
  P  P219  1  0.45754665  0.08526614  0.89717628  1
  P  P220  1  0.45737411  0.41571556  0.14624093  1
  P  P221  1  0.45652668  0.41653449  0.39688444  1
  P  P222  1  0.45764706  0.41830416  0.64772159  1
  P  P223  1  0.45827810  0.41533973  0.89707193  1
  P  P224  1  0.45729659  0.75132015  0.14800148  1
  P  P225  1  0.45864851  0.75031802  0.39865169  1
  P  P226  1  0.45708974  0.75047891  0.64553902  1
  P  P227  1  0.45660169  0.74969756  0.89654191  1
  P  P228  1  0.95879284  0.08299951  0.14818780  1
  P  P229  1  0.95811360  0.08139457  0.39707060  1
  P  P230  1  0.95771449  0.08084426  0.64779155  1
  P  P231  1  0.95803010  0.08169282  0.89734563  1
  P  P232  1  0.95798010  0.41818306  0.14687762  1
  P  P233  1  0.95740639  0.41693582  0.39633016  1
  P  P234  1  0.95790801  0.41547882  0.64774657  1
  P  P235  1  0.95911222  0.41711903  0.89825038  1
  P  P236  1  0.95761052  0.74914425  0.14749933  1
  P  P237  1  0.95892162  0.74970941  0.39830985  1
  P  P238  1  0.95900688  0.74978073  0.64781461  1
  P  P239  1  0.95779469  0.75166623  0.89680775  1
  P  P240  1  0.20707007  0.08375866  0.22842232  1
  P  P241  1  0.20794790  0.08519923  0.47759865  1
  P  P242  1  0.20723321  0.08303326  0.72707202  1
  P  P243  1  0.20631042  0.08416394  0.97789889  1
  P  P244  1  0.20806566  0.41690471  0.22586877  1
  P  P245  1  0.20648245  0.41742926  0.47850593  1
  P  P246  1  0.20860125  0.41751159  0.72702151  1
  P  P247  1  0.20880388  0.41734406  0.97686558  1
  P  P248  1  0.20756265  0.74846731  0.22786641  1
  P  P249  1  0.20852850  0.75014502  0.47591535  1
  P  P250  1  0.20652645  0.74970207  0.72803995  1
  P  P251  1  0.20741703  0.74794669  0.97730823  1
  P  P252  1  0.70822787  0.08116487  0.22796692  1
  P  P253  1  0.70818860  0.08091397  0.47805894  1
  P  P254  1  0.70798401  0.08440495  0.72778009  1
  P  P255  1  0.70831685  0.08164419  0.97780649  1
  P  P256  1  0.70730733  0.41648249  0.22954749  1
  P  P257  1  0.70874013  0.41585875  0.47693785  1
  P  P258  1  0.70829790  0.41756869  0.72745087  1
  P  P259  1  0.70815286  0.41565567  0.97742419  1
  P  P260  1  0.70840043  0.74805750  0.22857457  1
  P  P261  1  0.70864644  0.74809250  0.47814822  1
  P  P262  1  0.70776180  0.75191156  0.72800479  1
  P  P263  1  0.70780517  0.75136899  0.97819919  1
  P  P264  1  0.29148709  0.25252177  0.02167159  1
  P  P265  1  0.29201985  0.24946278  0.27211659  1
  P  P266  1  0.29211581  0.25178969  0.52245081  1
  P  P267  1  0.29172245  0.25262903  0.77198165  1
  P  P268  1  0.29117114  0.58345306  0.02277487  1
  P  P269  1  0.29173596  0.58461122  0.27159848  1
  P  P270  1  0.29170396  0.58275890  0.52221255  1
  P  P271  1  0.29115455  0.58321118  0.77330275  1
  P  P272  1  0.29257972  0.91628544  0.02152575  1
  P  P273  1  0.29226484  0.91516632  0.27251565  1
  P  P274  1  0.29120610  0.91821521  0.52171162  1
  P  P275  1  0.29239297  0.91733224  0.77078877  1
  P  P276  1  0.79325031  0.24991567  0.02164184  1
  P  P277  1  0.79277588  0.25039874  0.27290866  1
  P  P278  1  0.79262907  0.24779476  0.52221243  1
  P  P279  1  0.79280983  0.25112375  0.77239964  1
  P  P280  1  0.79249269  0.58493911  0.02309032  1
  P  P281  1  0.79151888  0.58314457  0.27389616  1
  P  P282  1  0.79226767  0.58119945  0.52210783  1
  P  P283  1  0.79343777  0.58356400  0.77156864  1
  P  P284  1  0.79228328  0.91770702  0.02230006  1
  P  P285  1  0.79274201  0.91744464  0.27264041  1
  P  P286  1  0.79250645  0.91434963  0.52271315  1
  P  P287  1  0.79118340  0.91645912  0.77357397  1
  O  O288  1  0.03683288  0.25050367  0.18234278  1
  O  O289  1  0.03718841  0.24810443  0.43219463  1
  O  O290  1  0.03732388  0.25030045  0.68391992  1
  O  O291  1  0.03654589  0.25203960  0.93292632  1
  O  O292  1  0.03626000  0.58229379  0.18265421  1
  O  O293  1  0.03640122  0.58435775  0.43143987  1
  O  O294  1  0.03684600  0.58522401  0.68265369  1
  O  O295  1  0.03636336  0.58413915  0.93247446  1
  O  O296  1  0.03627563  0.91672072  0.18148737  1
  O  O297  1  0.03706831  0.91752769  0.43251640  1
  O  O298  1  0.03633017  0.91619733  0.68156836  1
  O  O299  1  0.03643727  0.91638619  0.93173056  1
  O  O300  1  0.53711972  0.24970410  0.18113773  1
  O  O301  1  0.53796974  0.24855572  0.43391768  1
  O  O302  1  0.53737674  0.24902185  0.68276677  1
  O  O303  1  0.53703737  0.24924854  0.93273304  1
  O  O304  1  0.53798753  0.58367428  0.18342991  1
  O  O305  1  0.53723814  0.58444600  0.43388370  1
  O  O306  1  0.53713750  0.58356780  0.68268554  1
  O  O307  1  0.53763958  0.58194753  0.93234588  1
  O  O308  1  0.53742217  0.91564723  0.18379090  1
  O  O309  1  0.53654398  0.91514870  0.43359492  1
  O  O310  1  0.53682694  0.91772180  0.68122476  1
  O  O311  1  0.53785592  0.91734305  0.93276149  1
  O  O312  1  0.46193672  0.08412983  0.06671424  1
  O  O313  1  0.46295324  0.08268299  0.31884483  1
  O  O314  1  0.46353448  0.08547763  0.56685675  1
  O  O315  1  0.46283245  0.08542616  0.81723500  1
  O  O316  1  0.46284418  0.41509282  0.06630455  1
  O  O317  1  0.46168933  0.41635151  0.31693223  1
  O  O318  1  0.46232455  0.41803128  0.56777735  1
  O  O319  1  0.46348035  0.41616354  0.81714740  1
  O  O320  1  0.46213686  0.75078498  0.06803411  1
  O  O321  1  0.46364259  0.75095794  0.31869497  1
  O  O322  1  0.46274870  0.75035486  0.56565510  1
  O  O323  1  0.46149640  0.74954588  0.81655189  1
  O  O324  1  0.96382385  0.08278891  0.06824403  1
  O  O325  1  0.96348301  0.08192038  0.31723911  1
  O  O326  1  0.96310731  0.08062972  0.56787344  1
  O  O327  1  0.96326355  0.08149024  0.81746147  1
  O  O328  1  0.96349651  0.41812534  0.06698997  1
  O  O329  1  0.96264672  0.41749715  0.31640171  1
  O  O330  1  0.96290704  0.41575920  0.56780790  1
  O  O331  1  0.96415682  0.41645024  0.81828772  1
  O  O332  1  0.96241712  0.74937603  0.06766430  1
  O  O333  1  0.96332642  0.74974656  0.31835452  1
  O  O334  1  0.96415804  0.74973660  0.56794663  1
  O  O335  1  0.96324295  0.75131873  0.81699545  1
  O  O336  1  0.21149169  0.08397963  0.05785057  1
  O  O337  1  0.21255101  0.08432836  0.30834578  1
  O  O338  1  0.21326603  0.08449974  0.55753505  1
  O  O339  1  0.21199049  0.08319843  0.80703451  1
  O  O340  1  0.21354155  0.41734672  0.05672458  1
  O  O341  1  0.21233305  0.41719680  0.30585529  1
  O  O342  1  0.21190104  0.41762414  0.55836987  1
  O  O343  1  0.21389929  0.41731236  0.80688311  1
  O  O344  1  0.21279021  0.74770712  0.05724757  1
  O  O345  1  0.21296792  0.74915484  0.30773371  1
  O  O346  1  0.21307091  0.75048255  0.55587651  1
  O  O347  1  0.21170883  0.74933467  0.80789724  1
  O  O348  1  0.71364599  0.08147954  0.05771648  1
  O  O349  1  0.71342088  0.08113089  0.30792029  1
  O  O350  1  0.71343097  0.08170535  0.55793328  1
  O  O351  1  0.71316280  0.08399704  0.80769403  1
  O  O352  1  0.71282626  0.41600372  0.05741343  1
  O  O353  1  0.71282732  0.41615262  0.30942677  1
  O  O354  1  0.71384506  0.41643061  0.55691774  1
  O  O355  1  0.71350873  0.41708286  0.80736125  1
  O  O356  1  0.71306466  0.75063679  0.05812917  1
  O  O357  1  0.71376220  0.74761890  0.30848402  1
  O  O358  1  0.71374530  0.74904125  0.55802857  1
  O  O359  1  0.71285442  0.75249186  0.80796493  1
  O  O360  1  0.28657396  0.25011124  0.19220760  1
  O  O361  1  0.28679302  0.25085522  0.44254164  1
  O  O362  1  0.28652830  0.25262385  0.69205821  1
  O  O363  1  0.28617566  0.25274716  0.94176711  1
  O  O364  1  0.28656928  0.58463149  0.19175570  1
  O  O365  1  0.28647617  0.58340695  0.44233803  1
  O  O366  1  0.28631306  0.58250760  0.69338969  1
  O  O367  1  0.28639770  0.58336564  0.94289659  1
  O  O368  1  0.28741072  0.91504922  0.19256648  1
  O  O369  1  0.28627932  0.91759782  0.44178155  1
  O  O370  1  0.28682871  0.91826017  0.69083599  1
  O  O371  1  0.28746902  0.91631359  0.94156954  1
  O  O372  1  0.78770093  0.25008945  0.19296225  1
  O  O373  1  0.78727931  0.24820822  0.44230458  1
  O  O374  1  0.78761662  0.25058559  0.69247455  1
  O  O375  1  0.78814074  0.25037102  0.94168926  1
  O  O376  1  0.78624122  0.58387812  0.19395666  1
  O  O377  1  0.78657765  0.58135863  0.44226303  1
  O  O378  1  0.78825560  0.58287659  0.69165710  1
  O  O379  1  0.78768150  0.58474732  0.94311766  1
  O  O380  1  0.78756244  0.91755421  0.19272521  1
  O  O381  1  0.78757274  0.91477481  0.44279636  1
  O  O382  1  0.78620725  0.91581764  0.69360577  1
  O  O383  1  0.78649978  0.91740077  0.94248438  1
  O  O384  1  0.22725747  0.25282187  0.05753152  1
  O  O385  1  0.22772846  0.24859961  0.30795937  1
  O  O386  1  0.22789586  0.25242919  0.55828989  1
  O  O387  1  0.22746045  0.25297143  0.80773924  1
  O  O388  1  0.22701926  0.58380596  0.05884066  1
  O  O389  1  0.22746602  0.58546192  0.30749940  1
  O  O390  1  0.22741415  0.58176082  0.55795102  1
  O  O391  1  0.22693976  0.58366411  0.80918416  1
  O  O392  1  0.22811390  0.91610039  0.05650380  1
  O  O393  1  0.22781997  0.91594348  0.30759322  1
  O  O394  1  0.22694738  0.91853697  0.55737422  1
  O  O395  1  0.22806538  0.91651311  0.80615711  1
  O  O396  1  0.72887510  0.24930243  0.05686336  1
  O  O397  1  0.72845468  0.25034775  0.30841483  1
  O  O398  1  0.72840206  0.24779778  0.55812166  1
  O  O399  1  0.72856493  0.25136441  0.80817494  1
  O  O400  1  0.72805904  0.58531935  0.05840172  1
  O  O401  1  0.72749675  0.58276459  0.31023741  1
  O  O402  1  0.72822519  0.58122563  0.55853597  1
  O  O403  1  0.72911429  0.58382946  0.80691795  1
  O  O404  1  0.72829007  0.91790092  0.05887096  1
  O  O405  1  0.72847954  0.91685113  0.30836791  1
  O  O406  1  0.72815868  0.91437673  0.55825429  1
  O  O407  1  0.72705258  0.91678282  0.80961413  1
  O  O408  1  0.27134256  0.08381186  0.19290591  1
  O  O409  1  0.27216086  0.08540388  0.44163859  1
  O  O410  1  0.27164659  0.08337853  0.69191766  1
  O  O411  1  0.27074776  0.08447436  0.94286265  1
  O  O412  1  0.27237180  0.41638992  0.19041432  1
  O  O413  1  0.27069246  0.41739249  0.44275984  1
  O  O414  1  0.27258671  0.41783261  0.69033108  1
  O  O415  1  0.27289583  0.41700793  0.94070342  1
  O  O416  1  0.27174745  0.74788231  0.19180657  1
  O  O417  1  0.27277195  0.74952692  0.44026455  1
  O  O418  1  0.27084169  0.75016159  0.69266703  1
  O  O419  1  0.27166153  0.74770315  0.94144066  1
  O  O420  1  0.77258188  0.08103417  0.19233360  1
  O  O421  1  0.77243700  0.08080907  0.44223088  1
  O  O422  1  0.77228820  0.08425814  0.69206992  1
  O  O423  1  0.77249555  0.08166519  0.94186405  1
  O  O424  1  0.77150448  0.41694537  0.19369360  1
  O  O425  1  0.77282348  0.41576774  0.44077033  1
  O  O426  1  0.77256915  0.41760396  0.69168653  1
  O  O427  1  0.77265334  0.41557150  0.94230110  1
  O  O428  1  0.77261555  0.74822175  0.19268413  1
  O  O429  1  0.77288119  0.74772952  0.44235069  1
  O  O430  1  0.77210397  0.75141079  0.69241421  1
  O  O431  1  0.77210819  0.75203410  0.94248773  1
  O  O432  1  0.02285849  0.08348170  0.18440634  1
  O  O433  1  0.02227322  0.08095633  0.43324082  1
  O  O434  1  0.02193868  0.08091437  0.68366012  1
  O  O435  1  0.02221994  0.08188755  0.93317659  1
  O  O436  1  0.02210783  0.41827152  0.18307369  1
  O  O437  1  0.02170341  0.41703370  0.43176015  1
  O  O438  1  0.02224996  0.41529773  0.68326679  1
  O  O439  1  0.02323515  0.41767553  0.93430501  1
  O  O440  1  0.02193805  0.74923457  0.18305500  1
  O  O441  1  0.02320522  0.74939305  0.43394243  1
  O  O442  1  0.02297878  0.74957478  0.68426453  1
  O  O443  1  0.02186349  0.75173001  0.93315294  1
  O  O444  1  0.52127864  0.08273807  0.18182513  1
  O  O445  1  0.52296544  0.08326514  0.43416975  1
  O  O446  1  0.52220910  0.08600414  0.68287926  1
  O  O447  1  0.52185644  0.08539691  0.93290600  1
  O  O448  1  0.52169191  0.41616047  0.18170854  1
  O  O449  1  0.52097873  0.41672101  0.43188284  1
  O  O450  1  0.52215522  0.41818886  0.68277736  1
  O  O451  1  0.52255506  0.41469566  0.93279068  1
  O  O452  1  0.52178915  0.75195262  0.18323820  1
  O  O453  1  0.52282882  0.75006242  0.43466268  1
  O  O454  1  0.52126162  0.75003803  0.68139349  1
  O  O455  1  0.52118045  0.74973578  0.93130376  1
  O  O456  1  0.47760558  0.24972776  0.06538733  1
  O  O457  1  0.47853958  0.24932212  0.31893862  1
  O  O458  1  0.47817507  0.24893715  0.56735358  1
  O  O459  1  0.47825785  0.24869107  0.81672048  1
  O  O460  1  0.47864952  0.58293834  0.06849130  1
  O  O461  1  0.47821688  0.58382355  0.31854058  1
  O  O462  1  0.47797637  0.58565511  0.56721277  1
  O  O463  1  0.47800153  0.58139683  0.81720855  1
  O  O464  1  0.47851215  0.91695302  0.06841112  1
  O  O465  1  0.47778133  0.91445960  0.31752457  1
  O  O466  1  0.47720472  0.91680642  0.56569606  1
  O  O467  1  0.47839531  0.91779766  0.81779707  1
  O  O468  1  0.97779675  0.25129895  0.06662183  1
  O  O469  1  0.97809552  0.24832185  0.31658229  1
  O  O470  1  0.97839069  0.24909660  0.56845940  1
  O  O471  1  0.97798355  0.25142285  0.81693857  1
  O  O472  1  0.97756938  0.58201589  0.06661216  1
  O  O473  1  0.97682775  0.58296154  0.31572495  1
  O  O474  1  0.97784426  0.58567575  0.56689440  1
  O  O475  1  0.97772668  0.58499193  0.81651662  1
  O  O476  1  0.97718416  0.91601431  0.06539556  1
  O  O477  1  0.97801554  0.91765914  0.31665958  1
  O  O478  1  0.97707819  0.91646296  0.56557815  1
  O  O479  1  0.97710408  0.91684950  0.81570801  1
  O  O480  1  0.07255137  0.31500667  0.07427633  1
  O  O481  1  0.07354773  0.31187435  0.32481560  1
  O  O482  1  0.07375197  0.31279051  0.57515285  1
  O  O483  1  0.07297746  0.31507203  0.82423208  1
  O  O484  1  0.07263972  0.64604955  0.07490439  1
  O  O485  1  0.07123026  0.64748779  0.32245932  1
  O  O486  1  0.07352892  0.64808180  0.57388704  1
  O  O487  1  0.07248154  0.64858915  0.82460693  1
  O  O488  1  0.07183824  0.98020004  0.07313527  1
  O  O489  1  0.07308444  0.98088625  0.32355539  1
  O  O490  1  0.07233232  0.97978588  0.57330092  1
  O  O491  1  0.07248992  0.97988865  0.82339321  1
  O  O492  1  0.57267598  0.31339098  0.07296964  1
  O  O493  1  0.57394740  0.31263068  0.32594917  1
  O  O494  1  0.57340736  0.31288375  0.57523949  1
  O  O495  1  0.57361818  0.31222955  0.82447304  1
  O  O496  1  0.57365384  0.64720251  0.07512376  1
  O  O497  1  0.57396715  0.64691354  0.32557069  1
  O  O498  1  0.57352437  0.64797619  0.57473148  1
  O  O499  1  0.57330908  0.64549592  0.82446093  1
  O  O500  1  0.57400310  0.97991542  0.07604220  1
  O  O501  1  0.57274111  0.97864414  0.32558166  1
  O  O502  1  0.57176309  0.98106848  0.57275895  1
  O  O503  1  0.57410173  0.98066419  0.82471856  1
  O  O504  1  0.42546196  0.02031098  0.17481873  1
  O  O505  1  0.42812633  0.01934590  0.42736068  1
  O  O506  1  0.42713639  0.02184140  0.67460678  1
  O  O507  1  0.42664933  0.02145301  0.92487894  1
  O  O508  1  0.42625957  0.35248940  0.17482550  1
  O  O509  1  0.42564366  0.35305013  0.42519007  1
  O  O510  1  0.42666545  0.35466150  0.67555267  1
  O  O511  1  0.42748075  0.35164641  0.92510737  1
  O  O512  1  0.42672129  0.68749655  0.17609479  1
  O  O513  1  0.42794572  0.68641497  0.42640160  1
  O  O514  1  0.42546017  0.68734641  0.67390320  1
  O  O515  1  0.42589317  0.68608070  0.92489560  1
  O  O516  1  0.92827842  0.01920662  0.17656580  1
  O  O517  1  0.92704778  0.01802243  0.42568379  1
  O  O518  1  0.92660495  0.01760504  0.67636878  1
  O  O519  1  0.92717454  0.01846216  0.92635333  1
  O  O520  1  0.92678293  0.35453541  0.17470682  1
  O  O521  1  0.92669601  0.35301409  0.42400433  1
  O  O522  1  0.92706438  0.35205424  0.67619631  1
  O  O523  1  0.92845358  0.35356291  0.92702148  1
  O  O524  1  0.92745217  0.68534871  0.17652347  1
  O  O525  1  0.92766460  0.68648005  0.42682007  1
  O  O526  1  0.92757987  0.68657142  0.67633246  1
  O  O527  1  0.92644144  0.68826830  0.92498978  1
  O  O528  1  0.17634133  0.01977596  0.20078879  1
  O  O529  1  0.17654823  0.02188910  0.44946141  1
  O  O530  1  0.17697734  0.01934194  0.69813488  1
  O  O531  1  0.17542439  0.02060452  0.94974587  1
  O  O532  1  0.17701698  0.35331015  0.19791518  1
  O  O533  1  0.17532196  0.35399587  0.45003829  1
  O  O534  1  0.17783444  0.35388568  0.69842289  1
  O  O535  1  0.17742295  0.35421375  0.94805395  1
  O  O536  1  0.17637867  0.68517809  0.19929696  1
  O  O537  1  0.17737279  0.68659588  0.44804329  1
  O  O538  1  0.17566675  0.68628954  0.69939391  1
  O  O539  1  0.17630316  0.68468385  0.94873887  1
  O  O540  1  0.67712841  0.01796437  0.19934659  1
  O  O541  1  0.67788578  0.01690343  0.44990616  1
  O  O542  1  0.67656505  0.02100517  0.69977780  1
  O  O543  1  0.67724855  0.01847061  0.94892708  1
  O  O544  1  0.67627198  0.35306631  0.20089897  1
  O  O545  1  0.67830287  0.35161532  0.44940398  1
  O  O546  1  0.67691581  0.35422453  0.69925632  1
  O  O547  1  0.67784146  0.35194248  0.94870691  1
  O  O548  1  0.67740917  0.68492220  0.19955659  1
  O  O549  1  0.67790754  0.68426238  0.45029896  1
  O  O550  1  0.67668318  0.68804792  0.70061880  1
  O  O551  1  0.67688822  0.68792913  0.94953693  1
  O  O552  1  0.32266474  0.31561560  0.05056061  1
  O  O553  1  0.32270479  0.31322767  0.30023457  1
  O  O554  1  0.32296541  0.31549924  0.55048335  1
  O  O555  1  0.32295516  0.31579623  0.80057474  1
  O  O556  1  0.32246801  0.64667707  0.05144414  1
  O  O557  1  0.32313506  0.64755660  0.30088005  1
  O  O558  1  0.32228400  0.64654411  0.55049628  1
  O  O559  1  0.32205174  0.64696608  0.80117929  1
  O  O560  1  0.32343456  0.97988173  0.04968612  1
  O  O561  1  0.32397676  0.97849279  0.30013635  1
  O  O562  1  0.32177780  0.98204139  0.55006411  1
  O  O563  1  0.32349258  0.98057831  0.79951810  1
  O  O564  1  0.82428688  0.31317435  0.05028454  1
  O  O565  1  0.82337005  0.31402525  0.30131691  1
  O  O566  1  0.82402390  0.31125232  0.55004627  1
  O  O567  1  0.82326614  0.31494389  0.80083456  1
  O  O568  1  0.82333181  0.64843537  0.05152764  1
  O  O569  1  0.82250076  0.64657655  0.30258149  1
  O  O570  1  0.82356689  0.64472301  0.55008772  1
  O  O571  1  0.82433494  0.64737643  0.79925704  1
  O  O572  1  0.82340515  0.98105944  0.05083514  1
  O  O573  1  0.82320842  0.98082177  0.30182464  1
  O  O574  1  0.82372170  0.97768871  0.55106638  1
  O  O575  1  0.82181936  0.98058115  0.80111990  1
  O  O576  1  0.42611362  0.14716922  0.17530195  1
  O  O577  1  0.42776265  0.14686465  0.42687184  1
  O  O578  1  0.42680213  0.14884815  0.67557847  1
  O  O579  1  0.42648896  0.14856841  0.92589742  1
  O  O580  1  0.42625135  0.47947289  0.17389101  1
  O  O581  1  0.42527434  0.48005085  0.42472430  1
  O  O582  1  0.42715911  0.48195594  0.67634883  1
  O  O583  1  0.42718310  0.47878240  0.92549330  1
  O  O584  1  0.42633019  0.81471293  0.17649001  1
  O  O585  1  0.42764688  0.81378728  0.42721314  1
  O  O586  1  0.42609112  0.81415642  0.67364424  1
  O  O587  1  0.42560080  0.81324299  0.92457700  1
  O  O588  1  0.92780048  0.14675544  0.17620029  1
  O  O589  1  0.92703439  0.14490724  0.42562369  1
  O  O590  1  0.92678338  0.14471243  0.67546419  1
  O  O591  1  0.92693442  0.14556369  0.92485780  1
  O  O592  1  0.92686442  0.48144622  0.17577178  1
  O  O593  1  0.92602579  0.48001265  0.42510345  1
  O  O594  1  0.92712701  0.47936513  0.67554130  1
  O  O595  1  0.92795295  0.48095129  0.92580077  1
  O  O596  1  0.92615655  0.81243302  0.17571429  1
  O  O597  1  0.92879246  0.81382868  0.42686277  1
  O  O598  1  0.92846663  0.81373681  0.67633999  1
  O  O599  1  0.92702347  0.81519617  0.92557680  1
  O  O600  1  0.07335219  0.18783975  0.07420065  1
  O  O601  1  0.07294231  0.18461162  0.32361114  1
  O  O602  1  0.07381169  0.18583997  0.57642809  1
  O  O603  1  0.07326694  0.18781604  0.82579728  1
  O  O604  1  0.07293016  0.51919858  0.07372461  1
  O  O605  1  0.07231948  0.52008068  0.32350032  1
  O  O606  1  0.07249956  0.52098250  0.57497954  1
  O  O607  1  0.07318951  0.52145270  0.82446736  1
  O  O608  1  0.07227206  0.85268910  0.07351360  1
  O  O609  1  0.07332872  0.85396871  0.32457930  1
  O  O610  1  0.07180272  0.85262666  0.57278998  1
  O  O611  1  0.07176004  0.85277864  0.82284329  1
  O  O612  1  0.57257678  0.18580803  0.07320732  1
  O  O613  1  0.57410959  0.18572461  0.32515243  1
  O  O614  1  0.57349838  0.18568294  0.57401691  1
  O  O615  1  0.57342807  0.18534108  0.82429490  1
  O  O616  1  0.57460473  0.52014729  0.07560017  1
  O  O617  1  0.57331574  0.51994218  0.32622337  1
  O  O618  1  0.57303280  0.52083546  0.57432202  1
  O  O619  1  0.57334865  0.51821312  0.82385390  1
  O  O620  1  0.57394702  0.85303006  0.07524104  1
  O  O621  1  0.57321286  0.85157898  0.32516824  1
  O  O622  1  0.57260548  0.85354667  0.57346452  1
  O  O623  1  0.57343302  0.85360113  0.82450201  1
  O  O624  1  0.32220851  0.18849774  0.04923004  1
  O  O625  1  0.32312359  0.18603061  0.30052069  1
  O  O626  1  0.32328629  0.18844172  0.55085798  1
  O  O627  1  0.32231331  0.18857591  0.79971498  1
  O  O628  1  0.32155752  0.51949760  0.05147371  1
  O  O629  1  0.32232265  0.52062509  0.29952952  1
  O  O630  1  0.32296374  0.51948171  0.55063154  1
  O  O631  1  0.32178616  0.51966465  0.80228631  1
  O  O632  1  0.32370992  0.85274449  0.04941647  1
  O  O633  1  0.32219311  0.85130971  0.30149277  1
  O  O634  1  0.32244459  0.85476152  0.54977072  1
  O  O635  1  0.32375075  0.85365531  0.79818775  1
  O  O636  1  0.82444211  0.18624301  0.04947734  1
  O  O637  1  0.82395938  0.18671536  0.30046622  1
  O  O638  1  0.82312562  0.18406825  0.55080929  1
  O  O639  1  0.82422970  0.18776164  0.80043671  1
  O  O640  1  0.82310303  0.52107291  0.05107438  1
  O  O641  1  0.82246468  0.51925832  0.30143695  1
  O  O642  1  0.82318067  0.51768145  0.55062586  1
  O  O643  1  0.82474926  0.52045615  0.80033943  1
  O  O644  1  0.82352380  0.85418589  0.05048213  1
  O  O645  1  0.82414272  0.85370190  0.30003250  1
  O  O646  1  0.82303972  0.85062811  0.55124161  1
  O  O647  1  0.82218948  0.85312753  0.80225437  1
  O  O648  1  0.17548612  0.14675110  0.19988990  1
  O  O649  1  0.17740300  0.14907647  0.44955869  1
  O  O650  1  0.17582933  0.14663496  0.69965449  1
  O  O651  1  0.17524344  0.14775547  0.94999295  1
  O  O652  1  0.17798116  0.48089303  0.19722864  1
  O  O653  1  0.17516941  0.48066236  0.44977337  1
  O  O654  1  0.17741807  0.48115699  0.69901516  1
  O  O655  1  0.17840158  0.48125342  0.94808595  1
  O  O656  1  0.17653864  0.81205264  0.19938643  1
  O  O657  1  0.17841653  0.81425650  0.44752381  1
  O  O658  1  0.17530458  0.81314253  0.69978969  1
  O  O659  1  0.17662219  0.81191588  0.94974581  1
  O  O660  1  0.67751180  0.14515939  0.20012883  1
  O  O661  1  0.67669294  0.14405739  0.44967662  1
  O  O662  1  0.67770127  0.14821061  0.69917858  1
  O  O663  1  0.67732189  0.14551262  0.95028043  1
  O  O664  1  0.67589511  0.47986577  0.20134068  1
  O  O665  1  0.67748096  0.47916862  0.44853912  1
  O  O666  1  0.67776803  0.48130773  0.69897479  1
  O  O667  1  0.67708876  0.47932881  0.94965040  1
  O  O668  1  0.67747580  0.81206665  0.20128992  1
  O  O669  1  0.67741377  0.81133997  0.44954225  1
  O  O670  1  0.67700631  0.81514076  0.69876512  1
  O  O671  1  0.67683604  0.81500790  0.95016143  1
