# generated using pymatgen
data_Na2MnFe(PO4)2
_symmetry_space_group_name_H-M   'P 1'
_cell_length_a   22.34183005
_cell_length_b   20.09463043
_cell_length_c   19.45066322
_cell_angle_alpha   89.99008504
_cell_angle_beta   90.01708197
_cell_angle_gamma   90.02682130
_symmetry_Int_Tables_number   1
_chemical_formula_structural   Na2MnFe(PO4)2
_chemical_formula_sum   'Na96 Mn48 Fe48 P96 O384'
_cell_volume   8732.38968887
_cell_formula_units_Z   48
loop_
 _symmetry_equiv_pos_site_id
 _symmetry_equiv_pos_as_xyz
  1  'x, y, z'
loop_
 _atom_site_type_symbol
 _atom_site_label
 _atom_site_symmetry_multiplicity
 _atom_site_fract_x
 _atom_site_fract_y
 _atom_site_fract_z
 _atom_site_occupancy
  Na  Na0  1  0.14106155  0.25011299  0.24300165  1
  Na  Na1  1  0.14051696  0.24939306  0.49356413  1
  Na  Na2  1  0.13986794  0.24982635  0.74429730  1
  Na  Na3  1  0.14051232  0.24958405  0.99402007  1
  Na  Na4  1  0.14053112  0.58286454  0.24326045  1
  Na  Na5  1  0.14050398  0.58339655  0.49415210  1
  Na  Na6  1  0.13991283  0.58277767  0.74427992  1
  Na  Na7  1  0.14005434  0.58287540  0.99389888  1
  Na  Na8  1  0.14042134  0.91702432  0.24354374  1
  Na  Na9  1  0.14064039  0.91731744  0.49269977  1
  Na  Na10  1  0.14020720  0.91670441  0.74597046  1
  Na  Na11  1  0.14003338  0.91689973  0.99391346  1
  Na  Na12  1  0.64053077  0.25045393  0.24282381  1
  Na  Na13  1  0.64028731  0.25162554  0.49353592  1
  Na  Na14  1  0.63991369  0.25148698  0.74369027  1
  Na  Na15  1  0.63996826  0.25139219  0.99273393  1
  Na  Na16  1  0.64054854  0.58164508  0.24289201  1
  Na  Na17  1  0.64068042  0.58307687  0.49514747  1
  Na  Na18  1  0.64044772  0.58279395  0.74444885  1
  Na  Na19  1  0.64011174  0.58249214  0.99381291  1
  Na  Na20  1  0.64004724  0.91669256  0.24308973  1
  Na  Na21  1  0.63985635  0.91721053  0.49301121  1
  Na  Na22  1  0.63971510  0.91626427  0.74244976  1
  Na  Na23  1  0.64007841  0.91703757  0.99226167  1
  Na  Na24  1  0.35994594  0.08344136  0.00725576  1
  Na  Na25  1  0.35934688  0.08384259  0.25675021  1
  Na  Na26  1  0.35977782  0.08269070  0.50529834  1
  Na  Na27  1  0.36062341  0.08230155  0.75744176  1
  Na  Na28  1  0.35943996  0.41584975  0.00671690  1
  Na  Na29  1  0.35990104  0.41607117  0.25603958  1
  Na  Na30  1  0.36025168  0.41537874  0.50592577  1
  Na  Na31  1  0.36037975  0.41613277  0.75704962  1
  Na  Na32  1  0.35949106  0.75058143  0.00667591  1
  Na  Na33  1  0.35980470  0.75144601  0.25659140  1
  Na  Na34  1  0.35986502  0.75139735  0.50578127  1
  Na  Na35  1  0.35976498  0.75031837  0.75752579  1
  Na  Na36  1  0.85932860  0.08469567  0.00599028  1
  Na  Na37  1  0.85936836  0.08381423  0.25432769  1
  Na  Na38  1  0.85974849  0.08443886  0.50527709  1
  Na  Na39  1  0.85966139  0.08478366  0.75732370  1
  Na  Na40  1  0.85926234  0.41677155  0.00625994  1
  Na  Na41  1  0.85955361  0.41559130  0.25525286  1
  Na  Na42  1  0.85984359  0.41819881  0.50628031  1
  Na  Na43  1  0.85960954  0.41742359  0.75844398  1
  Na  Na44  1  0.85931355  0.74866647  0.00659569  1
  Na  Na45  1  0.85989020  0.74841313  0.25607338  1
  Na  Na46  1  0.85963708  0.74923132  0.50582636  1
  Na  Na47  1  0.85929824  0.74825688  0.75690331  1
  Na  Na48  1  0.11005788  0.08238193  0.11785192  1
  Na  Na49  1  0.11025947  0.08344253  0.36680740  1
  Na  Na50  1  0.10973637  0.08387903  0.61971312  1
  Na  Na51  1  0.10959117  0.08359283  0.87042862  1
  Na  Na52  1  0.11029561  0.41566975  0.11812869  1
  Na  Na53  1  0.11018015  0.41680848  0.36766777  1
  Na  Na54  1  0.10938591  0.41649812  0.62050595  1
  Na  Na55  1  0.10943294  0.41735812  0.86877853  1
  Na  Na56  1  0.10910981  0.74982825  0.11900987  1
  Na  Na57  1  0.10978205  0.75028808  0.36814812  1
  Na  Na58  1  0.10975279  0.74942714  0.62008686  1
  Na  Na59  1  0.10930550  0.75007394  0.86921554  1
  Na  Na60  1  0.60935443  0.08568829  0.11790265  1
  Na  Na61  1  0.60967569  0.08261788  0.36814178  1
  Na  Na62  1  0.60923619  0.08375529  0.61898492  1
  Na  Na63  1  0.60891977  0.08329096  0.86753899  1
  Na  Na64  1  0.61003387  0.41794881  0.11764202  1
  Na  Na65  1  0.61014348  0.41597058  0.36821064  1
  Na  Na66  1  0.61004039  0.41736880  0.62004025  1
  Na  Na67  1  0.60974235  0.41576729  0.86799488  1
  Na  Na68  1  0.60925727  0.75076973  0.11827322  1
  Na  Na69  1  0.60956337  0.74960239  0.36853845  1
  Na  Na70  1  0.60938085  0.75085111  0.61890601  1
  Na  Na71  1  0.60924593  0.74873447  0.86845132  1
  Na  Na72  1  0.39002881  0.25135137  0.13247883  1
  Na  Na73  1  0.39019916  0.24868901  0.38135507  1
  Na  Na74  1  0.39116398  0.24990043  0.63113545  1
  Na  Na75  1  0.39085026  0.24882067  0.88136820  1
  Na  Na76  1  0.39025374  0.58421018  0.13140400  1
  Na  Na77  1  0.39110913  0.58269049  0.38090611  1
  Na  Na78  1  0.39074105  0.58324661  0.63195531  1
  Na  Na79  1  0.39035176  0.58156063  0.88200626  1
  Na  Na80  1  0.39034865  0.91881203  0.13136955  1
  Na  Na81  1  0.39035159  0.91664581  0.38168892  1
  Na  Na82  1  0.39069591  0.91763219  0.63087080  1
  Na  Na83  1  0.39014042  0.91599245  0.88165822  1
  Na  Na84  1  0.88964731  0.24920616  0.13035774  1
  Na  Na85  1  0.89027300  0.25017934  0.37987926  1
  Na  Na86  1  0.89060205  0.25083656  0.63226978  1
  Na  Na87  1  0.89007216  0.25027577  0.88199035  1
  Na  Na88  1  0.88977890  0.58246095  0.13186581  1
  Na  Na89  1  0.89010619  0.58323818  0.38066053  1
  Na  Na90  1  0.88991731  0.58274191  0.63341035  1
  Na  Na91  1  0.88964388  0.58379138  0.88195875  1
  Na  Na92  1  0.89046635  0.91564361  0.13001341  1
  Na  Na93  1  0.89039311  0.91606954  0.37990764  1
  Na  Na94  1  0.89063990  0.91703946  0.63111478  1
  Na  Na95  1  0.89055077  0.91714245  0.88172290  1
  Mn  Mn96  1  0.25090370  0.49897605  0.37421706  1
  Mn  Mn97  1  0.25058148  0.16594662  0.87580508  1
  Mn  Mn98  1  0.25012696  0.66617227  0.87573187  1
  Mn  Mn99  1  0.25084971  0.66718893  0.37442517  1
  Mn  Mn100  1  0.50046271  0.49896271  0.50054121  1
  Mn  Mn101  1  0.75095892  0.33511548  0.62476853  1
  Mn  Mn102  1  0.50014955  0.83383144  -0.00065865  1
  Mn  Mn103  1  0.24962143  0.66648100  0.12519004  1
  Mn  Mn104  1  0.49948820  0.66666167  0.74980203  1
  Mn  Mn105  1  0.49980971  0.16704916  -0.00082204  1
  Mn  Mn106  1  0.50059879  0.16634902  0.50075778  1
  Mn  Mn107  1  0.75011279  0.16805142  0.62497702  1
  Mn  Mn108  1  0.00012588  0.50000503  0.50046068  1
  Mn  Mn109  1  0.75001091  0.00074206  0.87433492  1
  Mn  Mn110  1  0.25048599  0.66676573  0.62530146  1
  Mn  Mn111  1  0.00034143  0.00018762  0.49978193  1
  Mn  Mn112  1  -0.00023688  0.66620562  0.00030291  1
  Mn  Mn113  1  0.50059842  0.33345599  0.24997149  1
  Mn  Mn114  1  -0.00034690  0.16682175  0.24919364  1
  Mn  Mn115  1  -0.00007393  0.49933676  0.25009581  1
  Mn  Mn116  1  0.25015040  0.83383383  0.62550052  1
  Mn  Mn117  1  -0.00006591  0.66631577  0.50015507  1
  Mn  Mn118  1  0.74964488  0.66499120  0.37553943  1
  Mn  Mn119  1  0.25033474  0.16590555  0.62469302  1
  Mn  Mn120  1  0.25034692  0.33277016  0.62498117  1
  Mn  Mn121  1  0.25027296  0.33345595  0.87547853  1
  Mn  Mn122  1  0.50032095  0.00038784  0.24997430  1
  Mn  Mn123  1  0.74955437  0.00089024  0.12367461  1
  Mn  Mn124  1  -0.00006413  0.33308066  -0.00056823  1
  Mn  Mn125  1  0.24970273  0.83460516  0.12567115  1
  Mn  Mn126  1  0.50039268  0.66734746  0.50047415  1
  Mn  Mn127  1  0.74977134  0.00081419  0.62447327  1
  Mn  Mn128  1  0.49963088  0.49990562  -0.00027961  1
  Mn  Mn129  1  0.00068997  0.16723867  0.49966789  1
  Mn  Mn130  1  0.00028509  0.83307480  0.75062561  1
  Mn  Mn131  1  0.74954182  0.83277179  0.37447287  1
  Mn  Mn132  1  0.75014776  0.83206332  0.12395447  1
  Mn  Mn133  1  0.25001027  -0.00001705  0.62509054  1
  Mn  Mn134  1  0.25036218  0.49937322  0.62439227  1
  Mn  Mn135  1  -0.00004531  0.83278450  0.50028429  1
  Mn  Mn136  1  0.75053316  0.00126243  0.37361166  1
  Mn  Mn137  1  0.49996025  0.66749570  0.25046055  1
  Mn  Mn138  1  0.00025958  0.33375133  0.50082103  1
  Mn  Mn139  1  0.00030267  0.00103338  0.75105589  1
  Mn  Mn140  1  0.74981196  0.83198697  0.87407322  1
  Mn  Mn141  1  0.75026068  0.33382450  0.37468649  1
  Mn  Mn142  1  0.75034576  0.83247884  0.62451465  1
  Mn  Mn143  1  -0.00050792  -0.00106661  0.24853033  1
  Fe  Fe144  1  0.74922720  0.66549595  0.87557168  1
  Fe  Fe145  1  0.24994923  0.33317807  0.12504278  1
  Fe  Fe146  1  0.50008047  -0.00001858  0.50028179  1
  Fe  Fe147  1  0.74912125  0.16787969  0.87524138  1
  Fe  Fe148  1  -0.00005464  0.33356059  0.75110725  1
  Fe  Fe149  1  0.74947662  0.66535736  0.12515124  1
  Fe  Fe150  1  0.25007353  0.00066825  0.37431676  1
  Fe  Fe151  1  0.25000663  0.33267312  0.37444969  1
  Fe  Fe152  1  0.50024136  0.50024164  0.24973795  1
  Fe  Fe153  1  0.50030675  0.33325775  0.50040933  1
  Fe  Fe154  1  0.49962161  0.33345577  -0.00053881  1
  Fe  Fe155  1  0.49995391  0.16651486  0.74985820  1
  Fe  Fe156  1  -0.00031345  0.16698831  0.75066653  1
  Fe  Fe157  1  0.74968808  0.66581539  0.62552119  1
  Fe  Fe158  1  0.00012634  0.83270046  0.24949400  1
  Fe  Fe159  1  0.24957977  0.83368281  0.87603380  1
  Fe  Fe160  1  0.74983772  0.50017927  0.87588619  1
  Fe  Fe161  1  0.74990640  0.16750174  0.37417180  1
  Fe  Fe162  1  0.75015108  0.49981134  0.37455765  1
  Fe  Fe163  1  0.74998450  0.50067755  0.62625749  1
  Fe  Fe164  1  -0.00025677  -0.00016051  -0.00001764  1
  Fe  Fe165  1  0.00022000  0.16687468  -0.00011145  1
  Fe  Fe166  1  0.50008414  0.83395888  0.49986677  1
  Fe  Fe167  1  -0.00017921  0.49980152  0.00009418  1
  Fe  Fe168  1  0.49955873  0.83373077  0.74966509  1
  Fe  Fe169  1  0.74984990  0.49922651  0.12434414  1
  Fe  Fe170  1  0.49998324  -0.00066990  0.74945421  1
  Fe  Fe171  1  0.49958124  0.66696990  0.00000097  1
  Fe  Fe172  1  0.24971160  0.83403545  0.37511276  1
  Fe  Fe173  1  0.25000761  0.16666411  0.37416018  1
  Fe  Fe174  1  -0.00058756  0.83265839  0.00015132  1
  Fe  Fe175  1  0.00021750  0.33295842  0.24912617  1
  Fe  Fe176  1  0.25034947  0.00033904  0.12546578  1
  Fe  Fe177  1  0.24961333  0.00004594  0.87634541  1
  Fe  Fe178  1  0.49987606  0.33295369  0.74976852  1
  Fe  Fe179  1  0.74920682  0.16760907  0.12429041  1
  Fe  Fe180  1  0.24981992  0.49965547  0.87546634  1
  Fe  Fe181  1  0.50017432  -0.00000909  -0.00072124  1
  Fe  Fe182  1  0.49981960  0.49935907  0.75039208  1
  Fe  Fe183  1  0.50018731  0.83414223  0.24963866  1
  Fe  Fe184  1  0.25013579  0.16653054  0.12575449  1
  Fe  Fe185  1  0.25050963  0.49962489  0.12499032  1
  Fe  Fe186  1  0.00005318  0.50040547  0.75041081  1
  Fe  Fe187  1  0.74969734  0.33335863  0.12442925  1
  Fe  Fe188  1  0.50004875  0.16680284  0.25020797  1
  Fe  Fe189  1  -0.00036990  0.66661861  0.75078764  1
  Fe  Fe190  1  0.74984190  0.33378326  0.87557669  1
  Fe  Fe191  1  0.00006710  0.66623649  0.24961654  1
  P  P192  1  0.04228978  0.24896298  0.10230165  1
  P  P193  1  0.04279783  0.25144527  0.35176900  1
  P  P194  1  0.04275323  0.25017606  0.60462160  1
  P  P195  1  0.04135883  0.24982494  0.85239211  1
  P  P196  1  0.04177772  0.58191765  0.10288796  1
  P  P197  1  0.04268418  0.58437183  0.35203180  1
  P  P198  1  0.04254996  0.58315394  0.60449899  1
  P  P199  1  0.04091294  0.58339860  0.85242127  1
  P  P200  1  0.04118605  0.91566718  0.10149695  1
  P  P201  1  0.04222857  0.91534155  0.35171018  1
  P  P202  1  0.04326646  0.91668136  0.60340058  1
  P  P203  1  0.04215031  0.91693153  0.85485995  1
  P  P204  1  0.54176424  0.25185684  0.10199819  1
  P  P205  1  0.54252768  0.24848343  0.35269490  1
  P  P206  1  0.54247029  0.25168659  0.60340469  1
  P  P207  1  0.54105111  0.24995152  0.85148823  1
  P  P208  1  0.54164824  0.58499697  0.10252519  1
  P  P209  1  0.54260920  0.58195052  0.35237566  1
  P  P210  1  0.54231153  0.58311654  0.60398096  1
  P  P211  1  0.54168372  0.58181443  0.85266223  1
  P  P212  1  0.54250152  0.91851746  0.10202666  1
  P  P213  1  0.54230826  0.91543327  0.35286939  1
  P  P214  1  0.54151832  0.91712293  0.60214213  1
  P  P215  1  0.54150661  0.91642780  0.85137299  1
  P  P216  1  0.45782073  0.08525401  0.14745891  1
  P  P217  1  0.45834773  0.08207212  0.39771141  1
  P  P218  1  0.45884294  0.08305759  0.64829196  1
  P  P219  1  0.45773584  0.08150283  0.89666411  1
  P  P220  1  0.45820253  0.41816892  0.14732769  1
  P  P221  1  0.45834178  0.41484720  0.39738942  1
  P  P222  1  0.45855268  0.41608175  0.64827427  1
  P  P223  1  0.45773643  0.41486914  0.89669522  1
  P  P224  1  0.45766133  0.75198974  0.14731138  1
  P  P225  1  0.45816823  0.75153112  0.39734653  1
  P  P226  1  0.45754158  0.75212207  0.64722133  1
  P  P227  1  0.45743066  0.74879558  0.89722711  1
  P  P228  1  0.95750247  0.08295999  0.14503494  1
  P  P229  1  0.95750708  0.08353245  0.39622124  1
  P  P230  1  0.95760797  0.08491933  0.64812763  1
  P  P231  1  0.95846869  0.08406356  0.89848007  1
  P  P232  1  0.95786365  0.41505921  0.14683377  1
  P  P233  1  0.95750613  0.41651046  0.39661985  1
  P  P234  1  0.95826026  0.41661858  0.64959952  1
  P  P235  1  0.95807761  0.41814181  0.89692121  1
  P  P236  1  0.95838677  0.74970635  0.14782506  1
  P  P237  1  0.95739127  0.74960600  0.39582431  1
  P  P238  1  0.95732285  0.74860569  0.64825521  1
  P  P239  1  0.95749076  0.75041580  0.89764526  1
  P  P240  1  0.20874515  0.08340757  0.22723593  1
  P  P241  1  0.20846390  0.08361194  0.47576272  1
  P  P242  1  0.20766615  0.08281696  0.72909974  1
  P  P243  1  0.20805982  0.08231111  0.97921960  1
  P  P244  1  0.20895864  0.41621476  0.22653882  1
  P  P245  1  0.20792145  0.41493060  0.47670182  1
  P  P246  1  0.20758877  0.41666866  0.72870313  1
  P  P247  1  0.20784070  0.41763131  0.97847399  1
  P  P248  1  0.20728206  0.75071403  0.22863468  1
  P  P249  1  0.20779562  0.75118909  0.47730141  1
  P  P250  1  0.20768426  0.75029447  0.72938427  1
  P  P251  1  0.20777853  0.75098247  0.97797970  1
  P  P252  1  0.70756488  0.08540985  0.22679017  1
  P  P253  1  0.70766482  0.08543679  0.47670632  1
  P  P254  1  0.70726895  0.08465538  0.72840570  1
  P  P255  1  0.70729053  0.08555289  0.97716516  1
  P  P256  1  0.70853321  0.41623403  0.22622423  1
  P  P257  1  0.70813700  0.41892498  0.47760004  1
  P  P258  1  0.70841690  0.41822848  0.72880112  1
  P  P259  1  0.70846707  0.41683252  0.97725416  1
  P  P260  1  0.70747840  0.74779470  0.22701377  1
  P  P261  1  0.70705959  0.74894392  0.47852867  1
  P  P262  1  0.70763149  0.74780183  0.72773275  1
  P  P263  1  0.70746414  0.74767516  0.97760554  1
  P  P264  1  0.29151334  0.24951473  0.02414840  1
  P  P265  1  0.29147349  0.24990356  0.27241572  1
  P  P266  1  0.29298057  0.24935803  0.52072167  1
  P  P267  1  0.29312581  0.24959617  0.77248222  1
  P  P268  1  0.29204554  0.58169370  0.02244851  1
  P  P269  1  0.29332718  0.58281392  0.27104667  1
  P  P270  1  0.29363959  0.58337017  0.52162882  1
  P  P271  1  0.29247871  0.58180226  0.77306347  1
  P  P272  1  0.29198346  0.91823158  0.02239465  1
  P  P273  1  0.29139518  0.91747319  0.27333807  1
  P  P274  1  0.29242137  0.91709247  0.52100332  1
  P  P275  1  0.29120286  0.91709170  0.77454578  1
  P  P276  1  0.79078696  0.25068409  0.02231102  1
  P  P277  1  0.79184045  0.24927080  0.27114011  1
  P  P278  1  0.79318517  0.25108128  0.52131748  1
  P  P279  1  0.79117455  0.25089869  0.77397616  1
  P  P280  1  0.79102297  0.58278423  0.02301758  1
  P  P281  1  0.79203880  0.58128308  0.27169984  1
  P  P282  1  0.79201709  0.58287045  0.52390309  1
  P  P283  1  0.79114334  0.58291720  0.77367150  1
  P  P284  1  0.79245067  0.91655583  0.02098725  1
  P  P285  1  0.79256817  0.91642246  0.27082995  1
  P  P286  1  0.79273658  0.91699402  0.52136475  1
  P  P287  1  0.79273542  0.91638484  0.77153194  1
  O  O288  1  0.03712824  0.24973201  0.18219067  1
  O  O289  1  0.03808529  0.25128065  0.43178729  1
  O  O290  1  0.03728496  0.24999738  0.68454159  1
  O  O291  1  0.03613601  0.24940352  0.93236512  1
  O  O292  1  0.03651439  0.58264812  0.18276917  1
  O  O293  1  0.03800024  0.58408559  0.43205479  1
  O  O294  1  0.03735182  0.58342312  0.68442244  1
  O  O295  1  0.03617702  0.58270239  0.93242000  1
  O  O296  1  0.03597268  0.91507238  0.18146345  1
  O  O297  1  0.03737039  0.91590694  0.43170510  1
  O  O298  1  0.03823192  0.91689921  0.68341031  1
  O  O299  1  0.03638381  0.91687360  0.93472134  1
  O  O300  1  0.53709299  0.25145305  0.18188157  1
  O  O301  1  0.53760816  0.24884035  0.43259588  1
  O  O302  1  0.53691196  0.25165081  0.68324900  1
  O  O303  1  0.53603952  0.24999926  0.93141896  1
  O  O304  1  0.53656981  0.58461797  0.18244036  1
  O  O305  1  0.53754950  0.58199981  0.43232296  1
  O  O306  1  0.53661901  0.58258367  0.68385542  1
  O  O307  1  0.53637548  0.58231809  0.93257021  1
  O  O308  1  0.53755834  0.91808858  0.18194737  1
  O  O309  1  0.53708785  0.91553124  0.43273592  1
  O  O310  1  0.53617661  0.91701312  0.68205227  1
  O  O311  1  0.53663719  0.91680498  0.93133600  1
  O  O312  1  0.46264631  0.08503791  0.06758889  1
  O  O313  1  0.46337163  0.08267315  0.31782427  1
  O  O314  1  0.46406649  0.08300596  0.56837538  1
  O  O315  1  0.46288830  0.08146782  0.81682936  1
  O  O316  1  0.46306967  0.41764591  0.06741947  1
  O  O317  1  0.46341084  0.41549691  0.31749021  1
  O  O318  1  0.46390735  0.41570655  0.56833627  1
  O  O319  1  0.46298986  0.41506148  0.81683384  1
  O  O320  1  0.46289324  0.75137905  0.06737735  1
  O  O321  1  0.46331225  0.75156325  0.31739273  1
  O  O322  1  0.46315601  0.75238936  0.56731702  1
  O  O323  1  0.46239700  0.74920485  0.81733255  1
  O  O324  1  0.96299960  0.08300389  0.06514977  1
  O  O325  1  0.96226672  0.08342260  0.31619732  1
  O  O326  1  0.96271189  0.08458342  0.56814845  1
  O  O327  1  0.96361876  0.08477079  0.81849864  1
  O  O328  1  0.96290028  0.41570817  0.06690523  1
  O  O329  1  0.96247105  0.41613324  0.31665370  1
  O  O330  1  0.96285884  0.41685032  0.56956729  1
  O  O331  1  0.96358263  0.41783259  0.81709512  1
  O  O332  1  0.96335150  0.74996121  0.06781131  1
  O  O333  1  0.96285339  0.74940518  0.31588548  1
  O  O334  1  0.96224921  0.74876240  0.56825333  1
  O  O335  1  0.96286334  0.74964260  0.81777063  1
  O  O336  1  0.21333484  0.08255434  0.05910368  1
  O  O337  1  0.21402261  0.08362818  0.30713006  1
  O  O338  1  0.21300948  0.08312020  0.55579867  1
  O  O339  1  0.21260152  0.08236171  0.80908226  1
  O  O340  1  0.21326428  0.41752883  0.05834847  1
  O  O341  1  0.21377007  0.41522192  0.30646983  1
  O  O342  1  0.21308968  0.41528650  0.55665846  1
  O  O343  1  0.21258650  0.41734775  0.80870102  1
  O  O344  1  0.21260133  0.75089180  0.05795527  1
  O  O345  1  0.21262981  0.75118733  0.30854018  1
  O  O346  1  0.21309878  0.75077717  0.55732566  1
  O  O347  1  0.21302584  0.75061139  0.80935406  1
  O  O348  1  0.71258351  0.08575621  0.05712090  1
  O  O349  1  0.71307392  0.08544814  0.30671496  1
  O  O350  1  0.71272967  0.08502046  0.55670614  1
  O  O351  1  0.71236966  0.08496763  0.80837535  1
  O  O352  1  0.71344205  0.41599383  0.05712352  1
  O  O353  1  0.71337863  0.41676747  0.30615050  1
  O  O354  1  0.71338623  0.41911403  0.55754475  1
  O  O355  1  0.71349891  0.41774324  0.80866573  1
  O  O356  1  0.71295846  0.74774270  0.05751903  1
  O  O357  1  0.71248429  0.74811793  0.30700750  1
  O  O358  1  0.71236572  0.74865725  0.55846998  1
  O  O359  1  0.71281183  0.74763803  0.80771149  1
  O  O360  1  0.28597009  0.24981672  0.19253709  1
  O  O361  1  0.28770709  0.24942492  0.44077467  1
  O  O362  1  0.28835088  0.24958957  0.69251135  1
  O  O363  1  0.28692287  0.24975527  0.94418099  1
  O  O364  1  0.28781922  0.58237450  0.19111112  1
  O  O365  1  0.28888687  0.58340413  0.44160258  1
  O  O366  1  0.28775403  0.58236522  0.69303720  1
  O  O367  1  0.28659364  0.58154473  0.94249757  1
  O  O368  1  0.28656491  0.91831453  0.19336197  1
  O  O369  1  0.28727733  0.91699237  0.44111484  1
  O  O370  1  0.28651508  0.91695948  0.69452694  1
  O  O371  1  0.28640674  0.91769095  0.94255285  1
  O  O372  1  0.78605248  0.24958792  0.19127639  1
  O  O373  1  0.78799635  0.25062829  0.44136845  1
  O  O374  1  0.78706678  0.25151354  0.69396139  1
  O  O375  1  0.78559147  0.25051829  0.94242580  1
  O  O376  1  0.78671325  0.58179142  0.19187025  1
  O  O377  1  0.78716577  0.58235850  0.44393043  1
  O  O378  1  0.78588710  0.58304015  0.69381902  1
  O  O379  1  0.78595017  0.58282979  0.94314857  1
  O  O380  1  0.78727381  0.91638934  0.19085442  1
  O  O381  1  0.78749270  0.91694040  0.44135477  1
  O  O382  1  0.78768766  0.91643298  0.69154454  1
  O  O383  1  0.78733671  0.91640147  0.94104471  1
  O  O384  1  0.22725718  0.24893264  0.05961631  1
  O  O385  1  0.22750258  0.24993126  0.30904875  1
  O  O386  1  0.22868756  0.24927745  0.55637926  1
  O  O387  1  0.22868026  0.24948583  0.80744488  1
  O  O388  1  0.22782923  0.58145406  0.05830304  1
  O  O389  1  0.22905726  0.58304772  0.30647136  1
  O  O390  1  0.22905495  0.58328507  0.55631410  1
  O  O391  1  0.22802737  0.58187818  0.80823802  1
  O  O392  1  0.22783436  0.91889859  0.05852165  1
  O  O393  1  0.22722264  0.91682658  0.30913495  1
  O  O394  1  0.22814747  0.91693115  0.55660373  1
  O  O395  1  0.22699830  0.91738803  0.81026821  1
  O  O396  1  0.72673192  0.25123259  0.05860543  1
  O  O397  1  0.72785593  0.24903684  0.30774657  1
  O  O398  1  0.72879877  0.25168169  0.55656337  1
  O  O399  1  0.72674186  0.25041689  0.80904857  1
  O  O400  1  0.72695879  0.58310607  0.05923138  1
  O  O401  1  0.72784257  0.58087436  0.30778073  1
  O  O402  1  0.72774229  0.58297872  0.55985841  1
  O  O403  1  0.72708080  0.58254455  0.81017731  1
  O  O404  1  0.72806650  0.91636962  0.05605761  1
  O  O405  1  0.72822419  0.91700378  0.30606872  1
  O  O406  1  0.72831141  0.91665077  0.55647961  1
  O  O407  1  0.72824209  0.91648951  0.80641059  1
  O  O408  1  0.27282322  0.08338619  0.19090242  1
  O  O409  1  0.27276547  0.08432965  0.44032003  1
  O  O410  1  0.27211426  0.08294310  0.69398757  1
  O  O411  1  0.27223819  0.08177350  0.94322273  1
  O  O412  1  0.27310492  0.41695168  0.19064974  1
  O  O413  1  0.27233007  0.41436101  0.44134511  1
  O  O414  1  0.27199413  0.41634287  0.69353923  1
  O  O415  1  0.27202641  0.41791231  0.94243078  1
  O  O416  1  0.27157420  0.75045459  0.19324637  1
  O  O417  1  0.27211023  0.75198464  0.44167152  1
  O  O418  1  0.27200097  0.75030308  0.69392205  1
  O  O419  1  0.27210493  0.75062860  0.94277632  1
  O  O420  1  0.77168615  0.08532188  0.19078015  1
  O  O421  1  0.77202809  0.08604849  0.44119372  1
  O  O422  1  0.77167171  0.08433494  0.69326499  1
  O  O423  1  0.77157861  0.08581746  0.94153636  1
  O  O424  1  0.77263378  0.41556521  0.19016289  1
  O  O425  1  0.77236124  0.41857973  0.44174182  1
  O  O426  1  0.77261947  0.41895428  0.69280881  1
  O  O427  1  0.77251386  0.41757614  0.94104656  1
  O  O428  1  0.77185045  0.74731625  0.19162695  1
  O  O429  1  0.77133960  0.74904702  0.44305642  1
  O  O430  1  0.77187651  0.74756010  0.69199658  1
  O  O431  1  0.77168650  0.74756466  0.94179007  1
  O  O432  1  0.02162634  0.08297384  0.18099943  1
  O  O433  1  0.02207230  0.08348810  0.43104803  1
  O  O434  1  0.02199981  0.08535045  0.68358667  1
  O  O435  1  0.02254931  0.08376417  0.93465857  1
  O  O436  1  0.02215746  0.41489494  0.18253425  1
  O  O437  1  0.02195305  0.41679127  0.43175323  1
  O  O438  1  0.02250865  0.41584415  0.68520529  1
  O  O439  1  0.02214688  0.41815258  0.93322382  1
  O  O440  1  0.02255794  0.74987443  0.18376566  1
  O  O441  1  0.02164322  0.74966016  0.43158049  1
  O  O442  1  0.02174678  0.74814358  0.68360001  1
  O  O443  1  0.02172354  0.75081300  0.93347835  1
  O  O444  1  0.52218008  0.08529741  0.18302181  1
  O  O445  1  0.52255151  0.08164137  0.43360433  1
  O  O446  1  0.52285324  0.08267492  0.68455163  1
  O  O447  1  0.52195299  0.08206275  0.93269697  1
  O  O448  1  0.52253838  0.41841277  0.18293359  1
  O  O449  1  0.52267660  0.41460708  0.43300983  1
  O  O450  1  0.52258784  0.41622206  0.68469809  1
  O  O451  1  0.52193797  0.41495120  0.93271057  1
  O  O452  1  0.52192685  0.75212898  0.18313084  1
  O  O453  1  0.52240812  0.75158289  0.43312004  1
  O  O454  1  0.52170040  0.75181130  0.68326802  1
  O  O455  1  0.52176363  0.74869217  0.93285637  1
  O  O456  1  0.47738603  0.25180322  0.06650157  1
  O  O457  1  0.47822338  0.24873415  0.31697254  1
  O  O458  1  0.47841911  0.25140796  0.56699912  1
  O  O459  1  0.47696403  0.25030640  0.81544583  1
  O  O460  1  0.47743431  0.58489765  0.06663905  1
  O  O461  1  0.47825702  0.58198776  0.31685368  1
  O  O462  1  0.47825355  0.58320226  0.56802305  1
  O  O463  1  0.47751206  0.58161160  0.81671917  1
  O  O464  1  0.47813234  0.91845001  0.06651041  1
  O  O465  1  0.47810336  0.91552993  0.31678081  1
  O  O466  1  0.47751163  0.91731613  0.56559748  1
  O  O467  1  0.47725007  0.91640259  0.81552791  1
  O  O468  1  0.97798756  0.24867779  0.06664612  1
  O  O469  1  0.97828663  0.25166923  0.31661378  1
  O  O470  1  0.97854765  0.25001676  0.56872233  1
  O  O471  1  0.97722302  0.25042098  0.81630021  1
  O  O472  1  0.97753873  0.58166604  0.06706532  1
  O  O473  1  0.97822868  0.58423435  0.31687328  1
  O  O474  1  0.97819243  0.58301863  0.56899018  1
  O  O475  1  0.97677904  0.58415222  0.81650069  1
  O  O476  1  0.97711393  0.91584515  0.06528036  1
  O  O477  1  0.97786463  0.91472327  0.31628005  1
  O  O478  1  0.97875301  0.91678855  0.56842940  1
  O  O479  1  0.97815288  0.91685211  0.81859633  1
  O  O480  1  0.07349722  0.31230249  0.07392792  1
  O  O481  1  0.07339331  0.31492899  0.32293862  1
  O  O482  1  0.07375477  0.31377939  0.57635992  1
  O  O483  1  0.07240322  0.31365488  0.82480330  1
  O  O484  1  0.07315114  0.64531073  0.07476835  1
  O  O485  1  0.07317780  0.64792439  0.32324736  1
  O  O486  1  0.07384021  0.64634848  0.57574691  1
  O  O487  1  0.07212899  0.64709151  0.82479276  1
  O  O488  1  0.07182860  0.97975957  0.07391191  1
  O  O489  1  0.07292236  0.97911687  0.32353512  1
  O  O490  1  0.07428764  0.98014315  0.57500693  1
  O  O491  1  0.07343490  0.98041081  0.82676304  1
  O  O492  1  0.57214868  0.31564547  0.07330612  1
  O  O493  1  0.57415071  0.31172168  0.32460720  1
  O  O494  1  0.57319336  0.31516603  0.57445146  1
  O  O495  1  0.57273791  0.31311034  0.82346204  1
  O  O496  1  0.57195392  0.64882241  0.07393565  1
  O  O497  1  0.57369296  0.64563258  0.32473266  1
  O  O498  1  0.57326145  0.64692181  0.57631627  1
  O  O499  1  0.57298885  0.64522399  0.82467392  1
  O  O500  1  0.57284360  0.98231814  0.07337220  1
  O  O501  1  0.57359866  0.97897710  0.32478025  1
  O  O502  1  0.57252161  0.98079590  0.57385556  1
  O  O503  1  0.57267803  0.97972881  0.82284518  1
  O  O504  1  0.42660533  0.02181882  0.17565354  1
  O  O505  1  0.42754065  0.01843734  0.42599662  1
  O  O506  1  0.42722986  0.01982353  0.67633776  1
  O  O507  1  0.42744054  0.01792398  0.92596043  1
  O  O508  1  0.42699270  0.35476970  0.17554302  1
  O  O509  1  0.42784075  0.35107899  0.42584100  1
  O  O510  1  0.42727821  0.35269799  0.67641694  1
  O  O511  1  0.42700774  0.35134411  0.92561717  1
  O  O512  1  0.42626820  0.68869733  0.17553813  1
  O  O513  1  0.42732211  0.68756138  0.42501316  1
  O  O514  1  0.42628404  0.68836246  0.67463549  1
  O  O515  1  0.42696957  0.68508890  0.92593220  1
  O  O516  1  0.92617416  0.01953560  0.17318849  1
  O  O517  1  0.92650622  0.02004881  0.42444993  1
  O  O518  1  0.92674900  0.02119499  0.67612420  1
  O  O519  1  0.92767629  0.02006790  0.92599874  1
  O  O520  1  0.92740891  0.35119164  0.17506738  1
  O  O521  1  0.92633203  0.35333523  0.42531212  1
  O  O522  1  0.92682800  0.35330808  0.67770985  1
  O  O523  1  0.92672586  0.35457264  0.92479807  1
  O  O524  1  0.92806963  0.68550639  0.17573288  1
  O  O525  1  0.92611062  0.68626625  0.42436928  1
  O  O526  1  0.92642113  0.68523262  0.67691207  1
  O  O527  1  0.92637060  0.68697992  0.92604499  1
  O  O528  1  0.17772527  0.01977150  0.19903993  1
  O  O529  1  0.17837488  0.01962980  0.44702163  1
  O  O530  1  0.17642989  0.01965779  0.70036365  1
  O  O531  1  0.17683365  0.01914884  0.95037931  1
  O  O532  1  0.17852442  0.35251292  0.19750257  1
  O  O533  1  0.17684223  0.35160028  0.44827913  1
  O  O534  1  0.17663630  0.35292769  0.70091988  1
  O  O535  1  0.17685671  0.35377116  0.95069608  1
  O  O536  1  0.17619350  0.68710881  0.20066306  1
  O  O537  1  0.17714307  0.68729498  0.44947568  1
  O  O538  1  0.17687937  0.68655864  0.70130215  1
  O  O539  1  0.17626703  0.68750952  0.95040697  1
  O  O540  1  0.67636327  0.02164303  0.19920149  1
  O  O541  1  0.67703287  0.02156700  0.44872132  1
  O  O542  1  0.67621154  0.02106002  0.70029472  1
  O  O543  1  0.67656336  0.02153586  0.94960862  1
  O  O544  1  0.67718129  0.35276153  0.19828870  1
  O  O545  1  0.67697599  0.35522600  0.44983527  1
  O  O546  1  0.67770011  0.35458561  0.70015301  1
  O  O547  1  0.67812138  0.35312267  0.94796336  1
  O  O548  1  0.67649356  0.68428574  0.19885182  1
  O  O549  1  0.67586086  0.68555112  0.45026160  1
  O  O550  1  0.67648178  0.68456036  0.69918657  1
  O  O551  1  0.67638500  0.68432729  0.94916685  1
  O  O552  1  0.32168805  0.31362665  0.05246286  1
  O  O553  1  0.32251056  0.31353202  0.30058273  1
  O  O554  1  0.32414112  0.31264982  0.54940556  1
  O  O555  1  0.32398032  0.31308502  0.80085706  1
  O  O556  1  0.32280490  0.64577877  0.04984137  1
  O  O557  1  0.32454294  0.64642188  0.29877749  1
  O  O558  1  0.32443380  0.64690558  0.55007194  1
  O  O559  1  0.32373046  0.64524872  0.80118910  1
  O  O560  1  0.32331175  0.98140469  0.05107731  1
  O  O561  1  0.32202649  0.98117495  0.30201813  1
  O  O562  1  0.32337780  0.98066342  0.54952269  1
  O  O563  1  0.32229947  0.98059681  0.80262204  1
  O  O564  1  0.82227321  0.31403322  0.05053200  1
  O  O565  1  0.82299429  0.31289822  0.29911770  1
  O  O566  1  0.82433678  0.31462619  0.54945413  1
  O  O567  1  0.82138236  0.31470953  0.80293237  1
  O  O568  1  0.82235272  0.64603945  0.05168547  1
  O  O569  1  0.82301407  0.64478462  0.30027329  1
  O  O570  1  0.82249600  0.64684360  0.55199741  1
  O  O571  1  0.82179305  0.64664349  0.80220373  1
  O  O572  1  0.82330379  0.98025061  0.04879107  1
  O  O573  1  0.82405259  0.97984626  0.29856785  1
  O  O574  1  0.82354141  0.98070847  0.54934427  1
  O  O575  1  0.82387331  0.97984709  0.79964631  1
  O  O576  1  0.42746174  0.14889851  0.17641857  1
  O  O577  1  0.42731795  0.14549498  0.42600977  1
  O  O578  1  0.42868197  0.14724059  0.67647248  1
  O  O579  1  0.42623354  0.14491296  0.92466604  1
  O  O580  1  0.42778088  0.48190620  0.17584046  1
  O  O581  1  0.42706486  0.47818814  0.42565759  1
  O  O582  1  0.42798635  0.48010484  0.67611658  1
  O  O583  1  0.42643563  0.47822887  0.92493303  1
  O  O584  1  0.42724006  0.81587790  0.17551032  1
  O  O585  1  0.42716988  0.81475398  0.42606914  1
  O  O586  1  0.42671555  0.81544031  0.67612378  1
  O  O587  1  0.42626131  0.81224497  0.92529868  1
  O  O588  1  0.92622784  0.14629383  0.17336584  1
  O  O589  1  0.92679590  0.14716814  0.42438955  1
  O  O590  1  0.92665840  0.14831736  0.67667473  1
  O  O591  1  0.92745877  0.14754797  0.92688668  1
  O  O592  1  0.92657273  0.47835418  0.17503129  1
  O  O593  1  0.92666314  0.48020986  0.42481914  1
  O  O594  1  0.92826522  0.48073957  0.67794573  1
  O  O595  1  0.92728139  0.48155786  0.92574804  1
  O  O596  1  0.92717812  0.81302371  0.17612414  1
  O  O597  1  0.92622502  0.81297892  0.42429264  1
  O  O598  1  0.92661369  0.81246324  0.67592321  1
  O  O599  1  0.92657606  0.81398286  0.92574902  1
  O  O600  1  0.07303666  0.18530805  0.07409737  1
  O  O601  1  0.07354114  0.18768225  0.32388815  1
  O  O602  1  0.07415181  0.18705221  0.57581720  1
  O  O603  1  0.07217254  0.18620415  0.82423109  1
  O  O604  1  0.07235852  0.51822441  0.07455257  1
  O  O605  1  0.07384951  0.52079038  0.32423356  1
  O  O606  1  0.07359733  0.51963209  0.57606999  1
  O  O607  1  0.07131427  0.51970279  0.82354607  1
  O  O608  1  0.07231720  0.85227299  0.07313912  1
  O  O609  1  0.07320762  0.85196010  0.32339740  1
  O  O610  1  0.07398273  0.85298788  0.57540233  1
  O  O611  1  0.07352602  0.85360886  0.82668283  1
  O  O612  1  0.57299251  0.18858530  0.07358095  1
  O  O613  1  0.57253314  0.18460307  0.32389755  1
  O  O614  1  0.57387420  0.18813373  0.57572843  1
  O  O615  1  0.57107938  0.18574542  0.82322299  1
  O  O616  1  0.57306227  0.52165327  0.07453619  1
  O  O617  1  0.57304772  0.51834484  0.32359717  1
  O  O618  1  0.57385368  0.52000166  0.57573413  1
  O  O619  1  0.57230697  0.51802771  0.82452747  1
  O  O620  1  0.57388414  0.85523445  0.07379831  1
  O  O621  1  0.57305171  0.85210138  0.32370790  1
  O  O622  1  0.57245040  0.85353518  0.57380816  1
  O  O623  1  0.57193180  0.85235871  0.82343451  1
  O  O624  1  0.32286044  0.18618845  0.05220167  1
  O  O625  1  0.32240459  0.18627138  0.30072224  1
  O  O626  1  0.32409992  0.18591913  0.54924479  1
  O  O627  1  0.32418322  0.18620407  0.80077083  1
  O  O628  1  0.32333107  0.51858158  0.05106839  1
  O  O629  1  0.32451729  0.51953964  0.29950497  1
  O  O630  1  0.32454642  0.51978154  0.54974453  1
  O  O631  1  0.32287880  0.51808757  0.80150858  1
  O  O632  1  0.32290578  0.85454459  0.05062068  1
  O  O633  1  0.32235750  0.85373486  0.30105025  1
  O  O634  1  0.32374450  0.85402079  0.54996063  1
  O  O635  1  0.32149538  0.85306311  0.80278783  1
  O  O636  1  0.82128249  0.18689215  0.05089467  1
  O  O637  1  0.82299513  0.18592518  0.29958350  1
  O  O638  1  0.82410893  0.18778238  0.55006779  1
  O  O639  1  0.82212762  0.18731826  0.80204108  1
  O  O640  1  0.82148649  0.51882967  0.05140479  1
  O  O641  1  0.82301065  0.51783403  0.30027426  1
  O  O642  1  0.82293860  0.51953752  0.55275536  1
  O  O643  1  0.82233804  0.51957143  0.80219508  1
  O  O644  1  0.82363571  0.85311656  0.04900664  1
  O  O645  1  0.82316874  0.85269694  0.29892989  1
  O  O646  1  0.82403375  0.85363232  0.54944397  1
  O  O647  1  0.82360945  0.85277784  0.79954848  1
  O  O648  1  0.17779006  0.14699709  0.19882936  1
  O  O649  1  0.17711263  0.14697212  0.44779140  1
  O  O650  1  0.17691776  0.14648448  0.70080551  1
  O  O651  1  0.17724100  0.14607010  0.95105043  1
  O  O652  1  0.17777004  0.47988960  0.19892955  1
  O  O653  1  0.17726602  0.47882041  0.44881788  1
  O  O654  1  0.17651768  0.47984814  0.69984065  1
  O  O655  1  0.17678911  0.48084216  0.94945131  1
  O  O656  1  0.17611141  0.81397331  0.20014536  1
  O  O657  1  0.17670174  0.81460947  0.44917096  1
  O  O658  1  0.17632200  0.81350320  0.70104419  1
  O  O659  1  0.17752231  0.81480048  0.94949475  1
  O  O660  1  0.67658015  0.14872969  0.19812976  1
  O  O661  1  0.67666073  0.14889785  0.44855762  1
  O  O662  1  0.67627451  0.14801929  0.69991409  1
  O  O663  1  0.67609545  0.14873812  0.94848502  1
  O  O664  1  0.67818556  0.47995442  0.19729944  1
  O  O665  1  0.67739770  0.48221328  0.44858740  1
  O  O666  1  0.67716159  0.48144831  0.70018758  1
  O  O667  1  0.67696902  0.48025916  0.94947017  1
  O  O668  1  0.67674172  0.81157658  0.19904881  1
  O  O669  1  0.67604661  0.81250354  0.45038331  1
  O  O670  1  0.67688446  0.81176810  0.70010803  1
  O  O671  1  0.67645996  0.81143727  0.94976337  1
