# generated using pymatgen
data_Na2MnFe(PO4)2
_symmetry_space_group_name_H-M   'P 1'
_cell_length_a   22.34682355
_cell_length_b   20.09682648
_cell_length_c   19.44638330
_cell_angle_alpha   90.07003214
_cell_angle_beta   90.04641096
_cell_angle_gamma   89.97081140
_symmetry_Int_Tables_number   1
_chemical_formula_structural   Na2MnFe(PO4)2
_chemical_formula_sum   'Na96 Mn48 Fe48 P96 O384'
_cell_volume   8733.36479902
_cell_formula_units_Z   48
loop_
 _symmetry_equiv_pos_site_id
 _symmetry_equiv_pos_as_xyz
  1  'x, y, z'
loop_
 _atom_site_type_symbol
 _atom_site_label
 _atom_site_symmetry_multiplicity
 _atom_site_fract_x
 _atom_site_fract_y
 _atom_site_fract_z
 _atom_site_occupancy
  Na  Na0  1  0.13980603  0.25018096  0.24408633  1
  Na  Na1  1  0.14007231  0.24913147  0.49334101  1
  Na  Na2  1  0.14032440  0.24806061  0.74354916  1
  Na  Na3  1  0.14019842  0.25128948  0.99360785  1
  Na  Na4  1  0.13976898  0.58338217  0.24271310  1
  Na  Na5  1  0.13980727  0.58348228  0.49343569  1
  Na  Na6  1  0.13933979  0.58262706  0.74404858  1
  Na  Na7  1  0.13975713  0.58320704  0.99265212  1
  Na  Na8  1  0.14050323  0.91677430  0.24470831  1
  Na  Na9  1  0.14063056  0.91697927  0.49499999  1
  Na  Na10  1  0.14039986  0.91521996  0.74415027  1
  Na  Na11  1  0.14031479  0.91518841  0.99341961  1
  Na  Na12  1  0.64006346  0.24998302  0.24137458  1
  Na  Na13  1  0.63998489  0.25044533  0.49333661  1
  Na  Na14  1  0.64050013  0.24901671  0.74401121  1
  Na  Na15  1  0.63985757  0.24944463  0.99431276  1
  Na  Na16  1  0.64029296  0.58430183  0.24204552  1
  Na  Na17  1  0.64001126  0.58445601  0.49351502  1
  Na  Na18  1  0.63989625  0.58220344  0.74337053  1
  Na  Na19  1  0.63988632  0.58364270  0.99504642  1
  Na  Na20  1  0.64096513  0.91650216  0.24255930  1
  Na  Na21  1  0.64102092  0.91640507  0.49423838  1
  Na  Na22  1  0.64047019  0.91667493  0.74450505  1
  Na  Na23  1  0.64025524  0.91698432  0.99495903  1
  Na  Na24  1  0.36010708  0.08383950  0.00725083  1
  Na  Na25  1  0.35963262  0.08376622  0.25628937  1
  Na  Na26  1  0.36026193  0.08299583  0.50559079  1
  Na  Na27  1  0.36036715  0.08174496  0.75640568  1
  Na  Na28  1  0.35958991  0.41657969  0.00587403  1
  Na  Na29  1  0.36002644  0.41620715  0.25578097  1
  Na  Na30  1  0.35971799  0.41669828  0.50515647  1
  Na  Na31  1  0.35965664  0.41641688  0.75674599  1
  Na  Na32  1  0.35985028  0.74895182  0.00677691  1
  Na  Na33  1  0.36020624  0.75110870  0.25677150  1
  Na  Na34  1  0.35979992  0.75055802  0.50527614  1
  Na  Na35  1  0.35950374  0.74811550  0.75623230  1
  Na  Na36  1  0.85927418  0.08317386  0.00732561  1
  Na  Na37  1  0.85999637  0.08440563  0.25569225  1
  Na  Na38  1  0.85975056  0.08526192  0.50672057  1
  Na  Na39  1  0.85996213  0.08342029  0.75615476  1
  Na  Na40  1  0.85989529  0.41725052  0.00824626  1
  Na  Na41  1  0.85981426  0.41835084  0.25580239  1
  Na  Na42  1  0.85986075  0.41812886  0.50664207  1
  Na  Na43  1  0.85987530  0.41686039  0.75588088  1
  Na  Na44  1  0.85985538  0.75023281  0.00754190  1
  Na  Na45  1  0.86012920  0.74988396  0.25493425  1
  Na  Na46  1  0.85953286  0.75040105  0.50615508  1
  Na  Na47  1  0.86004265  0.74997229  0.75720425  1
  Na  Na48  1  0.10932177  0.08440592  0.11878794  1
  Na  Na49  1  0.10933453  0.08362855  0.36949340  1
  Na  Na50  1  0.10963858  0.08388466  0.61868024  1
  Na  Na51  1  0.10975256  0.08285112  0.86851070  1
  Na  Na52  1  0.10911897  0.41779613  0.11825178  1
  Na  Na53  1  0.10913038  0.41636524  0.36876800  1
  Na  Na54  1  0.10898158  0.41665590  0.61866800  1
  Na  Na55  1  0.10881069  0.41713213  0.86918820  1
  Na  Na56  1  0.10969221  0.74925224  0.11789908  1
  Na  Na57  1  0.10952759  0.74965695  0.36833379  1
  Na  Na58  1  0.10955703  0.74876042  0.61929979  1
  Na  Na59  1  0.10921137  0.74809142  0.86871176  1
  Na  Na60  1  0.60953301  0.08435269  0.11757700  1
  Na  Na61  1  0.60968096  0.08385326  0.36791962  1
  Na  Na62  1  0.60989486  0.08236259  0.61917857  1
  Na  Na63  1  0.61012836  0.08279741  0.86995074  1
  Na  Na64  1  0.60964672  0.41659138  0.11810085  1
  Na  Na65  1  0.60910690  0.41659010  0.36696673  1
  Na  Na66  1  0.60921103  0.41685433  0.61837200  1
  Na  Na67  1  0.60966177  0.41568299  0.86978163  1
  Na  Na68  1  0.60985013  0.75070447  0.11914124  1
  Na  Na69  1  0.60991813  0.74864759  0.36778962  1
  Na  Na70  1  0.60968831  0.74939361  0.61882641  1
  Na  Na71  1  0.60937197  0.74911118  0.86959370  1
  Na  Na72  1  0.39036837  0.25127493  0.13131162  1
  Na  Na73  1  0.39067217  0.25017837  0.37991574  1
  Na  Na74  1  0.39074414  0.24904205  0.63091510  1
  Na  Na75  1  0.39066668  0.24856677  0.88233988  1
  Na  Na76  1  0.39077084  0.58387605  0.13142209  1
  Na  Na77  1  0.39076253  0.58314138  0.38002692  1
  Na  Na78  1  0.39000387  0.58362424  0.63106043  1
  Na  Na79  1  0.38993252  0.58190674  0.88124255  1
  Na  Na80  1  0.39035512  0.91684797  0.13241610  1
  Na  Na81  1  0.39049592  0.91599993  0.38128736  1
  Na  Na82  1  0.39049527  0.91648971  0.63078068  1
  Na  Na83  1  0.39088349  0.91671319  0.88185066  1
  Na  Na84  1  0.89026664  0.25180540  0.13192381  1
  Na  Na85  1  0.89059365  0.25103266  0.38110919  1
  Na  Na86  1  0.89052837  0.25147620  0.63068404  1
  Na  Na87  1  0.89058868  0.25063615  0.88134745  1
  Na  Na88  1  0.89032581  0.58376395  0.13163875  1
  Na  Na89  1  0.89010181  0.58341764  0.38035971  1
  Na  Na90  1  0.89050708  0.58409524  0.63146787  1
  Na  Na91  1  0.89060991  0.58359098  0.88188507  1
  Na  Na92  1  0.89044519  0.91654524  0.13155840  1
  Na  Na93  1  0.89048286  0.91757562  0.38086651  1
  Na  Na94  1  0.89050396  0.91721153  0.63266491  1
  Na  Na95  1  0.89044753  0.91581139  0.88190108  1
  Mn  Mn96  1  0.75024614  0.00062100  0.37423242  1
  Mn  Mn97  1  0.25076228  0.83162756  0.87402105  1
  Mn  Mn98  1  0.50049028  0.33313246  0.74990185  1
  Mn  Mn99  1  0.25001842  0.33228671  0.62589701  1
  Mn  Mn100  1  0.49970164  0.66558076  0.74998323  1
  Mn  Mn101  1  0.00037923  0.00100622  0.25049738  1
  Mn  Mn102  1  0.25024449  0.49932486  0.12441728  1
  Mn  Mn103  1  0.49962485  0.83348340  0.75012886  1
  Mn  Mn104  1  0.50050063  0.16546931  0.75111025  1
  Mn  Mn105  1  0.25084173  0.16470195  0.62376945  1
  Mn  Mn106  1  0.25027940  0.66722887  0.12449339  1
  Mn  Mn107  1  0.75018115  0.33298414  0.87601705  1
  Mn  Mn108  1  0.00002618  0.00119485  0.50127564  1
  Mn  Mn109  1  0.49973823  0.83334745  0.00033426  1
  Mn  Mn110  1  0.49948656  0.33263477  0.49903608  1
  Mn  Mn111  1  -0.00074020  0.66567935  0.49993439  1
  Mn  Mn112  1  0.75035680  0.83343733  0.62518441  1
  Mn  Mn113  1  0.50077673  -0.00001400  0.49950554  1
  Mn  Mn114  1  0.74976046  0.49976530  0.87516504  1
  Mn  Mn115  1  0.75007437  0.66666394  0.87582945  1
  Mn  Mn116  1  0.25074812  -0.00021524  0.87527734  1
  Mn  Mn117  1  0.74934118  0.83394035  0.87562619  1
  Mn  Mn118  1  0.24941407  -0.00056265  0.12515939  1
  Mn  Mn119  1  0.50005347  0.00052654  0.25034645  1
  Mn  Mn120  1  0.75081797  0.83317984  0.37467615  1
  Mn  Mn121  1  0.24950066  0.16767559  0.12606999  1
  Mn  Mn122  1  0.25029260  0.83262837  0.62502739  1
  Mn  Mn123  1  0.00056277  0.83265107  0.25016286  1
  Mn  Mn124  1  0.74987661  0.50032302  0.62475387  1
  Mn  Mn125  1  0.50076235  0.83212520  0.50036483  1
  Mn  Mn126  1  -0.00031215  -0.00063144  -0.00039853  1
  Mn  Mn127  1  0.25011790  0.33267121  0.87461953  1
  Mn  Mn128  1  0.74968291  0.16687528  0.62518855  1
  Mn  Mn129  1  0.74902735  0.50177090  0.37540376  1
  Mn  Mn130  1  0.00030718  0.00010019  0.75050394  1
  Mn  Mn131  1  0.49986369  0.49970949  0.00061673  1
  Mn  Mn132  1  0.24995214  0.49951001  0.37441163  1
  Mn  Mn133  1  0.75098075  0.16559729  0.87470246  1
  Mn  Mn134  1  -0.00042315  0.16764748  -0.00018642  1
  Mn  Mn135  1  -0.00020357  0.83297859  0.50037487  1
  Mn  Mn136  1  -0.00010783  0.33448851  0.25053994  1
  Mn  Mn137  1  0.24951511  0.50019898  0.62508406  1
  Mn  Mn138  1  0.24996007  0.66773959  0.37403706  1
  Mn  Mn139  1  0.00007434  0.33386153  0.74975190  1
  Mn  Mn140  1  0.74985724  0.33441871  0.37412188  1
  Mn  Mn141  1  0.49948999  0.50055903  0.49847875  1
  Mn  Mn142  1  0.25010823  0.16661342  0.37495933  1
  Mn  Mn143  1  0.74971536  0.16748616  0.37466557  1
  Fe  Fe144  1  -0.00005276  0.33401805  0.50012256  1
  Fe  Fe145  1  0.75037316  0.16656457  0.12454938  1
  Fe  Fe146  1  -0.00014043  0.66600044  0.24902864  1
  Fe  Fe147  1  0.75036421  0.83358967  0.12503718  1
  Fe  Fe148  1  0.74986533  0.66714269  0.12504191  1
  Fe  Fe149  1  0.00042798  0.50043329  0.49980715  1
  Fe  Fe150  1  -0.00007481  0.33405265  0.00006034  1
  Fe  Fe151  1  0.49965170  0.33323878  0.00010809  1
  Fe  Fe152  1  0.00013362  0.83258046  0.75107521  1
  Fe  Fe153  1  0.74985594  0.66738031  0.37434816  1
  Fe  Fe154  1  0.75052151  0.00013335  0.62499747  1
  Fe  Fe155  1  0.50026773  0.50030357  0.24911939  1
  Fe  Fe156  1  0.50002073  0.66639040  0.00045827  1
  Fe  Fe157  1  -0.00035219  0.16763457  0.50005860  1
  Fe  Fe158  1  0.24948118  0.49973666  0.87490245  1
  Fe  Fe159  1  0.75044078  -0.00040795  0.87584867  1
  Fe  Fe160  1  0.74995230  0.50069818  0.12553225  1
  Fe  Fe161  1  0.49996155  0.16676973  0.00007582  1
  Fe  Fe162  1  -0.00004143  0.16750006  0.74997212  1
  Fe  Fe163  1  0.50037853  -0.00015022  0.75034426  1
  Fe  Fe164  1  -0.00014125  0.50055474  0.24941236  1
  Fe  Fe165  1  0.00001608  0.16775779  0.25022198  1
  Fe  Fe166  1  -0.00080657  0.49990050  0.75024900  1
  Fe  Fe167  1  0.49991004  0.66605362  0.49909310  1
  Fe  Fe168  1  0.24993761  -0.00038464  0.37512545  1
  Fe  Fe169  1  0.49996269  0.66687814  0.24991929  1
  Fe  Fe170  1  0.50026729  0.33327628  0.24937550  1
  Fe  Fe171  1  -0.00019565  0.66623779  -0.00050932  1
  Fe  Fe172  1  0.25035370  -0.00080601  0.62507064  1
  Fe  Fe173  1  0.24973107  0.66604904  0.62487836  1
  Fe  Fe174  1  0.24939545  0.33369023  0.12424811  1
  Fe  Fe175  1  0.25008988  0.83343985  0.12533508  1
  Fe  Fe176  1  0.74995602  0.66695391  0.62524721  1
  Fe  Fe177  1  -0.00029417  0.66633916  0.75038265  1
  Fe  Fe178  1  0.49987459  0.16706894  0.24880724  1
  Fe  Fe179  1  0.74984070  0.33366602  0.12485893  1
  Fe  Fe180  1  0.00008149  0.83232681  0.00049506  1
  Fe  Fe181  1  0.49978327  0.49949951  0.75004482  1
  Fe  Fe182  1  -0.00040995  0.50076854  -0.00035754  1
  Fe  Fe183  1  0.24997029  0.16605403  0.87513551  1
  Fe  Fe184  1  0.24972469  0.83401895  0.37592124  1
  Fe  Fe185  1  0.74953439  0.33367020  0.62498874  1
  Fe  Fe186  1  0.50011452  0.00040051  0.00116265  1
  Fe  Fe187  1  0.75027151  0.00000093  0.12500948  1
  Fe  Fe188  1  0.50034512  0.16656996  0.49939231  1
  Fe  Fe189  1  0.24979897  0.33326996  0.37499706  1
  Fe  Fe190  1  0.24973390  0.66576454  0.87525276  1
  Fe  Fe191  1  0.50053808  0.83329186  0.24992604  1
  P  P192  1  0.04199730  0.25209966  0.10275976  1
  P  P193  1  0.04186800  0.24952623  0.35337265  1
  P  P194  1  0.04150292  0.25038656  0.60178023  1
  P  P195  1  0.04230225  0.24975021  0.85257414  1
  P  P196  1  0.04133158  0.58361602  0.10159783  1
  P  P197  1  0.04146764  0.58287590  0.35131337  1
  P  P198  1  0.04189566  0.58203652  0.60325594  1
  P  P199  1  0.04048912  0.58289801  0.85221618  1
  P  P200  1  0.04225713  0.91541251  0.10244528  1
  P  P201  1  0.04277562  0.91699768  0.35355534  1
  P  P202  1  0.04253637  0.91622431  0.60431979  1
  P  P203  1  0.04214546  0.91456390  0.85335134  1
  P  P204  1  0.54081716  0.25038639  0.10204543  1
  P  P205  1  0.54165836  0.24944892  0.35076012  1
  P  P206  1  0.54228234  0.24860748  0.60207053  1
  P  P207  1  0.54292258  0.24975046  0.85424015  1
  P  P208  1  0.54177089  0.58484185  0.10357527  1
  P  P209  1  0.54176686  0.58340363  0.35091773  1
  P  P210  1  0.54192753  0.58398885  0.60204216  1
  P  P211  1  0.54220430  0.58140834  0.85293475  1
  P  P212  1  0.54183832  0.91764899  0.10336768  1
  P  P213  1  0.54289486  0.91530929  0.35217280  1
  P  P214  1  0.54316596  0.91665560  0.60354666  1
  P  P215  1  0.54204145  0.91802644  0.85337799  1
  P  P216  1  0.45776986  0.08476709  0.14677291  1
  P  P217  1  0.45820016  0.08476906  0.39670667  1
  P  P218  1  0.45818757  0.08200746  0.64741246  1
  P  P219  1  0.45885979  0.08244940  0.89888741  1
  P  P220  1  0.45891210  0.41666115  0.14790291  1
  P  P221  1  0.45753031  0.41632546  0.39496301  1
  P  P222  1  0.45748523  0.41765992  0.64730036  1
  P  P223  1  0.45769642  0.41532377  0.89747841  1
  P  P224  1  0.45870784  0.75008949  0.14831879  1
  P  P225  1  0.45836375  0.74838550  0.39644510  1
  P  P226  1  0.45700302  0.74933497  0.64661588  1
  P  P227  1  0.45764323  0.74828044  0.89799167  1
  P  P228  1  0.95806892  0.08532771  0.14772345  1
  P  P229  1  0.95774954  0.08542070  0.39758533  1
  P  P230  1  0.95816987  0.08546642  0.64757362  1
  P  P231  1  0.95703102  0.08359554  0.89659368  1
  P  P232  1  0.95796653  0.41864138  0.14687786  1
  P  P233  1  0.95845012  0.41762952  0.39826036  1
  P  P234  1  0.95783601  0.41822849  0.64682381  1
  P  P235  1  0.95796814  0.41721885  0.89848273  1
  P  P236  1  0.95836872  0.74850443  0.14650852  1
  P  P237  1  0.95727289  0.74912092  0.39629090  1
  P  P238  1  0.95855145  0.74994817  0.64909638  1
  P  P239  1  0.95841568  0.74961489  0.89808882  1
  P  P240  1  0.20710949  0.08290882  0.22887425  1
  P  P241  1  0.20790346  0.08140236  0.47752691  1
  P  P242  1  0.20801705  0.08150022  0.72762464  1
  P  P243  1  0.20767003  0.08443287  0.97768363  1
  P  P244  1  0.20752449  0.41502005  0.22747409  1
  P  P245  1  0.20748714  0.41558076  0.47738788  1
  P  P246  1  0.20708021  0.41656898  0.72878419  1
  P  P247  1  0.20772634  0.41728550  0.97724255  1
  P  P248  1  0.20787322  0.75193292  0.22769854  1
  P  P249  1  0.20744506  0.75114954  0.47769955  1
  P  P250  1  0.20786023  0.74748247  0.72769350  1
  P  P251  1  0.20778220  0.74872559  0.97738389  1
  P  P252  1  0.70849950  0.08347978  0.22583868  1
  P  P253  1  0.70728351  0.08357098  0.47819247  1
  P  P254  1  0.70815232  0.08144881  0.72792140  1
  P  P255  1  0.70854244  0.08198440  0.97852575  1
  P  P256  1  0.70841280  0.41725604  0.22628821  1
  P  P257  1  0.70670742  0.41726415  0.47814630  1
  P  P258  1  0.70731240  0.41550543  0.72744390  1
  P  P259  1  0.70761966  0.41684187  0.97973780  1
  P  P260  1  0.70902159  0.75017942  0.22666372  1
  P  P261  1  0.70797075  0.74897905  0.47757803  1
  P  P262  1  0.70755061  0.74905538  0.72772468  1
  P  P263  1  0.70730480  0.75039538  0.97958566  1
  P  P264  1  0.29206921  0.25092859  0.02227311  1
  P  P265  1  0.29182402  0.25175439  0.27212926  1
  P  P266  1  0.29283789  0.25001279  0.52123296  1
  P  P267  1  0.29274580  0.24745434  0.77269313  1
  P  P268  1  0.29251267  0.58296621  0.02082852  1
  P  P269  1  0.29273633  0.58339174  0.27135396  1
  P  P270  1  0.29198293  0.58449858  0.52214855  1
  P  P271  1  0.29101548  0.58305167  0.77321385  1
  P  P272  1  0.29243481  0.91501356  0.02282733  1
  P  P273  1  0.29150449  0.91628852  0.27348488  1
  P  P274  1  0.29241830  0.91759078  0.52194864  1
  P  P275  1  0.29331184  0.91602452  0.77149418  1
  P  P276  1  0.79166028  0.25009480  0.02366646  1
  P  P277  1  0.79230849  0.25053987  0.27045610  1
  P  P278  1  0.79203691  0.25183342  0.52256138  1
  P  P279  1  0.79284056  0.25024105  0.77165877  1
  P  P280  1  0.79130809  0.58371144  0.02393344  1
  P  P281  1  0.79164482  0.58519478  0.27151250  1
  P  P282  1  0.79216041  0.58557872  0.52226469  1
  P  P283  1  0.79243318  0.58346613  0.77172717  1
  P  P284  1  0.79159027  0.91699389  0.02348849  1
  P  P285  1  0.79306984  0.91684860  0.27072729  1
  P  P286  1  0.79311559  0.91800781  0.52266639  1
  P  P287  1  0.79242377  0.91805329  0.77271336  1
  O  O288  1  0.03688075  0.25173247  0.18271407  1
  O  O289  1  0.03644044  0.24974376  0.43323453  1
  O  O290  1  0.03662842  0.25027370  0.68179326  1
  O  O291  1  0.03693131  0.25059897  0.93247101  1
  O  O292  1  0.03623359  0.58376307  0.18149591  1
  O  O293  1  0.03654268  0.58255979  0.43129545  1
  O  O294  1  0.03643435  0.58219267  0.68307685  1
  O  O295  1  0.03546567  0.58331088  0.93211712  1
  O  O296  1  0.03734420  0.91595744  0.18243954  1
  O  O297  1  0.03749334  0.91714129  0.43348617  1
  O  O298  1  0.03725306  0.91564788  0.68430617  1
  O  O299  1  0.03660728  0.91435737  0.93329575  1
  O  O300  1  0.53598049  0.25000328  0.18195861  1
  O  O301  1  0.53677039  0.24926707  0.43074962  1
  O  O302  1  0.53729267  0.24893135  0.68204818  1
  O  O303  1  0.53764541  0.25009918  0.93414653  1
  O  O304  1  0.53618933  0.58474123  0.18342474  1
  O  O305  1  0.53659719  0.58391822  0.43089017  1
  O  O306  1  0.53680555  0.58300556  0.68197431  1
  O  O307  1  0.53696147  0.58211688  0.93289061  1
  O  O308  1  0.53658939  0.91699998  0.18328968  1
  O  O309  1  0.53797435  0.91536594  0.43215483  1
  O  O310  1  0.53774216  0.91717916  0.68349558  1
  O  O311  1  0.53652658  0.91807423  0.93334665  1
  O  O312  1  0.46322887  0.08408021  0.06690012  1
  O  O313  1  0.46339872  0.08491076  0.31674724  1
  O  O314  1  0.46349973  0.08282326  0.56749299  1
  O  O315  1  0.46355494  0.08209150  0.81889288  1
  O  O316  1  0.46375108  0.41593304  0.06792687  1
  O  O317  1  0.46307359  0.41647776  0.31510016  1
  O  O318  1  0.46235045  0.41740659  0.56727797  1
  O  O319  1  0.46299524  0.41595987  0.81756635  1
  O  O320  1  0.46359459  0.74975949  0.06832576  1
  O  O321  1  0.46390708  0.74898965  0.31654619  1
  O  O322  1  0.46211938  0.74898065  0.56664921  1
  O  O323  1  0.46272890  0.74855533  0.81805423  1
  O  O324  1  0.96308364  0.08467592  0.06776375  1
  O  O325  1  0.96323877  0.08556889  0.31763671  1
  O  O326  1  0.96357360  0.08562378  0.56760711  1
  O  O327  1  0.96230131  0.08383337  0.81665362  1
  O  O328  1  0.96319884  0.41836009  0.06703537  1
  O  O329  1  0.96338392  0.41750388  0.31826261  1
  O  O330  1  0.96333231  0.41806483  0.56700701  1
  O  O331  1  0.96311478  0.41723562  0.81851932  1
  O  O332  1  0.96369224  0.74865239  0.06659956  1
  O  O333  1  0.96278744  0.74851560  0.31636468  1
  O  O334  1  0.96303003  0.74961619  0.56907222  1
  O  O335  1  0.96342130  0.74984715  0.81814383  1
  O  O336  1  0.21248917  0.08433895  0.05771120  1
  O  O337  1  0.21261493  0.08246542  0.30879133  1
  O  O338  1  0.21317721  0.08103812  0.55750311  1
  O  O339  1  0.21322956  0.08261609  0.80762338  1
  O  O340  1  0.21291086  0.41666724  0.05722018  1
  O  O341  1  0.21278622  0.41494604  0.30746156  1
  O  O342  1  0.21250717  0.41600595  0.55737972  1
  O  O343  1  0.21240148  0.41712107  0.80872929  1
  O  O344  1  0.21270020  0.74950055  0.05734047  1
  O  O345  1  0.21295984  0.75230148  0.30767920  1
  O  O346  1  0.21280719  0.75010652  0.55763656  1
  O  O347  1  0.21322511  0.74699765  0.80763286  1
  O  O348  1  0.71407652  0.08244076  0.05841211  1
  O  O349  1  0.71290290  0.08413715  0.30588270  1
  O  O350  1  0.71249653  0.08312126  0.55815886  1
  O  O351  1  0.71373273  0.08139532  0.80787383  1
  O  O352  1  0.71302959  0.41701944  0.05966397  1
  O  O353  1  0.71279396  0.41774659  0.30633498  1
  O  O354  1  0.71178777  0.41659859  0.55812843  1
  O  O355  1  0.71246541  0.41582741  0.80747273  1
  O  O356  1  0.71275337  0.75050484  0.05948743  1
  O  O357  1  0.71388539  0.74999028  0.30665364  1
  O  O358  1  0.71321441  0.74899340  0.55756656  1
  O  O359  1  0.71244864  0.74962150  0.80776603  1
  O  O360  1  0.28639093  0.25214652  0.19218648  1
  O  O361  1  0.28731160  0.25077415  0.44128815  1
  O  O362  1  0.28778465  0.24749966  0.69268391  1
  O  O363  1  0.28682149  0.24973875  0.94232488  1
  O  O364  1  0.28775596  0.58331329  0.19138405  1
  O  O365  1  0.28686794  0.58420138  0.44218258  1
  O  O366  1  0.28614469  0.58344576  0.69318757  1
  O  O367  1  0.28699377  0.58278158  0.94089200  1
  O  O368  1  0.28646138  0.91571102  0.19347599  1
  O  O369  1  0.28673399  0.91740465  0.44205300  1
  O  O370  1  0.28807219  0.91650933  0.69156200  1
  O  O371  1  0.28775452  0.91512067  0.94283390  1
  O  O372  1  0.78701997  0.25048606  0.19052579  1
  O  O373  1  0.78699271  0.25149976  0.44254350  1
  O  O374  1  0.78732544  0.25088846  0.69174506  1
  O  O375  1  0.78722409  0.24956127  0.94362047  1
  O  O376  1  0.78621496  0.58465297  0.19161674  1
  O  O377  1  0.78676468  0.58577296  0.44227849  1
  O  O378  1  0.78723059  0.58390239  0.69175847  1
  O  O379  1  0.78673218  0.58308112  0.94391274  1
  O  O380  1  0.78773327  0.91684556  0.19080669  1
  O  O381  1  0.78804577  0.91743032  0.44266035  1
  O  O382  1  0.78737548  0.91790570  0.69271759  1
  O  O383  1  0.78664546  0.91709566  0.94349775  1
  O  O384  1  0.22775680  0.25174212  0.05795073  1
  O  O385  1  0.22769449  0.25124928  0.30805362  1
  O  O386  1  0.22858393  0.24920662  0.55673937  1
  O  O387  1  0.22830950  0.24759832  0.80785910  1
  O  O388  1  0.22830803  0.58313573  0.05648914  1
  O  O389  1  0.22830835  0.58345294  0.30623848  1
  O  O390  1  0.22761874  0.58459708  0.55755861  1
  O  O391  1  0.22682772  0.58324882  0.80910983  1
  O  O392  1  0.22794124  0.91462211  0.05786163  1
  O  O393  1  0.22738964  0.91645815  0.30953689  1
  O  O394  1  0.22839958  0.91765791  0.55840605  1
  O  O395  1  0.22901901  0.91591347  0.80683905  1
  O  O396  1  0.72734815  0.25057797  0.05893991  1
  O  O397  1  0.72798001  0.25076751  0.30589764  1
  O  O398  1  0.72771696  0.25179463  0.55801729  1
  O  O399  1  0.72864366  0.24963538  0.80725000  1
  O  O400  1  0.72705816  0.58427350  0.05934743  1
  O  O401  1  0.72748167  0.58594860  0.30763594  1
  O  O402  1  0.72793873  0.58543500  0.55806840  1
  O  O403  1  0.72808613  0.58348740  0.80695866  1
  O  O404  1  0.72747095  0.91732295  0.05939967  1
  O  O405  1  0.72883645  0.91666663  0.30638262  1
  O  O406  1  0.72878138  0.91816441  0.55813194  1
  O  O407  1  0.72809242  0.91852840  0.80831925  1
  O  O408  1  0.27132177  0.08318290  0.19332251  1
  O  O409  1  0.27211743  0.08169989  0.44178911  1
  O  O410  1  0.27234682  0.08064417  0.69198172  1
  O  O411  1  0.27213630  0.08467069  0.94256546  1
  O  O412  1  0.27181594  0.41470906  0.19176943  1
  O  O413  1  0.27183750  0.41544997  0.44197304  1
  O  O414  1  0.27140711  0.41652747  0.69346362  1
  O  O415  1  0.27191311  0.41746340  0.94158271  1
  O  O416  1  0.27219388  0.75182550  0.19211855  1
  O  O417  1  0.27169891  0.75161535  0.44194940  1
  O  O418  1  0.27205219  0.74754684  0.69187379  1
  O  O419  1  0.27216452  0.74769984  0.94204634  1
  O  O420  1  0.77286419  0.08272818  0.19072687  1
  O  O421  1  0.77166543  0.08399520  0.44299086  1
  O  O422  1  0.77226792  0.08207026  0.69183626  1
  O  O423  1  0.77262127  0.08134336  0.94222579  1
  O  O424  1  0.77270145  0.41645438  0.19099442  1
  O  O425  1  0.77110594  0.41791266  0.44303950  1
  O  O426  1  0.77163396  0.41546489  0.69195755  1
  O  O427  1  0.77187025  0.41690448  0.94414705  1
  O  O428  1  0.77307255  0.74965594  0.19062235  1
  O  O429  1  0.77224187  0.74850244  0.44184887  1
  O  O430  1  0.77195693  0.74875251  0.69245091  1
  O  O431  1  0.77152254  0.75058210  0.94389852  1
  O  O432  1  0.02235034  0.08566156  0.18334950  1
  O  O433  1  0.02191792  0.08547544  0.43363750  1
  O  O434  1  0.02231582  0.08517434  0.68365636  1
  O  O435  1  0.02137437  0.08348512  0.93190819  1
  O  O436  1  0.02207860  0.41878581  0.18308248  1
  O  O437  1  0.02258057  0.41762165  0.43437312  1
  O  O438  1  0.02188044  0.41859755  0.68329878  1
  O  O439  1  0.02211210  0.41710231  0.93464102  1
  O  O440  1  0.02244115  0.74805207  0.18278645  1
  O  O441  1  0.02147715  0.74915064  0.43199035  1
  O  O442  1  0.02278935  0.75022065  0.68472945  1
  O  O443  1  0.02251033  0.74942628  0.93434586  1
  O  O444  1  0.52196168  0.08490860  0.18283057  1
  O  O445  1  0.52244918  0.08487441  0.43252499  1
  O  O446  1  0.52239711  0.08134947  0.68347959  1
  O  O447  1  0.52303500  0.08242455  0.93473080  1
  O  O448  1  0.52305607  0.41743876  0.18386067  1
  O  O449  1  0.52159058  0.41636104  0.43107961  1
  O  O450  1  0.52189638  0.41792337  0.68271051  1
  O  O451  1  0.52183084  0.41499780  0.93361661  1
  O  O452  1  0.52288785  0.75019945  0.18424765  1
  O  O453  1  0.52247261  0.74774676  0.43277026  1
  O  O454  1  0.52133053  0.74944794  0.68199759  1
  O  O455  1  0.52192636  0.74852153  0.93365701  1
  O  O456  1  0.47682630  0.25079197  0.06566779  1
  O  O457  1  0.47746900  0.24917290  0.31482489  1
  O  O458  1  0.47796096  0.24810757  0.56639962  1
  O  O459  1  0.47870540  0.24956583  0.81850220  1
  O  O460  1  0.47775675  0.58474316  0.06715169  1
  O  O461  1  0.47759801  0.58276928  0.31490591  1
  O  O462  1  0.47764897  0.58481683  0.56618325  1
  O  O463  1  0.47789605  0.58108131  0.81715236  1
  O  O464  1  0.47768383  0.91780637  0.06740628  1
  O  O465  1  0.47845976  0.91532810  0.31692631  1
  O  O466  1  0.47894954  0.91636734  0.56787018  1
  O  O467  1  0.47789223  0.91820624  0.81723643  1
  O  O468  1  0.97771456  0.25248316  0.06701101  1
  O  O469  1  0.97781502  0.24941098  0.31693853  1
  O  O470  1  0.97734642  0.25052147  0.56575536  1
  O  O471  1  0.97805554  0.24944725  0.81669786  1
  O  O472  1  0.97722102  0.58358918  0.06525221  1
  O  O473  1  0.97728768  0.58331100  0.31521206  1
  O  O474  1  0.97774018  0.58132959  0.56698508  1
  O  O475  1  0.97654882  0.58249395  0.81572380  1
  O  O476  1  0.97786513  0.91520533  0.06708852  1
  O  O477  1  0.97852975  0.91680463  0.31805291  1
  O  O478  1  0.97823901  0.91679112  0.56882901  1
  O  O479  1  0.97802989  0.91502994  0.81724565  1
  O  O480  1  0.07260418  0.31565488  0.07418285  1
  O  O481  1  0.07293419  0.31314761  0.32543507  1
  O  O482  1  0.07200193  0.31430097  0.57361226  1
  O  O483  1  0.07349845  0.31308813  0.82434297  1
  O  O484  1  0.07235061  0.64702200  0.07300717  1
  O  O485  1  0.07239667  0.64648084  0.32320707  1
  O  O486  1  0.07242713  0.64588486  0.57498232  1
  O  O487  1  0.07093393  0.64667678  0.82345165  1
  O  O488  1  0.07323784  0.97902577  0.07453283  1
  O  O489  1  0.07365512  0.98052340  0.32547881  1
  O  O490  1  0.07367376  0.97984942  0.57668270  1
  O  O491  1  0.07351385  0.97823821  0.82610521  1
  O  O492  1  0.57213216  0.31380120  0.07408722  1
  O  O493  1  0.57181846  0.31358043  0.32249538  1
  O  O494  1  0.57282338  0.31244651  0.57410431  1
  O  O495  1  0.57413275  0.31288521  0.82542580  1
  O  O496  1  0.57249882  0.64827245  0.07479546  1
  O  O497  1  0.57241869  0.64698167  0.32244901  1
  O  O498  1  0.57280223  0.64758688  0.57399619  1
  O  O499  1  0.57345725  0.64478502  0.82487502  1
  O  O500  1  0.57243174  0.98143977  0.07540258  1
  O  O501  1  0.57386703  0.97902050  0.32458001  1
  O  O502  1  0.57439347  0.97971179  0.57483172  1
  O  O503  1  0.57310983  0.98116866  0.82468978  1
  O  O504  1  0.42650371  0.02147298  0.17528699  1
  O  O505  1  0.42745389  0.02076854  0.42408547  1
  O  O506  1  0.42739012  0.01841256  0.67552504  1
  O  O507  1  0.42745181  0.01940955  0.92750236  1
  O  O508  1  0.42857028  0.35295827  0.17666229  1
  O  O509  1  0.42635998  0.35300905  0.42342989  1
  O  O510  1  0.42662817  0.35396499  0.67514800  1
  O  O511  1  0.42687815  0.35171771  0.92560653  1
  O  O512  1  0.42759126  0.68674087  0.17666265  1
  O  O513  1  0.42726149  0.68494943  0.42464527  1
  O  O514  1  0.42569994  0.68622904  0.67514585  1
  O  O515  1  0.42732539  0.68454797  0.92633394  1
  O  O516  1  0.92720621  0.02163206  0.17554783  1
  O  O517  1  0.92682194  0.02158294  0.42515795  1
  O  O518  1  0.92697048  0.02177149  0.67492698  1
  O  O519  1  0.92616296  0.01996283  0.92464179  1
  O  O520  1  0.92675975  0.35532669  0.17526787  1
  O  O521  1  0.92791848  0.35380494  0.42660034  1
  O  O522  1  0.92696189  0.35452544  0.67492198  1
  O  O523  1  0.92737688  0.35339041  0.92662137  1
  O  O524  1  0.92726845  0.68521056  0.17508938  1
  O  O525  1  0.92594726  0.68603219  0.42486569  1
  O  O526  1  0.92830690  0.68598657  0.67743999  1
  O  O527  1  0.92741555  0.68598656  0.92622309  1
  O  O528  1  0.17590338  0.01970184  0.20021719  1
  O  O529  1  0.17699361  0.01814561  0.44867888  1
  O  O530  1  0.17707727  0.01783991  0.69970267  1
  O  O531  1  0.17693094  0.02053950  0.94994165  1
  O  O532  1  0.17630203  0.35199262  0.19849040  1
  O  O533  1  0.17687124  0.35191065  0.44908710  1
  O  O534  1  0.17634599  0.35260741  0.70111066  1
  O  O535  1  0.17637616  0.35396533  0.94910201  1
  O  O536  1  0.17703118  0.68796387  0.20013093  1
  O  O537  1  0.17620819  0.68786031  0.44908805  1
  O  O538  1  0.17683838  0.68433277  0.69865207  1
  O  O539  1  0.17667096  0.68524762  0.94905525  1
  O  O540  1  0.67720850  0.01996128  0.19812071  1
  O  O541  1  0.67632533  0.02026407  0.44936926  1
  O  O542  1  0.67760407  0.01801602  0.69900941  1
  O  O543  1  0.67732229  0.01867243  0.95004263  1
  O  O544  1  0.67708649  0.35385403  0.19830133  1
  O  O545  1  0.67570733  0.35409995  0.44907745  1
  O  O546  1  0.67669267  0.35181541  0.69917549  1
  O  O547  1  0.67660208  0.35330654  0.95140730  1
  O  O548  1  0.67740620  0.68708135  0.19831823  1
  O  O549  1  0.67664537  0.68602332  0.44857015  1
  O  O550  1  0.67674367  0.68552061  0.69943152  1
  O  O551  1  0.67623974  0.68693610  0.95115103  1
  O  O552  1  0.32284734  0.31474543  0.05010464  1
  O  O553  1  0.32255650  0.31504161  0.30119373  1
  O  O554  1  0.32383503  0.31319929  0.55022468  1
  O  O555  1  0.32379046  0.31119487  0.80033433  1
  O  O556  1  0.32382411  0.64626305  0.04931346  1
  O  O557  1  0.32373705  0.64691372  0.29939071  1
  O  O558  1  0.32263559  0.64807534  0.55058436  1
  O  O559  1  0.32229494  0.64626848  0.80187397  1
  O  O560  1  0.32292810  0.97894747  0.05087069  1
  O  O561  1  0.32226288  0.98032255  0.30112808  1
  O  O562  1  0.32341042  0.98098033  0.55059575  1
  O  O563  1  0.32459069  0.97905910  0.80044486  1
  O  O564  1  0.82272627  0.31365484  0.05165085  1
  O  O565  1  0.82364759  0.31389982  0.29887484  1
  O  O566  1  0.82257632  0.31556295  0.55082675  1
  O  O567  1  0.82401566  0.31344169  0.80045747  1
  O  O568  1  0.82244182  0.64736592  0.05151846  1
  O  O569  1  0.82299045  0.64836949  0.30001169  1
  O  O570  1  0.82315633  0.64874027  0.55129404  1
  O  O571  1  0.82376697  0.64655144  0.80051051  1
  O  O572  1  0.82312078  0.98014455  0.05182767  1
  O  O573  1  0.82410321  0.98034113  0.29921079  1
  O  O574  1  0.82373987  0.98167426  0.55090267  1
  O  O575  1  0.82372218  0.98105928  0.80156214  1
  O  O576  1  0.42681174  0.14836981  0.17498512  1
  O  O577  1  0.42721871  0.14799202  0.42560361  1
  O  O578  1  0.42720631  0.14552150  0.67591394  1
  O  O579  1  0.42862618  0.14667604  0.92709867  1
  O  O580  1  0.42762570  0.48036266  0.17540786  1
  O  O581  1  0.42612336  0.47967996  0.42328607  1
  O  O582  1  0.42686335  0.48125984  0.67592321  1
  O  O583  1  0.42647805  0.47874185  0.92571302  1
  O  O584  1  0.42817682  0.81407070  0.17649935  1
  O  O585  1  0.42738019  0.81198855  0.42477712  1
  O  O586  1  0.42611899  0.81304318  0.67472621  1
  O  O587  1  0.42631155  0.81184464  0.92570214  1
  O  O588  1  0.92735078  0.14903829  0.17577856  1
  O  O589  1  0.92661652  0.14869400  0.42624784  1
  O  O590  1  0.92743932  0.14903451  0.67604876  1
  O  O591  1  0.92569201  0.14683196  0.92504135  1
  O  O592  1  0.92708345  0.48210988  0.17569225  1
  O  O593  1  0.92744550  0.48123344  0.42634611  1
  O  O594  1  0.92653095  0.48134816  0.67574044  1
  O  O595  1  0.92696379  0.48079587  0.92670043  1
  O  O596  1  0.92734154  0.81220299  0.17450956  1
  O  O597  1  0.92627856  0.81287685  0.42411510  1
  O  O598  1  0.92742927  0.81345666  0.67721382  1
  O  O599  1  0.92752893  0.81315958  0.92691036  1
  O  O600  1  0.07316039  0.18855455  0.07472211  1
  O  O601  1  0.07284706  0.18616542  0.32451950  1
  O  O602  1  0.07257151  0.18687655  0.57354962  1
  O  O603  1  0.07296377  0.18596093  0.82439193  1
  O  O604  1  0.07232391  0.51999512  0.07320527  1
  O  O605  1  0.07215422  0.51918346  0.32280290  1
  O  O606  1  0.07338173  0.51907977  0.57422951  1
  O  O607  1  0.07181038  0.51943032  0.82416136  1
  O  O608  1  0.07288354  0.85169099  0.07420803  1
  O  O609  1  0.07398452  0.85353350  0.32558658  1
  O  O610  1  0.07357372  0.85289920  0.57565771  1
  O  O611  1  0.07297053  0.85110443  0.82473404  1
  O  O612  1  0.57128712  0.18653191  0.07319884  1
  O  O613  1  0.57305966  0.18629532  0.32214265  1
  O  O614  1  0.57323469  0.18511997  0.57378844  1
  O  O615  1  0.57415640  0.18619017  0.82610916  1
  O  O616  1  0.57313372  0.52127664  0.07579686  1
  O  O617  1  0.57290407  0.51971006  0.32306747  1
  O  O618  1  0.57286969  0.52052565  0.57344953  1
  O  O619  1  0.57275289  0.51763981  0.82453817  1
  O  O620  1  0.57323414  0.85434492  0.07516625  1
  O  O621  1  0.57357094  0.85177820  0.32351059  1
  O  O622  1  0.57430344  0.85293437  0.57583037  1
  O  O623  1  0.57288079  0.85396549  0.82589774  1
  O  O624  1  0.32300367  0.18760333  0.05101345  1
  O  O625  1  0.32314767  0.18791921  0.29920716  1
  O  O626  1  0.32418381  0.18632176  0.54855482  1
  O  O627  1  0.32332331  0.18395296  0.80139756  1
  O  O628  1  0.32380190  0.51962669  0.04917811  1
  O  O629  1  0.32371131  0.51990194  0.29944993  1
  O  O630  1  0.32299590  0.52082844  0.55003620  1
  O  O631  1  0.32137968  0.51894785  0.80120129  1
  O  O632  1  0.32334142  0.85169088  0.05149346  1
  O  O633  1  0.32250103  0.85298386  0.30228796  1
  O  O634  1  0.32368071  0.85397246  0.54976601  1
  O  O635  1  0.32426699  0.85222667  0.79914676  1
  O  O636  1  0.82192607  0.18612259  0.05204351  1
  O  O637  1  0.82325479  0.18714259  0.29915253  1
  O  O638  1  0.82318175  0.18831207  0.55045224  1
  O  O639  1  0.82405518  0.18660571  0.79932921  1
  O  O640  1  0.82159832  0.51990959  0.05270283  1
  O  O641  1  0.82228749  0.52140313  0.29991346  1
  O  O642  1  0.82314894  0.52167228  0.54964663  1
  O  O643  1  0.82318359  0.51966578  0.79966914  1
  O  O644  1  0.82180221  0.85286655  0.05172028  1
  O  O645  1  0.82437789  0.85357434  0.29921248  1
  O  O646  1  0.82410483  0.85435790  0.55067547  1
  O  O647  1  0.82282520  0.85397104  0.80068174  1
  O  O648  1  0.17597456  0.14656023  0.20117116  1
  O  O649  1  0.17678602  0.14526135  0.45020330  1
  O  O650  1  0.17718183  0.14496550  0.69892638  1
  O  O651  1  0.17688982  0.14788157  0.94910386  1
  O  O652  1  0.17687040  0.47905532  0.19982730  1
  O  O653  1  0.17648218  0.47920175  0.44937091  1
  O  O654  1  0.17568143  0.47956028  0.70005624  1
  O  O655  1  0.17704664  0.48103690  0.94906731  1
  O  O656  1  0.17698580  0.81511581  0.19865917  1
  O  O657  1  0.17672597  0.81497110  0.44990176  1
  O  O658  1  0.17697128  0.81144612  0.70039753  1
  O  O659  1  0.17711624  0.81227595  0.94882055  1
  O  O660  1  0.67843726  0.14738338  0.19690517  1
  O  O661  1  0.67619312  0.14713799  0.45010698  1
  O  O662  1  0.67662207  0.14511071  0.70064723  1
  O  O663  1  0.67774754  0.14573788  0.95037162  1
  O  O664  1  0.67841584  0.48139555  0.19794173  1
  O  O665  1  0.67560045  0.48093323  0.45032172  1
  O  O666  1  0.67619351  0.47905111  0.69954608  1
  O  O667  1  0.67628945  0.48008503  0.95115896  1
  O  O668  1  0.67896255  0.81439278  0.19848359  1
  O  O669  1  0.67747285  0.81308246  0.44986695  1
  O  O670  1  0.67674124  0.81279758  0.69978133  1
  O  O671  1  0.67595527  0.81367108  0.95110885  1
