# generated using pymatgen
data_Na2MnFe(PO4)2
_symmetry_space_group_name_H-M   'P 1'
_cell_length_a   22.34777094
_cell_length_b   20.09463800
_cell_length_c   19.44689776
_cell_angle_alpha   89.99876209
_cell_angle_beta   89.98585378
_cell_angle_gamma   89.98621580
_symmetry_Int_Tables_number   1
_chemical_formula_structural   Na2MnFe(PO4)2
_chemical_formula_sum   'Na96 Mn48 Fe48 P96 O384'
_cell_volume   8733.02499690
_cell_formula_units_Z   48
loop_
 _symmetry_equiv_pos_site_id
 _symmetry_equiv_pos_as_xyz
  1  'x, y, z'
loop_
 _atom_site_type_symbol
 _atom_site_label
 _atom_site_symmetry_multiplicity
 _atom_site_fract_x
 _atom_site_fract_y
 _atom_site_fract_z
 _atom_site_occupancy
  Na  Na0  1  0.14006946  0.25016722  0.24196510  1
  Na  Na1  1  0.14021180  0.25104579  0.49364897  1
  Na  Na2  1  0.14026856  0.24918945  0.74408576  1
  Na  Na3  1  0.13996584  0.24957607  0.99459112  1
  Na  Na4  1  0.14063501  0.58285512  0.24425927  1
  Na  Na5  1  0.14044816  0.58366890  0.49365160  1
  Na  Na6  1  0.14022376  0.58256100  0.74421540  1
  Na  Na7  1  0.14041187  0.58268419  0.99295600  1
  Na  Na8  1  0.14013836  0.91786985  0.24361248  1
  Na  Na9  1  0.14011617  0.91750798  0.49404936  1
  Na  Na10  1  0.14025015  0.91641350  0.74445699  1
  Na  Na11  1  0.14048990  0.91693141  0.99359543  1
  Na  Na12  1  0.64053432  0.24851390  0.24333141  1
  Na  Na13  1  0.64079813  0.24967190  0.49426502  1
  Na  Na14  1  0.64065598  0.24915198  0.74398263  1
  Na  Na15  1  0.64061371  0.24864999  0.99284495  1
  Na  Na16  1  0.64070513  0.58376734  0.24406719  1
  Na  Na17  1  0.64025827  0.58291225  0.49430980  1
  Na  Na18  1  0.64036224  0.58293703  0.74314977  1
  Na  Na19  1  0.64041047  0.58306488  0.99287022  1
  Na  Na20  1  0.64069000  0.91789003  0.24301535  1
  Na  Na21  1  0.64033149  0.91722488  0.49399904  1
  Na  Na22  1  0.64057380  0.91760991  0.74312881  1
  Na  Na23  1  0.64056880  0.91780763  0.99401222  1
  Na  Na24  1  0.35930044  0.08449453  0.00678245  1
  Na  Na25  1  0.35985645  0.08470921  0.25449763  1
  Na  Na26  1  0.35955732  0.08424152  0.50612337  1
  Na  Na27  1  0.35904801  0.08273628  0.75636890  1
  Na  Na28  1  0.35927110  0.41557856  0.00578111  1
  Na  Na29  1  0.35932951  0.41786645  0.25532087  1
  Na  Na30  1  0.35984403  0.41788953  0.50664408  1
  Na  Na31  1  0.35988368  0.41553632  0.75717487  1
  Na  Na32  1  0.35977231  0.74968730  0.00581814  1
  Na  Na33  1  0.35953355  0.75033464  0.25631476  1
  Na  Na34  1  0.35966425  0.75074094  0.50660639  1
  Na  Na35  1  0.35988834  0.74951459  0.75730440  1
  Na  Na36  1  0.85940869  0.08279430  0.00685855  1
  Na  Na37  1  0.86026031  0.08271098  0.25687279  1
  Na  Na38  1  0.85987037  0.08330963  0.50671638  1
  Na  Na39  1  0.85940634  0.08382030  0.75584464  1
  Na  Na40  1  0.85932374  0.41447695  0.00538778  1
  Na  Na41  1  0.85948296  0.41499756  0.25656891  1
  Na  Na42  1  0.85956353  0.41555833  0.50618475  1
  Na  Na43  1  0.86027687  0.41502100  0.75679596  1
  Na  Na44  1  0.86014017  0.75079691  0.00712875  1
  Na  Na45  1  0.85929097  0.75068538  0.25572239  1
  Na  Na46  1  0.85940721  0.75058811  0.50685167  1
  Na  Na47  1  0.85947340  0.75193295  0.75648190  1
  Na  Na48  1  0.10998687  0.08277544  0.11853921  1
  Na  Na49  1  0.10943366  0.08408597  0.36858012  1
  Na  Na50  1  0.10958271  0.08286371  0.61895461  1
  Na  Na51  1  0.10967032  0.08461940  0.86942458  1
  Na  Na52  1  0.10969372  0.41580126  0.11830657  1
  Na  Na53  1  0.10985810  0.41628033  0.36800836  1
  Na  Na54  1  0.10975098  0.41636177  0.61920654  1
  Na  Na55  1  0.10947089  0.41596364  0.86852870  1
  Na  Na56  1  0.10947602  0.74974212  0.11817248  1
  Na  Na57  1  0.10924719  0.74989785  0.36927678  1
  Na  Na58  1  0.10946421  0.75058222  0.61949109  1
  Na  Na59  1  0.10979031  0.75018736  0.86894957  1
  Na  Na60  1  0.61063602  0.08458539  0.11791677  1
  Na  Na61  1  0.61033341  0.08286465  0.36782611  1
  Na  Na62  1  0.61005140  0.08230712  0.61792137  1
  Na  Na63  1  0.61018640  0.08269284  0.86804684  1
  Na  Na64  1  0.60961454  0.41747162  0.11843959  1
  Na  Na65  1  0.60962533  0.41721860  0.36919925  1
  Na  Na66  1  0.60995093  0.41613824  0.61987629  1
  Na  Na67  1  0.60929077  0.41602817  0.86783450  1
  Na  Na68  1  0.60945690  0.75211032  0.11868455  1
  Na  Na69  1  0.60969454  0.75073070  0.36942709  1
  Na  Na70  1  0.60943305  0.74932473  0.61955177  1
  Na  Na71  1  0.60947826  0.74909050  0.86867297  1
  Na  Na72  1  0.39019936  0.25129202  0.13050395  1
  Na  Na73  1  0.39047999  0.25078981  0.38001791  1
  Na  Na74  1  0.39016393  0.25103322  0.63215764  1
  Na  Na75  1  0.38963620  0.24982729  0.88203645  1
  Na  Na76  1  0.39020126  0.58485467  0.13121646  1
  Na  Na77  1  0.38991390  0.58431765  0.38181282  1
  Na  Na78  1  0.39071053  0.58280872  0.63164246  1
  Na  Na79  1  0.39072280  0.58243344  0.88102064  1
  Na  Na80  1  0.39042521  0.91896819  0.13078168  1
  Na  Na81  1  0.39038860  0.91686494  0.38053933  1
  Na  Na82  1  0.39006270  0.91529797  0.63151312  1
  Na  Na83  1  0.39037448  0.91489815  0.88117057  1
  Na  Na84  1  0.89025712  0.24766237  0.13171329  1
  Na  Na85  1  0.89034850  0.24831448  0.38124255  1
  Na  Na86  1  0.89004105  0.24898879  0.63209817  1
  Na  Na87  1  0.88970265  0.24977532  0.88113655  1
  Na  Na88  1  0.89053551  0.58297236  0.13111333  1
  Na  Na89  1  0.89015997  0.58273382  0.38108801  1
  Na  Na90  1  0.89101283  0.58264771  0.63076670  1
  Na  Na91  1  0.89080892  0.58350633  0.88094047  1
  Na  Na92  1  0.89022021  0.91700445  0.13188488  1
  Na  Na93  1  0.89016320  0.91796407  0.38189099  1
  Na  Na94  1  0.88972677  0.91755826  0.63145386  1
  Na  Na95  1  0.89020074  0.91776503  0.88203244  1
  Mn  Mn96  1  0.75083901  0.49899189  0.62504928  1
  Mn  Mn97  1  0.50048056  0.66880441  0.25110827  1
  Mn  Mn98  1  0.49985818  0.66678421  0.50063428  1
  Mn  Mn99  1  0.49975083  0.83340266  -0.00033762  1
  Mn  Mn100  1  0.49952228  -0.00156792  0.74898167  1
  Mn  Mn101  1  0.24954390  0.49889759  0.87501294  1
  Mn  Mn102  1  0.74974260  0.83462975  0.37542768  1
  Mn  Mn103  1  -0.00018321  0.00025131  0.00086169  1
  Mn  Mn104  1  0.24995442  0.16709128  0.62526455  1
  Mn  Mn105  1  -0.00067904  0.33216602  -0.00039462  1
  Mn  Mn106  1  0.25067890  0.33486839  0.37384059  1
  Mn  Mn107  1  0.24949935  0.83391896  0.12526290  1
  Mn  Mn108  1  -0.00071380  0.66656450  0.74993772  1
  Mn  Mn109  1  0.74981799  0.33218402  0.37523375  1
  Mn  Mn110  1  0.24982221  0.16777702  0.37474254  1
  Mn  Mn111  1  0.74935878  0.33109606  0.12583611  1
  Mn  Mn112  1  -0.00031601  0.49984979  0.49942479  1
  Mn  Mn113  1  -0.00091998  0.49967824  -0.00026766  1
  Mn  Mn114  1  0.49998264  0.50056815  -0.00054038  1
  Mn  Mn115  1  0.50030061  0.00104391  0.25007800  1
  Mn  Mn116  1  0.25034049  0.83357710  0.37450706  1
  Mn  Mn117  1  0.25055614  0.49937856  0.62500433  1
  Mn  Mn118  1  -0.00058462  0.33219099  0.49967696  1
  Mn  Mn119  1  0.75005790  0.49879438  0.12438579  1
  Mn  Mn120  1  0.50050985  0.33416689  0.50035052  1
  Mn  Mn121  1  -0.00070908  0.83384187  0.25036035  1
  Mn  Mn122  1  0.50011322  0.16659418  0.50007901  1
  Mn  Mn123  1  -0.00038817  0.16648578  0.75005523  1
  Mn  Mn124  1  -0.00026784  0.83392929  0.50018833  1
  Mn  Mn125  1  0.24941727  0.66598403  0.12524911  1
  Mn  Mn126  1  0.75024097  0.66734261  0.87489921  1
  Mn  Mn127  1  -0.00029795  0.66666335  0.24964198  1
  Mn  Mn128  1  0.74979631  0.83512342  0.87564233  1
  Mn  Mn129  1  0.24915517  0.83364448  0.62530765  1
  Mn  Mn130  1  0.74965304  0.66660536  0.37534113  1
  Mn  Mn131  1  0.50000405  0.50149191  0.24926932  1
  Mn  Mn132  1  0.75042504  0.49855854  0.87421519  1
  Mn  Mn133  1  0.49979076  0.33387634  0.24993671  1
  Mn  Mn134  1  0.49937418  -0.00138194  0.49872342  1
  Mn  Mn135  1  -0.00075059  0.83452634  0.74967757  1
  Mn  Mn136  1  0.24990065  0.66667606  0.62528356  1
  Mn  Mn137  1  0.00051798  0.49905465  0.24978741  1
  Mn  Mn138  1  0.25003091  0.00101958  0.37462736  1
  Mn  Mn139  1  0.75081172  0.66719953  0.62456186  1
  Mn  Mn140  1  0.24993912  0.00018948  0.87551481  1
  Mn  Mn141  1  0.50008693  0.16726737  -0.00108595  1
  Mn  Mn142  1  0.75028296  0.66686066  0.12499425  1
  Mn  Mn143  1  0.49922982  0.16638641  0.74997977  1
  Fe  Fe144  1  0.50022423  0.66683674  -0.00064557  1
  Fe  Fe145  1  0.74989489  0.00099867  0.62484572  1
  Fe  Fe146  1  0.24997277  0.33318822  0.62529546  1
  Fe  Fe147  1  0.75052764  0.00076384  0.87459228  1
  Fe  Fe148  1  0.24990175  0.16730968  0.12433703  1
  Fe  Fe149  1  0.50019354  0.33336877  0.75006858  1
  Fe  Fe150  1  0.50039191  0.83210580  0.75061259  1
  Fe  Fe151  1  0.74971194  0.83464703  0.62523858  1
  Fe  Fe152  1  0.25029119  0.49993641  0.12454071  1
  Fe  Fe153  1  0.00062154  0.00020468  0.25069562  1
  Fe  Fe154  1  0.24982009  0.50017850  0.37487559  1
  Fe  Fe155  1  0.24955494  0.33367227  0.12450593  1
  Fe  Fe156  1  0.00013511  0.16594317  0.25063348  1
  Fe  Fe157  1  -0.00006184  0.16611655  0.00077898  1
  Fe  Fe158  1  0.50024503  0.66571851  0.74954937  1
  Fe  Fe159  1  0.00011417  0.33277070  0.74994934  1
  Fe  Fe160  1  0.75015590  0.16569730  0.37542068  1
  Fe  Fe161  1  0.75008032  0.16590819  0.87443471  1
  Fe  Fe162  1  0.00038482  0.50002941  0.74977071  1
  Fe  Fe163  1  0.49983234  0.49950407  0.75090813  1
  Fe  Fe164  1  0.74972717  0.16641827  0.62513987  1
  Fe  Fe165  1  0.24980581  0.66650395  0.37511017  1
  Fe  Fe166  1  0.00032740  0.83372290  0.00025824  1
  Fe  Fe167  1  0.25043633  0.00089791  0.12387886  1
  Fe  Fe168  1  0.50025599  0.50006933  0.50094981  1
  Fe  Fe169  1  0.00001326  0.66675635  0.50020271  1
  Fe  Fe170  1  0.25031235  0.83334151  0.87531461  1
  Fe  Fe171  1  0.49974914  0.83457178  0.24924652  1
  Fe  Fe172  1  0.00082684  0.16651523  0.49989054  1
  Fe  Fe173  1  0.75003782  0.49942253  0.37504836  1
  Fe  Fe174  1  0.00008759  0.00048980  0.75064734  1
  Fe  Fe175  1  0.24985520  -0.00006815  0.62577154  1
  Fe  Fe176  1  0.75021378  0.00066391  0.12481027  1
  Fe  Fe177  1  0.74967860  0.33155823  0.87514717  1
  Fe  Fe178  1  0.75061927  0.16528309  0.12454466  1
  Fe  Fe179  1  0.50035637  0.16750516  0.24906173  1
  Fe  Fe180  1  0.49996915  0.00033043  -0.00021905  1
  Fe  Fe181  1  0.00001782  0.00068168  0.50059361  1
  Fe  Fe182  1  0.25030696  0.66606505  0.87553842  1
  Fe  Fe183  1  0.50018615  0.33371141  -0.00031438  1
  Fe  Fe184  1  0.74994302  0.83423503  0.12540935  1
  Fe  Fe185  1  0.49998850  0.83265806  0.50037634  1
  Fe  Fe186  1  0.24952709  0.33233348  0.87592205  1
  Fe  Fe187  1  0.75044125  0.00050586  0.37497024  1
  Fe  Fe188  1  0.75024914  0.33239539  0.62498101  1
  Fe  Fe189  1  -0.00039332  0.33200955  0.24969503  1
  Fe  Fe190  1  0.24957804  0.16689375  0.87555734  1
  Fe  Fe191  1  0.00048992  0.66661353  -0.00033902  1
  P  P192  1  0.04157367  0.24806900  0.10351628  1
  P  P193  1  0.04172744  0.24925616  0.35159718  1
  P  P194  1  0.04202069  0.24876290  0.60275368  1
  P  P195  1  0.04196550  0.25059556  0.85263154  1
  P  P196  1  0.04230162  0.58384193  0.10189982  1
  P  P197  1  0.04258487  0.58337939  0.35333884  1
  P  P198  1  0.04224186  0.58399723  0.60264133  1
  P  P199  1  0.04203638  0.58263953  0.85277509  1
  P  P200  1  0.04251590  0.91578679  0.10299479  1
  P  P201  1  0.04205007  0.91843188  0.35330260  1
  P  P202  1  0.04202284  0.91836775  0.60299119  1
  P  P203  1  0.04189182  0.91804011  0.85323769  1
  P  P204  1  0.54248309  0.25153943  0.10205057  1
  P  P205  1  0.54258291  0.24920351  0.35220962  1
  P  P206  1  0.54265304  0.25042999  0.60385117  1
  P  P207  1  0.54171741  0.25097263  0.85248225  1
  P  P208  1  0.54243970  0.58564282  0.10208318  1
  P  P209  1  0.54278156  0.58383319  0.35395532  1
  P  P210  1  0.54212875  0.58187567  0.60376780  1
  P  P211  1  0.54189872  0.58314590  0.85175199  1
  P  P212  1  0.54207506  0.91850415  0.10234138  1
  P  P213  1  0.54248293  0.91528202  0.35231360  1
  P  P214  1  0.54192087  0.91442338  0.60261375  1
  P  P215  1  0.54227462  0.91508885  0.85252646  1
  P  P216  1  0.45850884  0.08534479  0.14652839  1
  P  P217  1  0.45718768  0.08382678  0.39590590  1
  P  P218  1  0.45672077  0.08271765  0.64643727  1
  P  P219  1  0.45751803  0.08162012  0.89721294  1
  P  P220  1  0.45735515  0.41731872  0.14598523  1
  P  P221  1  0.45778257  0.41849227  0.39785208  1
  P  P222  1  0.45858417  0.41711710  0.64875140  1
  P  P223  1  0.45790419  0.41531945  0.89671476  1
  P  P224  1  0.45753769  0.75209363  0.14717241  1
  P  P225  1  0.45756890  0.75185274  0.39757064  1
  P  P226  1  0.45829015  0.74958818  0.64863549  1
  P  P227  1  0.45809061  0.74820008  0.89652820  1
  P  P228  1  0.95901841  0.08296132  0.14886635  1
  P  P229  1  0.95884953  0.08362825  0.39821778  1
  P  P230  1  0.95795668  0.08175511  0.64724018  1
  P  P231  1  0.95779900  0.08462984  0.89793131  1
  P  P232  1  0.95748703  0.41449940  0.14755853  1
  P  P233  1  0.95710359  0.41542222  0.39611309  1
  P  P234  1  0.95880609  0.41623307  0.64844521  1
  P  P235  1  0.95726837  0.41623718  0.89563431  1
  P  P236  1  0.95738888  0.75034448  0.14583346  1
  P  P237  1  0.95725148  0.74911569  0.39785016  1
  P  P238  1  0.95680939  0.75012135  0.64647637  1
  P  P239  1  0.95866321  0.75067618  0.89864306  1
  P  P240  1  0.20871366  0.08399755  0.22575519  1
  P  P241  1  0.20723662  0.08411807  0.47855393  1
  P  P242  1  0.20770685  0.08233304  0.72814761  1
  P  P243  1  0.20795670  0.08505753  0.97846691  1
  P  P244  1  0.20847466  0.41757486  0.22629458  1
  P  P245  1  0.20768534  0.41783015  0.47737157  1
  P  P246  1  0.20806806  0.41467648  0.72804737  1
  P  P247  1  0.20749582  0.41467746  0.97828713  1
  P  P248  1  0.20704789  0.74961222  0.22860815  1
  P  P249  1  0.20774284  0.74943214  0.47720255  1
  P  P250  1  0.20740137  0.74981203  0.72955233  1
  P  P251  1  0.20871833  0.74989545  0.97668852  1
  P  P252  1  0.70890212  0.08314527  0.22704447  1
  P  P253  1  0.70833463  0.08303885  0.47723618  1
  P  P254  1  0.70835719  0.08356331  0.72694555  1
  P  P255  1  0.70883804  0.08299558  0.97672487  1
  P  P256  1  0.70720149  0.41609746  0.22865341  1
  P  P257  1  0.70811441  0.41681130  0.47782800  1
  P  P258  1  0.70856704  0.41399760  0.72787080  1
  P  P259  1  0.70748680  0.41416401  0.97702911  1
  P  P260  1  0.70769917  0.75179746  0.22751189  1
  P  P261  1  0.70741102  0.75102512  0.47891916  1
  P  P262  1  0.70818810  0.75189405  0.72734656  1
  P  P263  1  0.70748970  0.75114473  0.97877201  1
  P  P264  1  0.29114075  0.25031956  0.02265572  1
  P  P265  1  0.29228913  0.25072950  0.27029009  1
  P  P266  1  0.29259605  0.25191097  0.52266282  1
  P  P267  1  0.29121571  0.24975942  0.77363012  1
  P  P268  1  0.29202935  0.58213440  0.02204363  1
  P  P269  1  0.29157531  0.58304294  0.27322055  1
  P  P270  1  0.29266028  0.58355317  0.52125449  1
  P  P271  1  0.29219696  0.58363538  0.77312979  1
  P  P272  1  0.29205888  0.91759481  0.02195306  1
  P  P273  1  0.29271797  0.91790308  0.27088006  1
  P  P274  1  0.29205086  0.91816464  0.52282482  1
  P  P275  1  0.29199658  0.91584128  0.77267809  1
  P  P276  1  0.79201815  0.24753421  0.02193542  1
  P  P277  1  0.79208765  0.24717287  0.27256546  1
  P  P278  1  0.79150285  0.24903411  0.52333737  1
  P  P279  1  0.79140264  0.24915279  0.77258520  1
  P  P280  1  0.79301665  0.58278573  0.02153232  1
  P  P281  1  0.79203339  0.58206779  0.27261267  1
  P  P282  1  0.79301915  0.58253016  0.52118342  1
  P  P283  1  0.79310709  0.58329459  0.77164580  1
  P  P284  1  0.79175009  0.91754104  0.02352238  1
  P  P285  1  0.79223280  0.91848682  0.27210222  1
  P  P286  1  0.79130160  0.91806201  0.52332179  1
  P  P287  1  0.79212184  0.91889739  0.77187468  1
  O  O288  1  0.03617110  0.24826453  0.18340674  1
  O  O289  1  0.03694800  0.24881281  0.43161482  1
  O  O290  1  0.03666203  0.24958047  0.68266992  1
  O  O291  1  0.03699585  0.25011285  0.93254815  1
  O  O292  1  0.03747808  0.58347903  0.18190247  1
  O  O293  1  0.03726776  0.58381105  0.43329316  1
  O  O294  1  0.03661866  0.58313105  0.68261026  1
  O  O295  1  0.03650352  0.58338329  0.93270980  1
  O  O296  1  0.03752257  0.91632553  0.18294476  1
  O  O297  1  0.03656379  0.91871933  0.43323841  1
  O  O298  1  0.03681065  0.91846590  0.68297695  1
  O  O299  1  0.03651400  0.91717643  0.93319964  1
  O  O300  1  0.53724058  0.25081197  0.18201406  1
  O  O301  1  0.53750408  0.24950489  0.43220812  1
  O  O302  1  0.53725475  0.25073214  0.68379577  1
  O  O303  1  0.53663014  0.25114563  0.93245662  1
  O  O304  1  0.53751242  0.58560144  0.18209161  1
  O  O305  1  0.53748695  0.58318732  0.43394498  1
  O  O306  1  0.53665512  0.58202463  0.68367573  1
  O  O307  1  0.53671651  0.58379088  0.93173160  1
  O  O308  1  0.53684540  0.91811053  0.18226950  1
  O  O309  1  0.53719387  0.91503982  0.43228195  1
  O  O310  1  0.53671199  0.91434272  0.68257013  1
  O  O311  1  0.53689513  0.91605159  0.93243910  1
  O  O312  1  0.46364277  0.08451245  0.06657448  1
  O  O313  1  0.46260896  0.08449835  0.31590727  1
  O  O314  1  0.46175995  0.08285783  0.56646087  1
  O  O315  1  0.46233518  0.08168872  0.81722275  1
  O  O316  1  0.46273558  0.41682044  0.06604697  1
  O  O317  1  0.46282473  0.41822295  0.31787025  1
  O  O318  1  0.46360556  0.41749956  0.56876939  1
  O  O319  1  0.46361032  0.41536036  0.81681732  1
  O  O320  1  0.46270847  0.75119929  0.06725754  1
  O  O321  1  0.46266941  0.75227592  0.31760433  1
  O  O322  1  0.46330001  0.74996650  0.56863075  1
  O  O323  1  0.46365375  0.74814469  0.81667752  1
  O  O324  1  0.96386537  0.08345743  0.06891740  1
  O  O325  1  0.96403736  0.08367471  0.31830977  1
  O  O326  1  0.96339133  0.08173853  0.56741444  1
  O  O327  1  0.96275595  0.08410524  0.81801818  1
  O  O328  1  0.96233095  0.41479665  0.06752287  1
  O  O329  1  0.96231930  0.41478688  0.31617708  1
  O  O330  1  0.96361073  0.41607650  0.56839894  1
  O  O331  1  0.96296888  0.41626371  0.81574252  1
  O  O332  1  0.96305792  0.75038252  0.06592595  1
  O  O333  1  0.96236865  0.74965582  0.31783504  1
  O  O334  1  0.96212738  0.74975027  0.56654421  1
  O  O335  1  0.96321610  0.75081307  0.81857449  1
  O  O336  1  0.21378955  0.08489539  0.05832657  1
  O  O337  1  0.21353973  0.08423060  0.30577119  1
  O  O338  1  0.21236950  0.08356395  0.55850962  1
  O  O339  1  0.21295600  0.08303125  0.80808938  1
  O  O340  1  0.21307500  0.41501220  0.05814976  1
  O  O341  1  0.21362309  0.41825946  0.30625634  1
  O  O342  1  0.21270126  0.41690680  0.55732206  1
  O  O343  1  0.21311203  0.41443686  0.80801017  1
  O  O344  1  0.21336289  0.74982935  0.05672965  1
  O  O345  1  0.21245497  0.74907396  0.30852481  1
  O  O346  1  0.21238486  0.74969535  0.55726037  1
  O  O347  1  0.21297670  0.74979909  0.80945532  1
  O  O348  1  0.71415278  0.08284651  0.05659374  1
  O  O349  1  0.71389604  0.08317241  0.30692867  1
  O  O350  1  0.71339332  0.08294168  0.55711095  1
  O  O351  1  0.71337565  0.08396114  0.80680828  1
  O  O352  1  0.71239457  0.41436055  0.05703819  1
  O  O353  1  0.71263049  0.41685754  0.30859321  1
  O  O354  1  0.71349329  0.41618765  0.55778255  1
  O  O355  1  0.71373812  0.41364396  0.80782270  1
  O  O356  1  0.71275881  0.75141460  0.05873492  1
  O  O357  1  0.71267513  0.75153977  0.30753175  1
  O  O358  1  0.71293407  0.75155541  0.55882760  1
  O  O359  1  0.71325209  0.75187313  0.80735733  1
  O  O360  1  0.28676407  0.25065271  0.19041276  1
  O  O361  1  0.28774745  0.25186309  0.44265766  1
  O  O362  1  0.28633209  0.25036622  0.69364137  1
  O  O363  1  0.28579327  0.25007674  0.94272311  1
  O  O364  1  0.28659217  0.58261915  0.19319685  1
  O  O365  1  0.28727748  0.58363478  0.44133688  1
  O  O366  1  0.28741038  0.58350546  0.69315736  1
  O  O367  1  0.28656951  0.58274856  0.94213295  1
  O  O368  1  0.28736190  0.91836426  0.19092173  1
  O  O369  1  0.28711455  0.91776551  0.44281595  1
  O  O370  1  0.28666797  0.91650494  0.69274732  1
  O  O371  1  0.28658219  0.91671639  0.94200833  1
  O  O372  1  0.78689575  0.24692320  0.19262072  1
  O  O373  1  0.78657007  0.24835901  0.44339190  1
  O  O374  1  0.78619429  0.24957839  0.69270709  1
  O  O375  1  0.78673588  0.24791748  0.94203785  1
  O  O376  1  0.78702466  0.58240015  0.19257348  1
  O  O377  1  0.78744677  0.58192131  0.44123499  1
  O  O378  1  0.78807417  0.58337275  0.69163217  1
  O  O379  1  0.78791469  0.58289996  0.94153253  1
  O  O380  1  0.78686880  0.91818421  0.19222989  1
  O  O381  1  0.78649919  0.91831520  0.44334221  1
  O  O382  1  0.78652215  0.91847982  0.69203424  1
  O  O383  1  0.78705100  0.91780631  0.94354016  1
  O  O384  1  0.22717794  0.25021638  0.05914781  1
  O  O385  1  0.22813984  0.25113912  0.30624295  1
  O  O386  1  0.22815007  0.25181533  0.55793199  1
  O  O387  1  0.22701507  0.24927856  0.80959749  1
  O  O388  1  0.22780949  0.58145739  0.05794668  1
  O  O389  1  0.22743678  0.58292829  0.30933641  1
  O  O390  1  0.22843088  0.58302635  0.55698358  1
  O  O391  1  0.22784719  0.58359262  0.80843403  1
  O  O392  1  0.22788416  0.91841498  0.05784406  1
  O  O393  1  0.22843479  0.91737718  0.30632912  1
  O  O394  1  0.22766549  0.91855617  0.55826521  1
  O  O395  1  0.22784444  0.91554671  0.80859073  1
  O  O396  1  0.72783701  0.24691838  0.05798922  1
  O  O397  1  0.72788643  0.24726644  0.30842073  1
  O  O398  1  0.72737430  0.25007145  0.55933774  1
  O  O399  1  0.72740963  0.24873719  0.80919458  1
  O  O400  1  0.72855901  0.58295226  0.05650303  1
  O  O401  1  0.72773335  0.58214790  0.30809117  1
  O  O402  1  0.72883727  0.58276653  0.55688983  1
  O  O403  1  0.72865452  0.58314838  0.80659784  1
  O  O404  1  0.72757207  0.91797817  0.05941310  1
  O  O405  1  0.72805650  0.91907197  0.30816168  1
  O  O406  1  0.72716982  0.91841884  0.55934134  1
  O  O407  1  0.72799252  0.91925210  0.80806917  1
  O  O408  1  0.27286465  0.08392286  0.18985336  1
  O  O409  1  0.27160510  0.08445225  0.44326432  1
  O  O410  1  0.27185478  0.08221513  0.69211762  1
  O  O411  1  0.27195757  0.08525331  0.94206965  1
  O  O412  1  0.27256144  0.41737228  0.19009942  1
  O  O413  1  0.27206184  0.41884047  0.44184119  1
  O  O414  1  0.27235281  0.41463999  0.69231209  1
  O  O415  1  0.27158081  0.41472053  0.94206233  1
  O  O416  1  0.27130709  0.74984782  0.19309492  1
  O  O417  1  0.27212893  0.74935674  0.44197842  1
  O  O418  1  0.27156638  0.75025273  0.69369967  1
  O  O419  1  0.27295126  0.74997091  0.94107829  1
  O  O420  1  0.77304166  0.08296289  0.19071224  1
  O  O421  1  0.77249979  0.08303818  0.44090159  1
  O  O422  1  0.77241484  0.08283012  0.69066057  1
  O  O423  1  0.77288247  0.08350388  0.94024345  1
  O  O424  1  0.77147105  0.41529796  0.19313036  1
  O  O425  1  0.77224833  0.41651043  0.44188943  1
  O  O426  1  0.77277311  0.41393790  0.69200684  1
  O  O427  1  0.77187290  0.41391410  0.94172499  1
  O  O428  1  0.77203898  0.75173312  0.19213330  1
  O  O429  1  0.77158690  0.75065805  0.44323225  1
  O  O430  1  0.77243816  0.75201192  0.69182596  1
  O  O431  1  0.77183869  0.75118390  0.94344543  1
  O  O432  1  0.02316701  0.08276621  0.18479554  1
  O  O433  1  0.02293074  0.08370996  0.43449031  1
  O  O434  1  0.02204886  0.08183762  0.68351068  1
  O  O435  1  0.02208233  0.08464688  0.93357486  1
  O  O436  1  0.02190286  0.41419220  0.18280139  1
  O  O437  1  0.02140326  0.41561054  0.43145816  1
  O  O438  1  0.02294064  0.41648057  0.68435419  1
  O  O439  1  0.02134817  0.41608276  0.93163002  1
  O  O440  1  0.02151954  0.75057787  0.18173111  1
  O  O441  1  0.02157989  0.74898280  0.43337588  1
  O  O442  1  0.02105281  0.75047618  0.68194313  1
  O  O443  1  0.02292835  0.75102600  0.93422818  1
  O  O444  1  0.52266832  0.08545914  0.18246535  1
  O  O445  1  0.52151047  0.08295873  0.43124653  1
  O  O446  1  0.52116190  0.08277275  0.68136546  1
  O  O447  1  0.52196224  0.08191397  0.93234222  1
  O  O448  1  0.52160769  0.41740100  0.18149016  1
  O  O449  1  0.52214942  0.41871014  0.43335826  1
  O  O450  1  0.52272766  0.41728035  0.68477042  1
  O  O451  1  0.52197274  0.41528982  0.93300606  1
  O  O452  1  0.52186965  0.75264261  0.18283367  1
  O  O453  1  0.52186827  0.75147426  0.43322903  1
  O  O454  1  0.52248586  0.74936731  0.68459538  1
  O  O455  1  0.52214669  0.74857300  0.93282518  1
  O  O456  1  0.47820606  0.25194674  0.06629527  1
  O  O457  1  0.47827250  0.24882082  0.31662155  1
  O  O458  1  0.47838866  0.25052755  0.56842727  1
  O  O459  1  0.47744559  0.25102866  0.81696184  1
  O  O460  1  0.47804371  0.58537582  0.06676274  1
  O  O461  1  0.47847042  0.58458791  0.31853810  1
  O  O462  1  0.47805698  0.58179721  0.56750752  1
  O  O463  1  0.47775442  0.58296435  0.81568701  1
  O  O464  1  0.47786622  0.91859568  0.06649035  1
  O  O465  1  0.47819750  0.91585806  0.31664246  1
  O  O466  1  0.47766105  0.91439685  0.56683990  1
  O  O467  1  0.47801516  0.91422863  0.81677963  1
  O  O468  1  0.97749548  0.24766486  0.06724565  1
  O  O469  1  0.97745767  0.24941255  0.31592341  1
  O  O470  1  0.97780053  0.24777007  0.56692213  1
  O  O471  1  0.97769254  0.25100066  0.81702802  1
  O  O472  1  0.97790888  0.58446517  0.06676167  1
  O  O473  1  0.97831910  0.58272370  0.31787833  1
  O  O474  1  0.97811456  0.58481412  0.56650248  1
  O  O475  1  0.97794185  0.58156730  0.81667762  1
  O  O476  1  0.97819033  0.91529500  0.06744329  1
  O  O477  1  0.97785332  0.91882783  0.31738903  1
  O  O478  1  0.97777165  0.91818926  0.56734770  1
  O  O479  1  0.97766134  0.91895612  0.81736881  1
  O  O480  1  0.07263493  0.31163927  0.07541534  1
  O  O481  1  0.07236383  0.31307962  0.32340493  1
  O  O482  1  0.07285411  0.31232486  0.57435382  1
  O  O483  1  0.07273023  0.31407665  0.82394126  1
  O  O484  1  0.07322426  0.64730135  0.07337660  1
  O  O485  1  0.07355799  0.64672266  0.32486107  1
  O  O486  1  0.07320384  0.64769001  0.57480471  1
  O  O487  1  0.07278387  0.64635924  0.82471314  1
  O  O488  1  0.07339435  0.97940752  0.07482837  1
  O  O489  1  0.07338935  0.98149031  0.32446790  1
  O  O490  1  0.07291281  0.98159515  0.57413607  1
  O  O491  1  0.07291782  0.98169080  0.82538619  1
  O  O492  1  0.57324197  0.31516941  0.07383275  1
  O  O493  1  0.57335530  0.31306857  0.32457709  1
  O  O494  1  0.57400717  0.31360443  0.57537586  1
  O  O495  1  0.57278098  0.31411721  0.82362403  1
  O  O496  1  0.57288906  0.64927441  0.07350987  1
  O  O497  1  0.57405458  0.64749506  0.32638097  1
  O  O498  1  0.57331460  0.64548841  0.57581353  1
  O  O499  1  0.57299917  0.64640574  0.82305488  1
  O  O500  1  0.57258026  0.98227708  0.07389597  1
  O  O501  1  0.57371983  0.97901064  0.32474786  1
  O  O502  1  0.57272109  0.97828406  0.57475529  1
  O  O503  1  0.57314610  0.97859737  0.82404837  1
  O  O504  1  0.42703115  0.02215367  0.17478078  1
  O  O505  1  0.42591897  0.02015682  0.42348818  1
  O  O506  1  0.42576898  0.01915869  0.67436297  1
  O  O507  1  0.42713272  0.01799287  0.92587157  1
  O  O508  1  0.42606674  0.35419959  0.17460913  1
  O  O509  1  0.42696091  0.35461630  0.42557479  1
  O  O510  1  0.42825065  0.35297528  0.67675182  1
  O  O511  1  0.42685602  0.35206672  0.92550049  1
  O  O512  1  0.42650421  0.68873388  0.17581313  1
  O  O513  1  0.42654868  0.68813028  0.42534840  1
  O  O514  1  0.42751757  0.68565356  0.67635023  1
  O  O515  1  0.42748072  0.68468599  0.92546650  1
  O  O516  1  0.92840079  0.01903171  0.17677789  1
  O  O517  1  0.92781337  0.02011549  0.42661177  1
  O  O518  1  0.92718664  0.01854266  0.67655369  1
  O  O519  1  0.92652785  0.02131380  0.92627357  1
  O  O520  1  0.92673718  0.35090488  0.17584217  1
  O  O521  1  0.92582586  0.35224925  0.42484786  1
  O  O522  1  0.92826897  0.35223787  0.67633994  1
  O  O523  1  0.92585374  0.35297013  0.92403030  1
  O  O524  1  0.92622608  0.68685237  0.17407627  1
  O  O525  1  0.92661772  0.68549624  0.42600873  1
  O  O526  1  0.92563665  0.68690274  0.67504714  1
  O  O527  1  0.92849663  0.68649704  0.92657869  1
  O  O528  1  0.17799674  0.02018380  0.19786016  1
  O  O529  1  0.17614004  0.02096295  0.44973764  1
  O  O530  1  0.17729596  0.01843790  0.70003932  1
  O  O531  1  0.17667348  0.02146483  0.95073568  1
  O  O532  1  0.17775272  0.35358513  0.19866533  1
  O  O533  1  0.17699649  0.35427685  0.44863234  1
  O  O534  1  0.17714006  0.35146478  0.69910686  1
  O  O535  1  0.17660008  0.35123679  0.94965420  1
  O  O536  1  0.17580222  0.68644016  0.19993062  1
  O  O537  1  0.17719919  0.68578236  0.44875542  1
  O  O538  1  0.17633452  0.68638184  0.70106501  1
  O  O539  1  0.17822192  0.68598501  0.94858757  1
  O  O540  1  0.67782365  0.01974183  0.19838281  1
  O  O541  1  0.67746476  0.01958568  0.44846453  1
  O  O542  1  0.67676903  0.02041463  0.69856887  1
  O  O543  1  0.67838937  0.01918828  0.94809812  1
  O  O544  1  0.67602111  0.35234514  0.20120874  1
  O  O545  1  0.67641704  0.35354016  0.44996163  1
  O  O546  1  0.67750845  0.35091139  0.69887634  1
  O  O547  1  0.67673936  0.35065962  0.94861115  1
  O  O548  1  0.67649793  0.68821799  0.19982662  1
  O  O549  1  0.67623605  0.68738513  0.45122218  1
  O  O550  1  0.67715795  0.68813268  0.69984597  1
  O  O551  1  0.67661793  0.68752113  0.95049385  1
  O  O552  1  0.32198008  0.31400535  0.05084074  1
  O  O553  1  0.32381455  0.31404002  0.29845559  1
  O  O554  1  0.32309530  0.31548467  0.55138571  1
  O  O555  1  0.32196030  0.31320905  0.80244841  1
  O  O556  1  0.32292653  0.64570292  0.05029651  1
  O  O557  1  0.32197880  0.64714076  0.30116692  1
  O  O558  1  0.32360027  0.64704873  0.54975587  1
  O  O559  1  0.32274614  0.64719835  0.80181761  1
  O  O560  1  0.32299266  0.98137954  0.04965538  1
  O  O561  1  0.32382881  0.98118213  0.29935843  1
  O  O562  1  0.32283876  0.98163490  0.55123264  1
  O  O563  1  0.32338142  0.97917967  0.80073987  1
  O  O564  1  0.82287619  0.31113913  0.05035249  1
  O  O565  1  0.82298217  0.31104338  0.30011909  1
  O  O566  1  0.82291248  0.31256253  0.55103205  1
  O  O567  1  0.82215456  0.31264986  0.80146312  1
  O  O568  1  0.82411810  0.64613865  0.04981089  1
  O  O569  1  0.82323111  0.64571541  0.30029255  1
  O  O570  1  0.82402636  0.64628246  0.54876701  1
  O  O571  1  0.82401904  0.64688169  0.79972883  1
  O  O572  1  0.82317544  0.98080997  0.05175750  1
  O  O573  1  0.82338227  0.98167872  0.30102100  1
  O  O574  1  0.82272788  0.98124274  0.55167134  1
  O  O575  1  0.82310861  0.98225603  0.80061397  1
  O  O576  1  0.42804890  0.14930536  0.17449784  1
  O  O577  1  0.42615084  0.14709898  0.42454255  1
  O  O578  1  0.42564882  0.14613849  0.67478097  1
  O  O579  1  0.42634865  0.14527986  0.92485677  1
  O  O580  1  0.42644588  0.48111666  0.17373396  1
  O  O581  1  0.42707903  0.48190221  0.42649801  1
  O  O582  1  0.42716924  0.48025568  0.67734185  1
  O  O583  1  0.42672939  0.47906229  0.92437954  1
  O  O584  1  0.42687538  0.81592522  0.17519511  1
  O  O585  1  0.42678586  0.81515444  0.42656076  1
  O  O586  1  0.42744199  0.81304785  0.67728623  1
  O  O587  1  0.42657025  0.81161647  0.92444822  1
  O  O588  1  0.92801311  0.14632000  0.17753931  1
  O  O589  1  0.92808302  0.14727011  0.42692323  1
  O  O590  1  0.92667481  0.14543064  0.67495341  1
  O  O591  1  0.92741617  0.14838212  0.92645728  1
  O  O592  1  0.92666302  0.47831157  0.17528761  1
  O  O593  1  0.92610717  0.47901014  0.42414579  1
  O  O594  1  0.92790140  0.47993877  0.67628887  1
  O  O595  1  0.92600749  0.47958486  0.92405724  1
  O  O596  1  0.92593721  0.81352376  0.17445031  1
  O  O597  1  0.92622960  0.81289128  0.42552129  1
  O  O598  1  0.92571648  0.81375815  0.67444486  1
  O  O599  1  0.92755319  0.81420622  0.92674554  1
  O  O600  1  0.07250283  0.18461862  0.07481902  1
  O  O601  1  0.07265106  0.18575784  0.32304780  1
  O  O602  1  0.07311297  0.18525149  0.57464272  1
  O  O603  1  0.07302164  0.18707237  0.82448578  1
  O  O604  1  0.07295175  0.51996334  0.07408199  1
  O  O605  1  0.07383363  0.51980819  0.32540692  1
  O  O606  1  0.07316025  0.52033193  0.57458659  1
  O  O607  1  0.07330309  0.51918764  0.82468352  1
  O  O608  1  0.07348712  0.85242733  0.07430354  1
  O  O609  1  0.07270361  0.85438465  0.32583787  1
  O  O610  1  0.07316017  0.85459177  0.57532034  1
  O  O611  1  0.07270001  0.85449644  0.82479624  1
  O  O612  1  0.57356763  0.18807545  0.07368019  1
  O  O613  1  0.57339942  0.18573599  0.32369236  1
  O  O614  1  0.57361243  0.18674073  0.57592871  1
  O  O615  1  0.57255398  0.18692486  0.82509464  1
  O  O616  1  0.57362529  0.52204058  0.07425951  1
  O  O617  1  0.57374536  0.52066587  0.32494420  1
  O  O618  1  0.57307996  0.51847516  0.57502923  1
  O  O619  1  0.57263491  0.51909343  0.82427587  1
  O  O620  1  0.57336424  0.85514063  0.07429780  1
  O  O621  1  0.57311669  0.85197329  0.32323126  1
  O  O622  1  0.57290224  0.85109371  0.57409364  1
  O  O623  1  0.57326927  0.85144617  0.82459648  1
  O  O624  1  0.32240412  0.18685908  0.05095103  1
  O  O625  1  0.32327407  0.18732335  0.29889641  1
  O  O626  1  0.32368559  0.18835228  0.55061332  1
  O  O627  1  0.32203032  0.18586859  0.80143724  1
  O  O628  1  0.32299731  0.51853872  0.05011548  1
  O  O629  1  0.32273810  0.51969352  0.30164602  1
  O  O630  1  0.32408765  0.52036889  0.54991233  1
  O  O631  1  0.32326431  0.51993638  0.80072956  1
  O  O632  1  0.32307022  0.85409932  0.05013454  1
  O  O633  1  0.32383499  0.85428938  0.29879080  1
  O  O634  1  0.32281103  0.85433955  0.55071082  1
  O  O635  1  0.32272729  0.85215299  0.80100799  1
  O  O636  1  0.82321844  0.18425338  0.05063817  1
  O  O637  1  0.82311880  0.18404285  0.30155489  1
  O  O638  1  0.82163989  0.18522505  0.55232534  1
  O  O639  1  0.82256302  0.18551004  0.80056413  1
  O  O640  1  0.82387013  0.51903964  0.04935463  1
  O  O641  1  0.82253732  0.51826617  0.30079672  1
  O  O642  1  0.82446707  0.51938684  0.54968099  1
  O  O643  1  0.82409484  0.51967735  0.79945084  1
  O  O644  1  0.82187043  0.85347106  0.05195518  1
  O  O645  1  0.82321514  0.85487167  0.30043907  1
  O  O646  1  0.82143934  0.85386658  0.55148208  1
  O  O647  1  0.82332369  0.85543919  0.80022539  1
  O  O648  1  0.17787999  0.14770374  0.19770315  1
  O  O649  1  0.17636853  0.14785786  0.45049891  1
  O  O650  1  0.17631117  0.14566137  0.70002799  1
  O  O651  1  0.17685712  0.14835775  0.94979819  1
  O  O652  1  0.17742193  0.48091691  0.19762498  1
  O  O653  1  0.17655802  0.48123587  0.44910290  1
  O  O654  1  0.17731549  0.47863201  0.70039656  1
  O  O655  1  0.17614983  0.47813550  0.95018116  1
  O  O656  1  0.17596772  0.81327866  0.20078634  1
  O  O657  1  0.17665911  0.81311810  0.44948340  1
  O  O658  1  0.17584660  0.81302597  0.70107068  1
  O  O659  1  0.17789208  0.81367423  0.94882528  1
  O  O660  1  0.67813871  0.14668669  0.19820672  1
  O  O661  1  0.67747611  0.14674529  0.44893655  1
  O  O662  1  0.67810979  0.14745617  0.69804361  1
  O  O663  1  0.67734668  0.14620034  0.94827619  1
  O  O664  1  0.67614508  0.47927701  0.19970576  1
  O  O665  1  0.67779618  0.48072657  0.44949933  1
  O  O666  1  0.67771036  0.47805663  0.70062734  1
  O  O667  1  0.67662185  0.47795305  0.94916348  1
  O  O668  1  0.67724774  0.81555247  0.19911009  1
  O  O669  1  0.67623667  0.81429781  0.45045385  1
  O  O670  1  0.67750321  0.81552258  0.69895647  1
  O  O671  1  0.67617169  0.81440296  0.95043908  1
