# generated using pymatgen
data_Na2MnFe(PO4)2
_symmetry_space_group_name_H-M   'P 1'
_cell_length_a   22.34685142
_cell_length_b   20.09682398
_cell_length_c   19.44629153
_cell_angle_alpha   90.01774021
_cell_angle_beta   90.01084451
_cell_angle_gamma   90.02749336
_symmetry_Int_Tables_number   1
_chemical_formula_structural   Na2MnFe(PO4)2
_chemical_formula_sum   'Na96 Mn48 Fe48 P96 O384'
_cell_volume   8733.34232122
_cell_formula_units_Z   48
loop_
 _symmetry_equiv_pos_site_id
 _symmetry_equiv_pos_as_xyz
  1  'x, y, z'
loop_
 _atom_site_type_symbol
 _atom_site_label
 _atom_site_symmetry_multiplicity
 _atom_site_fract_x
 _atom_site_fract_y
 _atom_site_fract_z
 _atom_site_occupancy
  Na  Na0  1  0.14025323  0.24872751  0.24328396  1
  Na  Na1  1  0.14033169  0.25130462  0.49450822  1
  Na  Na2  1  0.14031840  0.25097965  0.74471148  1
  Na  Na3  1  0.13992118  0.24842160  0.99373962  1
  Na  Na4  1  0.14040926  0.58338621  0.24410069  1
  Na  Na5  1  0.14038165  0.58232484  0.49548677  1
  Na  Na6  1  0.14053251  0.58255608  0.74423992  1
  Na  Na7  1  0.14028482  0.58318933  0.99417383  1
  Na  Na8  1  0.14006850  0.91644036  0.24112777  1
  Na  Na9  1  0.14031016  0.91769466  0.49336951  1
  Na  Na10  1  0.13988534  0.91696293  0.74493721  1
  Na  Na11  1  0.13997109  0.91595055  0.99419513  1
  Na  Na12  1  0.64073181  0.25075553  0.24424568  1
  Na  Na13  1  0.64047230  0.25008299  0.49411251  1
  Na  Na14  1  0.64058125  0.25193596  0.74318848  1
  Na  Na15  1  0.64018655  0.25125556  0.99406497  1
  Na  Na16  1  0.64053720  0.58283306  0.24328720  1
  Na  Na17  1  0.64062749  0.58353285  0.49375423  1
  Na  Na18  1  0.64024086  0.58246734  0.74212431  1
  Na  Na19  1  0.63996547  0.58201359  0.99288451  1
  Na  Na20  1  0.63982782  0.91673780  0.24369657  1
  Na  Na21  1  0.64049932  0.91685991  0.49248812  1
  Na  Na22  1  0.63994499  0.91675303  0.74200428  1
  Na  Na23  1  0.64009880  0.91592553  0.99393070  1
  Na  Na24  1  0.35920355  0.08219055  0.00589193  1
  Na  Na25  1  0.35953359  0.08268254  0.25561020  1
  Na  Na26  1  0.35984864  0.08483418  0.50589866  1
  Na  Na27  1  0.35947318  0.08308543  0.75631154  1
  Na  Na28  1  0.36036107  0.41658757  0.00723475  1
  Na  Na29  1  0.36000650  0.41655376  0.25568847  1
  Na  Na30  1  0.36019630  0.41696845  0.50753739  1
  Na  Na31  1  0.36058991  0.41639938  0.75726054  1
  Na  Na32  1  0.35991707  0.75010961  0.00585775  1
  Na  Na33  1  0.35955746  0.75064405  0.25458113  1
  Na  Na34  1  0.35989108  0.74962944  0.50624432  1
  Na  Na35  1  0.36026881  0.75056026  0.75723213  1
  Na  Na36  1  0.85905622  0.08340788  0.00669151  1
  Na  Na37  1  0.85918525  0.08239569  0.25673960  1
  Na  Na38  1  0.85939867  0.08425222  0.50502484  1
  Na  Na39  1  0.85905172  0.08517421  0.75593081  1
  Na  Na40  1  0.86010346  0.41596590  0.00693068  1
  Na  Na41  1  0.85957820  0.41604269  0.25671155  1
  Na  Na42  1  0.85967910  0.41727196  0.50796121  1
  Na  Na43  1  0.86073758  0.41686104  0.75601998  1
  Na  Na44  1  0.85946325  0.74948683  0.00662531  1
  Na  Na45  1  0.85886922  0.75037951  0.25685802  1
  Na  Na46  1  0.85916013  0.74962279  0.50513937  1
  Na  Na47  1  0.85974926  0.74985363  0.75572921  1
  Na  Na48  1  0.10944402  0.08244201  0.11750379  1
  Na  Na49  1  0.10964350  0.08408178  0.36689825  1
  Na  Na50  1  0.10926288  0.08440023  0.61949993  1
  Na  Na51  1  0.10965146  0.08402670  0.86889092  1
  Na  Na52  1  0.10889872  0.41493159  0.11922051  1
  Na  Na53  1  0.10956465  0.41644314  0.37102162  1
  Na  Na54  1  0.11031367  0.41704762  0.61955806  1
  Na  Na55  1  0.10937504  0.41656608  0.86967586  1
  Na  Na56  1  0.10961443  0.74933717  0.11793117  1
  Na  Na57  1  0.10947525  0.75027358  0.36780284  1
  Na  Na58  1  0.10940677  0.74988735  0.61982505  1
  Na  Na59  1  0.10937755  0.74953142  0.86965935  1
  Na  Na60  1  0.60941719  0.08370595  0.11983614  1
  Na  Na61  1  0.61003513  0.08355835  0.36845199  1
  Na  Na62  1  0.60978127  0.08332622  0.61843356  1
  Na  Na63  1  0.60938200  0.08388543  0.86809017  1
  Na  Na64  1  0.61000699  0.41795731  0.11780520  1
  Na  Na65  1  0.61020009  0.41777218  0.36940034  1
  Na  Na66  1  0.61027725  0.41614426  0.61845193  1
  Na  Na67  1  0.60984834  0.41717230  0.86881572  1
  Na  Na68  1  0.60987457  0.75011611  0.11857299  1
  Na  Na69  1  0.60985769  0.75017714  0.36688956  1
  Na  Na70  1  0.60960045  0.74843569  0.61807739  1
  Na  Na71  1  0.60927550  0.74913573  0.86748280  1
  Na  Na72  1  0.39057865  0.25024719  0.13123912  1
  Na  Na73  1  0.39043131  0.25044043  0.38154670  1
  Na  Na74  1  0.39071584  0.24977330  0.63204014  1
  Na  Na75  1  0.39059492  0.25090295  0.88163836  1
  Na  Na76  1  0.39084290  0.58459524  0.13020242  1
  Na  Na77  1  0.39050645  0.58339622  0.38063373  1
  Na  Na78  1  0.39098185  0.58211983  0.63291487  1
  Na  Na79  1  0.39092981  0.58304717  0.88098611  1
  Na  Na80  1  0.39004961  0.91682798  0.13160879  1
  Na  Na81  1  0.39016697  0.91753127  0.37955262  1
  Na  Na82  1  0.39098840  0.91590068  0.63194584  1
  Na  Na83  1  0.39078486  0.91623050  0.88077442  1
  Na  Na84  1  0.89025716  0.24929754  0.13085115  1
  Na  Na85  1  0.89027596  0.25092352  0.38188917  1
  Na  Na86  1  0.88989793  0.25163186  0.63186815  1
  Na  Na87  1  0.89030577  0.25170926  0.88153420  1
  Na  Na88  1  0.89023281  0.58176378  0.13224491  1
  Na  Na89  1  0.88964313  0.58259938  0.38229566  1
  Na  Na90  1  0.89008955  0.58275559  0.63193184  1
  Na  Na91  1  0.89079447  0.58252550  0.88113440  1
  Na  Na92  1  0.88983332  0.91563459  0.13222474  1
  Na  Na93  1  0.89002412  0.91679049  0.38011846  1
  Na  Na94  1  0.89016300  0.91682595  0.62999331  1
  Na  Na95  1  0.89013195  0.91666532  0.88116789  1
  Mn  Mn96  1  -0.00052250  -0.00046020  -0.00041233  1
  Mn  Mn97  1  -0.00058017  0.66603402  0.00024703  1
  Mn  Mn98  1  0.00011334  0.66644372  0.75054968  1
  Mn  Mn99  1  0.24969392  0.66634982  0.62564628  1
  Mn  Mn100  1  0.24907024  0.16781151  0.62582610  1
  Mn  Mn101  1  0.50075187  0.83279039  -0.00060119  1
  Mn  Mn102  1  -0.00010340  0.16683346  0.24960949  1
  Mn  Mn103  1  0.50042172  0.66669414  0.24937678  1
  Mn  Mn104  1  0.24988959  0.00091121  0.37382557  1
  Mn  Mn105  1  0.24994796  0.33248236  0.37546148  1
  Mn  Mn106  1  0.50037542  -0.00010425  -0.00036114  1
  Mn  Mn107  1  0.24982589  0.83356700  0.87566348  1
  Mn  Mn108  1  0.75004727  0.66568670  0.87511598  1
  Mn  Mn109  1  0.49949415  0.16795684  -0.00055604  1
  Mn  Mn110  1  0.24983021  0.33252210  0.87591421  1
  Mn  Mn111  1  0.24981435  0.33160790  0.12583384  1
  Mn  Mn112  1  0.50043805  0.33522408  0.25101452  1
  Mn  Mn113  1  0.50031888  0.83308775  0.49995177  1
  Mn  Mn114  1  0.50062896  0.00024543  0.50027455  1
  Mn  Mn115  1  0.74953016  0.83270398  0.87413125  1
  Mn  Mn116  1  -0.00009820  0.49836363  0.25116966  1
  Mn  Mn117  1  0.25009971  0.66672114  0.37514239  1
  Mn  Mn118  1  0.49954578  0.66550113  0.49901948  1
  Mn  Mn119  1  0.24996444  0.50031959  0.87591179  1
  Mn  Mn120  1  0.24965444  0.83348717  0.37439620  1
  Mn  Mn121  1  0.00065056  0.83370525  0.49927615  1
  Mn  Mn122  1  -0.00082115  -0.00001987  0.75006649  1
  Mn  Mn123  1  0.24975059  0.00098248  0.62459706  1
  Mn  Mn124  1  0.74973087  0.66622955  0.12525529  1
  Mn  Mn125  1  0.75080328  0.49878693  0.87401230  1
  Mn  Mn126  1  0.25058239  0.49975347  0.37531947  1
  Mn  Mn127  1  0.50031107  0.16690549  0.75044546  1
  Mn  Mn128  1  0.50053380  0.16718649  0.25010572  1
  Mn  Mn129  1  0.00024841  0.66612743  0.25017953  1
  Mn  Mn130  1  0.74909583  0.16718426  0.12543506  1
  Mn  Mn131  1  0.25002573  0.83383458  0.62539740  1
  Mn  Mn132  1  0.00053188  0.00025425  0.49953101  1
  Mn  Mn133  1  -0.00048942  0.16833026  0.74959530  1
  Mn  Mn134  1  0.75050084  0.83259436  0.62341319  1
  Mn  Mn135  1  0.74912483  -0.00082232  0.12603939  1
  Mn  Mn136  1  0.74991412  0.33379656  0.37547066  1
  Mn  Mn137  1  0.49983206  0.33339559  0.50020772  1
  Mn  Mn138  1  0.24963539  0.50028037  0.12551054  1
  Mn  Mn139  1  -0.00075957  0.66609852  0.50043920  1
  Mn  Mn140  1  0.74948846  0.00019509  0.87474604  1
  Mn  Mn141  1  0.75058001  0.00122078  0.62380023  1
  Mn  Mn142  1  0.74965128  0.16836080  0.87589569  1
  Mn  Mn143  1  -0.00044109  0.16818162  0.49920549  1
  Fe  Fe144  1  0.75008382  0.50030804  0.37553666  1
  Fe  Fe145  1  0.50050353  0.83250540  0.74974022  1
  Fe  Fe146  1  0.25124655  0.33346017  0.62547046  1
  Fe  Fe147  1  0.49990662  0.66645742  -0.00097922  1
  Fe  Fe148  1  0.25026548  0.16600546  0.87502645  1
  Fe  Fe149  1  0.50002864  0.49954881  0.50069377  1
  Fe  Fe150  1  0.50040183  0.33473240  0.00035602  1
  Fe  Fe151  1  0.24979568  0.83292520  0.12404065  1
  Fe  Fe152  1  0.24977391  -0.00004398  0.12438130  1
  Fe  Fe153  1  0.75025625  0.49974771  0.12517340  1
  Fe  Fe154  1  0.25025199  0.16556359  0.12425008  1
  Fe  Fe155  1  0.00002828  0.33298097  -0.00010141  1
  Fe  Fe156  1  0.50005124  -0.00025754  0.74959233  1
  Fe  Fe157  1  0.50025433  0.16633575  0.50055664  1
  Fe  Fe158  1  0.00006999  0.49913135  0.00062231  1
  Fe  Fe159  1  0.00057551  0.33433600  0.75094995  1
  Fe  Fe160  1  0.50022629  0.50065834  -0.00104968  1
  Fe  Fe161  1  0.49989952  0.50081378  0.24893201  1
  Fe  Fe162  1  0.74960973  0.16762108  0.62498065  1
  Fe  Fe163  1  0.00003874  0.49955798  0.50106195  1
  Fe  Fe164  1  0.00056621  0.49938531  0.75087195  1
  Fe  Fe165  1  0.75004092  0.66647348  0.62380494  1
  Fe  Fe166  1  -0.00000854  0.83324502  0.75019706  1
  Fe  Fe167  1  0.50044474  0.33381435  0.75060159  1
  Fe  Fe168  1  0.25041858  0.66677953  0.12463632  1
  Fe  Fe169  1  0.49974962  0.00057703  0.25002464  1
  Fe  Fe170  1  0.75050151  0.16731385  0.37530950  1
  Fe  Fe171  1  -0.00063235  0.16661163  0.00012520  1
  Fe  Fe172  1  0.74958030  0.83302693  0.12564139  1
  Fe  Fe173  1  0.75047711  0.50038836  0.62469982  1
  Fe  Fe174  1  -0.00035285  -0.00038331  0.24880749  1
  Fe  Fe175  1  0.50036737  0.66564490  0.74945578  1
  Fe  Fe176  1  0.75017381  0.33399526  0.87446112  1
  Fe  Fe177  1  0.25019688  0.66690132  0.87522009  1
  Fe  Fe178  1  0.50033017  0.49930730  0.75073374  1
  Fe  Fe179  1  0.75049853  0.33393323  0.62451459  1
  Fe  Fe180  1  0.25012199  0.16664392  0.37490080  1
  Fe  Fe181  1  0.00006955  0.33416375  0.50083088  1
  Fe  Fe182  1  0.74936208  0.83320915  0.37507136  1
  Fe  Fe183  1  -0.00044736  0.83303830  0.24951523  1
  Fe  Fe184  1  0.49962422  0.83363608  0.24922719  1
  Fe  Fe185  1  0.74995541  0.66623179  0.37458371  1
  Fe  Fe186  1  0.24996240  -0.00014016  0.87550021  1
  Fe  Fe187  1  0.74953132  0.00028778  0.37492822  1
  Fe  Fe188  1  -0.00032431  0.33290470  0.24997586  1
  Fe  Fe189  1  0.75012872  0.33370765  0.12550175  1
  Fe  Fe190  1  -0.00088618  0.83296603  0.00031501  1
  Fe  Fe191  1  0.25089355  0.50001550  0.62569525  1
  P  P192  1  0.04130639  0.24956399  0.10166643  1
  P  P193  1  0.04199028  0.25193639  0.35260724  1
  P  P194  1  0.04203608  0.25227349  0.60301805  1
  P  P195  1  0.04186402  0.25183967  0.85358876  1
  P  P196  1  0.04207115  0.58140600  0.10271851  1
  P  P197  1  0.04252939  0.58224689  0.35416146  1
  P  P198  1  0.04178633  0.58170643  0.60359675  1
  P  P199  1  0.04229475  0.58160663  0.85334861  1
  P  P200  1  0.04119336  0.91508660  0.10288852  1
  P  P201  1  0.04183194  0.91688760  0.35043585  1
  P  P202  1  0.04300612  0.91661591  0.60351867  1
  P  P203  1  0.04153315  0.91523006  0.85307427  1
  P  P204  1  0.54229665  0.25207291  0.10250300  1
  P  P205  1  0.54302650  0.25047574  0.35396672  1
  P  P206  1  0.54224943  0.24895701  0.60295952  1
  P  P207  1  0.54248764  0.25222143  0.85303292  1
  P  P208  1  0.54159926  0.58358120  0.10091672  1
  P  P209  1  0.54235356  0.58180679  0.35214673  1
  P  P210  1  0.54195776  0.58177849  0.60298778  1
  P  P211  1  0.54175952  0.58310224  0.85168937  1
  P  P212  1  0.54239674  0.91662870  0.10371931  1
  P  P213  1  0.54122367  0.91696917  0.35117962  1
  P  P214  1  0.54317097  0.91621128  0.60379405  1
  P  P215  1  0.54173254  0.91637216  0.85091327  1
  P  P216  1  0.45767505  0.08283961  0.14751703  1
  P  P217  1  0.45821759  0.08433819  0.39734434  1
  P  P218  1  0.45799041  0.08238906  0.64754907  1
  P  P219  1  0.45743279  0.08330035  0.89621861  1
  P  P220  1  0.45819587  0.41855254  0.14645311  1
  P  P221  1  0.45770318  0.41859194  0.39759013  1
  P  P222  1  0.45923766  0.41632125  0.64871084  1
  P  P223  1  0.45873835  0.41697009  0.89792696  1
  P  P224  1  0.45817461  0.75083535  0.14664009  1
  P  P225  1  0.45755287  0.75031631  0.39592921  1
  P  P226  1  0.45868118  0.74893444  0.64837332  1
  P  P227  1  0.45837081  0.74833602  0.89612194  1
  P  P228  1  0.95744508  0.08222833  0.14692847  1
  P  P229  1  0.95766852  0.08329067  0.39572828  1
  P  P230  1  0.95681642  0.08420372  0.64663377  1
  P  P231  1  0.95723231  0.08492627  0.89764041  1
  P  P232  1  0.95780481  0.41448297  0.14717388  1
  P  P233  1  0.95782196  0.41643744  0.39917249  1
  P  P234  1  0.95914492  0.41674126  0.64840142  1
  P  P235  1  0.95875792  0.41670435  0.89827276  1
  P  P236  1  0.95746479  0.75047894  0.14749677  1
  P  P237  1  0.95742054  0.75015159  0.39626274  1
  P  P238  1  0.95760730  0.75092262  0.64776326  1
  P  P239  1  0.95746723  0.75089458  0.89748456  1
  P  P240  1  0.20824270  0.08345172  0.22605874  1
  P  P241  1  0.20712757  0.08514730  0.47691778  1
  P  P242  1  0.20683564  0.08354595  0.72921721  1
  P  P243  1  0.20848927  0.08285367  0.97714789  1
  P  P244  1  0.20696689  0.41589051  0.22857760  1
  P  P245  1  0.20827858  0.41655110  0.47968500  1
  P  P246  1  0.20955804  0.41642245  0.72719663  1
  P  P247  1  0.20710536  0.41617997  0.97886079  1
  P  P248  1  0.20814805  0.74989391  0.22586323  1
  P  P249  1  0.20680912  0.74999476  0.47821208  1
  P  P250  1  0.20734588  0.75005788  0.72916046  1
  P  P251  1  0.20800033  0.74864864  0.97838325  1
  P  P252  1  0.70717008  0.08350975  0.22958885  1
  P  P253  1  0.70855944  0.08438883  0.47668315  1
  P  P254  1  0.70758783  0.08537253  0.72702359  1
  P  P255  1  0.70644217  0.08356665  0.97823955  1
  P  P256  1  0.70857612  0.41703354  0.22701054  1
  P  P257  1  0.70848933  0.41857591  0.47851472  1
  P  P258  1  0.70923877  0.41679908  0.72614879  1
  P  P259  1  0.70834204  0.41546837  0.97792004  1
  P  P260  1  0.70776397  0.75091764  0.22832659  1
  P  P261  1  0.70834388  0.74915567  0.47613077  1
  P  P262  1  0.70784098  0.74836510  0.72624816  1
  P  P263  1  0.70681851  0.74948195  0.97827746  1
  P  P264  1  0.29236146  0.24768780  0.02221892  1
  P  P265  1  0.29241309  0.24782253  0.27228085  1
  P  P266  1  0.29279814  0.25101370  0.52280061  1
  P  P267  1  0.29243391  0.24904402  0.77289093  1
  P  P268  1  0.29214982  0.58471201  0.02219702  1
  P  P269  1  0.29285283  0.58383883  0.27127894  1
  P  P270  1  0.29293585  0.58223613  0.52330254  1
  P  P271  1  0.29226864  0.58415996  0.77277374  1
  P  P272  1  0.29117248  0.91669019  0.02294030  1
  P  P273  1  0.29191538  0.91666740  0.27006174  1
  P  P274  1  0.29309490  0.91737497  0.52161310  1
  P  P275  1  0.29225541  0.91806922  0.77306679  1
  P  P276  1  0.79180531  0.25178463  0.02276178  1
  P  P277  1  0.79215030  0.24965066  0.27276255  1
  P  P278  1  0.79138008  0.25003710  0.52315673  1
  P  P279  1  0.79212646  0.25196675  0.77184463  1
  P  P280  1  0.79235659  0.58159533  0.02291084  1
  P  P281  1  0.79127699  0.58251602  0.27314452  1
  P  P282  1  0.79167553  0.58342012  0.52239232  1
  P  P283  1  0.79290019  0.58301858  0.77069195  1
  P  P284  1  0.79181126  0.91510537  0.02307820  1
  P  P285  1  0.79056868  0.91616215  0.27349199  1
  P  P286  1  0.79234518  0.91692221  0.51996824  1
  P  P287  1  0.79258268  0.91690804  0.77122193  1
  O  O288  1  0.03645568  0.24969033  0.18163980  1
  O  O289  1  0.03677845  0.25203553  0.43256225  1
  O  O290  1  0.03699815  0.25232751  0.68299666  1
  O  O291  1  0.03619298  0.25141767  0.93345543  1
  O  O292  1  0.03698024  0.58171280  0.18268353  1
  O  O293  1  0.03723179  0.58213522  0.43412278  1
  O  O294  1  0.03662042  0.58164622  0.68358325  1
  O  O295  1  0.03671998  0.58156123  0.93327743  1
  O  O296  1  0.03584249  0.91554772  0.18278661  1
  O  O297  1  0.03734483  0.91716908  0.43052265  1
  O  O298  1  0.03759213  0.91623635  0.68346287  1
  O  O299  1  0.03593174  0.91517593  0.93302562  1
  O  O300  1  0.53732070  0.25195405  0.18250579  1
  O  O301  1  0.53759329  0.24979722  0.43390024  1
  O  O302  1  0.53725841  0.24946847  0.68290083  1
  O  O303  1  0.53695837  0.25256520  0.93296261  1
  O  O304  1  0.53655285  0.58332771  0.18088066  1
  O  O305  1  0.53712466  0.58173433  0.43208838  1
  O  O306  1  0.53680323  0.58239175  0.68286273  1
  O  O307  1  0.53673004  0.58310380  0.93158995  1
  O  O308  1  0.53664982  0.91683877  0.18360237  1
  O  O309  1  0.53666755  0.91686033  0.43123003  1
  O  O310  1  0.53813425  0.91625266  0.68372346  1
  O  O311  1  0.53699116  0.91600952  0.93095827  1
  O  O312  1  0.46272786  0.08322685  0.06755129  1
  O  O313  1  0.46352574  0.08375357  0.31737016  1
  O  O314  1  0.46337053  0.08316739  0.56758785  1
  O  O315  1  0.46281970  0.08270848  0.81628920  1
  O  O316  1  0.46358038  0.41799783  0.06654605  1
  O  O317  1  0.46280670  0.41884222  0.31761118  1
  O  O318  1  0.46368571  0.41678241  0.56873498  1
  O  O319  1  0.46384262  0.41652112  0.81802780  1
  O  O320  1  0.46324623  0.75014632  0.06669176  1
  O  O321  1  0.46290428  0.75072973  0.31597785  1
  O  O322  1  0.46316809  0.74924926  0.56832450  1
  O  O323  1  0.46388169  0.74843499  0.81625155  1
  O  O324  1  0.96262828  0.08278872  0.06698219  1
  O  O325  1  0.96306826  0.08269536  0.31574810  1
  O  O326  1  0.96220111  0.08432872  0.56665998  1
  O  O327  1  0.96230295  0.08481249  0.81768106  1
  O  O328  1  0.96335873  0.41480072  0.06733878  1
  O  O329  1  0.96244574  0.41586128  0.31919773  1
  O  O330  1  0.96420992  0.41678278  0.56849837  1
  O  O331  1  0.96440383  0.41695065  0.81838569  1
  O  O332  1  0.96253892  0.75047907  0.06749255  1
  O  O333  1  0.96264615  0.75023968  0.31629694  1
  O  O334  1  0.96290039  0.75039397  0.56780132  1
  O  O335  1  0.96312565  0.75094545  0.81757778  1
  O  O336  1  0.21385397  0.08297285  0.05706239  1
  O  O337  1  0.21279477  0.08378163  0.30604057  1
  O  O338  1  0.21175806  0.08487263  0.55691963  1
  O  O339  1  0.21219629  0.08343203  0.80913189  1
  O  O340  1  0.21201112  0.41606768  0.05879502  1
  O  O341  1  0.21234101  0.41585690  0.30854887  1
  O  O342  1  0.21398303  0.41665340  0.55961090  1
  O  O343  1  0.21438215  0.41655703  0.80721554  1
  O  O344  1  0.21373986  0.74881303  0.05827432  1
  O  O345  1  0.21284268  0.75011232  0.30591686  1
  O  O346  1  0.21174956  0.75010497  0.55822890  1
  O  O347  1  0.21260741  0.74961503  0.80914082  1
  O  O348  1  0.71137671  0.08331597  0.05825430  1
  O  O349  1  0.71289609  0.08359262  0.30946450  1
  O  O350  1  0.71387783  0.08476549  0.55666067  1
  O  O351  1  0.71256723  0.08499634  0.80702062  1
  O  O352  1  0.71359207  0.41576491  0.05780035  1
  O  O353  1  0.71335416  0.41778976  0.30702113  1
  O  O354  1  0.71411741  0.41869700  0.55834882  1
  O  O355  1  0.71383216  0.41594729  0.80614311  1
  O  O356  1  0.71181954  0.74984227  0.05828564  1
  O  O357  1  0.71323941  0.75069620  0.30818965  1
  O  O358  1  0.71354069  0.74846924  0.55608624  1
  O  O359  1  0.71274171  0.74860193  0.80625414  1
  O  O360  1  0.28722876  0.24754165  0.19230763  1
  O  O361  1  0.28784323  0.25029580  0.44284756  1
  O  O362  1  0.28727629  0.25017521  0.69292565  1
  O  O363  1  0.28700993  0.24775824  0.94227873  1
  O  O364  1  0.28742238  0.58432200  0.19131920  1
  O  O365  1  0.28808542  0.58241120  0.44328470  1
  O  O366  1  0.28696856  0.58307934  0.69281474  1
  O  O367  1  0.28677628  0.58488733  0.94224496  1
  O  O368  1  0.28648695  0.91637312  0.19014888  1
  O  O369  1  0.28791834  0.91731289  0.44156450  1
  O  O370  1  0.28738000  0.91782482  0.69309087  1
  O  O371  1  0.28609271  0.91737691  0.94297476  1
  O  O372  1  0.78664602  0.25039852  0.19288219  1
  O  O373  1  0.78655266  0.24995207  0.44317623  1
  O  O374  1  0.78680428  0.25143425  0.69195497  1
  O  O375  1  0.78662145  0.25219252  0.94280391  1
  O  O376  1  0.78636663  0.58230255  0.19316143  1
  O  O377  1  0.78634197  0.58316025  0.44246361  1
  O  O378  1  0.78773165  0.58321339  0.69076611  1
  O  O379  1  0.78775743  0.58165027  0.94290175  1
  O  O380  1  0.78545671  0.91569455  0.19350406  1
  O  O381  1  0.78641377  0.91694891  0.44009450  1
  O  O382  1  0.78783856  0.91706806  0.69118486  1
  O  O383  1  0.78687970  0.91546301  0.94307286  1
  O  O384  1  0.22808328  0.24740473  0.05793974  1
  O  O385  1  0.22806926  0.24797327  0.30787130  1
  O  O386  1  0.22843120  0.25235631  0.55826797  1
  O  O387  1  0.22813517  0.24833244  0.80845962  1
  O  O388  1  0.22795198  0.58485319  0.05804139  1
  O  O389  1  0.22858386  0.58336086  0.30676760  1
  O  O390  1  0.22850253  0.58167409  0.55848822  1
  O  O391  1  0.22804060  0.58468723  0.80854621  1
  O  O392  1  0.22710114  0.91593980  0.05895349  1
  O  O393  1  0.22775550  0.91702438  0.30596075  1
  O  O394  1  0.22855827  0.91712468  0.55643336  1
  O  O395  1  0.22793188  0.91808993  0.80854134  1
  O  O396  1  0.72758143  0.25211340  0.05855697  1
  O  O397  1  0.72801286  0.24915400  0.30881305  1
  O  O398  1  0.72725662  0.24979033  0.55911378  1
  O  O399  1  0.72794203  0.25235585  0.80795510  1
  O  O400  1  0.72790828  0.58185486  0.05795913  1
  O  O401  1  0.72715377  0.58209790  0.30907855  1
  O  O402  1  0.72766686  0.58350599  0.55891014  1
  O  O403  1  0.72859655  0.58248395  0.80622342  1
  O  O404  1  0.72741376  0.91479465  0.05842024  1
  O  O405  1  0.72653026  0.91625216  0.30965026  1
  O  O406  1  0.72834630  0.91682808  0.55612406  1
  O  O407  1  0.72801765  0.91673227  0.80598414  1
  O  O408  1  0.27254009  0.08375197  0.19051679  1
  O  O409  1  0.27167821  0.08506391  0.44187235  1
  O  O410  1  0.27109490  0.08399589  0.69357346  1
  O  O411  1  0.27248744  0.08275709  0.94059926  1
  O  O412  1  0.27132520  0.41599163  0.19338592  1
  O  O413  1  0.27236727  0.41613570  0.44362633  1
  O  O414  1  0.27376850  0.41629626  0.69144485  1
  O  O415  1  0.27156922  0.41627241  0.94400550  1
  O  O416  1  0.27243555  0.75021179  0.19022961  1
  O  O417  1  0.27137528  0.75028542  0.44345467  1
  O  O418  1  0.27167619  0.75000791  0.69381212  1
  O  O419  1  0.27204207  0.74866991  0.94198599  1
  O  O420  1  0.77121291  0.08351248  0.19346000  1
  O  O421  1  0.77258464  0.08413271  0.44037678  1
  O  O422  1  0.77193431  0.08601364  0.69155332  1
  O  O423  1  0.77093603  0.08375906  0.94336671  1
  O  O424  1  0.77278856  0.41637185  0.19117662  1
  O  O425  1  0.77248985  0.41847443  0.44214066  1
  O  O426  1  0.77342743  0.41753612  0.69045793  1
  O  O427  1  0.77254511  0.41483901  0.94182520  1
  O  O428  1  0.77181222  0.75091899  0.19199357  1
  O  O429  1  0.77241557  0.75010361  0.44011126  1
  O  O430  1  0.77221840  0.74794241  0.69087223  1
  O  O431  1  0.77128941  0.74960184  0.94325102  1
  O  O432  1  0.02173894  0.08185458  0.18255803  1
  O  O433  1  0.02191429  0.08421869  0.43126653  1
  O  O434  1  0.02108718  0.08406197  0.68204786  1
  O  O435  1  0.02154952  0.08473872  0.93313700  1
  O  O436  1  0.02190076  0.41442020  0.18350372  1
  O  O437  1  0.02213216  0.41662469  0.43492557  1
  O  O438  1  0.02319541  0.41663896  0.68489163  1
  O  O439  1  0.02264397  0.41661781  0.93504341  1
  O  O440  1  0.02181905  0.75072536  0.18298190  1
  O  O441  1  0.02171174  0.74937110  0.43165387  1
  O  O442  1  0.02183713  0.75124414  0.68362511  1
  O  O443  1  0.02156708  0.75069299  0.93364298  1
  O  O444  1  0.52198175  0.08229402  0.18307049  1
  O  O445  1  0.52246811  0.08486804  0.43317805  1
  O  O446  1  0.52221482  0.08201309  0.68337502  1
  O  O447  1  0.52172120  0.08396412  0.93164840  1
  O  O448  1  0.52234363  0.41898442  0.18266182  1
  O  O449  1  0.52198799  0.41829124  0.43329900  1
  O  O450  1  0.52347995  0.41600245  0.68436103  1
  O  O451  1  0.52283740  0.41720074  0.93416162  1
  O  O452  1  0.52234391  0.75133072  0.18248124  1
  O  O453  1  0.52185037  0.74951126  0.43140303  1
  O  O454  1  0.52300462  0.74849694  0.68375605  1
  O  O455  1  0.52243948  0.74794231  0.93244021  1
  O  O456  1  0.47797119  0.25228588  0.06703089  1
  O  O457  1  0.47878277  0.25086657  0.31842627  1
  O  O458  1  0.47800505  0.24861441  0.56720728  1
  O  O459  1  0.47829022  0.25192023  0.81714241  1
  O  O460  1  0.47750996  0.58383119  0.06468876  1
  O  O461  1  0.47811389  0.58202700  0.31632675  1
  O  O462  1  0.47775387  0.58140307  0.56693809  1
  O  O463  1  0.47768366  0.58345615  0.81549447  1
  O  O464  1  0.47829430  0.91631579  0.06768040  1
  O  O465  1  0.47703584  0.91715108  0.31540733  1
  O  O466  1  0.47882630  0.91654918  0.56841666  1
  O  O467  1  0.47749668  0.91681121  0.81531869  1
  O  O468  1  0.97715370  0.24957873  0.06570406  1
  O  O469  1  0.97767402  0.25138613  0.31696602  1
  O  O470  1  0.97773146  0.25226142  0.56732347  1
  O  O471  1  0.97783556  0.25263270  0.81720218  1
  O  O472  1  0.97774988  0.58117759  0.06719454  1
  O  O473  1  0.97821523  0.58256203  0.31875091  1
  O  O474  1  0.97757741  0.58147598  0.56771171  1
  O  O475  1  0.97819569  0.58159701  0.81725699  1
  O  O476  1  0.97704570  0.91516303  0.06683412  1
  O  O477  1  0.97741562  0.91691746  0.31509114  1
  O  O478  1  0.97871885  0.91685718  0.56799282  1
  O  O479  1  0.97743774  0.91491804  0.81688294  1
  O  O480  1  0.07250818  0.31289200  0.07333514  1
  O  O481  1  0.07249942  0.31545568  0.32385829  1
  O  O482  1  0.07294181  0.31562684  0.57440569  1
  O  O483  1  0.07334494  0.31506773  0.82518277  1
  O  O484  1  0.07294134  0.64513766  0.07485517  1
  O  O485  1  0.07379618  0.64561861  0.32584680  1
  O  O486  1  0.07261813  0.64563161  0.57603846  1
  O  O487  1  0.07333517  0.64542090  0.82578757  1
  O  O488  1  0.07260981  0.97849582  0.07470722  1
  O  O489  1  0.07262345  0.98045348  0.32195817  1
  O  O490  1  0.07403700  0.98027332  0.57548539  1
  O  O491  1  0.07227704  0.97931393  0.82572405  1
  O  O492  1  0.57312083  0.31557318  0.07409931  1
  O  O493  1  0.57407939  0.31430265  0.32646363  1
  O  O494  1  0.57335672  0.31245850  0.57483732  1
  O  O495  1  0.57335063  0.31549536  0.82406610  1
  O  O496  1  0.57242009  0.64734857  0.07293678  1
  O  O497  1  0.57339249  0.64556988  0.32436373  1
  O  O498  1  0.57293631  0.64521897  0.57424570  1
  O  O499  1  0.57324011  0.64618181  0.82300855  1
  O  O500  1  0.57358551  0.98006138  0.07534035  1
  O  O501  1  0.57209415  0.98076103  0.32339872  1
  O  O502  1  0.57455495  0.97942071  0.57512521  1
  O  O503  1  0.57290481  0.97993931  0.82314611  1
  O  O504  1  0.42675430  0.01938130  0.17589214  1
  O  O505  1  0.42706862  0.02080112  0.42530053  1
  O  O506  1  0.42725591  0.01862200  0.67558461  1
  O  O507  1  0.42646559  0.01994609  0.92481911  1
  O  O508  1  0.42706692  0.35512454  0.17502189  1
  O  O509  1  0.42667315  0.35474747  0.42520929  1
  O  O510  1  0.42836161  0.35258540  0.67677390  1
  O  O511  1  0.42771375  0.35358729  0.92672199  1
  O  O512  1  0.42710220  0.68734904  0.17481413  1
  O  O513  1  0.42620906  0.68679147  0.42382926  1
  O  O514  1  0.42745448  0.68549760  0.67633283  1
  O  O515  1  0.42726322  0.68511765  0.92500575  1
  O  O516  1  0.92657563  0.01863660  0.17524973  1
  O  O517  1  0.92680064  0.01988573  0.42423049  1
  O  O518  1  0.92559738  0.02076295  0.67457742  1
  O  O519  1  0.92591437  0.02134553  0.92524005  1
  O  O520  1  0.92705687  0.35097931  0.17592807  1
  O  O521  1  0.92689397  0.35304546  0.42791739  1
  O  O522  1  0.92816439  0.35319921  0.67687671  1
  O  O523  1  0.92761754  0.35310947  0.92625961  1
  O  O524  1  0.92665218  0.68654279  0.17514488  1
  O  O525  1  0.92587384  0.68694329  0.42454890  1
  O  O526  1  0.92672520  0.68718530  0.67562927  1
  O  O527  1  0.92628049  0.68702825  0.92487259  1
  O  O528  1  0.17814325  0.01933940  0.19748411  1
  O  O529  1  0.17604928  0.02169248  0.44858436  1
  O  O530  1  0.17587514  0.02017585  0.70042253  1
  O  O531  1  0.17744349  0.01912261  0.94913753  1
  O  O532  1  0.17607752  0.35225023  0.20055854  1
  O  O533  1  0.17669192  0.35334584  0.45136142  1
  O  O534  1  0.17869930  0.35271050  0.69929151  1
  O  O535  1  0.17613269  0.35270236  0.95061987  1
  O  O536  1  0.17765095  0.68588539  0.19804063  1
  O  O537  1  0.17622211  0.68619216  0.45008873  1
  O  O538  1  0.17587595  0.68687475  0.70077774  1
  O  O539  1  0.17700432  0.68529737  0.94969772  1
  O  O540  1  0.67587872  0.02009101  0.20139819  1
  O  O541  1  0.67774405  0.02040918  0.44893215  1
  O  O542  1  0.67700870  0.02158348  0.69884758  1
  O  O543  1  0.67552862  0.02010536  0.94977349  1
  O  O544  1  0.67749565  0.35326756  0.19939757  1
  O  O545  1  0.67721083  0.35482869  0.45090089  1
  O  O546  1  0.67880852  0.35316344  0.69701536  1
  O  O547  1  0.67701274  0.35247285  0.94887786  1
  O  O548  1  0.67649790  0.68729214  0.20035621  1
  O  O549  1  0.67798546  0.68538443  0.44728227  1
  O  O550  1  0.67693265  0.68490791  0.69784180  1
  O  O551  1  0.67625367  0.68563008  0.95008806  1
  O  O552  1  0.32307886  0.31161165  0.05011337  1
  O  O553  1  0.32353601  0.31161863  0.29984483  1
  O  O554  1  0.32420507  0.31426119  0.55124806  1
  O  O555  1  0.32350052  0.31247578  0.80137438  1
  O  O556  1  0.32331562  0.64795590  0.05080226  1
  O  O557  1  0.32386941  0.64724834  0.29977549  1
  O  O558  1  0.32358727  0.64613285  0.55109860  1
  O  O559  1  0.32301570  0.64793175  0.80073327  1
  O  O560  1  0.32169087  0.98040206  0.05166817  1
  O  O561  1  0.32329157  0.98007182  0.29825331  1
  O  O562  1  0.32382115  0.98108295  0.54967053  1
  O  O563  1  0.32294884  0.98156950  0.80158981  1
  O  O564  1  0.82310346  0.31469279  0.05187531  1
  O  O565  1  0.82315381  0.31315104  0.30117315  1
  O  O566  1  0.82155677  0.31430853  0.55128082  1
  O  O567  1  0.82308213  0.31545862  0.80038513  1
  O  O568  1  0.82357867  0.64508114  0.05092047  1
  O  O569  1  0.82135413  0.64681356  0.30126600  1
  O  O570  1  0.82263221  0.64715367  0.55046348  1
  O  O571  1  0.82380850  0.64636843  0.79962749  1
  O  O572  1  0.82270842  0.97884617  0.05106566  1
  O  O573  1  0.82114191  0.98028290  0.30119333  1
  O  O574  1  0.82377091  0.98028264  0.54812007  1
  O  O575  1  0.82335187  0.98047328  0.79968483  1
  O  O576  1  0.42701160  0.14666930  0.17535994  1
  O  O577  1  0.42754548  0.14795212  0.42584061  1
  O  O578  1  0.42675032  0.14575920  0.67572844  1
  O  O579  1  0.42624944  0.14689309  0.92397547  1
  O  O580  1  0.42721827  0.48208863  0.17474479  1
  O  O581  1  0.42689786  0.48176659  0.42668930  1
  O  O582  1  0.42867632  0.47983573  0.67776054  1
  O  O583  1  0.42781333  0.48074920  0.92592517  1
  O  O584  1  0.42730760  0.81439848  0.17498895  1
  O  O585  1  0.42663583  0.81365402  0.42453277  1
  O  O586  1  0.42855916  0.81294319  0.67698228  1
  O  O587  1  0.42737248  0.81207155  0.92407843  1
  O  O588  1  0.92636598  0.14572727  0.17503776  1
  O  O589  1  0.92622695  0.14678677  0.42340468  1
  O  O590  1  0.92588270  0.14774952  0.67471043  1
  O  O591  1  0.92673550  0.14858092  0.92615917  1
  O  O592  1  0.92661720  0.47795061  0.17542635  1
  O  O593  1  0.92738252  0.48033910  0.42744840  1
  O  O594  1  0.92824918  0.48030698  0.67688414  1
  O  O595  1  0.92777780  0.48028212  0.92670116  1
  O  O596  1  0.92642641  0.81367430  0.17636413  1
  O  O597  1  0.92675939  0.81383909  0.42437275  1
  O  O598  1  0.92674323  0.81449332  0.67575846  1
  O  O599  1  0.92645586  0.81412860  0.92622579  1
  O  O600  1  0.07172527  0.18555560  0.07344967  1
  O  O601  1  0.07323888  0.18841443  0.32463134  1
  O  O602  1  0.07293026  0.18852540  0.57506832  1
  O  O603  1  0.07268917  0.18816596  0.82537522  1
  O  O604  1  0.07294009  0.51788586  0.07456453  1
  O  O605  1  0.07354061  0.51880715  0.32589591  1
  O  O606  1  0.07284412  0.51846115  0.57493353  1
  O  O607  1  0.07340272  0.51836832  0.82468750  1
  O  O608  1  0.07196061  0.85155867  0.07432314  1
  O  O609  1  0.07228705  0.85289003  0.32257837  1
  O  O610  1  0.07416440  0.85336785  0.57494943  1
  O  O611  1  0.07281383  0.85201495  0.82475318  1
  O  O612  1  0.57314917  0.18828335  0.07476910  1
  O  O613  1  0.57428691  0.18745713  0.32516025  1
  O  O614  1  0.57285216  0.18530729  0.57448390  1
  O  O615  1  0.57367860  0.18848690  0.82563157  1
  O  O616  1  0.57243488  0.52003159  0.07246060  1
  O  O617  1  0.57320042  0.51861040  0.32313129  1
  O  O618  1  0.57282099  0.51823764  0.57455085  1
  O  O619  1  0.57211181  0.51904174  0.82327315  1
  O  O620  1  0.57383756  0.85339090  0.07534815  1
  O  O621  1  0.57172966  0.85313952  0.32296823  1
  O  O622  1  0.57399615  0.85270341  0.57509186  1
  O  O623  1  0.57194762  0.85229440  0.82267138  1
  O  O624  1  0.32355387  0.18450815  0.05069594  1
  O  O625  1  0.32309029  0.18451251  0.30134772  1
  O  O626  1  0.32313232  0.18726344  0.55132419  1
  O  O627  1  0.32325282  0.18537186  0.80087043  1
  O  O628  1  0.32292963  0.52074784  0.04966922  1
  O  O629  1  0.32403956  0.52027714  0.29903722  1
  O  O630  1  0.32388144  0.51895524  0.55205198  1
  O  O631  1  0.32343662  0.52075570  0.80107163  1
  O  O632  1  0.32244139  0.85296369  0.05030461  1
  O  O633  1  0.32303391  0.85335131  0.29863881  1
  O  O634  1  0.32420825  0.85402418  0.55000267  1
  O  O635  1  0.32329831  0.85445605  0.80094300  1
  O  O636  1  0.82234708  0.18759726  0.05009137  1
  O  O637  1  0.82312334  0.18606417  0.30075040  1
  O  O638  1  0.82277444  0.18691732  0.55152493  1
  O  O639  1  0.82319197  0.18856154  0.80045253  1
  O  O640  1  0.82273628  0.51795971  0.05162740  1
  O  O641  1  0.82288356  0.51949910  0.30164828  1
  O  O642  1  0.82263561  0.51997962  0.55103452  1
  O  O643  1  0.82426201  0.51972114  0.79908251  1
  O  O644  1  0.82245916  0.85160871  0.05171824  1
  O  O645  1  0.82186843  0.85289505  0.30175509  1
  O  O646  1  0.82370218  0.85349820  0.54807285  1
  O  O647  1  0.82345954  0.85335789  0.79933212  1
  O  O648  1  0.17687205  0.14652927  0.19734395  1
  O  O649  1  0.17685397  0.14894163  0.44845866  1
  O  O650  1  0.17541372  0.14687888  0.70092061  1
  O  O651  1  0.17765594  0.14646213  0.94870485  1
  O  O652  1  0.17577764  0.47930252  0.20069190  1
  O  O653  1  0.17722165  0.48000432  0.45133315  1
  O  O654  1  0.17897958  0.48030111  0.69919881  1
  O  O655  1  0.17616424  0.47963439  0.95061955  1
  O  O656  1  0.17718437  0.81335986  0.19750552  1
  O  O657  1  0.17564637  0.81324793  0.44974954  1
  O  O658  1  0.17658939  0.81381708  0.70127183  1
  O  O659  1  0.17669559  0.81228056  0.95074779  1
  O  O660  1  0.67580149  0.14679580  0.20122101  1
  O  O661  1  0.67762577  0.14787899  0.44841081  1
  O  O662  1  0.67659288  0.14886009  0.69887528  1
  O  O663  1  0.67554474  0.14718720  0.95031059  1
  O  O664  1  0.67821922  0.48061697  0.19781155  1
  O  O665  1  0.67742240  0.48171156  0.44948970  1
  O  O666  1  0.67799987  0.48037221  0.69848200  1
  O  O667  1  0.67770005  0.47926001  0.94952941  1
  O  O668  1  0.67694848  0.81433137  0.19961995  1
  O  O669  1  0.67682911  0.81271395  0.44868676  1
  O  O670  1  0.67718717  0.81213716  0.69827552  1
  O  O671  1  0.67545933  0.81251002  0.94946656  1
