# generated using pymatgen
data_Na2MnFe(PO4)2
_symmetry_space_group_name_H-M   'P 1'
_cell_length_a   22.34313928
_cell_length_b   20.09320610
_cell_length_c   19.44901589
_cell_angle_alpha   90.06883334
_cell_angle_beta   90.01323069
_cell_angle_gamma   89.99902004
_symmetry_Int_Tables_number   1
_chemical_formula_structural   Na2MnFe(PO4)2
_chemical_formula_sum   'Na96 Mn48 Fe48 P96 O384'
_cell_volume   8731.53778436
_cell_formula_units_Z   48
loop_
 _symmetry_equiv_pos_site_id
 _symmetry_equiv_pos_as_xyz
  1  'x, y, z'
loop_
 _atom_site_type_symbol
 _atom_site_label
 _atom_site_symmetry_multiplicity
 _atom_site_fract_x
 _atom_site_fract_y
 _atom_site_fract_z
 _atom_site_occupancy
  Na  Na0  1  0.14090331  0.25019107  0.24275211  1
  Na  Na1  1  0.14064756  0.24995854  0.49320613  1
  Na  Na2  1  0.14060764  0.24773446  0.74425037  1
  Na  Na3  1  0.14047608  0.24914081  0.99427700  1
  Na  Na4  1  0.14049238  0.58202470  0.24332927  1
  Na  Na5  1  0.14004847  0.58201208  0.49370197  1
  Na  Na6  1  0.13978126  0.58318741  0.74456348  1
  Na  Na7  1  0.13988431  0.58238051  0.99431051  1
  Na  Na8  1  0.13983506  0.91623840  0.24225453  1
  Na  Na9  1  0.13987102  0.91664004  0.49278579  1
  Na  Na10  1  0.14042593  0.91587784  0.74386849  1
  Na  Na11  1  0.14048135  0.91605049  0.99371695  1
  Na  Na12  1  0.64069399  0.24913849  0.24437557  1
  Na  Na13  1  0.64099619  0.25117644  0.49360962  1
  Na  Na14  1  0.64075132  0.25014753  0.74282357  1
  Na  Na15  1  0.64061821  0.24954886  0.99376139  1
  Na  Na16  1  0.63979525  0.58354746  0.24440348  1
  Na  Na17  1  0.64072265  0.58310705  0.49279375  1
  Na  Na18  1  0.64039687  0.58347679  0.74361761  1
  Na  Na19  1  0.63991901  0.58395644  0.99431957  1
  Na  Na20  1  0.63992784  0.91666719  0.24396981  1
  Na  Na21  1  0.63983625  0.91706519  0.49343770  1
  Na  Na22  1  0.64002622  0.91789000  0.74289313  1
  Na  Na23  1  0.63994543  0.91711428  0.99455342  1
  Na  Na24  1  0.35937868  0.08400024  0.00610193  1
  Na  Na25  1  0.35975319  0.08385639  0.25612036  1
  Na  Na26  1  0.35976262  0.08315057  0.50522216  1
  Na  Na27  1  0.35988362  0.08268651  0.75650951  1
  Na  Na28  1  0.35911229  0.41675935  0.00767503  1
  Na  Na29  1  0.35936689  0.41695856  0.25652038  1
  Na  Na30  1  0.35961261  0.41602410  0.50475369  1
  Na  Na31  1  0.35957005  0.41658120  0.75690360  1
  Na  Na32  1  0.35984820  0.74977505  0.00789784  1
  Na  Na33  1  0.36005355  0.74966170  0.25666896  1
  Na  Na34  1  0.35991113  0.75013676  0.50606346  1
  Na  Na35  1  0.35950742  0.75066928  0.75653321  1
  Na  Na36  1  0.85987667  0.08294697  0.00535871  1
  Na  Na37  1  0.85991852  0.08345901  0.25617014  1
  Na  Na38  1  0.85948365  0.08420973  0.50586222  1
  Na  Na39  1  0.85991175  0.08332849  0.75527897  1
  Na  Na40  1  0.86040502  0.41721623  0.00654147  1
  Na  Na41  1  0.85998156  0.41701219  0.25819487  1
  Na  Na42  1  0.85994449  0.41757265  0.50549425  1
  Na  Na43  1  0.85983910  0.41721045  0.75558332  1
  Na  Na44  1  0.85966152  0.75111466  0.00587468  1
  Na  Na45  1  0.85978880  0.74994893  0.25699383  1
  Na  Na46  1  0.85960243  0.74981078  0.50760158  1
  Na  Na47  1  0.85954038  0.75055562  0.75627414  1
  Na  Na48  1  0.11012598  0.08266121  0.11739044  1
  Na  Na49  1  0.10957414  0.08350039  0.36681122  1
  Na  Na50  1  0.10998690  0.08237515  0.61877260  1
  Na  Na51  1  0.11036006  0.08224742  0.86799219  1
  Na  Na52  1  0.10977190  0.41649483  0.11907120  1
  Na  Na53  1  0.10985295  0.41692056  0.36760654  1
  Na  Na54  1  0.10998059  0.41702780  0.61953634  1
  Na  Na55  1  0.10936853  0.41628363  0.87011499  1
  Na  Na56  1  0.10935671  0.74870679  0.11902843  1
  Na  Na57  1  0.10936351  0.74973281  0.36817979  1
  Na  Na58  1  0.10923667  0.74902729  0.61931842  1
  Na  Na59  1  0.10920099  0.74862294  0.86885849  1
  Na  Na60  1  0.60983676  0.08240099  0.11928685  1
  Na  Na61  1  0.60951374  0.08224917  0.36820869  1
  Na  Na62  1  0.60963761  0.08242968  0.61861104  1
  Na  Na63  1  0.60988159  0.08270868  0.86820271  1
  Na  Na64  1  0.60967134  0.41825054  0.11980361  1
  Na  Na65  1  0.61001401  0.41705564  0.36787383  1
  Na  Na66  1  0.61005554  0.41735005  0.61787247  1
  Na  Na67  1  0.60954329  0.41690538  0.86816734  1
  Na  Na68  1  0.60928794  0.75008126  0.12029153  1
  Na  Na69  1  0.60923209  0.74996843  0.36906861  1
  Na  Na70  1  0.60920897  0.75162139  0.61767752  1
  Na  Na71  1  0.60912110  0.75140991  0.86952693  1
  Na  Na72  1  0.39000090  0.24994114  0.13277111  1
  Na  Na73  1  0.38981451  0.24864718  0.38057725  1
  Na  Na74  1  0.39052073  0.24878844  0.63096536  1
  Na  Na75  1  0.39053641  0.24899344  0.88136462  1
  Na  Na76  1  0.39018650  0.58487039  0.13262431  1
  Na  Na77  1  0.39008236  0.58476482  0.38068618  1
  Na  Na78  1  0.39036100  0.58429158  0.63073261  1
  Na  Na79  1  0.39016770  0.58478096  0.88271801  1
  Na  Na80  1  0.39047441  0.91647075  0.13195969  1
  Na  Na81  1  0.39062171  0.91596033  0.38072486  1
  Na  Na82  1  0.39005037  0.91763672  0.63073473  1
  Na  Na83  1  0.39033074  0.91691855  0.88142510  1
  Na  Na84  1  0.89070555  0.25094856  0.13205054  1
  Na  Na85  1  0.89019222  0.25181371  0.38134092  1
  Na  Na86  1  0.89065244  0.25141231  0.63075869  1
  Na  Na87  1  0.89104418  0.25034392  0.88043355  1
  Na  Na88  1  0.89041611  0.58267045  0.13211395  1
  Na  Na89  1  0.89008955  0.58383603  0.38230254  1
  Na  Na90  1  0.89054103  0.58331253  0.63159252  1
  Na  Na91  1  0.89019964  0.58275436  0.88110134  1
  Na  Na92  1  0.89068599  0.91656889  0.13081492  1
  Na  Na93  1  0.89075391  0.91682977  0.38067659  1
  Na  Na94  1  0.89003616  0.91616046  0.63191846  1
  Na  Na95  1  0.89013021  0.91661823  0.88004559  1
  Mn  Mn96  1  0.49971288  0.66795523  0.75026382  1
  Mn  Mn97  1  0.25020017  0.49953108  0.37459972  1
  Mn  Mn98  1  0.00001940  -0.00146610  -0.00126381  1
  Mn  Mn99  1  0.49998799  0.50086078  0.74982679  1
  Mn  Mn100  1  0.50018008  0.33349819  0.00042261  1
  Mn  Mn101  1  0.50024651  0.16616641  0.00028846  1
  Mn  Mn102  1  0.50003619  0.33328726  0.24990510  1
  Mn  Mn103  1  0.74946731  0.66666563  0.87475566  1
  Mn  Mn104  1  0.75039202  0.66674441  0.12536968  1
  Mn  Mn105  1  0.00021053  0.66655861  0.50008179  1
  Mn  Mn106  1  0.75045457  0.00066116  0.37529349  1
  Mn  Mn107  1  0.00041250  -0.00076261  0.74948390  1
  Mn  Mn108  1  0.75063521  0.33449026  0.87401255  1
  Mn  Mn109  1  0.74956893  0.83489919  0.87558282  1
  Mn  Mn110  1  0.49932347  -0.00069419  0.00032282  1
  Mn  Mn111  1  0.75057720  0.16745943  0.62470160  1
  Mn  Mn112  1  0.75059522  0.16610350  0.87385921  1
  Mn  Mn113  1  0.00102379  0.33498424  0.50091965  1
  Mn  Mn114  1  0.49929432  0.50122504  0.49928220  1
  Mn  Mn115  1  -0.00045549  -0.00076411  0.49958219  1
  Mn  Mn116  1  -0.00085957  0.66638193  0.00029185  1
  Mn  Mn117  1  0.75049258  0.83318711  0.37514097  1
  Mn  Mn118  1  0.24989698  0.00080389  0.37372719  1
  Mn  Mn119  1  0.00053821  0.16716868  0.49891085  1
  Mn  Mn120  1  0.74992998  0.66626730  0.62573933  1
  Mn  Mn121  1  0.50052951  0.16511744  0.50032383  1
  Mn  Mn122  1  0.24981546  0.83281839  0.12450152  1
  Mn  Mn123  1  0.74941118  0.83413393  0.12555284  1
  Mn  Mn124  1  0.74991513  0.33350041  0.12495008  1
  Mn  Mn125  1  0.25012994  0.83271170  0.37395074  1
  Mn  Mn126  1  0.49952839  0.33269722  0.74934620  1
  Mn  Mn127  1  0.25020218  0.49955093  0.62517559  1
  Mn  Mn128  1  0.25020805  0.33218439  0.62535293  1
  Mn  Mn129  1  -0.00049888  0.66652923  0.25016245  1
  Mn  Mn130  1  0.24991660  0.66657956  0.62510661  1
  Mn  Mn131  1  0.49900181  0.83440888  0.74947788  1
  Mn  Mn132  1  0.50010986  0.33308041  0.49941535  1
  Mn  Mn133  1  0.49940540  0.50137761  -0.00015890  1
  Mn  Mn134  1  0.25060202  0.16517666  0.62422766  1
  Mn  Mn135  1  0.24927323  0.83401704  0.62554015  1
  Mn  Mn136  1  0.75071890  0.16593267  0.12427126  1
  Mn  Mn137  1  0.24968792  0.50039395  0.87651984  1
  Mn  Mn138  1  -0.00034015  0.16662372  0.00006141  1
  Mn  Mn139  1  0.00009243  0.16702515  0.24940473  1
  Mn  Mn140  1  0.25000606  0.83316312  0.87556964  1
  Mn  Mn141  1  0.24966882  0.33200562  0.87627426  1
  Mn  Mn142  1  0.75032482  0.50030063  0.12589526  1
  Mn  Mn143  1  0.00060502  0.33335474  0.75010298  1
  Fe  Fe144  1  0.24982771  0.33278301  0.37439544  1
  Fe  Fe145  1  0.49958043  0.50102521  0.24979447  1
  Fe  Fe146  1  0.25002092  0.16645567  0.12481349  1
  Fe  Fe147  1  0.50023695  -0.00085186  0.24998590  1
  Fe  Fe148  1  -0.00005843  0.83262397  -0.00020096  1
  Fe  Fe149  1  -0.00023329  0.83322626  0.24950898  1
  Fe  Fe150  1  0.25019557  0.16579835  0.87558390  1
  Fe  Fe151  1  0.50033190  0.83334318  0.00121685  1
  Fe  Fe152  1  0.24972690  -0.00017616  0.62466941  1
  Fe  Fe153  1  0.00022153  0.33432938  0.25023459  1
  Fe  Fe154  1  0.00039826  0.16655149  0.74984160  1
  Fe  Fe155  1  0.50063537  0.16609839  0.74991716  1
  Fe  Fe156  1  0.00012317  -0.00068556  0.24924621  1
  Fe  Fe157  1  0.49967421  0.66771240  0.25060167  1
  Fe  Fe158  1  0.49966526  0.83398845  0.49925236  1
  Fe  Fe159  1  0.74990547  0.50002585  0.87456340  1
  Fe  Fe160  1  -0.00041015  0.66608094  0.75024839  1
  Fe  Fe161  1  0.74973824  0.50009315  0.37558276  1
  Fe  Fe162  1  0.50040905  0.16586762  0.25046192  1
  Fe  Fe163  1  0.50012496  0.66744987  0.49944086  1
  Fe  Fe164  1  0.50024407  0.66769053  0.00152777  1
  Fe  Fe165  1  0.49932743  -0.00033606  0.49933339  1
  Fe  Fe166  1  -0.00008913  0.49979622  0.75069261  1
  Fe  Fe167  1  -0.00011886  0.83292733  0.49985367  1
  Fe  Fe168  1  0.00040493  0.50054659  0.50028570  1
  Fe  Fe169  1  0.50019056  -0.00005142  0.74996270  1
  Fe  Fe170  1  -0.00031755  0.49968326  0.00054528  1
  Fe  Fe171  1  0.00024855  0.83248554  0.74992727  1
  Fe  Fe172  1  0.24969765  0.66618044  0.37497215  1
  Fe  Fe173  1  0.74995439  0.33353310  0.37525780  1
  Fe  Fe174  1  0.75061769  0.33431541  0.62405783  1
  Fe  Fe175  1  0.00000533  0.49995227  0.25010994  1
  Fe  Fe176  1  0.74969054  0.66651484  0.37627645  1
  Fe  Fe177  1  0.74964548  0.83347462  0.62500404  1
  Fe  Fe178  1  0.24953997  0.16673877  0.37429198  1
  Fe  Fe179  1  0.25016656  -0.00003931  0.87499938  1
  Fe  Fe180  1  0.74962756  0.00042770  0.62460753  1
  Fe  Fe181  1  0.25034147  0.49992433  0.12569931  1
  Fe  Fe182  1  0.75026498  0.00038610  0.12523566  1
  Fe  Fe183  1  0.49985210  0.83317828  0.25072641  1
  Fe  Fe184  1  0.25021265  0.33261820  0.12514915  1
  Fe  Fe185  1  0.25037706  0.00033012  0.12445871  1
  Fe  Fe186  1  0.74998869  0.00014216  0.87442752  1
  Fe  Fe187  1  0.25011381  0.66636869  0.87600856  1
  Fe  Fe188  1  0.74998038  0.49972996  0.62393674  1
  Fe  Fe189  1  0.74970603  0.16720679  0.37534698  1
  Fe  Fe190  1  0.24952148  0.66627693  0.12540965  1
  Fe  Fe191  1  0.00005309  0.33352485  0.00043926  1
  P  P192  1  0.04185269  0.25165314  0.10290358  1
  P  P193  1  0.04231246  0.25175958  0.35189353  1
  P  P194  1  0.04332764  0.24985880  0.60344523  1
  P  P195  1  0.04248092  0.24883318  0.85290295  1
  P  P196  1  0.04152635  0.58167173  0.10297340  1
  P  P197  1  0.04212070  0.58224096  0.35253325  1
  P  P198  1  0.04216306  0.58224067  0.60349946  1
  P  P199  1  0.04091591  0.58276506  0.85233189  1
  P  P200  1  0.04220634  0.91473887  0.10261306  1
  P  P201  1  0.04144291  0.91603265  0.35126945  1
  P  P202  1  0.04193565  0.91455101  0.60242610  1
  P  P203  1  0.04246708  0.91432576  0.85237381  1
  P  P204  1  0.54280155  0.24962611  0.10399502  1
  P  P205  1  0.54225793  0.24839094  0.35239828  1
  P  P206  1  0.54300764  0.24928629  0.60324320  1
  P  P207  1  0.54263001  0.24865398  0.85217899  1
  P  P208  1  0.54166656  0.58518541  0.10387178  1
  P  P209  1  0.54093802  0.58433327  0.35176736  1
  P  P210  1  0.54247514  0.58548802  0.60179975  1
  P  P211  1  0.54263083  0.58470241  0.85371836  1
  P  P212  1  0.54187248  0.91547648  0.10391648  1
  P  P213  1  0.54139909  0.91627250  0.35227847  1
  P  P214  1  0.54095821  0.91749731  0.60121060  1
  P  P215  1  0.54224469  0.91757305  0.85259054  1
  P  P216  1  0.45864000  0.08269988  0.14893061  1
  P  P217  1  0.45801383  0.08144691  0.39637371  1
  P  P218  1  0.45851898  0.08265291  0.64816328  1
  P  P219  1  0.45761726  0.08284101  0.89626348  1
  P  P220  1  0.45760109  0.41844938  0.14770545  1
  P  P221  1  0.45754394  0.41718334  0.39572449  1
  P  P222  1  0.45690223  0.41716009  0.64648840  1
  P  P223  1  0.45681949  0.41661766  0.89696479  1
  P  P224  1  0.45864756  0.75067964  0.14849647  1
  P  P225  1  0.45860901  0.75041708  0.39765210  1
  P  P226  1  0.45689159  0.75071733  0.64582005  1
  P  P227  1  0.45825211  0.75079584  0.89951000  1
  P  P228  1  0.95828144  0.08188027  0.14717146  1
  P  P229  1  0.95755563  0.08301170  0.39572950  1
  P  P230  1  0.95814215  0.08430380  0.64719514  1
  P  P231  1  0.95771731  0.08310102  0.89585888  1
  P  P232  1  0.95840707  0.41691757  0.14828337  1
  P  P233  1  0.95847822  0.41866617  0.39723411  1
  P  P234  1  0.95815768  0.41852301  0.64768487  1
  P  P235  1  0.95879963  0.41655162  0.89849384  1
  P  P236  1  0.95744948  0.75094870  0.14730388  1
  P  P237  1  0.95752782  0.75135051  0.39747527  1
  P  P238  1  0.95844820  0.74963348  0.64837963  1
  P  P239  1  0.95760321  0.75073386  0.89678647  1
  P  P240  1  0.20844678  0.08367268  0.22610779  1
  P  P241  1  0.20722423  0.08431884  0.47670052  1
  P  P242  1  0.20807113  0.08132295  0.72792933  1
  P  P243  1  0.20857349  0.08286656  0.97726131  1
  P  P244  1  0.20920515  0.41578792  0.22678342  1
  P  P245  1  0.20750897  0.41494815  0.47687655  1
  P  P246  1  0.20734555  0.41605859  0.72879249  1
  P  P247  1  0.20760457  0.41609677  0.98006282  1
  P  P248  1  0.20765426  0.74828434  0.22763562  1
  P  P249  1  0.20751834  0.74883232  0.47709439  1
  P  P250  1  0.20710278  0.74967683  0.72896448  1
  P  P251  1  0.20779887  0.74823972  0.97829704  1
  P  P252  1  0.70799411  0.08278423  0.22792225  1
  P  P253  1  0.70783077  0.08489947  0.47775975  1
  P  P254  1  0.70805295  0.08250868  0.72712109  1
  P  P255  1  0.70798713  0.08188256  0.97724791  1
  P  P256  1  0.70760133  0.41655315  0.22947834  1
  P  P257  1  0.70868169  0.41673298  0.47702712  1
  P  P258  1  0.70851228  0.41725330  0.72611679  1
  P  P259  1  0.70757852  0.41810730  0.97709304  1
  P  P260  1  0.70744772  0.74963608  0.22926707  1
  P  P261  1  0.70803611  0.74950793  0.47832438  1
  P  P262  1  0.70745191  0.75163587  0.72738621  1
  P  P263  1  0.70695621  0.75055368  0.97837380  1
  P  P264  1  0.29179942  0.24920076  0.02360733  1
  P  P265  1  0.29126247  0.24975560  0.27234249  1
  P  P266  1  0.29296929  0.24948185  0.52070118  1
  P  P267  1  0.29236369  0.24774474  0.77324546  1
  P  P268  1  0.29129558  0.58359573  0.02400859  1
  P  P269  1  0.29180019  0.58444560  0.27177566  1
  P  P270  1  0.29265146  0.58311932  0.52130476  1
  P  P271  1  0.29237202  0.58445795  0.77349491  1
  P  P272  1  0.29215423  0.91815657  0.02217967  1
  P  P273  1  0.29253481  0.91705745  0.27066647  1
  P  P274  1  0.29169951  0.91786683  0.52209168  1
  P  P275  1  0.29204709  0.91782012  0.77255842  1
  P  P276  1  0.79341556  0.25012330  0.02155307  1
  P  P277  1  0.79157570  0.24993038  0.27365476  1
  P  P278  1  0.79246889  0.25210037  0.52143283  1
  P  P279  1  0.79327488  0.25060346  0.77076607  1
  P  P280  1  0.79294655  0.58316378  0.02166313  1
  P  P281  1  0.79125740  0.58363162  0.27446126  1
  P  P282  1  0.79196411  0.58237481  0.52201935  1
  P  P283  1  0.79192367  0.58185671  0.77195432  1
  P  P284  1  0.79230852  0.91858442  0.02249214  1
  P  P285  1  0.79268896  0.91731628  0.27169288  1
  P  P286  1  0.79125155  0.91698883  0.52360000  1
  P  P287  1  0.79172916  0.91815966  0.77137873  1
  O  O288  1  0.03643871  0.25174322  0.18282287  1
  O  O289  1  0.03765544  0.25175484  0.43188316  1
  O  O290  1  0.03799615  0.24911329  0.68340198  1
  O  O291  1  0.03691520  0.24947809  0.93281319  1
  O  O292  1  0.03632118  0.58181418  0.18289234  1
  O  O293  1  0.03727506  0.58237021  0.43251956  1
  O  O294  1  0.03662076  0.58243600  0.68334250  1
  O  O295  1  0.03590132  0.58299498  0.93228277  1
  O  O296  1  0.03677942  0.91544554  0.18250834  1
  O  O297  1  0.03656248  0.91615151  0.43123768  1
  O  O298  1  0.03679167  0.91456784  0.68236675  1
  O  O299  1  0.03716609  0.91433288  0.93229450  1
  O  O300  1  0.53741512  0.24900820  0.18395026  1
  O  O301  1  0.53719483  0.24846592  0.43236135  1
  O  O302  1  0.53781213  0.24896196  0.68320742  1
  O  O303  1  0.53767598  0.24916945  0.93221254  1
  O  O304  1  0.53615603  0.58470562  0.18374215  1
  O  O305  1  0.53604375  0.58480693  0.43171744  1
  O  O306  1  0.53748504  0.58518059  0.68179047  1
  O  O307  1  0.53756601  0.58497165  0.93372430  1
  O  O308  1  0.53627523  0.91584962  0.18376196  1
  O  O309  1  0.53594015  0.91666149  0.43213992  1
  O  O310  1  0.53628742  0.91778214  0.68117372  1
  O  O311  1  0.53722131  0.91679990  0.93251052  1
  O  O312  1  0.46345926  0.08286404  0.06893745  1
  O  O313  1  0.46370061  0.08174072  0.31653703  1
  O  O314  1  0.46346750  0.08223379  0.56815719  1
  O  O315  1  0.46305969  0.08290551  0.81638878  1
  O  O316  1  0.46259456  0.41806654  0.06770203  1
  O  O317  1  0.46303160  0.41775289  0.31578992  1
  O  O318  1  0.46200384  0.41711577  0.56645361  1
  O  O319  1  0.46176313  0.41652106  0.81693884  1
  O  O320  1  0.46372215  0.75035800  0.06862567  1
  O  O321  1  0.46362276  0.75072531  0.31775619  1
  O  O322  1  0.46199334  0.75032660  0.56595495  1
  O  O323  1  0.46285938  0.75087276  0.81947236  1
  O  O324  1  0.96296301  0.08181131  0.06717235  1
  O  O325  1  0.96291929  0.08232753  0.31577986  1
  O  O326  1  0.96325070  0.08398388  0.56719524  1
  O  O327  1  0.96328165  0.08359376  0.81594006  1
  O  O328  1  0.96328490  0.41662301  0.06837038  1
  O  O329  1  0.96366544  0.41809250  0.31732385  1
  O  O330  1  0.96360446  0.41879666  0.56779447  1
  O  O331  1  0.96400366  0.41684290  0.81857779  1
  O  O332  1  0.96264319  0.75063839  0.06736891  1
  O  O333  1  0.96249524  0.75120312  0.31752217  1
  O  O334  1  0.96318107  0.74953293  0.56840283  1
  O  O335  1  0.96320830  0.75038438  0.81693918  1
  O  O336  1  0.21383838  0.08277390  0.05715940  1
  O  O337  1  0.21322527  0.08449711  0.30608025  1
  O  O338  1  0.21233543  0.08331794  0.55663226  1
  O  O339  1  0.21330005  0.08150755  0.80780774  1
  O  O340  1  0.21333832  0.41608624  0.05992052  1
  O  O341  1  0.21410717  0.41575839  0.30675392  1
  O  O342  1  0.21265831  0.41527384  0.55684009  1
  O  O343  1  0.21235530  0.41624186  0.80879171  1
  O  O344  1  0.21307470  0.74818474  0.05825939  1
  O  O345  1  0.21293102  0.74836343  0.30756829  1
  O  O346  1  0.21264120  0.74957389  0.55707198  1
  O  O347  1  0.21243654  0.74948988  0.80891959  1
  O  O348  1  0.71334844  0.08188142  0.05722228  1
  O  O349  1  0.71311912  0.08390731  0.30786988  1
  O  O350  1  0.71322059  0.08433529  0.55766409  1
  O  O351  1  0.71354028  0.08221794  0.80702760  1
  O  O352  1  0.71242757  0.41774445  0.05712347  1
  O  O353  1  0.71266231  0.41633402  0.30940844  1
  O  O354  1  0.71354051  0.41703281  0.55695347  1
  O  O355  1  0.71361336  0.41775401  0.80610829  1
  O  O356  1  0.71213593  0.75056315  0.05834181  1
  O  O357  1  0.71271298  0.74911630  0.30922399  1
  O  O358  1  0.71333935  0.75024182  0.55827328  1
  O  O359  1  0.71259509  0.75160448  0.80735316  1
  O  O360  1  0.28598283  0.24975057  0.19245128  1
  O  O361  1  0.28755710  0.24971966  0.44077658  1
  O  O362  1  0.28748380  0.24785611  0.69325089  1
  O  O363  1  0.28668725  0.24835793  0.94368698  1
  O  O364  1  0.28617439  0.58434824  0.19190928  1
  O  O365  1  0.28740327  0.58340797  0.44133472  1
  O  O366  1  0.28733354  0.58399843  0.69350312  1
  O  O367  1  0.28662525  0.58376993  0.94399896  1
  O  O368  1  0.28734694  0.91722548  0.19073308  1
  O  O369  1  0.28677273  0.91741306  0.44210062  1
  O  O370  1  0.28664395  0.91775972  0.69260079  1
  O  O371  1  0.28678647  0.91805460  0.94223088  1
  O  O372  1  0.78671111  0.24973726  0.19363422  1
  O  O373  1  0.78667967  0.25181854  0.44156136  1
  O  O374  1  0.78804881  0.25123937  0.69081243  1
  O  O375  1  0.78861619  0.25023246  0.94157645  1
  O  O376  1  0.78693371  0.58335012  0.19441174  1
  O  O377  1  0.78640174  0.58316724  0.44216650  1
  O  O378  1  0.78656947  0.58169675  0.69199783  1
  O  O379  1  0.78778429  0.58273971  0.94170463  1
  O  O380  1  0.78729972  0.91767182  0.19179817  1
  O  O381  1  0.78647757  0.91675514  0.44359720  1
  O  O382  1  0.78613477  0.91761833  0.69150951  1
  O  O383  1  0.78710755  0.91872044  0.94250198  1
  O  O384  1  0.22758003  0.24972749  0.05947172  1
  O  O385  1  0.22723171  0.24985560  0.30885147  1
  O  O386  1  0.22875532  0.24903641  0.55646186  1
  O  O387  1  0.22800972  0.24745939  0.80873706  1
  O  O388  1  0.22701157  0.58362262  0.05950888  1
  O  O389  1  0.22777368  0.58445317  0.30819539  1
  O  O390  1  0.22830860  0.58278392  0.55666401  1
  O  O391  1  0.22794078  0.58485525  0.80887908  1
  O  O392  1  0.22795744  0.91808911  0.05803604  1
  O  O393  1  0.22819736  0.91668003  0.30592283  1
  O  O394  1  0.22734871  0.91819131  0.55755667  1
  O  O395  1  0.22787964  0.91744283  0.80844715  1
  O  O396  1  0.72889276  0.24979085  0.05638127  1
  O  O397  1  0.72737934  0.25000291  0.30953147  1
  O  O398  1  0.72845240  0.25218119  0.55781961  1
  O  O399  1  0.72899684  0.25046026  0.80619863  1
  O  O400  1  0.72855497  0.58337442  0.05689567  1
  O  O401  1  0.72693896  0.58427546  0.30979371  1
  O  O402  1  0.72784934  0.58225723  0.55815428  1
  O  O403  1  0.72770778  0.58178083  0.80781756  1
  O  O404  1  0.72800498  0.91893540  0.05820942  1
  O  O405  1  0.72842985  0.91702644  0.30714376  1
  O  O406  1  0.72694368  0.91724516  0.55909705  1
  O  O407  1  0.72761515  0.91889980  0.80769493  1
  O  O408  1  0.27270255  0.08327288  0.19039610  1
  O  O409  1  0.27158684  0.08505146  0.44119175  1
  O  O410  1  0.27226587  0.08095330  0.69180293  1
  O  O411  1  0.27260567  0.08321784  0.94083301  1
  O  O412  1  0.27325912  0.41540251  0.19082505  1
  O  O413  1  0.27180878  0.41468378  0.44127423  1
  O  O414  1  0.27176836  0.41610743  0.69365921  1
  O  O415  1  0.27166385  0.41617880  0.94398460  1
  O  O416  1  0.27191446  0.74835966  0.19195136  1
  O  O417  1  0.27186913  0.74822626  0.44154791  1
  O  O418  1  0.27137970  0.75027145  0.69352633  1
  O  O419  1  0.27209082  0.74826385  0.94262742  1
  O  O420  1  0.77231364  0.08182468  0.19222230  1
  O  O421  1  0.77208906  0.08545100  0.44199357  1
  O  O422  1  0.77222506  0.08225596  0.69117650  1
  O  O423  1  0.77223337  0.08162028  0.94139125  1
  O  O424  1  0.77192473  0.41650677  0.19394646  1
  O  O425  1  0.77273212  0.41618428  0.44090147  1
  O  O426  1  0.77272161  0.41720775  0.69010723  1
  O  O427  1  0.77209256  0.41868019  0.94196901  1
  O  O428  1  0.77173514  0.75037568  0.19384088  1
  O  O429  1  0.77227249  0.74877714  0.44255167  1
  O  O430  1  0.77179633  0.75141570  0.69198190  1
  O  O431  1  0.77127706  0.75057550  0.94312114  1
  O  O432  1  0.02262191  0.08266415  0.18240926  1
  O  O433  1  0.02186032  0.08266614  0.43116336  1
  O  O434  1  0.02239287  0.08424526  0.68290345  1
  O  O435  1  0.02189892  0.08298073  0.93158823  1
  O  O436  1  0.02263396  0.41723868  0.18429387  1
  O  O437  1  0.02269810  0.41929457  0.43324075  1
  O  O438  1  0.02233833  0.41842831  0.68363676  1
  O  O439  1  0.02278126  0.41611428  0.93495964  1
  O  O440  1  0.02169030  0.75080268  0.18311462  1
  O  O441  1  0.02190455  0.75115593  0.43302151  1
  O  O442  1  0.02255677  0.74955108  0.68436422  1
  O  O443  1  0.02162605  0.75078705  0.93336744  1
  O  O444  1  0.52289647  0.08260247  0.18455730  1
  O  O445  1  0.52209533  0.08070032  0.43270266  1
  O  O446  1  0.52270536  0.08264893  0.68423723  1
  O  O447  1  0.52182292  0.08249224  0.93205658  1
  O  O448  1  0.52189486  0.41839319  0.18318045  1
  O  O449  1  0.52176823  0.41745798  0.43135139  1
  O  O450  1  0.52139133  0.41692717  0.68143474  1
  O  O451  1  0.52133896  0.41722074  0.93179254  1
  O  O452  1  0.52262542  0.75131687  0.18490434  1
  O  O453  1  0.52260468  0.75020586  0.43406955  1
  O  O454  1  0.52119218  0.75124033  0.68142970  1
  O  O455  1  0.52255150  0.75085420  0.93522555  1
  O  O456  1  0.47840260  0.24980619  0.06876582  1
  O  O457  1  0.47797271  0.24827725  0.31687136  1
  O  O458  1  0.47866719  0.24930272  0.56791463  1
  O  O459  1  0.47825388  0.24801087  0.81677774  1
  O  O460  1  0.47755550  0.58570006  0.06762267  1
  O  O461  1  0.47684073  0.58384143  0.31575074  1
  O  O462  1  0.47802616  0.58598483  0.56652726  1
  O  O463  1  0.47817218  0.58433639  0.81861918  1
  O  O464  1  0.47779460  0.91481582  0.06755160  1
  O  O465  1  0.47742967  0.91618705  0.31567435  1
  O  O466  1  0.47675019  0.91756218  0.56532555  1
  O  O467  1  0.47786933  0.91857047  0.81695678  1
  O  O468  1  0.97768192  0.25167332  0.06693786  1
  O  O469  1  0.97790069  0.25137585  0.31676587  1
  O  O470  1  0.97902755  0.25057564  0.56799699  1
  O  O471  1  0.97838402  0.24853471  0.81667189  1
  O  O472  1  0.97730126  0.58171669  0.06720890  1
  O  O473  1  0.97772598  0.58209255  0.31713539  1
  O  O474  1  0.97808423  0.58196212  0.56703621  1
  O  O475  1  0.97688954  0.58225621  0.81606635  1
  O  O476  1  0.97807642  0.91430006  0.06634089  1
  O  O477  1  0.97726878  0.91589552  0.31536488  1
  O  O478  1  0.97759712  0.91457563  0.56676140  1
  O  O479  1  0.97827324  0.91469509  0.81647405  1
  O  O480  1  0.07282198  0.31489974  0.07423790  1
  O  O481  1  0.07261972  0.31546943  0.32329962  1
  O  O482  1  0.07446856  0.31366205  0.57608347  1
  O  O483  1  0.07374034  0.31235917  0.82510768  1
  O  O484  1  0.07249941  0.64538358  0.07514747  1
  O  O485  1  0.07279558  0.64611155  0.32462048  1
  O  O486  1  0.07309137  0.64592981  0.57530368  1
  O  O487  1  0.07098638  0.64682191  0.82381157  1
  O  O488  1  0.07326861  0.97825432  0.07421529  1
  O  O489  1  0.07183420  0.97993875  0.32263911  1
  O  O490  1  0.07284896  0.97833960  0.57464909  1
  O  O491  1  0.07372621  0.97798519  0.82479490  1
  O  O492  1  0.57369725  0.31342322  0.07621905  1
  O  O493  1  0.57328615  0.31210283  0.32491464  1
  O  O494  1  0.57386005  0.31294301  0.57510552  1
  O  O495  1  0.57340016  0.31240777  0.82425266  1
  O  O496  1  0.57277787  0.64863212  0.07549841  1
  O  O497  1  0.57150293  0.64808786  0.32334841  1
  O  O498  1  0.57342013  0.64883199  0.57332938  1
  O  O499  1  0.57363588  0.64808364  0.82533483  1
  O  O500  1  0.57269440  0.97913451  0.07568009  1
  O  O501  1  0.57249797  0.97970237  0.32374460  1
  O  O502  1  0.57220762  0.98068783  0.57269110  1
  O  O503  1  0.57332785  0.98088644  0.82413274  1
  O  O504  1  0.42777797  0.01896027  0.17664300  1
  O  O505  1  0.42652689  0.01833157  0.42491832  1
  O  O506  1  0.42745694  0.01928250  0.67654820  1
  O  O507  1  0.42616054  0.01969141  0.92481344  1
  O  O508  1  0.42641181  0.35487352  0.17540512  1
  O  O509  1  0.42691846  0.35318133  0.42326560  1
  O  O510  1  0.42564301  0.35377687  0.67449369  1
  O  O511  1  0.42631726  0.35288425  0.92526221  1
  O  O512  1  0.42831527  0.68683165  0.17734030  1
  O  O513  1  0.42745460  0.68693011  0.42573559  1
  O  O514  1  0.42593929  0.68749385  0.67493877  1
  O  O515  1  0.42769297  0.68707036  0.92783939  1
  O  O516  1  0.92839818  0.01795871  0.17590866  1
  O  O517  1  0.92585039  0.02014732  0.42445320  1
  O  O518  1  0.92705474  0.02055798  0.67464848  1
  O  O519  1  0.92678250  0.01927329  0.92340272  1
  O  O520  1  0.92788831  0.35324822  0.17724814  1
  O  O521  1  0.92770606  0.35498652  0.42560477  1
  O  O522  1  0.92726878  0.35458842  0.67510830  1
  O  O523  1  0.92778036  0.35285346  0.92632918  1
  O  O524  1  0.92639024  0.68727047  0.17525311  1
  O  O525  1  0.92654429  0.68772527  0.42553788  1
  O  O526  1  0.92794580  0.68573672  0.67678328  1
  O  O527  1  0.92635157  0.68717103  0.92477033  1
  O  O528  1  0.17765403  0.01977508  0.19827346  1
  O  O529  1  0.17619942  0.02085215  0.44812689  1
  O  O530  1  0.17710582  0.01794981  0.69893421  1
  O  O531  1  0.17771213  0.01922903  0.94871969  1
  O  O532  1  0.17761738  0.35262798  0.19856141  1
  O  O533  1  0.17666246  0.35150676  0.44830937  1
  O  O534  1  0.17651448  0.35237205  0.70078793  1
  O  O535  1  0.17638515  0.35268414  0.95169215  1
  O  O536  1  0.17652648  0.68496990  0.19909658  1
  O  O537  1  0.17654502  0.68519769  0.44915883  1
  O  O538  1  0.17605501  0.68629935  0.70051882  1
  O  O539  1  0.17683518  0.68489879  0.94959333  1
  O  O540  1  0.67700490  0.01914997  0.19990916  1
  O  O541  1  0.67681039  0.02126795  0.44970503  1
  O  O542  1  0.67679570  0.01939842  0.69823263  1
  O  O543  1  0.67677400  0.01870193  0.94859006  1
  O  O544  1  0.67638721  0.35331034  0.20063718  1
  O  O545  1  0.67705843  0.35357657  0.44860434  1
  O  O546  1  0.67805489  0.35319965  0.69809309  1
  O  O547  1  0.67695940  0.35425834  0.94892386  1
  O  O548  1  0.67658126  0.68622558  0.20065246  1
  O  O549  1  0.67711028  0.68586643  0.45018052  1
  O  O550  1  0.67623625  0.68795138  0.69988138  1
  O  O551  1  0.67597139  0.68708875  0.95011784  1
  O  O552  1  0.32285073  0.31291928  0.05148289  1
  O  O553  1  0.32238491  0.31327430  0.30072443  1
  O  O554  1  0.32397223  0.31283794  0.54958967  1
  O  O555  1  0.32317178  0.31152941  0.80117483  1
  O  O556  1  0.32251032  0.64694608  0.05246983  1
  O  O557  1  0.32269747  0.64785096  0.30060476  1
  O  O558  1  0.32372450  0.64647305  0.54979157  1
  O  O559  1  0.32318279  0.64807891  0.80185810  1
  O  O560  1  0.32316031  0.98148913  0.05081896  1
  O  O561  1  0.32358093  0.98040956  0.29911705  1
  O  O562  1  0.32241808  0.98154186  0.55033881  1
  O  O563  1  0.32288018  0.98117647  0.80131359  1
  O  O564  1  0.82402930  0.31371711  0.05019012  1
  O  O565  1  0.82241420  0.31369650  0.30162590  1
  O  O566  1  0.82340062  0.31558225  0.55011545  1
  O  O567  1  0.82459241  0.31380655  0.79936974  1
  O  O568  1  0.82393132  0.64686396  0.04974536  1
  O  O569  1  0.82258708  0.64703950  0.30249870  1
  O  O570  1  0.82339343  0.64564214  0.55065258  1
  O  O571  1  0.82269646  0.64594169  0.79936309  1
  O  O572  1  0.82355862  0.98167450  0.05136998  1
  O  O573  1  0.82392985  0.98053648  0.30023794  1
  O  O574  1  0.82220478  0.98079991  0.55123250  1
  O  O575  1  0.82314694  0.98139368  0.79982032  1
  O  O576  1  0.42795582  0.14651218  0.17714241  1
  O  O577  1  0.42725404  0.14519901  0.42463602  1
  O  O578  1  0.42813633  0.14674706  0.67617337  1
  O  O579  1  0.42661654  0.14629116  0.92497687  1
  O  O580  1  0.42701059  0.48219232  0.17587597  1
  O  O581  1  0.42576537  0.48018212  0.42407532  1
  O  O582  1  0.42616720  0.48086661  0.67462665  1
  O  O583  1  0.42539625  0.47991156  0.92512317  1
  O  O584  1  0.42700988  0.81387121  0.17680869  1
  O  O585  1  0.42795557  0.81419324  0.42632294  1
  O  O586  1  0.42558985  0.81414615  0.67423877  1
  O  O587  1  0.42755209  0.81456745  0.92765316  1
  O  O588  1  0.92649025  0.14525036  0.17466161  1
  O  O589  1  0.92699949  0.14704733  0.42342080  1
  O  O590  1  0.92749618  0.14798128  0.67545568  1
  O  O591  1  0.92618144  0.14613834  0.92444574  1
  O  O592  1  0.92724679  0.48039294  0.17680605  1
  O  O593  1  0.92727731  0.48194780  0.42582215  1
  O  O594  1  0.92700148  0.48160336  0.67663350  1
  O  O595  1  0.92817010  0.48028747  0.92701478  1
  O  O596  1  0.92661421  0.81435150  0.17587348  1
  O  O597  1  0.92685902  0.81479273  0.42638706  1
  O  O598  1  0.92737825  0.81316188  0.67658527  1
  O  O599  1  0.92663900  0.81421528  0.92532623  1
  O  O600  1  0.07282287  0.18772572  0.07538232  1
  O  O601  1  0.07365148  0.18826909  0.32403199  1
  O  O602  1  0.07435344  0.18668983  0.57440842  1
  O  O603  1  0.07322339  0.18514937  0.82459645  1
  O  O604  1  0.07246143  0.51831839  0.07428019  1
  O  O605  1  0.07318075  0.51907461  0.32353704  1
  O  O606  1  0.07341293  0.51903034  0.57473669  1
  O  O607  1  0.07249971  0.51942035  0.82442793  1
  O  O608  1  0.07319756  0.85118391  0.07431814  1
  O  O609  1  0.07265323  0.85255947  0.32309927  1
  O  O610  1  0.07277991  0.85119073  0.57356837  1
  O  O611  1  0.07321724  0.85087879  0.82372942  1
  O  O612  1  0.57413673  0.18646871  0.07532919  1
  O  O613  1  0.57304872  0.18477776  0.32407743  1
  O  O614  1  0.57428111  0.18597253  0.57490445  1
  O  O615  1  0.57356684  0.18510639  0.82392461  1
  O  O616  1  0.57279944  0.52165289  0.07554496  1
  O  O617  1  0.57203534  0.52064179  0.32386050  1
  O  O618  1  0.57316421  0.52164734  0.57375892  1
  O  O619  1  0.57364798  0.52116253  0.82529038  1
  O  O620  1  0.57314791  0.85217156  0.07543057  1
  O  O621  1  0.57246547  0.85257809  0.32426420  1
  O  O622  1  0.57121777  0.85346537  0.57270032  1
  O  O623  1  0.57279211  0.85388264  0.82394889  1
  O  O624  1  0.32254399  0.18569647  0.05238835  1
  O  O625  1  0.32197679  0.18599008  0.30063379  1
  O  O626  1  0.32440976  0.18612549  0.54888934  1
  O  O627  1  0.32307758  0.18424605  0.80169764  1
  O  O628  1  0.32167568  0.51960221  0.05236991  1
  O  O629  1  0.32311589  0.52082280  0.29934462  1
  O  O630  1  0.32367954  0.51949254  0.54926605  1
  O  O631  1  0.32320697  0.52083903  0.80157965  1
  O  O632  1  0.32310372  0.85430743  0.04973879  1
  O  O633  1  0.32367379  0.85356345  0.29877705  1
  O  O634  1  0.32258181  0.85426116  0.55015031  1
  O  O635  1  0.32335928  0.85419887  0.80029412  1
  O  O636  1  0.82452371  0.18668504  0.04970265  1
  O  O637  1  0.82229161  0.18618394  0.30172082  1
  O  O638  1  0.82391230  0.18860393  0.54921552  1
  O  O639  1  0.82420226  0.18686770  0.79844444  1
  O  O640  1  0.82408549  0.52004122  0.05059412  1
  O  O641  1  0.82129972  0.51953371  0.30285376  1
  O  O642  1  0.82279514  0.51872746  0.55011747  1
  O  O643  1  0.82294929  0.51869993  0.80077465  1
  O  O644  1  0.82289291  0.85450472  0.05002234  1
  O  O645  1  0.82379871  0.85376987  0.29968059  1
  O  O646  1  0.82173359  0.85315081  0.55188240  1
  O  O647  1  0.82253387  0.85448207  0.79976650  1
  O  O648  1  0.17766124  0.14717077  0.19739283  1
  O  O649  1  0.17637203  0.14787463  0.44843781  1
  O  O650  1  0.17705896  0.14486137  0.69968810  1
  O  O651  1  0.17751382  0.14648611  0.94905595  1
  O  O652  1  0.17904900  0.48005902  0.19878976  1
  O  O653  1  0.17658207  0.47863497  0.44900589  1
  O  O654  1  0.17639609  0.47953675  0.70050203  1
  O  O655  1  0.17624599  0.47946105  0.95188773  1
  O  O656  1  0.17669293  0.81200010  0.19973597  1
  O  O657  1  0.17680017  0.81252620  0.44892173  1
  O  O658  1  0.17587652  0.81310390  0.70080873  1
  O  O659  1  0.17691802  0.81210507  0.95078561  1
  O  O660  1  0.67724045  0.14623319  0.19923459  1
  O  O661  1  0.67702783  0.14847128  0.44947235  1
  O  O662  1  0.67727706  0.14647389  0.69977176  1
  O  O663  1  0.67728023  0.14585646  0.94953101  1
  O  O664  1  0.67661626  0.48014146  0.20125253  1
  O  O665  1  0.67839890  0.48074193  0.44833905  1
  O  O666  1  0.67730226  0.48053994  0.69760387  1
  O  O667  1  0.67664167  0.48147902  0.94862917  1
  O  O668  1  0.67613664  0.81313518  0.20148518  1
  O  O669  1  0.67705308  0.81303397  0.45017173  1
  O  O670  1  0.67686502  0.81520577  0.69879841  1
  O  O671  1  0.67590091  0.81412087  0.95054109  1
