# generated using pymatgen
data_Na2MnFe(PO4)2
_symmetry_space_group_name_H-M   'P 1'
_cell_length_a   22.34500066
_cell_length_b   20.09850730
_cell_length_c   19.44774100
_cell_angle_alpha   90.02849813
_cell_angle_beta   90.07154093
_cell_angle_gamma   90.01861938
_symmetry_Int_Tables_number   1
_chemical_formula_structural   Na2MnFe(PO4)2
_chemical_formula_sum   'Na96 Mn48 Fe48 P96 O384'
_cell_volume   8733.99466914
_cell_formula_units_Z   48
loop_
 _symmetry_equiv_pos_site_id
 _symmetry_equiv_pos_as_xyz
  1  'x, y, z'
loop_
 _atom_site_type_symbol
 _atom_site_label
 _atom_site_symmetry_multiplicity
 _atom_site_fract_x
 _atom_site_fract_y
 _atom_site_fract_z
 _atom_site_occupancy
  Na  Na0  1  0.13978557  0.24914397  0.24296023  1
  Na  Na1  1  0.13981067  0.25096000  0.49285420  1
  Na  Na2  1  0.14017833  0.25076801  0.74142697  1
  Na  Na3  1  0.13968839  0.25080352  0.99318016  1
  Na  Na4  1  0.13976121  0.58260286  0.24365004  1
  Na  Na5  1  0.13987360  0.58278790  0.49275804  1
  Na  Na6  1  0.13998810  0.58297553  0.74325018  1
  Na  Na7  1  0.13953481  0.58356850  0.99271858  1
  Na  Na8  1  0.14030615  0.91594234  0.24423985  1
  Na  Na9  1  0.14066371  0.91718249  0.49290233  1
  Na  Na10  1  0.14063070  0.91679680  0.74361041  1
  Na  Na11  1  0.14051264  0.91598028  0.99384196  1
  Na  Na12  1  0.63997982  0.24925583  0.24570255  1
  Na  Na13  1  0.63975243  0.24851894  0.49312866  1
  Na  Na14  1  0.63948370  0.24974005  0.74315284  1
  Na  Na15  1  0.63989909  0.24963529  0.99381162  1
  Na  Na16  1  0.63999542  0.58506008  0.24356592  1
  Na  Na17  1  0.64024819  0.58250776  0.49360120  1
  Na  Na18  1  0.64005566  0.58275554  0.74492431  1
  Na  Na19  1  0.63946281  0.58404934  0.99444010  1
  Na  Na20  1  0.64071833  0.91707847  0.24420734  1
  Na  Na21  1  0.64028099  0.91627670  0.49289045  1
  Na  Na22  1  0.64046355  0.91730981  0.74439735  1
  Na  Na23  1  0.64051831  0.91667598  0.99531825  1
  Na  Na24  1  0.36015312  0.08383583  0.00697822  1
  Na  Na25  1  0.35979506  0.08329727  0.25604378  1
  Na  Na26  1  0.35947327  0.08503784  0.50689592  1
  Na  Na27  1  0.35953247  0.08358054  0.75593368  1
  Na  Na28  1  0.35963309  0.41687466  0.00644689  1
  Na  Na29  1  0.35855833  0.41632737  0.25588050  1
  Na  Na30  1  0.35930011  0.41601836  0.50696598  1
  Na  Na31  1  0.35996051  0.41725798  0.75576605  1
  Na  Na32  1  0.35929736  0.74938661  0.00647252  1
  Na  Na33  1  0.35978993  0.74872157  0.25661496  1
  Na  Na34  1  0.35983485  0.74993282  0.50639920  1
  Na  Na35  1  0.35934529  0.74984450  0.75655184  1
  Na  Na36  1  0.86024683  0.08354475  0.00689145  1
  Na  Na37  1  0.86031014  0.08431044  0.25772001  1
  Na  Na38  1  0.86032954  0.08318413  0.50549392  1
  Na  Na39  1  0.86030184  0.08408878  0.75453756  1
  Na  Na40  1  0.86024073  0.41764615  0.00674345  1
  Na  Na41  1  0.85926973  0.41711878  0.25672643  1
  Na  Na42  1  0.86006202  0.41513564  0.50653513  1
  Na  Na43  1  0.86084408  0.41667103  0.75647643  1
  Na  Na44  1  0.86067565  0.75013551  0.00799665  1
  Na  Na45  1  0.86065315  0.75090047  0.25667162  1
  Na  Na46  1  0.86040521  0.74934466  0.50562111  1
  Na  Na47  1  0.86022676  0.75021586  0.75568470  1
  Na  Na48  1  0.10916422  0.08345183  0.11855060  1
  Na  Na49  1  0.11005365  0.08313636  0.36869052  1
  Na  Na50  1  0.11001002  0.08351371  0.61605576  1
  Na  Na51  1  0.10953885  0.08490817  0.86841286  1
  Na  Na52  1  0.10909855  0.41669846  0.11740410  1
  Na  Na53  1  0.10958326  0.41710640  0.36822308  1
  Na  Na54  1  0.10940395  0.41725638  0.61700428  1
  Na  Na55  1  0.10932437  0.41691366  0.86888309  1
  Na  Na56  1  0.10940405  0.74901105  0.11866351  1
  Na  Na57  1  0.10967239  0.74941078  0.36885809  1
  Na  Na58  1  0.10954595  0.74973712  0.61804748  1
  Na  Na59  1  0.11007262  0.74915540  0.86888572  1
  Na  Na60  1  0.60945078  0.08356024  0.12034411  1
  Na  Na61  1  0.60967661  0.08388139  0.36890662  1
  Na  Na62  1  0.60947392  0.08439302  0.61788738  1
  Na  Na63  1  0.60932350  0.08405346  0.86955152  1
  Na  Na64  1  0.60897523  0.41647193  0.11930629  1
  Na  Na65  1  0.60911195  0.41538276  0.36894093  1
  Na  Na66  1  0.60918106  0.41536131  0.61905363  1
  Na  Na67  1  0.60858212  0.41604644  0.86914830  1
  Na  Na68  1  0.60976378  0.74961324  0.11841833  1
  Na  Na69  1  0.60935621  0.75085756  0.36784273  1
  Na  Na70  1  0.60937864  0.74988670  0.61890522  1
  Na  Na71  1  0.60950414  0.74869147  0.87046530  1
  Na  Na72  1  0.39020775  0.24867802  0.13127991  1
  Na  Na73  1  0.38965665  0.24922597  0.38167789  1
  Na  Na74  1  0.38995091  0.25079743  0.63157617  1
  Na  Na75  1  0.39015912  0.25002047  0.88025552  1
  Na  Na76  1  0.38959869  0.58257694  0.13096544  1
  Na  Na77  1  0.38960063  0.58365680  0.38200797  1
  Na  Na78  1  0.39003420  0.58232578  0.63083639  1
  Na  Na79  1  0.39018545  0.58265743  0.88155708  1
  Na  Na80  1  0.39036196  0.91743881  0.13125668  1
  Na  Na81  1  0.39104315  0.91822477  0.38126531  1
  Na  Na82  1  0.39055327  0.91746729  0.63140523  1
  Na  Na83  1  0.39038213  0.91654962  0.88215073  1
  Na  Na84  1  0.89084699  0.25028473  0.13110515  1
  Na  Na85  1  0.89063879  0.24957972  0.38287566  1
  Na  Na86  1  0.89052619  0.25025490  0.63009598  1
  Na  Na87  1  0.89132430  0.25113866  0.88074412  1
  Na  Na88  1  0.89071647  0.58465176  0.13169386  1
  Na  Na89  1  0.89068437  0.58432637  0.38192579  1
  Na  Na90  1  0.89093849  0.58264308  0.63044918  1
  Na  Na91  1  0.89153981  0.58297473  0.88239020  1
  Na  Na92  1  0.89128331  0.91580768  0.13235355  1
  Na  Na93  1  0.89159901  0.91659859  0.38198031  1
  Na  Na94  1  0.89104181  0.91661930  0.62945350  1
  Na  Na95  1  0.89104084  0.91686344  0.88201432  1
  Mn  Mn96  1  0.50025520  0.66745608  0.50058112  1
  Mn  Mn97  1  0.49901552  0.33194114  0.24904786  1
  Mn  Mn98  1  0.49876956  0.50027879  0.24987290  1
  Mn  Mn99  1  0.24937988  0.16644207  0.12444160  1
  Mn  Mn100  1  0.74992489  0.33350774  0.12585392  1
  Mn  Mn101  1  0.24990846  0.16694931  0.87468034  1
  Mn  Mn102  1  0.74876347  0.50123848  0.12662958  1
  Mn  Mn103  1  0.00028733  0.00036815  0.00066632  1
  Mn  Mn104  1  0.75054904  0.00027290  0.87496403  1
  Mn  Mn105  1  0.24983296  0.33392891  0.87397213  1
  Mn  Mn106  1  0.00014665  0.16809841  0.74871858  1
  Mn  Mn107  1  0.75021063  0.50047028  0.87587077  1
  Mn  Mn108  1  0.00040026  -0.00018692  0.25016484  1
  Mn  Mn109  1  0.75051323  0.00068320  0.62410143  1
  Mn  Mn110  1  0.50005652  0.83288565  0.75120771  1
  Mn  Mn111  1  0.50019821  0.00068229  0.50045169  1
  Mn  Mn112  1  0.75005784  0.33345311  0.87501394  1
  Mn  Mn113  1  0.75054510  0.66716547  0.87545746  1
  Mn  Mn114  1  0.24938382  0.66566155  0.12538779  1
  Mn  Mn115  1  -0.00071188  0.50067029  0.24950567  1
  Mn  Mn116  1  0.75021363  0.16702888  0.12604780  1
  Mn  Mn117  1  0.24939395  -0.00013756  0.87462177  1
  Mn  Mn118  1  0.50059303  0.00082681  0.75049431  1
  Mn  Mn119  1  0.75049505  0.49933129  0.62451774  1
  Mn  Mn120  1  0.75016553  0.66626515  0.62519719  1
  Mn  Mn121  1  0.25102333  0.83285861  0.37509669  1
  Mn  Mn122  1  0.75019250  0.50001363  0.37507629  1
  Mn  Mn123  1  0.49975773  0.83397715  0.24925545  1
  Mn  Mn124  1  0.50010539  0.49900973  0.50012507  1
  Mn  Mn125  1  -0.00058615  0.33271741  0.24964916  1
  Mn  Mn126  1  0.24974601  0.33337764  0.37480967  1
  Mn  Mn127  1  0.24969972  0.83338736  0.12540402  1
  Mn  Mn128  1  0.75010584  -0.00023149  0.12595502  1
  Mn  Mn129  1  0.49940463  0.33256046  -0.00028609  1
  Mn  Mn130  1  0.24944010  0.83359530  0.62523036  1
  Mn  Mn131  1  0.49967872  0.83315226  0.00095244  1
  Mn  Mn132  1  0.24938131  0.66578009  0.62537183  1
  Mn  Mn133  1  0.74954434  0.33203978  0.62538683  1
  Mn  Mn134  1  0.25054843  0.00084869  0.37490341  1
  Mn  Mn135  1  0.75043843  0.83354491  0.87540005  1
  Mn  Mn136  1  0.75030540  0.16665112  0.87509001  1
  Mn  Mn137  1  0.74978067  0.83322264  0.62449035  1
  Mn  Mn138  1  0.00032555  0.83323999  0.74989378  1
  Mn  Mn139  1  0.00068487  0.00050699  0.74980246  1
  Mn  Mn140  1  -0.00050044  0.66564689  0.74952957  1
  Mn  Mn141  1  0.24889408  0.50042408  0.87496258  1
  Mn  Mn142  1  0.49910255  0.66538761  0.74945720  1
  Mn  Mn143  1  0.75033338  0.83284654  0.37472544  1
  Fe  Fe144  1  0.00038934  0.16678467  0.49989230  1
  Fe  Fe145  1  0.75073021  0.00003381  0.37482727  1
  Fe  Fe146  1  0.75100896  0.83365584  0.12583008  1
  Fe  Fe147  1  0.75052232  0.66759004  0.12533113  1
  Fe  Fe148  1  0.24990468  -0.00012954  0.12488490  1
  Fe  Fe149  1  0.25030364  0.66658401  0.87467605  1
  Fe  Fe150  1  0.00003234  0.16733409  -0.00050911  1
  Fe  Fe151  1  0.24954101  0.16703899  0.37466052  1
  Fe  Fe152  1  0.24967449  0.16690271  0.62427377  1
  Fe  Fe153  1  0.24942500  0.49921799  0.37467953  1
  Fe  Fe154  1  0.00070607  0.49951902  0.74979785  1
  Fe  Fe155  1  0.00070765  0.83289343  0.49967480  1
  Fe  Fe156  1  0.50026584  0.49922523  0.75038715  1
  Fe  Fe157  1  0.00029641  0.66662032  0.49979974  1
  Fe  Fe158  1  0.49919734  0.49962994  -0.00017000  1
  Fe  Fe159  1  0.74984687  0.66691918  0.37458686  1
  Fe  Fe160  1  0.24950483  0.66536603  0.37536250  1
  Fe  Fe161  1  0.25043465  0.50023872  0.62434685  1
  Fe  Fe162  1  0.00011726  0.16653487  0.25034995  1
  Fe  Fe163  1  0.00077328  0.33424079  0.74973547  1
  Fe  Fe164  1  -0.00023943  0.49985232  0.50000562  1
  Fe  Fe165  1  -0.00005154  0.33362233  -0.00044320  1
  Fe  Fe166  1  0.25044033  0.00027770  0.62498471  1
  Fe  Fe167  1  0.75000160  0.16629758  0.62409477  1
  Fe  Fe168  1  0.49938498  0.33269238  0.50009568  1
  Fe  Fe169  1  0.00031238  0.66660766  0.00013278  1
  Fe  Fe170  1  0.49953006  0.66672201  0.24973651  1
  Fe  Fe171  1  0.50001181  0.00068927  0.00073164  1
  Fe  Fe172  1  0.00010669  0.33366478  0.49963970  1
  Fe  Fe173  1  0.00042880  0.66686676  0.25024617  1
  Fe  Fe174  1  0.25064587  0.83353055  0.87495585  1
  Fe  Fe175  1  0.00075699  0.83283282  0.00081508  1
  Fe  Fe176  1  0.00084222  0.83262989  0.25090172  1
  Fe  Fe177  1  0.49917283  0.16722108  0.50002938  1
  Fe  Fe178  1  0.50018382  0.16635836  0.00025340  1
  Fe  Fe179  1  -0.00006080  0.50001868  -0.00033245  1
  Fe  Fe180  1  0.50004812  0.00080550  0.25068687  1
  Fe  Fe181  1  0.00079738  -0.00033052  0.49911528  1
  Fe  Fe182  1  0.24947808  0.33380114  0.62395055  1
  Fe  Fe183  1  0.24964931  0.33316321  0.12502258  1
  Fe  Fe184  1  0.49969048  0.83405680  0.49963123  1
  Fe  Fe185  1  0.49978313  0.33270962  0.75007319  1
  Fe  Fe186  1  0.49961028  0.16681202  0.75007125  1
  Fe  Fe187  1  0.75031743  0.16664046  0.37526898  1
  Fe  Fe188  1  0.74969370  0.33285404  0.37580381  1
  Fe  Fe189  1  0.49991054  0.16618288  0.25039033  1
  Fe  Fe190  1  0.49935320  0.66576000  -0.00029213  1
  Fe  Fe191  1  0.24946296  0.49982002  0.12494148  1
  P  P192  1  0.04128820  0.25009797  0.10139595  1
  P  P193  1  0.04191319  0.24876038  0.35302841  1
  P  P194  1  0.04153291  0.25088682  0.60114297  1
  P  P195  1  0.04262477  0.25211211  0.85229821  1
  P  P196  1  0.04102131  0.58350802  0.10155473  1
  P  P197  1  0.04159400  0.58453560  0.35304478  1
  P  P198  1  0.04148943  0.58294135  0.60131411  1
  P  P199  1  0.04217724  0.58181546  0.85272983  1
  P  P200  1  0.04244679  0.91505032  0.10330945  1
  P  P201  1  0.04246759  0.91530998  0.35335354  1
  P  P202  1  0.04200576  0.91640028  0.60095095  1
  P  P203  1  0.04302182  0.91665268  0.85370210  1
  P  P204  1  0.54210301  0.24812259  0.10281648  1
  P  P205  1  0.54121060  0.24864137  0.35322772  1
  P  P206  1  0.54091736  0.24999984  0.60222389  1
  P  P207  1  0.54117293  0.24939645  0.85190615  1
  P  P208  1  0.54054480  0.58315990  0.10185636  1
  P  P209  1  0.54162846  0.58463946  0.35224664  1
  P  P210  1  0.54275206  0.58236522  0.60348340  1
  P  P211  1  0.54146164  0.58169114  0.85331333  1
  P  P212  1  0.54181738  0.91852717  0.10331265  1
  P  P213  1  0.54223439  0.91814392  0.35265978  1
  P  P214  1  0.54244989  0.91577713  0.60250767  1
  P  P215  1  0.54266744  0.91722625  0.85450608  1
  P  P216  1  0.45847129  0.08329172  0.14808132  1
  P  P217  1  0.45769562  0.08469540  0.39739251  1
  P  P218  1  0.45785544  0.08513581  0.64740569  1
  P  P219  1  0.45830288  0.08383088  0.89843739  1
  P  P220  1  0.45659532  0.41650110  0.14618822  1
  P  P221  1  0.45711793  0.41488177  0.39763937  1
  P  P222  1  0.45870919  0.41597331  0.64838614  1
  P  P223  1  0.45748094  0.41724722  0.89685699  1
  P  P224  1  0.45761967  0.74834230  0.14700389  1
  P  P225  1  0.45775116  0.75160510  0.39716428  1
  P  P226  1  0.45677581  0.75044668  0.64668283  1
  P  P227  1  0.45738132  0.74849851  0.89807822  1
  P  P228  1  0.95805704  0.08477668  0.14757290  1
  P  P229  1  0.95956511  0.08365940  0.39799728  1
  P  P230  1  0.95846616  0.08359977  0.64518429  1
  P  P231  1  0.95803111  0.08497061  0.89750692  1
  P  P232  1  0.95717059  0.41662926  0.14609467  1
  P  P233  1  0.95867125  0.41691750  0.39824290  1
  P  P234  1  0.95893800  0.41667895  0.64747938  1
  P  P235  1  0.95898145  0.41675992  0.89767655  1
  P  P236  1  0.95943549  0.74998498  0.14830567  1
  P  P237  1  0.95925993  0.74997241  0.39783866  1
  P  P238  1  0.95789437  0.74972613  0.64580346  1
  P  P239  1  0.95904453  0.75001894  0.89887767  1
  P  P240  1  0.20745959  0.08211126  0.22739812  1
  P  P241  1  0.20821780  0.08550636  0.47794923  1
  P  P242  1  0.20819501  0.08348262  0.72587061  1
  P  P243  1  0.20711001  0.08322369  0.97820020  1
  P  P244  1  0.20779049  0.41667788  0.22641729  1
  P  P245  1  0.20780684  0.41776133  0.47779498  1
  P  P246  1  0.20845796  0.41742176  0.72549352  1
  P  P247  1  0.20722091  0.41656117  0.97865871  1
  P  P248  1  0.20739315  0.74904407  0.22888236  1
  P  P249  1  0.20813703  0.74865774  0.47732237  1
  P  P250  1  0.20709671  0.74989263  0.72897764  1
  P  P251  1  0.20895851  0.74981887  0.97637133  1
  P  P252  1  0.70788462  0.08348321  0.22991823  1
  P  P253  1  0.70888239  0.08322379  0.47634066  1
  P  P254  1  0.70746352  0.08462834  0.72681598  1
  P  P255  1  0.70736823  0.08307147  0.97863580  1
  P  P256  1  0.70659940  0.41636235  0.22961392  1
  P  P257  1  0.70738700  0.41505642  0.47752527  1
  P  P258  1  0.70719819  0.41654875  0.72826318  1
  P  P259  1  0.70672973  0.41706113  0.97878673  1
  P  P260  1  0.70881156  0.75046572  0.22697447  1
  P  P261  1  0.70731086  0.74848328  0.47699100  1
  P  P262  1  0.70694479  0.75005479  0.72829112  1
  P  P263  1  0.70784391  0.75040006  0.97975303  1
  P  P264  1  0.29211271  0.25129452  0.02247168  1
  P  P265  1  0.29151411  0.24914235  0.27197083  1
  P  P266  1  0.29087284  0.25010405  0.52283141  1
  P  P267  1  0.29190541  0.25013662  0.77013965  1
  P  P268  1  0.29131945  0.58221187  0.02228592  1
  P  P269  1  0.29091827  0.58202551  0.27333185  1
  P  P270  1  0.29186454  0.58203077  0.52147092  1
  P  P271  1  0.29219395  0.58396373  0.77226766  1
  P  P272  1  0.29219712  0.91743423  0.02228380  1
  P  P273  1  0.29303522  0.91692028  0.27155878  1
  P  P274  1  0.29236731  0.91809973  0.52276031  1
  P  P275  1  0.29250044  0.91591983  0.77234856  1
  P  P276  1  0.79311088  0.25033126  0.02233051  1
  P  P277  1  0.79204227  0.25034796  0.27431980  1
  P  P278  1  0.79181376  0.24830929  0.52142849  1
  P  P279  1  0.79300121  0.24957857  0.77125008  1
  P  P280  1  0.79222549  0.58461003  0.02367232  1
  P  P281  1  0.79211367  0.58538937  0.27235864  1
  P  P282  1  0.79303023  0.58325538  0.52103457  1
  P  P283  1  0.79380555  0.58332163  0.77221197  1
  P  P284  1  0.79326830  0.91563548  0.02338798  1
  P  P285  1  0.79294648  0.91750515  0.27266897  1
  P  P286  1  0.79283784  0.91672420  0.52075680  1
  P  P287  1  0.79358501  0.91711709  0.77166533  1
  O  O288  1  0.03617830  0.24953280  0.18136138  1
  O  O289  1  0.03657121  0.24902616  0.43287916  1
  O  O290  1  0.03685911  0.25179973  0.68108854  1
  O  O291  1  0.03718117  0.25176005  0.93213604  1
  O  O292  1  0.03648734  0.58388666  0.18152033  1
  O  O293  1  0.03634301  0.58429953  0.43286819  1
  O  O294  1  0.03672369  0.58210719  0.68127583  1
  O  O295  1  0.03697759  0.58217422  0.93257968  1
  O  O296  1  0.03694414  0.91492870  0.18325370  1
  O  O297  1  0.03709040  0.91556952  0.43322942  1
  O  O298  1  0.03722743  0.91687071  0.68096877  1
  O  O299  1  0.03785185  0.91648860  0.93367661  1
  O  O300  1  0.53674531  0.24793786  0.18274223  1
  O  O301  1  0.53570169  0.24928504  0.43309274  1
  O  O302  1  0.53594302  0.24995153  0.68213075  1
  O  O303  1  0.53634143  0.24928138  0.93185484  1
  O  O304  1  0.53538392  0.58379919  0.18182450  1
  O  O305  1  0.53699392  0.58461141  0.43221998  1
  O  O306  1  0.53749450  0.58167473  0.68341300  1
  O  O307  1  0.53566460  0.58206481  0.93319417  1
  O  O308  1  0.53639349  0.91873104  0.18324821  1
  O  O309  1  0.53709685  0.91725430  0.43261429  1
  O  O310  1  0.53748539  0.91605152  0.68250152  1
  O  O311  1  0.53707566  0.91788826  0.93443208  1
  O  O312  1  0.46380721  0.08317330  0.06818553  1
  O  O313  1  0.46302946  0.08422412  0.31752693  1
  O  O314  1  0.46292063  0.08501461  0.56747061  1
  O  O315  1  0.46343671  0.08401227  0.81846449  1
  O  O316  1  0.46200572  0.41704730  0.06628572  1
  O  O317  1  0.46186874  0.41511998  0.31767228  1
  O  O318  1  0.46360554  0.41508060  0.56842265  1
  O  O319  1  0.46298839  0.41720796  0.81701129  1
  O  O320  1  0.46291108  0.74795457  0.06708143  1
  O  O321  1  0.46295066  0.75106680  0.31719008  1
  O  O322  1  0.46207267  0.75126079  0.56671018  1
  O  O323  1  0.46235581  0.74871547  0.81811622  1
  O  O324  1  0.96337172  0.08499016  0.06763836  1
  O  O325  1  0.96429575  0.08358733  0.31799833  1
  O  O326  1  0.96405553  0.08341025  0.56529995  1
  O  O327  1  0.96324767  0.08472817  0.81751394  1
  O  O328  1  0.96243131  0.41634627  0.06623999  1
  O  O329  1  0.96288936  0.41658877  0.31825364  1
  O  O330  1  0.96414652  0.41659895  0.56758291  1
  O  O331  1  0.96424507  0.41721884  0.81779320  1
  O  O332  1  0.96453251  0.75003964  0.06841692  1
  O  O333  1  0.96469144  0.75013783  0.31795417  1
  O  O334  1  0.96355308  0.74965212  0.56594682  1
  O  O335  1  0.96355327  0.74968680  0.81887741  1
  O  O336  1  0.21221877  0.08271543  0.05816572  1
  O  O337  1  0.21284346  0.08300128  0.30733620  1
  O  O338  1  0.21359914  0.08538311  0.55783627  1
  O  O339  1  0.21302092  0.08347560  0.80592428  1
  O  O340  1  0.21242515  0.41634130  0.05856152  1
  O  O341  1  0.21304090  0.41710895  0.30642849  1
  O  O342  1  0.21325496  0.41766460  0.55762705  1
  O  O343  1  0.21294653  0.41705453  0.80551061  1
  O  O344  1  0.21380774  0.74985687  0.05641621  1
  O  O345  1  0.21294771  0.74838303  0.30876260  1
  O  O346  1  0.21268300  0.74895370  0.55734576  1
  O  O347  1  0.21274654  0.75002341  0.80888172  1
  O  O348  1  0.71224676  0.08317397  0.05865079  1
  O  O349  1  0.71344145  0.08340564  0.30982057  1
  O  O350  1  0.71388045  0.08395001  0.55633352  1
  O  O351  1  0.71237721  0.08427574  0.80681747  1
  O  O352  1  0.71141552  0.41711318  0.05885488  1
  O  O353  1  0.71205831  0.41580510  0.30957363  1
  O  O354  1  0.71256917  0.41515111  0.55750800  1
  O  O355  1  0.71213092  0.41669628  0.80826559  1
  O  O356  1  0.71323967  0.75040450  0.05973093  1
  O  O357  1  0.71358947  0.74975208  0.30700885  1
  O  O358  1  0.71220322  0.74887056  0.55697067  1
  O  O359  1  0.71212297  0.75028741  0.80831033  1
  O  O360  1  0.28614343  0.24985614  0.19205759  1
  O  O361  1  0.28625290  0.24992720  0.44279930  1
  O  O362  1  0.28630072  0.24993097  0.69023803  1
  O  O363  1  0.28721990  0.25094616  0.94244256  1
  O  O364  1  0.28597857  0.58164206  0.19333317  1
  O  O365  1  0.28634803  0.58220921  0.44158303  1
  O  O366  1  0.28718078  0.58324732  0.69229691  1
  O  O367  1  0.28618190  0.58328921  0.94235743  1
  O  O368  1  0.28758278  0.91732452  0.19161898  1
  O  O369  1  0.28735291  0.91794203  0.44277715  1
  O  O370  1  0.28737937  0.91652773  0.69239873  1
  O  O371  1  0.28679230  0.91658134  0.94231929  1
  O  O372  1  0.78727384  0.25033005  0.19429218  1
  O  O373  1  0.78630532  0.24891126  0.44151700  1
  O  O374  1  0.78778433  0.24889513  0.69122408  1
  O  O375  1  0.78819484  0.25031182  0.94232157  1
  O  O376  1  0.78655230  0.58569716  0.19243060  1
  O  O377  1  0.78763514  0.58380525  0.44106393  1
  O  O378  1  0.78893607  0.58297956  0.69216802  1
  O  O379  1  0.78773154  0.58428860  0.94363987  1
  O  O380  1  0.78762787  0.91668573  0.19271552  1
  O  O381  1  0.78759020  0.91705922  0.44080300  1
  O  O382  1  0.78836439  0.91700655  0.69164837  1
  O  O383  1  0.78845589  0.91583741  0.94336005  1
  O  O384  1  0.22772154  0.25142147  0.05767616  1
  O  O385  1  0.22735462  0.24904308  0.30787386  1
  O  O386  1  0.22668775  0.24976869  0.55841593  1
  O  O387  1  0.22778064  0.25006495  0.80604974  1
  O  O388  1  0.22705869  0.58140823  0.05793455  1
  O  O389  1  0.22673193  0.58178542  0.30916694  1
  O  O390  1  0.22774058  0.58134600  0.55761379  1
  O  O391  1  0.22784122  0.58509831  0.80768482  1
  O  O392  1  0.22798840  0.91812293  0.05818122  1
  O  O393  1  0.22883061  0.91659577  0.30703717  1
  O  O394  1  0.22799278  0.91866627  0.55804224  1
  O  O395  1  0.22817178  0.91520783  0.80778550  1
  O  O396  1  0.72854718  0.25010732  0.05699690  1
  O  O397  1  0.72768937  0.25023941  0.30963785  1
  O  O398  1  0.72768546  0.24773593  0.55753257  1
  O  O399  1  0.72856779  0.24978039  0.80628318  1
  O  O400  1  0.72773105  0.58537646  0.05858598  1
  O  O401  1  0.72788262  0.58480332  0.30806916  1
  O  O402  1  0.72869926  0.58291185  0.55633092  1
  O  O403  1  0.72920226  0.58359786  0.80680726  1
  O  O404  1  0.72883570  0.91508480  0.05855496  1
  O  O405  1  0.72868374  0.91797762  0.30822061  1
  O  O406  1  0.72851765  0.91691490  0.55605039  1
  O  O407  1  0.72909137  0.91699521  0.80659596  1
  O  O408  1  0.27165588  0.08177454  0.19155591  1
  O  O409  1  0.27232746  0.08590396  0.44184552  1
  O  O410  1  0.27248388  0.08344114  0.69035184  1
  O  O411  1  0.27147850  0.08322538  0.94306025  1
  O  O412  1  0.27188992  0.41669195  0.19031929  1
  O  O413  1  0.27189249  0.41797054  0.44163936  1
  O  O414  1  0.27275205  0.41768015  0.69008444  1
  O  O415  1  0.27141577  0.41703689  0.94298672  1
  O  O416  1  0.27156053  0.74933741  0.19327281  1
  O  O417  1  0.27249251  0.74837653  0.44223701  1
  O  O418  1  0.27125842  0.74975210  0.69321512  1
  O  O419  1  0.27309258  0.74942677  0.94052788  1
  O  O420  1  0.77206748  0.08345532  0.19420410  1
  O  O421  1  0.77307481  0.08300199  0.44053091  1
  O  O422  1  0.77193416  0.08520748  0.69163044  1
  O  O423  1  0.77191725  0.08330970  0.94389672  1
  O  O424  1  0.77092440  0.41719342  0.19438872  1
  O  O425  1  0.77178530  0.41505862  0.44227774  1
  O  O426  1  0.77167507  0.41599738  0.69340100  1
  O  O427  1  0.77134382  0.41671575  0.94423177  1
  O  O428  1  0.77312669  0.75078623  0.19142281  1
  O  O429  1  0.77181712  0.74822390  0.44196778  1
  O  O430  1  0.77144398  0.75011851  0.69343426  1
  O  O431  1  0.77217032  0.75041645  0.94427919  1
  O  O432  1  0.02227410  0.08465316  0.18356534  1
  O  O433  1  0.02365839  0.08430331  0.43398632  1
  O  O434  1  0.02258228  0.08396322  0.68131201  1
  O  O435  1  0.02230599  0.08492018  0.93324871  1
  O  O436  1  0.02136313  0.41664717  0.18199077  1
  O  O437  1  0.02296266  0.41720091  0.43364317  1
  O  O438  1  0.02303609  0.41674344  0.68407480  1
  O  O439  1  0.02292213  0.41635095  0.93432756  1
  O  O440  1  0.02345628  0.74968550  0.18483837  1
  O  O441  1  0.02323450  0.74982053  0.43453447  1
  O  O442  1  0.02198817  0.74942393  0.68193080  1
  O  O443  1  0.02335204  0.75044398  0.93452786  1
  O  O444  1  0.52246819  0.08350349  0.18478601  1
  O  O445  1  0.52181406  0.08511113  0.43365341  1
  O  O446  1  0.52216867  0.08548550  0.68312158  1
  O  O447  1  0.52246946  0.08400267  0.93464158  1
  O  O448  1  0.52077636  0.41638542  0.18192182  1
  O  O449  1  0.52153946  0.41420283  0.43300882  1
  O  O450  1  0.52275548  0.41654830  0.68463897  1
  O  O451  1  0.52150203  0.41723623  0.93336748  1
  O  O452  1  0.52182469  0.74858911  0.18295117  1
  O  O453  1  0.52200068  0.75205395  0.43306081  1
  O  O454  1  0.52112063  0.74959036  0.68205184  1
  O  O455  1  0.52166289  0.74860799  0.93368505  1
  O  O456  1  0.47784150  0.24784253  0.06693983  1
  O  O457  1  0.47713353  0.24786193  0.31683798  1
  O  O458  1  0.47672892  0.25039456  0.56596910  1
  O  O459  1  0.47702035  0.24897790  0.81583942  1
  O  O460  1  0.47646435  0.58282893  0.06562176  1
  O  O461  1  0.47713940  0.58496038  0.31705387  1
  O  O462  1  0.47843345  0.58284157  0.56801773  1
  O  O463  1  0.47744902  0.58096784  0.81668684  1
  O  O464  1  0.47768091  0.91833339  0.06723434  1
  O  O465  1  0.47800503  0.91843370  0.31680895  1
  O  O466  1  0.47807188  0.91594824  0.56697916  1
  O  O467  1  0.47844622  0.91727206  0.81873196  1
  O  O468  1  0.97723437  0.25047436  0.06508370  1
  O  O469  1  0.97769931  0.24837707  0.31694323  1
  O  O470  1  0.97739866  0.24997226  0.56514677  1
  O  O471  1  0.97848487  0.25255658  0.81599708  1
  O  O472  1  0.97690969  0.58371393  0.06567875  1
  O  O473  1  0.97749998  0.58515341  0.31670930  1
  O  O474  1  0.97734552  0.58366212  0.56530694  1
  O  O475  1  0.97803318  0.58093282  0.81651621  1
  O  O476  1  0.97835526  0.91500801  0.06707757  1
  O  O477  1  0.97843131  0.91521103  0.31698377  1
  O  O478  1  0.97787640  0.91575375  0.56503869  1
  O  O479  1  0.97868521  0.91693861  0.81823233  1
  O  O480  1  0.07228334  0.31385346  0.07372298  1
  O  O481  1  0.07282773  0.31247341  0.32487147  1
  O  O482  1  0.07179452  0.31464262  0.57216262  1
  O  O483  1  0.07376542  0.31536123  0.82352816  1
  O  O484  1  0.07226376  0.64684269  0.07300469  1
  O  O485  1  0.07294563  0.64765529  0.32437208  1
  O  O486  1  0.07278571  0.64653827  0.57368709  1
  O  O487  1  0.07267390  0.64565431  0.82436113  1
  O  O488  1  0.07337571  0.97896707  0.07597382  1
  O  O489  1  0.07368439  0.97888814  0.32536398  1
  O  O490  1  0.07222161  0.98034125  0.57237408  1
  O  O491  1  0.07411877  0.98019716  0.82551977  1
  O  O492  1  0.57277227  0.31207697  0.07511014  1
  O  O493  1  0.57209738  0.31219336  0.32479286  1
  O  O494  1  0.57209193  0.31335999  0.57365924  1
  O  O495  1  0.57124277  0.31354750  0.82356491  1
  O  O496  1  0.57149588  0.64667966  0.07342285  1
  O  O497  1  0.57241570  0.64801771  0.32344672  1
  O  O498  1  0.57396201  0.64597118  0.57584911  1
  O  O499  1  0.57239074  0.64545454  0.82540999  1
  O  O500  1  0.57287789  0.98173685  0.07468738  1
  O  O501  1  0.57283332  0.98199530  0.32480925  1
  O  O502  1  0.57362690  0.97944521  0.57489474  1
  O  O503  1  0.57412985  0.98025987  0.82577916  1
  O  O504  1  0.42761364  0.01974282  0.17663686  1
  O  O505  1  0.42662863  0.02116539  0.42565989  1
  O  O506  1  0.42727983  0.02120805  0.67534289  1
  O  O507  1  0.42778957  0.01993771  0.92661068  1
  O  O508  1  0.42561876  0.35271869  0.17368891  1
  O  O509  1  0.42596718  0.35169228  0.42623035  1
  O  O510  1  0.42818633  0.35234357  0.67728333  1
  O  O511  1  0.42617876  0.35356612  0.92449122  1
  O  O512  1  0.42667904  0.68513616  0.17600964  1
  O  O513  1  0.42659285  0.68814874  0.42525120  1
  O  O514  1  0.42546118  0.68671560  0.67399327  1
  O  O515  1  0.42671450  0.68481639  0.92618807  1
  O  O516  1  0.92709909  0.02090242  0.17506200  1
  O  O517  1  0.92959198  0.01930543  0.42602421  1
  O  O518  1  0.92729886  0.02025393  0.67363403  1
  O  O519  1  0.92680657  0.02151949  0.92548372  1
  O  O520  1  0.92588562  0.35345191  0.17485718  1
  O  O521  1  0.92830609  0.35308634  0.42682719  1
  O  O522  1  0.92801068  0.35309252  0.67582791  1
  O  O523  1  0.92751190  0.35339269  0.92565786  1
  O  O524  1  0.92839714  0.68643060  0.17669841  1
  O  O525  1  0.92817105  0.68642012  0.42599316  1
  O  O526  1  0.92645220  0.68647920  0.67418529  1
  O  O527  1  0.92889733  0.68595640  0.92724805  1
  O  O528  1  0.17675603  0.01835243  0.19932785  1
  O  O529  1  0.17723445  0.02176515  0.44992123  1
  O  O530  1  0.17768700  0.01952912  0.69776477  1
  O  O531  1  0.17563696  0.02019819  0.94954250  1
  O  O532  1  0.17721375  0.35257838  0.19874907  1
  O  O533  1  0.17679986  0.35408659  0.44959683  1
  O  O534  1  0.17805235  0.35358709  0.69682086  1
  O  O535  1  0.17634657  0.35321494  0.94962581  1
  O  O536  1  0.17608458  0.68587639  0.20013432  1
  O  O537  1  0.17752874  0.68496275  0.44888023  1
  O  O538  1  0.17568322  0.68659146  0.70054658  1
  O  O539  1  0.17786811  0.68617683  0.94847940  1
  O  O540  1  0.67659060  0.02018246  0.20143141  1
  O  O541  1  0.67813491  0.01928322  0.44860276  1
  O  O542  1  0.67676314  0.02083588  0.69871307  1
  O  O543  1  0.67678638  0.01935330  0.95038354  1
  O  O544  1  0.67566636  0.35301839  0.20092446  1
  O  O545  1  0.67663351  0.35141995  0.44929074  1
  O  O546  1  0.67589311  0.35312542  0.70022159  1
  O  O547  1  0.67560068  0.35369534  0.95037032  1
  O  O548  1  0.67792119  0.68705297  0.19817774  1
  O  O549  1  0.67651079  0.68505660  0.44833331  1
  O  O550  1  0.67602841  0.68640673  0.70037848  1
  O  O551  1  0.67670795  0.68698096  0.95118890  1
  O  O552  1  0.32282370  0.31475786  0.05105651  1
  O  O553  1  0.32295869  0.31242930  0.30025926  1
  O  O554  1  0.32091532  0.31440731  0.55106093  1
  O  O555  1  0.32301407  0.31371986  0.79824768  1
  O  O556  1  0.32219917  0.64570506  0.05091849  1
  O  O557  1  0.32115879  0.64617243  0.30151526  1
  O  O558  1  0.32278009  0.64566023  0.54974580  1
  O  O559  1  0.32336293  0.64732966  0.80069157  1
  O  O560  1  0.32303672  0.98111256  0.05041363  1
  O  O561  1  0.32423348  0.98018650  0.30008923  1
  O  O562  1  0.32332594  0.98157739  0.55119056  1
  O  O563  1  0.32345137  0.97955821  0.80054099  1
  O  O564  1  0.82387387  0.31389091  0.05068656  1
  O  O565  1  0.82277340  0.31408589  0.30251953  1
  O  O566  1  0.82282242  0.31193977  0.54966533  1
  O  O567  1  0.82386006  0.31335031  0.79917739  1
  O  O568  1  0.82331517  0.64804278  0.05206271  1
  O  O569  1  0.82279684  0.64885095  0.30109915  1
  O  O570  1  0.82422992  0.64640953  0.54970041  1
  O  O571  1  0.82483649  0.64686368  0.80031727  1
  O  O572  1  0.82396273  0.97948484  0.05126324  1
  O  O573  1  0.82386269  0.98112230  0.30086476  1
  O  O574  1  0.82430526  0.97989858  0.54907662  1
  O  O575  1  0.82432889  0.98088466  0.79970612  1
  O  O576  1  0.42738798  0.14686312  0.17631527  1
  O  O577  1  0.42656676  0.14801155  0.42596681  1
  O  O578  1  0.42666730  0.14827309  0.67602846  1
  O  O579  1  0.42715957  0.14726680  0.92670402  1
  O  O580  1  0.42525469  0.47956464  0.17489397  1
  O  O581  1  0.42681123  0.47892139  0.42556942  1
  O  O582  1  0.42756012  0.47970458  0.67585002  1
  O  O583  1  0.42653916  0.48055570  0.92576630  1
  O  O584  1  0.42655843  0.81225302  0.17421925  1
  O  O585  1  0.42708091  0.81535546  0.42535320  1
  O  O586  1  0.42587675  0.81360890  0.67575684  1
  O  O587  1  0.42625202  0.81203968  0.92596248  1
  O  O588  1  0.92718927  0.14801936  0.17650735  1
  O  O589  1  0.92782922  0.14665805  0.42622765  1
  O  O590  1  0.92711716  0.14702278  0.67325786  1
  O  O591  1  0.92746793  0.14871605  0.92565900  1
  O  O592  1  0.92609015  0.48011958  0.17443567  1
  O  O593  1  0.92775034  0.48052305  0.42632040  1
  O  O594  1  0.92809210  0.48027404  0.67591087  1
  O  O595  1  0.92845934  0.48048221  0.92664631  1
  O  O596  1  0.92865787  0.81355984  0.17695316  1
  O  O597  1  0.92825341  0.81356337  0.42609439  1
  O  O598  1  0.92684587  0.81321054  0.67416498  1
  O  O599  1  0.92799107  0.81344713  0.92709751  1
  O  O600  1  0.07208659  0.18650247  0.07289314  1
  O  O601  1  0.07297197  0.18551915  0.32416704  1
  O  O602  1  0.07286026  0.18732984  0.57356435  1
  O  O603  1  0.07356668  0.18849814  0.82390616  1
  O  O604  1  0.07131291  0.51951410  0.07326218  1
  O  O605  1  0.07223346  0.52073045  0.32471003  1
  O  O606  1  0.07176189  0.51922047  0.57232308  1
  O  O607  1  0.07365349  0.51874858  0.82399029  1
  O  O608  1  0.07356357  0.85180564  0.07469159  1
  O  O609  1  0.07350912  0.85193039  0.32483389  1
  O  O610  1  0.07342101  0.85293180  0.57335051  1
  O  O611  1  0.07398187  0.85328814  0.82518330  1
  O  O612  1  0.57332373  0.18504092  0.07412838  1
  O  O613  1  0.57257053  0.18534542  0.32497668  1
  O  O614  1  0.57145917  0.18628186  0.57353214  1
  O  O615  1  0.57263164  0.18627572  0.82347989  1
  O  O616  1  0.57142334  0.51927916  0.07420958  1
  O  O617  1  0.57224136  0.52067857  0.32462541  1
  O  O618  1  0.57375291  0.51911015  0.57467459  1
  O  O619  1  0.57281166  0.51843911  0.82494248  1
  O  O620  1  0.57277365  0.85451270  0.07616747  1
  O  O621  1  0.57351515  0.85492453  0.32406514  1
  O  O622  1  0.57287446  0.85223146  0.57375870  1
  O  O623  1  0.57354428  0.85334633  0.82702930  1
  O  O624  1  0.32307974  0.18763367  0.05037759  1
  O  O625  1  0.32197934  0.18534246  0.30021255  1
  O  O626  1  0.32242871  0.18713571  0.55138341  1
  O  O627  1  0.32322742  0.18694663  0.79885308  1
  O  O628  1  0.32229440  0.51870270  0.05045579  1
  O  O629  1  0.32225626  0.51878830  0.30173424  1
  O  O630  1  0.32314112  0.51877837  0.55013776  1
  O  O631  1  0.32268511  0.52022782  0.80060863  1
  O  O632  1  0.32319218  0.85390792  0.05050241  1
  O  O633  1  0.32421802  0.85333239  0.29938057  1
  O  O634  1  0.32297028  0.85423574  0.55047679  1
  O  O635  1  0.32339755  0.85247463  0.80094973  1
  O  O636  1  0.82411194  0.18694138  0.05071529  1
  O  O637  1  0.82278397  0.18661444  0.30240434  1
  O  O638  1  0.82298918  0.18497266  0.54975954  1
  O  O639  1  0.82435788  0.18651525  0.79989451  1
  O  O640  1  0.82269391  0.52082803  0.05185125  1
  O  O641  1  0.82353668  0.52172636  0.29971761  1
  O  O642  1  0.82398554  0.51944622  0.54867424  1
  O  O643  1  0.82453727  0.51987428  0.80083789  1
  O  O644  1  0.82418391  0.85234157  0.05216241  1
  O  O645  1  0.82406592  0.85404024  0.30080810  1
  O  O646  1  0.82353382  0.85294464  0.54869791  1
  O  O647  1  0.82475881  0.85384396  0.80001134  1
  O  O648  1  0.17615663  0.14547488  0.19922369  1
  O  O649  1  0.17717435  0.14872662  0.44896534  1
  O  O650  1  0.17726762  0.14703467  0.69776528  1
  O  O651  1  0.17644192  0.14706460  0.95021043  1
  O  O652  1  0.17664440  0.48005452  0.19801612  1
  O  O653  1  0.17657999  0.48084657  0.44886950  1
  O  O654  1  0.17757422  0.48111009  0.69770457  1
  O  O655  1  0.17579050  0.47982856  0.95023688  1
  O  O656  1  0.17632377  0.81266859  0.20110560  1
  O  O657  1  0.17720929  0.81233353  0.44950879  1
  O  O658  1  0.17590373  0.81320352  0.70034911  1
  O  O659  1  0.17864584  0.81382759  0.94838114  1
  O  O660  1  0.67670773  0.14692880  0.20169473  1
  O  O661  1  0.67792218  0.14668799  0.44782777  1
  O  O662  1  0.67657250  0.14794970  0.69814727  1
  O  O663  1  0.67626325  0.14638595  0.95027657  1
  O  O664  1  0.67524853  0.47994337  0.20195011  1
  O  O665  1  0.67627916  0.47862000  0.44971125  1
  O  O666  1  0.67657728  0.48010151  0.69987987  1
  O  O667  1  0.67620509  0.48079437  0.95062032  1
  O  O668  1  0.67818906  0.81445493  0.19928440  1
  O  O669  1  0.67654474  0.81218563  0.44891954  1
  O  O670  1  0.67595544  0.81346355  0.69988100  1
  O  O671  1  0.67656207  0.81368685  0.95134741  1
