# generated using pymatgen
data_Na2MnFe(PO4)2
_symmetry_space_group_name_H-M   'P 1'
_cell_length_a   22.34316785
_cell_length_b   20.09294587
_cell_length_c   19.44987737
_cell_angle_alpha   90.01133589
_cell_angle_beta   90.02666615
_cell_angle_gamma   90.01560236
_symmetry_Int_Tables_number   1
_chemical_formula_structural   Na2MnFe(PO4)2
_chemical_formula_sum   'Na96 Mn48 Fe48 P96 O384'
_cell_volume   8731.82771075
_cell_formula_units_Z   48
loop_
 _symmetry_equiv_pos_site_id
 _symmetry_equiv_pos_as_xyz
  1  'x, y, z'
loop_
 _atom_site_type_symbol
 _atom_site_label
 _atom_site_symmetry_multiplicity
 _atom_site_fract_x
 _atom_site_fract_y
 _atom_site_fract_z
 _atom_site_occupancy
  Na  Na0  1  0.14062284  0.24983257  0.24409411  1
  Na  Na1  1  0.13998054  0.24941113  0.49493491  1
  Na  Na2  1  0.13987571  0.24963177  0.74165529  1
  Na  Na3  1  0.14011444  0.25004657  0.99342883  1
  Na  Na4  1  0.14016362  0.58171027  0.24272561  1
  Na  Na5  1  0.13983858  0.58339110  0.49380135  1
  Na  Na6  1  0.14035994  0.58269111  0.74262798  1
  Na  Na7  1  0.14016331  0.58366721  0.99363815  1
  Na  Na8  1  0.13984548  0.91451101  0.24458293  1
  Na  Na9  1  0.14010800  0.91676272  0.49381004  1
  Na  Na10  1  0.14015454  0.91489210  0.74317325  1
  Na  Na11  1  0.13997392  0.91569503  0.99388284  1
  Na  Na12  1  0.64039754  0.25001675  0.24441226  1
  Na  Na13  1  0.64039674  0.24921795  0.49398602  1
  Na  Na14  1  0.64034188  0.25073060  0.74410847  1
  Na  Na15  1  0.64015099  0.25207118  0.99347969  1
  Na  Na16  1  0.64009352  0.58503858  0.24423390  1
  Na  Na17  1  0.63979774  0.58527722  0.49300410  1
  Na  Na18  1  0.64092405  0.58404575  0.74332621  1
  Na  Na19  1  0.64088028  0.58468777  0.99403505  1
  Na  Na20  1  0.64051376  0.91688175  0.24433037  1
  Na  Na21  1  0.64061025  0.91645552  0.49394711  1
  Na  Na22  1  0.64030873  0.91567265  0.74257641  1
  Na  Na23  1  0.63990751  0.91690629  0.99395633  1
  Na  Na24  1  0.35967512  0.08313872  0.00655007  1
  Na  Na25  1  0.35984419  0.08220409  0.25693669  1
  Na  Na26  1  0.35935549  0.08338533  0.50642217  1
  Na  Na27  1  0.35927532  0.08158973  0.75553796  1
  Na  Na28  1  0.35962422  0.41651259  0.00713820  1
  Na  Na29  1  0.35960570  0.41553564  0.25634082  1
  Na  Na30  1  0.35982626  0.41588311  0.50826155  1
  Na  Na31  1  0.35978916  0.41552271  0.75490854  1
  Na  Na32  1  0.35958808  0.74948838  0.00531868  1
  Na  Na33  1  0.35926275  0.74846954  0.25596368  1
  Na  Na34  1  0.35960154  0.75002151  0.50658037  1
  Na  Na35  1  0.35995743  0.74950336  0.75505668  1
  Na  Na36  1  0.85972264  0.08377291  0.00587915  1
  Na  Na37  1  0.85957245  0.08272402  0.25663461  1
  Na  Na38  1  0.85975635  0.08244104  0.50713344  1
  Na  Na39  1  0.85955233  0.08309282  0.75679907  1
  Na  Na40  1  0.85989459  0.41911266  0.00570442  1
  Na  Na41  1  0.86008598  0.41925773  0.25598813  1
  Na  Na42  1  0.85978260  0.41861209  0.50588037  1
  Na  Na43  1  0.85982945  0.41727403  0.75664182  1
  Na  Na44  1  0.86007574  0.75120391  0.00633250  1
  Na  Na45  1  0.85969530  0.75183667  0.25656057  1
  Na  Na46  1  0.85999530  0.75127914  0.50712066  1
  Na  Na47  1  0.86058196  0.74958777  0.75645010  1
  Na  Na48  1  0.10903393  0.08256708  0.11911210  1
  Na  Na49  1  0.10946136  0.08323937  0.36972315  1
  Na  Na50  1  0.10946485  0.08280776  0.61834908  1
  Na  Na51  1  0.10891228  0.08388040  0.86779619  1
  Na  Na52  1  0.10987704  0.41741388  0.11758130  1
  Na  Na53  1  0.10984857  0.41702171  0.36918804  1
  Na  Na54  1  0.10931594  0.41597654  0.61776072  1
  Na  Na55  1  0.10969777  0.41731023  0.86834291  1
  Na  Na56  1  0.10939727  0.74925117  0.11823005  1
  Na  Na57  1  0.10974205  0.74890740  0.36908109  1
  Na  Na58  1  0.10937390  0.74848436  0.61822511  1
  Na  Na59  1  0.10979496  0.74982649  0.86887888  1
  Na  Na60  1  0.60908270  0.08448984  0.11999251  1
  Na  Na61  1  0.60956354  0.08243323  0.36948986  1
  Na  Na62  1  0.60986737  0.08275006  0.61888775  1
  Na  Na63  1  0.60911488  0.08292933  0.86857805  1
  Na  Na64  1  0.60964785  0.41735792  0.11904780  1
  Na  Na65  1  0.60902104  0.41587176  0.36988125  1
  Na  Na66  1  0.60933385  0.41710483  0.61897769  1
  Na  Na67  1  0.61011277  0.41665196  0.86893217  1
  Na  Na68  1  0.61015564  0.75127976  0.11855054  1
  Na  Na69  1  0.61005440  0.74954419  0.36804527  1
  Na  Na70  1  0.61010372  0.75068408  0.61749719  1
  Na  Na71  1  0.61004629  0.75140331  0.86793408  1
  Na  Na72  1  0.39047316  0.25056988  0.13184934  1
  Na  Na73  1  0.39030935  0.24824498  0.38211334  1
  Na  Na74  1  0.39024071  0.24906187  0.63156394  1
  Na  Na75  1  0.39010978  0.24948316  0.88050108  1
  Na  Na76  1  0.39015029  0.58302264  0.13130447  1
  Na  Na77  1  0.39036805  0.58127281  0.38167899  1
  Na  Na78  1  0.39031605  0.58276511  0.63118588  1
  Na  Na79  1  0.39058611  0.58226829  0.88042860  1
  Na  Na80  1  0.39051976  0.91786839  0.13097672  1
  Na  Na81  1  0.39017572  0.91576149  0.38157753  1
  Na  Na82  1  0.39051375  0.91702930  0.63120767  1
  Na  Na83  1  0.39036834  0.91627290  0.87999094  1
  Na  Na84  1  0.89064333  0.25121088  0.12997851  1
  Na  Na85  1  0.89102653  0.25091271  0.38127818  1
  Na  Na86  1  0.89072887  0.24975823  0.63186188  1
  Na  Na87  1  0.89069110  0.25168223  0.88085246  1
  Na  Na88  1  0.89028867  0.58534393  0.13094335  1
  Na  Na89  1  0.89077541  0.58485761  0.38159414  1
  Na  Na90  1  0.89044116  0.58413305  0.63105359  1
  Na  Na91  1  0.89098611  0.58501996  0.88151900  1
  Na  Na92  1  0.89014186  0.91615154  0.13155816  1
  Na  Na93  1  0.89000760  0.91593523  0.38287732  1
  Na  Na94  1  0.89005135  0.91561344  0.63238297  1
  Na  Na95  1  0.89037576  0.91588424  0.88120084  1
  Mn  Mn96  1  0.00015300  0.50064776  0.74956781  1
  Mn  Mn97  1  -0.00032175  -0.00051180  0.50092713  1
  Mn  Mn98  1  0.00039333  0.33417554  -0.00052558  1
  Mn  Mn99  1  0.24982625  0.16607879  0.87461240  1
  Mn  Mn100  1  0.24901763  -0.00117213  0.87502215  1
  Mn  Mn101  1  0.00025121  0.66680151  0.25033164  1
  Mn  Mn102  1  0.49962855  0.66565964  0.24954915  1
  Mn  Mn103  1  0.74962479  -0.00066961  0.12555843  1
  Mn  Mn104  1  0.49943423  0.83402548  0.24960416  1
  Mn  Mn105  1  0.25008652  0.49958280  0.87463725  1
  Mn  Mn106  1  0.75028802  0.16715531  0.12505943  1
  Mn  Mn107  1  0.25063005  0.66622308  0.37459703  1
  Mn  Mn108  1  0.00068433  0.33497371  0.25011059  1
  Mn  Mn109  1  0.50025779  0.49887128  0.75022737  1
  Mn  Mn110  1  0.25062370  0.83163672  0.12442044  1
  Mn  Mn111  1  0.25089851  0.66629815  0.87421248  1
  Mn  Mn112  1  0.75025843  0.33489139  0.12479830  1
  Mn  Mn113  1  0.75054004  0.16594467  0.62497588  1
  Mn  Mn114  1  0.49985793  0.16571292  0.50069334  1
  Mn  Mn115  1  0.50093221  0.66702310  0.74935525  1
  Mn  Mn116  1  0.50016539  0.16649742  0.75012290  1
  Mn  Mn117  1  0.74964814  0.50238740  0.12548547  1
  Mn  Mn118  1  -0.00023385  0.16687962  0.24994089  1
  Mn  Mn119  1  0.75095032  0.16596061  0.37511680  1
  Mn  Mn120  1  0.49972752  0.83474877  -0.00086573  1
  Mn  Mn121  1  -0.00075227  -0.00110824  0.24984806  1
  Mn  Mn122  1  0.24993426  0.83296634  0.62469042  1
  Mn  Mn123  1  0.50033857  0.83348258  0.49892846  1
  Mn  Mn124  1  0.74945465  0.50250648  0.37534814  1
  Mn  Mn125  1  0.74949136  0.50167503  0.62513963  1
  Mn  Mn126  1  0.75034571  0.33415253  0.37511329  1
  Mn  Mn127  1  0.24959950  0.33204237  0.37602023  1
  Mn  Mn128  1  0.25011466  0.49919627  0.37498954  1
  Mn  Mn129  1  0.50072326  0.49926863  0.00000284  1
  Mn  Mn130  1  0.24921495  0.16662342  0.12539146  1
  Mn  Mn131  1  0.74940145  0.16714695  0.87521076  1
  Mn  Mn132  1  0.24946207  -0.00102632  0.12544220  1
  Mn  Mn133  1  0.50020905  0.66703868  -0.00035151  1
  Mn  Mn134  1  -0.00025902  0.33340637  0.49970426  1
  Mn  Mn135  1  0.74964692  -0.00112976  0.87579665  1
  Mn  Mn136  1  -0.00015102  -0.00008414  -0.00013460  1
  Mn  Mn137  1  0.49979843  0.33327306  0.25116049  1
  Mn  Mn138  1  0.49982557  0.16702840  -0.00011882  1
  Mn  Mn139  1  0.24948140  0.33309058  0.87431815  1
  Mn  Mn140  1  0.24971766  -0.00033400  0.37509082  1
  Mn  Mn141  1  0.74985889  0.66771194  0.87483656  1
  Mn  Mn142  1  0.00012699  -0.00028412  0.75030317  1
  Mn  Mn143  1  0.75008753  0.33399787  0.62521702  1
  Fe  Fe144  1  0.49976303  0.83385618  0.74874172  1
  Fe  Fe145  1  0.75014704  0.66858254  0.12450670  1
  Fe  Fe146  1  -0.00032785  0.16688027  0.74983442  1
  Fe  Fe147  1  0.49968422  0.49919700  0.50039451  1
  Fe  Fe148  1  -0.00024056  0.33358027  0.74946888  1
  Fe  Fe149  1  0.75013979  0.83313266  0.62439399  1
  Fe  Fe150  1  0.24987414  0.66648598  0.62464083  1
  Fe  Fe151  1  0.00029570  0.83247704  0.75087089  1
  Fe  Fe152  1  0.50014618  0.49930428  0.25086193  1
  Fe  Fe153  1  0.75053128  0.50121526  0.87472150  1
  Fe  Fe154  1  0.75038080  0.83372101  0.12581315  1
  Fe  Fe155  1  -0.00020145  0.50012440  0.50014247  1
  Fe  Fe156  1  0.75043200  0.66780720  0.62488309  1
  Fe  Fe157  1  0.25005149  0.33265947  0.62479874  1
  Fe  Fe158  1  0.00025503  0.83320175  0.00026202  1
  Fe  Fe159  1  0.00013432  0.66652139  0.50013096  1
  Fe  Fe160  1  0.24949146  0.66572042  0.12484995  1
  Fe  Fe161  1  0.75053311  0.66893703  0.37462292  1
  Fe  Fe162  1  -0.00011421  0.16657840  0.50035239  1
  Fe  Fe163  1  0.74991376  -0.00060786  0.37572771  1
  Fe  Fe164  1  0.49987247  -0.00016834  0.74967216  1
  Fe  Fe165  1  0.24959393  0.16582554  0.62479116  1
  Fe  Fe166  1  -0.00002200  0.83277144  0.25071160  1
  Fe  Fe167  1  0.49995727  0.00068621  -0.00021371  1
  Fe  Fe168  1  0.24991895  0.83242398  0.87440794  1
  Fe  Fe169  1  0.00039127  0.83252393  0.50112872  1
  Fe  Fe170  1  0.00008337  0.66740554  0.00031866  1
  Fe  Fe171  1  0.25003661  -0.00052766  0.62453606  1
  Fe  Fe172  1  0.00025177  0.50106950  0.24953577  1
  Fe  Fe173  1  0.00004166  0.50122478  -0.00095014  1
  Fe  Fe174  1  0.24968580  0.49971796  0.62473471  1
  Fe  Fe175  1  0.25012193  0.49919265  0.12481196  1
  Fe  Fe176  1  0.49985379  0.00055062  0.25017990  1
  Fe  Fe177  1  0.50013042  0.16663775  0.25032275  1
  Fe  Fe178  1  0.50028296  0.33238750  0.50000437  1
  Fe  Fe179  1  0.74988939  0.83315320  0.87455933  1
  Fe  Fe180  1  0.75001875  -0.00097623  0.62570234  1
  Fe  Fe181  1  0.75054352  0.33445520  0.87491492  1
  Fe  Fe182  1  0.49968214  -0.00038128  0.49995391  1
  Fe  Fe183  1  0.50000937  0.33304277  0.74997301  1
  Fe  Fe184  1  0.49970067  0.66634414  0.49963257  1
  Fe  Fe185  1  0.24979924  0.16621277  0.37561736  1
  Fe  Fe186  1  -0.00025316  0.16727614  -0.00073838  1
  Fe  Fe187  1  0.75014223  0.83370252  0.37549272  1
  Fe  Fe188  1  0.49980508  0.33332533  0.00063538  1
  Fe  Fe189  1  0.00075189  0.66697356  0.75037758  1
  Fe  Fe190  1  0.24967049  0.83263209  0.37500396  1
  Fe  Fe191  1  0.25027294  0.33257601  0.12526927  1
  P  P192  1  0.04230191  0.24936221  0.10189510  1
  P  P193  1  0.04294048  0.25032047  0.35349449  1
  P  P194  1  0.04156741  0.24874082  0.60311805  1
  P  P195  1  0.04155717  0.25049889  0.85118422  1
  P  P196  1  0.04121735  0.58353648  0.10152418  1
  P  P197  1  0.04253627  0.58227510  0.35307565  1
  P  P198  1  0.04122195  0.58323689  0.60179117  1
  P  P199  1  0.04255476  0.58487079  0.85281619  1
  P  P200  1  0.04204820  0.91501670  0.10286961  1
  P  P201  1  0.04164851  0.91477843  0.35348320  1
  P  P202  1  0.04204360  0.91463202  0.60343494  1
  P  P203  1  0.04219208  0.91503907  0.85298767  1
  P  P204  1  0.54228912  0.25119767  0.10304466  1
  P  P205  1  0.54221691  0.24827751  0.35330165  1
  P  P206  1  0.54224753  0.25095128  0.60293908  1
  P  P207  1  0.54205108  0.25136117  0.85285733  1
  P  P208  1  0.54299828  0.58321602  0.10343869  1
  P  P209  1  0.54161015  0.58152218  0.35354660  1
  P  P210  1  0.54135793  0.58319288  0.60126167  1
  P  P211  1  0.54329484  0.58312682  0.85271955  1
  P  P212  1  0.54192050  0.91920104  0.10262386  1
  P  P213  1  0.54184047  0.91790489  0.35249773  1
  P  P214  1  0.54199943  0.91783129  0.60265650  1
  P  P215  1  0.54157062  0.91692274  0.85099687  1
  P  P216  1  0.45813937  0.08385970  0.14834458  1
  P  P217  1  0.45764461  0.08143029  0.39719306  1
  P  P218  1  0.45792930  0.08186574  0.64740713  1
  P  P219  1  0.45760240  0.08199303  0.89708803  1
  P  P220  1  0.45802326  0.41747616  0.14803211  1
  P  P221  1  0.45807419  0.41579046  0.39893204  1
  P  P222  1  0.45825670  0.41492268  0.64669453  1
  P  P223  1  0.45760912  0.41451036  0.89746303  1
  P  P224  1  0.45707964  0.75045461  0.14650802  1
  P  P225  1  0.45757901  0.74813681  0.39725097  1
  P  P226  1  0.45832590  0.75090802  0.64632350  1
  P  P227  1  0.45751259  0.75067521  0.89561984  1
  P  P228  1  0.95667747  0.08341822  0.14640377  1
  P  P229  1  0.95763422  0.08409263  0.39821139  1
  P  P230  1  0.95781910  0.08421520  0.64766823  1
  P  P231  1  0.95786356  0.08500824  0.89692318  1
  P  P232  1  0.95820299  0.41931080  0.14670804  1
  P  P233  1  0.95786762  0.41893125  0.39714005  1
  P  P234  1  0.95771814  0.41602904  0.64708061  1
  P  P235  1  0.95808948  0.41859212  0.89681801  1
  P  P236  1  0.95811985  0.75131003  0.14740270  1
  P  P237  1  0.95892175  0.75016654  0.39890363  1
  P  P238  1  0.95922938  0.74971713  0.64830554  1
  P  P239  1  0.95907218  0.75034298  0.89817531  1
  P  P240  1  0.20682258  0.08281588  0.22899735  1
  P  P241  1  0.20776886  0.08436064  0.47845176  1
  P  P242  1  0.20803840  0.08223646  0.72611646  1
  P  P243  1  0.20642228  0.08301767  0.97795285  1
  P  P244  1  0.20842591  0.41565780  0.22647471  1
  P  P245  1  0.20766681  0.41632568  0.47930468  1
  P  P246  1  0.20822145  0.41627267  0.72583763  1
  P  P247  1  0.20755394  0.41657129  0.97877813  1
  P  P248  1  0.20741892  0.74802033  0.22749774  1
  P  P249  1  0.20809611  0.75044492  0.47762087  1
  P  P250  1  0.20775612  0.74835039  0.72719570  1
  P  P251  1  0.20806989  0.75001059  0.97722984  1
  P  P252  1  0.70752606  0.08300333  0.22897098  1
  P  P253  1  0.70820913  0.08127875  0.47826624  1
  P  P254  1  0.70775397  0.08172721  0.72767904  1
  P  P255  1  0.70672082  0.08328381  0.97842816  1
  P  P256  1  0.70712781  0.41830196  0.22840649  1
  P  P257  1  0.70705539  0.41803101  0.47826833  1
  P  P258  1  0.70761520  0.41762375  0.72911386  1
  P  P259  1  0.70882546  0.41842923  0.97641610  1
  P  P260  1  0.70860464  0.75075734  0.22740364  1
  P  P261  1  0.70862224  0.75098232  0.47718701  1
  P  P262  1  0.70882904  0.75041164  0.72646390  1
  P  P263  1  0.70766681  0.75195098  0.97796266  1
  P  P264  1  0.29234216  0.25078489  0.02266635  1
  P  P265  1  0.29222100  0.24835776  0.27293736  1
  P  P266  1  0.29135802  0.24884625  0.52347283  1
  P  P267  1  0.29203790  0.24923419  0.77050336  1
  P  P268  1  0.29162916  0.58301599  0.02334238  1
  P  P269  1  0.29245224  0.58207935  0.27080768  1
  P  P270  1  0.29133850  0.58317184  0.52342325  1
  P  P271  1  0.29291072  0.58249102  0.77035860  1
  P  P272  1  0.29272205  0.91586255  0.02133688  1
  P  P273  1  0.29211332  0.91445571  0.27274104  1
  P  P274  1  0.29214172  0.91748739  0.52205692  1
  P  P275  1  0.29166748  0.91488080  0.77184674  1
  P  P276  1  0.79256458  0.25143289  0.02109822  1
  P  P277  1  0.79345105  0.25051343  0.27194947  1
  P  P278  1  0.79328218  0.25008903  0.52205343  1
  P  P279  1  0.79220031  0.25127355  0.77279547  1
  P  P280  1  0.79220120  0.58589151  0.02205804  1
  P  P281  1  0.79235318  0.58683964  0.27230194  1
  P  P282  1  0.79204685  0.58643399  0.52213380  1
  P  P283  1  0.79267144  0.58356394  0.77228149  1
  P  P284  1  0.79212079  0.91500076  0.02263136  1
  P  P285  1  0.79168317  0.91647875  0.27396489  1
  P  P286  1  0.79145521  0.91667457  0.52325539  1
  P  P287  1  0.79217865  0.91507504  0.77190056  1
  O  O288  1  0.03715474  0.24999317  0.18182457  1
  O  O289  1  0.03760111  0.25008989  0.43344572  1
  O  O290  1  0.03593211  0.24911626  0.68296951  1
  O  O291  1  0.03645246  0.25018146  0.93116965  1
  O  O292  1  0.03656332  0.58342593  0.18151031  1
  O  O293  1  0.03715699  0.58228905  0.43291914  1
  O  O294  1  0.03658187  0.58394857  0.68173281  1
  O  O295  1  0.03720522  0.58451805  0.93264730  1
  O  O296  1  0.03666764  0.91486460  0.18283360  1
  O  O297  1  0.03634988  0.91486682  0.43345040  1
  O  O298  1  0.03685601  0.91472257  0.68336206  1
  O  O299  1  0.03687605  0.91534621  0.93291378  1
  O  O300  1  0.53704592  0.25056951  0.18298017  1
  O  O301  1  0.53705035  0.24862429  0.43323988  1
  O  O302  1  0.53687390  0.25106074  0.68286934  1
  O  O303  1  0.53672787  0.25131679  0.93280545  1
  O  O304  1  0.53783591  0.58264763  0.18340349  1
  O  O305  1  0.53594500  0.58194499  0.43342069  1
  O  O306  1  0.53690364  0.58326234  0.68127376  1
  O  O307  1  0.53821741  0.58318969  0.93264804  1
  O  O308  1  0.53649236  0.91923258  0.18252933  1
  O  O309  1  0.53675599  0.91766819  0.43244585  1
  O  O310  1  0.53637498  0.91730886  0.68250086  1
  O  O311  1  0.53665480  0.91728589  0.93095594  1
  O  O312  1  0.46317451  0.08373530  0.06836305  1
  O  O313  1  0.46315857  0.08195662  0.31734856  1
  O  O314  1  0.46294820  0.08182030  0.56748412  1
  O  O315  1  0.46295671  0.08197461  0.81717148  1
  O  O316  1  0.46329520  0.41673108  0.06812758  1
  O  O317  1  0.46300221  0.41643443  0.31894656  1
  O  O318  1  0.46367642  0.41517889  0.56684421  1
  O  O319  1  0.46281091  0.41442437  0.81748852  1
  O  O320  1  0.46212447  0.75070714  0.06652811  1
  O  O321  1  0.46245903  0.74834251  0.31729545  1
  O  O322  1  0.46362672  0.75016873  0.56636346  1
  O  O323  1  0.46291200  0.75110299  0.81565578  1
  O  O324  1  0.96191852  0.08351278  0.06643570  1
  O  O325  1  0.96255009  0.08355729  0.31825036  1
  O  O326  1  0.96302784  0.08414091  0.56772409  1
  O  O327  1  0.96345231  0.08485463  0.81698885  1
  O  O328  1  0.96343343  0.41927361  0.06674332  1
  O  O329  1  0.96342517  0.41924371  0.31721905  1
  O  O330  1  0.96305107  0.41653664  0.56716053  1
  O  O331  1  0.96321908  0.41778475  0.81689467  1
  O  O332  1  0.96334330  0.75137149  0.06757532  1
  O  O333  1  0.96354060  0.75017884  0.31894850  1
  O  O334  1  0.96446489  0.74993606  0.56844781  1
  O  O335  1  0.96420030  0.74986193  0.81829774  1
  O  O336  1  0.21125776  0.08301337  0.05795466  1
  O  O337  1  0.21218036  0.08338097  0.30895663  1
  O  O338  1  0.21346619  0.08406034  0.55833283  1
  O  O339  1  0.21290039  0.08210586  0.80612893  1
  O  O340  1  0.21296534  0.41652918  0.05867921  1
  O  O341  1  0.21307788  0.41561962  0.30653338  1
  O  O342  1  0.21299818  0.41649684  0.55917358  1
  O  O343  1  0.21272621  0.41615965  0.80589256  1
  O  O344  1  0.21334332  0.74901711  0.05715708  1
  O  O345  1  0.21263442  0.74874770  0.30744859  1
  O  O346  1  0.21338271  0.74974163  0.55753699  1
  O  O347  1  0.21294549  0.74895048  0.80710273  1
  O  O348  1  0.71187988  0.08332285  0.05839309  1
  O  O349  1  0.71300042  0.08234394  0.30891922  1
  O  O350  1  0.71352584  0.08115712  0.55823433  1
  O  O351  1  0.71271076  0.08209452  0.80765951  1
  O  O352  1  0.71370547  0.41847578  0.05644789  1
  O  O353  1  0.71215740  0.41828274  0.30834707  1
  O  O354  1  0.71209449  0.41808567  0.55825726  1
  O  O355  1  0.71333725  0.41770740  0.80901087  1
  O  O356  1  0.71301108  0.75175297  0.05783622  1
  O  O357  1  0.71379091  0.75047727  0.30729610  1
  O  O358  1  0.71348258  0.75086208  0.55708670  1
  O  O359  1  0.71330475  0.75100446  0.80644648  1
  O  O360  1  0.28684843  0.24932411  0.19301617  1
  O  O361  1  0.28656207  0.24863631  0.44348517  1
  O  O362  1  0.28664819  0.24897272  0.69061436  1
  O  O363  1  0.28740628  0.25057280  0.94266347  1
  O  O364  1  0.28694138  0.58205960  0.19092664  1
  O  O365  1  0.28672894  0.58312938  0.44338304  1
  O  O366  1  0.28747698  0.58250264  0.69048135  1
  O  O367  1  0.28703610  0.58288325  0.94328315  1
  O  O368  1  0.28717028  0.91462286  0.19277413  1
  O  O369  1  0.28675636  0.91683025  0.44217631  1
  O  O370  1  0.28645418  0.91586635  0.69190430  1
  O  O371  1  0.28726548  0.91551276  0.94140146  1
  O  O372  1  0.78823689  0.25055345  0.19192996  1
  O  O373  1  0.78825418  0.24989302  0.44208245  1
  O  O374  1  0.78731501  0.25075795  0.69279469  1
  O  O375  1  0.78694963  0.25200890  0.94114407  1
  O  O376  1  0.78709716  0.58695815  0.19233395  1
  O  O377  1  0.78681099  0.58676417  0.44220889  1
  O  O378  1  0.78731206  0.58435820  0.69237339  1
  O  O379  1  0.78683229  0.58488999  0.94212987  1
  O  O380  1  0.78677802  0.91591312  0.19401051  1
  O  O381  1  0.78662217  0.91668975  0.44338167  1
  O  O382  1  0.78674864  0.91567904  0.69201811  1
  O  O383  1  0.78688418  0.91466910  0.94269291  1
  O  O384  1  0.22790766  0.25116911  0.05789598  1
  O  O385  1  0.22792676  0.24768471  0.30869449  1
  O  O386  1  0.22719954  0.24860542  0.55926382  1
  O  O387  1  0.22777431  0.24917747  0.80616558  1
  O  O388  1  0.22735222  0.58300146  0.05896331  1
  O  O389  1  0.22827217  0.58247785  0.30657798  1
  O  O390  1  0.22701818  0.58276672  0.55882523  1
  O  O391  1  0.22866869  0.58281042  0.80601076  1
  O  O392  1  0.22837872  0.91558260  0.05670279  1
  O  O393  1  0.22776343  0.91457481  0.30817638  1
  O  O394  1  0.22791068  0.91758890  0.55783666  1
  O  O395  1  0.22743177  0.91416087  0.80764945  1
  O  O396  1  0.72833417  0.25124865  0.05669754  1
  O  O397  1  0.72902122  0.25005154  0.30699012  1
  O  O398  1  0.72879519  0.24984947  0.55692458  1
  O  O399  1  0.72786083  0.25180329  0.80806904  1
  O  O400  1  0.72804332  0.58666561  0.05807824  1
  O  O401  1  0.72806495  0.58700577  0.30795191  1
  O  O402  1  0.72778046  0.58662755  0.55787111  1
  O  O403  1  0.72842232  0.58283323  0.80802730  1
  O  O404  1  0.72788245  0.91475713  0.05841853  1
  O  O405  1  0.72746954  0.91692072  0.30981968  1
  O  O406  1  0.72735977  0.91695504  0.55933834  1
  O  O407  1  0.72796347  0.91461504  0.80794434  1
  O  O408  1  0.27114304  0.08284996  0.19362871  1
  O  O409  1  0.27181179  0.08436663  0.44206723  1
  O  O410  1  0.27228683  0.08233279  0.69041980  1
  O  O411  1  0.27096482  0.08261257  0.94322588  1
  O  O412  1  0.27268865  0.41571082  0.19087238  1
  O  O413  1  0.27187859  0.41585855  0.44362030  1
  O  O414  1  0.27251116  0.41694520  0.69048007  1
  O  O415  1  0.27177595  0.41628585  0.94304799  1
  O  O416  1  0.27174051  0.74690401  0.19190742  1
  O  O417  1  0.27231017  0.75103047  0.44179661  1
  O  O418  1  0.27203232  0.74831621  0.69158166  1
  O  O419  1  0.27228805  0.75103087  0.94135970  1
  O  O420  1  0.77176591  0.08304954  0.19340701  1
  O  O421  1  0.77245315  0.08110603  0.44253029  1
  O  O422  1  0.77212543  0.08155075  0.69236408  1
  O  O423  1  0.77112849  0.08325299  0.94339219  1
  O  O424  1  0.77158351  0.41860597  0.19345496  1
  O  O425  1  0.77149995  0.41846570  0.44332767  1
  O  O426  1  0.77177059  0.41805074  0.69322391  1
  O  O427  1  0.77301957  0.41857582  0.94056497  1
  O  O428  1  0.77269307  0.75083714  0.19098386  1
  O  O429  1  0.77284124  0.75100633  0.44124967  1
  O  O430  1  0.77312122  0.74960927  0.69092088  1
  O  O431  1  0.77187404  0.75221015  0.94189206  1
  O  O432  1  0.02098175  0.08279596  0.18188680  1
  O  O433  1  0.02193506  0.08404140  0.43382169  1
  O  O434  1  0.02206695  0.08430470  0.68340930  1
  O  O435  1  0.02196902  0.08491823  0.93308034  1
  O  O436  1  0.02249939  0.41949637  0.18255184  1
  O  O437  1  0.02201401  0.41861117  0.43321841  1
  O  O438  1  0.02193728  0.41558420  0.68298089  1
  O  O439  1  0.02233906  0.41876337  0.93259723  1
  O  O440  1  0.02225970  0.75131122  0.18363700  1
  O  O441  1  0.02312800  0.75035902  0.43469442  1
  O  O442  1  0.02324084  0.74980952  0.68486666  1
  O  O443  1  0.02307296  0.75061785  0.93458464  1
  O  O444  1  0.52226430  0.08403075  0.18456731  1
  O  O445  1  0.52177510  0.08114099  0.43350078  1
  O  O446  1  0.52218829  0.08191608  0.68312684  1
  O  O447  1  0.52185298  0.08242688  0.93293798  1
  O  O448  1  0.52222795  0.41759026  0.18395821  1
  O  O449  1  0.52228536  0.41568349  0.43481536  1
  O  O450  1  0.52232751  0.41454127  0.68306404  1
  O  O451  1  0.52197960  0.41434948  0.93310412  1
  O  O452  1  0.52147858  0.75038691  0.18159982  1
  O  O453  1  0.52200795  0.74823986  0.43251348  1
  O  O454  1  0.52253048  0.75184620  0.68220886  1
  O  O455  1  0.52179434  0.75076429  0.93117601  1
  O  O456  1  0.47799030  0.25160300  0.06721423  1
  O  O457  1  0.47795697  0.24807496  0.31754061  1
  O  O458  1  0.47801886  0.25087106  0.56703913  1
  O  O459  1  0.47785074  0.25097454  0.81692453  1
  O  O460  1  0.47866471  0.58308519  0.06805306  1
  O  O461  1  0.47756441  0.58108377  0.31709510  1
  O  O462  1  0.47706823  0.58320646  0.56577838  1
  O  O463  1  0.47890273  0.58327377  0.81761256  1
  O  O464  1  0.47774716  0.91912113  0.06655654  1
  O  O465  1  0.47754028  0.91808058  0.31689614  1
  O  O466  1  0.47791678  0.91784005  0.56626746  1
  O  O467  1  0.47736767  0.91653530  0.81496565  1
  O  O468  1  0.97805679  0.24932519  0.06608780  1
  O  O469  1  0.97866226  0.25109852  0.31801846  1
  O  O470  1  0.97756827  0.24864814  0.56663873  1
  O  O471  1  0.97735644  0.25087549  0.81520872  1
  O  O472  1  0.97710472  0.58342549  0.06554167  1
  O  O473  1  0.97835742  0.58222582  0.31687410  1
  O  O474  1  0.97709042  0.58285415  0.56583952  1
  O  O475  1  0.97838522  0.58518984  0.81669375  1
  O  O476  1  0.97785168  0.91515200  0.06692538  1
  O  O477  1  0.97740712  0.91455946  0.31757056  1
  O  O478  1  0.97778790  0.91459168  0.56769657  1
  O  O479  1  0.97796725  0.91505213  0.81718308  1
  O  O480  1  0.07336021  0.31299568  0.07397233  1
  O  O481  1  0.07430235  0.31379959  0.32548078  1
  O  O482  1  0.07294889  0.31221206  0.57518321  1
  O  O483  1  0.07236034  0.31435610  0.82320689  1
  O  O484  1  0.07146031  0.64772571  0.07343935  1
  O  O485  1  0.07350451  0.64601810  0.32501303  1
  O  O486  1  0.07177483  0.64685062  0.57284065  1
  O  O487  1  0.07355071  0.64824368  0.82409968  1
  O  O488  1  0.07311371  0.97880083  0.07522671  1
  O  O489  1  0.07249741  0.97862972  0.32566903  1
  O  O490  1  0.07289393  0.97848217  0.57560455  1
  O  O491  1  0.07321657  0.97877847  0.82511070  1
  O  O492  1  0.57310063  0.31484508  0.07479636  1
  O  O493  1  0.57342155  0.31184411  0.32544997  1
  O  O494  1  0.57333543  0.31407019  0.57404693  1
  O  O495  1  0.57283021  0.31469656  0.82408706  1
  O  O496  1  0.57373035  0.64707266  0.07556863  1
  O  O497  1  0.57274444  0.64514875  0.32545286  1
  O  O498  1  0.57208366  0.64695959  0.57302539  1
  O  O499  1  0.57458313  0.64646681  0.82454924  1
  O  O500  1  0.57273720  0.98257130  0.07383356  1
  O  O501  1  0.57290220  0.98109380  0.32384690  1
  O  O502  1  0.57283595  0.98135369  0.57424679  1
  O  O503  1  0.57236717  0.98057892  0.82269043  1
  O  O504  1  0.42715804  0.02031002  0.17661653  1
  O  O505  1  0.42651775  0.01808525  0.42570160  1
  O  O506  1  0.42695523  0.01857172  0.67609585  1
  O  O507  1  0.42700731  0.01849778  0.92584196  1
  O  O508  1  0.42661972  0.35418354  0.17633042  1
  O  O509  1  0.42743961  0.35172238  0.42654584  1
  O  O510  1  0.42702862  0.35171322  0.67538895  1
  O  O511  1  0.42650986  0.35143775  0.92645840  1
  O  O512  1  0.42598695  0.68696500  0.17446322  1
  O  O513  1  0.42686809  0.68462651  0.42584777  1
  O  O514  1  0.42745991  0.68728282  0.67445324  1
  O  O515  1  0.42664187  0.68685324  0.92347383  1
  O  O516  1  0.92545742  0.01992085  0.17463881  1
  O  O517  1  0.92651637  0.02054224  0.42627370  1
  O  O518  1  0.92698016  0.02030248  0.67537732  1
  O  O519  1  0.92665818  0.02121300  0.92435846  1
  O  O520  1  0.92749064  0.35534467  0.17447330  1
  O  O521  1  0.92659988  0.35517134  0.42448306  1
  O  O522  1  0.92690368  0.35246653  0.67544230  1
  O  O523  1  0.92678329  0.35535358  0.92523517  1
  O  O524  1  0.92709043  0.68762023  0.17541368  1
  O  O525  1  0.92877591  0.68603313  0.42729169  1
  O  O526  1  0.92851528  0.68591452  0.67658955  1
  O  O527  1  0.92849615  0.68663893  0.92709662  1
  O  O528  1  0.17607146  0.01884101  0.20135105  1
  O  O529  1  0.17636204  0.02081061  0.45058397  1
  O  O530  1  0.17737390  0.01840180  0.69800742  1
  O  O531  1  0.17509144  0.01974189  0.94970134  1
  O  O532  1  0.17775696  0.35183891  0.19841417  1
  O  O533  1  0.17619319  0.35299334  0.45107795  1
  O  O534  1  0.17821199  0.35212526  0.69747074  1
  O  O535  1  0.17606660  0.35341383  0.95009450  1
  O  O536  1  0.17627310  0.68459346  0.19912304  1
  O  O537  1  0.17703056  0.68693632  0.44947990  1
  O  O538  1  0.17734603  0.68453289  0.69862355  1
  O  O539  1  0.17729713  0.68637712  0.94894049  1
  O  O540  1  0.67617099  0.01979832  0.20049762  1
  O  O541  1  0.67710470  0.01807883  0.44945539  1
  O  O542  1  0.67709992  0.01811293  0.69931010  1
  O  O543  1  0.67580066  0.01967103  0.95036854  1
  O  O544  1  0.67628555  0.35469224  0.20019408  1
  O  O545  1  0.67640057  0.35424452  0.45027288  1
  O  O546  1  0.67661399  0.35406663  0.70080191  1
  O  O547  1  0.67828183  0.35448146  0.94840476  1
  O  O548  1  0.67758728  0.68741163  0.19850171  1
  O  O549  1  0.67758168  0.68765444  0.44831029  1
  O  O550  1  0.67757574  0.68682146  0.69857346  1
  O  O551  1  0.67662075  0.68833295  0.94966792  1
  O  O552  1  0.32314473  0.31417633  0.05146429  1
  O  O553  1  0.32321484  0.31186846  0.30140261  1
  O  O554  1  0.32150839  0.31307492  0.55167144  1
  O  O555  1  0.32310106  0.31276177  0.79877705  1
  O  O556  1  0.32231014  0.64684654  0.05127725  1
  O  O557  1  0.32399690  0.64525154  0.29931521  1
  O  O558  1  0.32154355  0.64732682  0.55143216  1
  O  O559  1  0.32440987  0.64571925  0.79880804  1
  O  O560  1  0.32329899  0.97968325  0.04967065  1
  O  O561  1  0.32329023  0.97803136  0.30048812  1
  O  O562  1  0.32264159  0.98126666  0.55046883  1
  O  O563  1  0.32270347  0.97836328  0.80014700  1
  O  O564  1  0.82400857  0.31466024  0.04946524  1
  O  O565  1  0.82417362  0.31431293  0.29985866  1
  O  O566  1  0.82408362  0.31381814  0.54994738  1
  O  O567  1  0.82311025  0.31485437  0.80102509  1
  O  O568  1  0.82313620  0.64956284  0.04997223  1
  O  O569  1  0.82351757  0.65001651  0.30112109  1
  O  O570  1  0.82322292  0.64954183  0.55109019  1
  O  O571  1  0.82355097  0.64716320  0.80061068  1
  O  O572  1  0.82282048  0.97911440  0.05007700  1
  O  O573  1  0.82268839  0.98012426  0.30200302  1
  O  O574  1  0.82286849  0.97979770  0.55208963  1
  O  O575  1  0.82316755  0.97861210  0.80050274  1
  O  O576  1  0.42755826  0.14774037  0.17651884  1
  O  O577  1  0.42664918  0.14500393  0.42558567  1
  O  O578  1  0.42704110  0.14566518  0.67517888  1
  O  O579  1  0.42631100  0.14559482  0.92487970  1
  O  O580  1  0.42749576  0.48121821  0.17632706  1
  O  O581  1  0.42713650  0.47918229  0.42773261  1
  O  O582  1  0.42744052  0.47875651  0.67474550  1
  O  O583  1  0.42691785  0.47857792  0.92505361  1
  O  O584  1  0.42612476  0.81396769  0.17474287  1
  O  O585  1  0.42658527  0.81185672  0.42492128  1
  O  O586  1  0.42719734  0.81443851  0.67437146  1
  O  O587  1  0.42610672  0.81378365  0.92406759  1
  O  O588  1  0.92576396  0.14690036  0.17466031  1
  O  O589  1  0.92718572  0.14790755  0.42634520  1
  O  O590  1  0.92671754  0.14742640  0.67633070  1
  O  O591  1  0.92701817  0.14850697  0.92528283  1
  O  O592  1  0.92706490  0.48250319  0.17543353  1
  O  O593  1  0.92688749  0.48215595  0.42606138  1
  O  O594  1  0.92665372  0.47962670  0.67498711  1
  O  O595  1  0.92754184  0.48246384  0.92483787  1
  O  O596  1  0.92719064  0.81453583  0.17657978  1
  O  O597  1  0.92757112  0.81329558  0.42755520  1
  O  O598  1  0.92807625  0.81310645  0.67692138  1
  O  O599  1  0.92775994  0.81378318  0.92628586  1
  O  O600  1  0.07287934  0.18565913  0.07368375  1
  O  O601  1  0.07374645  0.18680805  0.32519053  1
  O  O602  1  0.07241348  0.18517557  0.57462908  1
  O  O603  1  0.07234042  0.18689235  0.82272434  1
  O  O604  1  0.07253086  0.52039160  0.07291485  1
  O  O605  1  0.07360028  0.51911964  0.32399730  1
  O  O606  1  0.07218194  0.51947573  0.57409211  1
  O  O607  1  0.07367540  0.52137807  0.82440687  1
  O  O608  1  0.07310142  0.85179023  0.07412788  1
  O  O609  1  0.07273827  0.85149543  0.32490358  1
  O  O610  1  0.07317579  0.85144259  0.57476857  1
  O  O611  1  0.07315176  0.85170316  0.82442994  1
  O  O612  1  0.57333588  0.18776139  0.07468943  1
  O  O613  1  0.57289383  0.18473687  0.32471553  1
  O  O614  1  0.57317345  0.18697233  0.57554569  1
  O  O615  1  0.57325373  0.18760555  0.82522154  1
  O  O616  1  0.57447854  0.52015003  0.07486726  1
  O  O617  1  0.57260363  0.51804671  0.32510690  1
  O  O618  1  0.57195314  0.51934340  0.57326459  1
  O  O619  1  0.57399591  0.51945270  0.82464870  1
  O  O620  1  0.57297467  0.85541453  0.07497358  1
  O  O621  1  0.57256526  0.85391147  0.32476409  1
  O  O622  1  0.57330831  0.85439361  0.57438453  1
  O  O623  1  0.57233461  0.85320492  0.82270298  1
  O  O624  1  0.32314235  0.18700818  0.05052433  1
  O  O625  1  0.32305888  0.18476419  0.30112295  1
  O  O626  1  0.32285409  0.18569934  0.55180073  1
  O  O627  1  0.32331015  0.18591909  0.79909162  1
  O  O628  1  0.32232392  0.51927920  0.05157035  1
  O  O629  1  0.32341522  0.51862450  0.29947157  1
  O  O630  1  0.32249815  0.51974816  0.55154099  1
  O  O631  1  0.32385783  0.51905147  0.79911246  1
  O  O632  1  0.32437628  0.85282701  0.04960759  1
  O  O633  1  0.32255195  0.85073209  0.30118837  1
  O  O634  1  0.32362373  0.85421986  0.55014030  1
  O  O635  1  0.32240229  0.85112826  0.79983271  1
  O  O636  1  0.82350912  0.18763289  0.04870871  1
  O  O637  1  0.82477408  0.18717466  0.30001649  1
  O  O638  1  0.82431412  0.18664988  0.55033573  1
  O  O639  1  0.82297767  0.18744697  0.80054695  1
  O  O640  1  0.82315033  0.52242487  0.05044543  1
  O  O641  1  0.82313018  0.52294977  0.30007396  1
  O  O642  1  0.82281798  0.52249100  0.54971312  1
  O  O643  1  0.82375696  0.52013840  0.80050628  1
  O  O644  1  0.82339902  0.85209846  0.05176831  1
  O  O645  1  0.82228203  0.85286315  0.30271472  1
  O  O646  1  0.82184103  0.85268480  0.55185394  1
  O  O647  1  0.82326037  0.85163624  0.80021872  1
  O  O648  1  0.17531554  0.14581245  0.20034025  1
  O  O649  1  0.17695184  0.14782753  0.44984502  1
  O  O650  1  0.17717423  0.14593829  0.69820215  1
  O  O651  1  0.17589940  0.14669763  0.94950487  1
  O  O652  1  0.17774222  0.47938799  0.19823431  1
  O  O653  1  0.17673625  0.47974012  0.45058484  1
  O  O654  1  0.17680724  0.47963024  0.69787312  1
  O  O655  1  0.17664244  0.48010529  0.95021518  1
  O  O656  1  0.17675321  0.81167197  0.19917253  1
  O  O657  1  0.17735197  0.81418249  0.44950607  1
  O  O658  1  0.17628079  0.81155584  0.69903032  1
  O  O659  1  0.17708248  0.81355653  0.94906993  1
  O  O660  1  0.67663825  0.14675909  0.20118818  1
  O  O661  1  0.67733865  0.14519469  0.45067999  1
  O  O662  1  0.67674177  0.14543673  0.69990206  1
  O  O663  1  0.67562853  0.14669263  0.95025461  1
  O  O664  1  0.67607888  0.48178047  0.20029535  1
  O  O665  1  0.67586928  0.48146190  0.45030320  1
  O  O666  1  0.67604826  0.48082592  0.70073271  1
  O  O667  1  0.67792268  0.48212712  0.94852755  1
  O  O668  1  0.67774846  0.81458560  0.19941601  1
  O  O669  1  0.67787359  0.81467609  0.44859211  1
  O  O670  1  0.67854698  0.81403886  0.69728040  1
  O  O671  1  0.67657905  0.81512210  0.94896711  1
