# generated using pymatgen
data_Na2MnFe(PO4)2
_symmetry_space_group_name_H-M   'P 1'
_cell_length_a   22.34225013
_cell_length_b   20.09499291
_cell_length_c   19.45168004
_cell_angle_alpha   89.98686647
_cell_angle_beta   90.00396758
_cell_angle_gamma   90.01007445
_symmetry_Int_Tables_number   1
_chemical_formula_structural   Na2MnFe(PO4)2
_chemical_formula_sum   'Na96 Mn48 Fe48 P96 O384'
_cell_volume   8733.16901354
_cell_formula_units_Z   48
loop_
 _symmetry_equiv_pos_site_id
 _symmetry_equiv_pos_as_xyz
  1  'x, y, z'
loop_
 _atom_site_type_symbol
 _atom_site_label
 _atom_site_symmetry_multiplicity
 _atom_site_fract_x
 _atom_site_fract_y
 _atom_site_fract_z
 _atom_site_occupancy
  Na  Na0  1  0.13961407  0.25026367  0.24109459  1
  Na  Na1  1  0.13965317  0.24921482  0.49422911  1
  Na  Na2  1  0.14022378  0.24990151  0.74190418  1
  Na  Na3  1  0.13999201  0.24961687  0.99249035  1
  Na  Na4  1  0.13987335  0.58452191  0.24369143  1
  Na  Na5  1  0.14020632  0.58304382  0.49435163  1
  Na  Na6  1  0.14043643  0.58308712  0.74433392  1
  Na  Na7  1  0.14039941  0.58332651  0.99346639  1
  Na  Na8  1  0.13977057  0.91805038  0.24313571  1
  Na  Na9  1  0.13989936  0.91647040  0.49379449  1
  Na  Na10  1  0.13985686  0.91802472  0.74308470  1
  Na  Na11  1  0.13960603  0.91749846  0.99272632  1
  Na  Na12  1  0.64026620  0.24810105  0.24275255  1
  Na  Na13  1  0.64047482  0.25084108  0.49265974  1
  Na  Na14  1  0.64120116  0.24879149  0.74470483  1
  Na  Na15  1  0.64076651  0.24913002  0.99462990  1
  Na  Na16  1  0.64077402  0.58119354  0.24412330  1
  Na  Na17  1  0.64076786  0.58384554  0.49362691  1
  Na  Na18  1  0.64096470  0.58329041  0.74567642  1
  Na  Na19  1  0.64067807  0.58345479  0.99504041  1
  Na  Na20  1  0.64067843  0.91547642  0.24283995  1
  Na  Na21  1  0.64037397  0.91798149  0.49424641  1
  Na  Na22  1  0.64016250  0.91725795  0.74425810  1
  Na  Na23  1  0.64078430  0.91773766  0.99328113  1
  Na  Na24  1  0.36015816  0.08296414  0.00618352  1
  Na  Na25  1  0.35983787  0.08410246  0.25418919  1
  Na  Na26  1  0.35905374  0.08282549  0.50700766  1
  Na  Na27  1  0.35964947  0.08222055  0.75616397  1
  Na  Na28  1  0.35936847  0.41651540  0.00677089  1
  Na  Na29  1  0.35970381  0.41787046  0.25648456  1
  Na  Na30  1  0.35934299  0.41553701  0.50601723  1
  Na  Na31  1  0.35935389  0.41628253  0.75456405  1
  Na  Na32  1  0.35887703  0.75105323  0.00586387  1
  Na  Na33  1  0.35931645  0.75059886  0.25628071  1
  Na  Na34  1  0.35908737  0.74966785  0.50640856  1
  Na  Na35  1  0.35897335  0.75101677  0.75691504  1
  Na  Na36  1  0.86063004  0.08391485  0.00728322  1
  Na  Na37  1  0.86060148  0.08212690  0.25641650  1
  Na  Na38  1  0.86045537  0.08395690  0.50610562  1
  Na  Na39  1  0.86060564  0.08319545  0.75717885  1
  Na  Na40  1  0.86022337  0.41641470  0.00733674  1
  Na  Na41  1  0.86012154  0.41455397  0.25569596  1
  Na  Na42  1  0.85970697  0.41666670  0.50563152  1
  Na  Na43  1  0.86002291  0.41596096  0.75826645  1
  Na  Na44  1  0.85946988  0.75060963  0.00684936  1
  Na  Na45  1  0.85965620  0.74838244  0.25654214  1
  Na  Na46  1  0.85946824  0.75211008  0.50620760  1
  Na  Na47  1  0.85936843  0.75050078  0.75726391  1
  Na  Na48  1  0.10967076  0.08336491  0.11722848  1
  Na  Na49  1  0.10930724  0.08428175  0.36860228  1
  Na  Na50  1  0.10982007  0.08258357  0.61823962  1
  Na  Na51  1  0.10985654  0.08420050  0.86809438  1
  Na  Na52  1  0.10927891  0.41606978  0.11743079  1
  Na  Na53  1  0.10927610  0.41657101  0.36821429  1
  Na  Na54  1  0.10975193  0.41504676  0.61858671  1
  Na  Na55  1  0.10987572  0.41612049  0.86847736  1
  Na  Na56  1  0.10887447  0.74980335  0.11858269  1
  Na  Na57  1  0.10921429  0.75133199  0.36892740  1
  Na  Na58  1  0.10930978  0.75148944  0.61874402  1
  Na  Na59  1  0.10917451  0.75217994  0.86854874  1
  Na  Na60  1  0.61050889  0.08331362  0.11788873  1
  Na  Na61  1  0.60960573  0.08344688  0.36778800  1
  Na  Na62  1  0.61012936  0.08303953  0.61914986  1
  Na  Na63  1  0.61075995  0.08241026  0.86921059  1
  Na  Na64  1  0.60977335  0.41526642  0.11961338  1
  Na  Na65  1  0.60928592  0.41524113  0.36801092  1
  Na  Na66  1  0.61022081  0.41669134  0.61930260  1
  Na  Na67  1  0.60993836  0.41675541  0.86990327  1
  Na  Na68  1  0.60954078  0.75040698  0.11910040  1
  Na  Na69  1  0.60960584  0.74927668  0.36821349  1
  Na  Na70  1  0.60951842  0.75087521  0.62009141  1
  Na  Na71  1  0.60949334  0.75060983  0.86909636  1
  Na  Na72  1  0.39078930  0.25008766  0.13146613  1
  Na  Na73  1  0.38985478  0.24973989  0.37980040  1
  Na  Na74  1  0.39007079  0.24983602  0.63078431  1
  Na  Na75  1  0.39059168  0.24856305  0.88043441  1
  Na  Na76  1  0.39000945  0.58310022  0.13219874  1
  Na  Na77  1  0.39019020  0.58228228  0.38109899  1
  Na  Na78  1  0.39027350  0.58316815  0.63123718  1
  Na  Na79  1  0.38986162  0.58305067  0.88105005  1
  Na  Na80  1  0.39028842  0.91867989  0.12996910  1
  Na  Na81  1  0.39026778  0.91637989  0.38052150  1
  Na  Na82  1  0.38943221  0.91680710  0.63271492  1
  Na  Na83  1  0.38958248  0.91776700  0.88082788  1
  Na  Na84  1  0.89066828  0.24884840  0.13152514  1
  Na  Na85  1  0.89052812  0.24855510  0.37972884  1
  Na  Na86  1  0.89080970  0.24836730  0.63176034  1
  Na  Na87  1  0.89145090  0.24934084  0.88264862  1
  Na  Na88  1  0.89050938  0.58228799  0.13138158  1
  Na  Na89  1  0.89049087  0.58406262  0.38142870  1
  Na  Na90  1  0.89047352  0.58280173  0.63219852  1
  Na  Na91  1  0.89024569  0.58324093  0.88357117  1
  Na  Na92  1  0.89062045  0.91721297  0.13144712  1
  Na  Na93  1  0.89055654  0.91813945  0.38172443  1
  Na  Na94  1  0.89034897  0.91860484  0.63122615  1
  Na  Na95  1  0.89081332  0.91925374  0.88217899  1
  Mn  Mn96  1  0.50033883  0.00024993  0.24967552  1
  Mn  Mn97  1  -0.00019432  0.83431066  0.24986489  1
  Mn  Mn98  1  0.75057130  0.33286924  0.87596288  1
  Mn  Mn99  1  0.49944341  0.16706922  0.49941780  1
  Mn  Mn100  1  0.75061216  0.16604595  0.62493536  1
  Mn  Mn101  1  0.75043689  0.33333322  0.62535610  1
  Mn  Mn102  1  0.24968406  0.00033642  0.37499553  1
  Mn  Mn103  1  0.49974673  0.83330697  0.50033191  1
  Mn  Mn104  1  -0.00071103  0.33161632  0.49920296  1
  Mn  Mn105  1  -0.00031224  0.66736802  0.75057968  1
  Mn  Mn106  1  0.49939991  0.33219749  0.00026418  1
  Mn  Mn107  1  0.24951167  0.66682727  0.12458218  1
  Mn  Mn108  1  0.49984448  -0.00033683  0.49919928  1
  Mn  Mn109  1  0.75024753  0.66630056  0.37566086  1
  Mn  Mn110  1  0.24890892  0.50084563  0.37560526  1
  Mn  Mn111  1  0.49950169  0.83476526  -0.00078383  1
  Mn  Mn112  1  0.50046905  0.49889061  0.50021395  1
  Mn  Mn113  1  0.00028095  0.49880193  0.75075451  1
  Mn  Mn114  1  0.49979263  0.49991815  0.74990509  1
  Mn  Mn115  1  0.49956442  0.66712208  0.00076481  1
  Mn  Mn116  1  0.75024561  0.83386456  0.87563943  1
  Mn  Mn117  1  -0.00003164  0.49964245  0.24979598  1
  Mn  Mn118  1  0.25013552  0.83306404  0.37468993  1
  Mn  Mn119  1  0.75048123  0.66724566  0.62534079  1
  Mn  Mn120  1  0.74968671  0.83505559  0.62638212  1
  Mn  Mn121  1  0.49970064  0.66654323  0.49986310  1
  Mn  Mn122  1  0.24899209  0.83457349  0.12517712  1
  Mn  Mn123  1  0.50119852  0.16567601  0.75012960  1
  Mn  Mn124  1  0.49972747  0.66657654  0.25004973  1
  Mn  Mn125  1  0.24912555  0.33343481  0.37446570  1
  Mn  Mn126  1  0.50023705  0.66741019  0.75052960  1
  Mn  Mn127  1  -0.00080787  0.83533476  0.74965974  1
  Mn  Mn128  1  0.00008474  0.66806869  0.50070781  1
  Mn  Mn129  1  0.75003399  0.83264376  0.12446645  1
  Mn  Mn130  1  0.75057328  0.49942661  0.12524825  1
  Mn  Mn131  1  0.74982979  -0.00000661  0.37445701  1
  Mn  Mn132  1  0.24963621  0.33395160  0.12383628  1
  Mn  Mn133  1  0.75040411  0.50041773  0.62607328  1
  Mn  Mn134  1  0.25065443  0.33364080  0.87404388  1
  Mn  Mn135  1  0.24959591  0.66641863  0.62601968  1
  Mn  Mn136  1  0.49981411  0.49944628  0.00072679  1
  Mn  Mn137  1  -0.00019265  0.66687301  0.00003571  1
  Mn  Mn138  1  -0.00037939  0.49978312  0.49990969  1
  Mn  Mn139  1  0.24968718  0.66665389  0.87495806  1
  Mn  Mn140  1  0.50049835  0.33270733  0.75021580  1
  Mn  Mn141  1  0.24948437  0.16681293  0.37459571  1
  Mn  Mn142  1  0.25065732  0.16582720  0.87364929  1
  Mn  Mn143  1  0.75033801  0.33253938  0.37486376  1
  Fe  Fe144  1  -0.00012887  0.00115814  0.50031364  1
  Fe  Fe145  1  0.00046791  0.16610419  0.49976780  1
  Fe  Fe146  1  0.00033118  0.16642834  0.75043635  1
  Fe  Fe147  1  0.75101555  0.16635038  0.87594116  1
  Fe  Fe148  1  0.50086642  0.16609178  0.00020545  1
  Fe  Fe149  1  0.00066978  0.49909397  0.00040649  1
  Fe  Fe150  1  0.50092474  0.00032397  -0.00007884  1
  Fe  Fe151  1  0.49984527  0.83366640  0.24949929  1
  Fe  Fe152  1  0.00054592  0.16639744  0.24946223  1
  Fe  Fe153  1  0.24994048  0.50068387  0.12497142  1
  Fe  Fe154  1  0.00077445  0.00048659  0.24982050  1
  Fe  Fe155  1  0.50015663  0.49906376  0.25072154  1
  Fe  Fe156  1  -0.00045189  0.83413499  0.00036771  1
  Fe  Fe157  1  0.75026095  0.66601385  0.12550292  1
  Fe  Fe158  1  0.00028490  0.00102319  0.00036052  1
  Fe  Fe159  1  0.00035314  0.33240971  -0.00034012  1
  Fe  Fe160  1  -0.00038432  0.33258125  0.75033334  1
  Fe  Fe161  1  0.75000927  0.16595337  0.37406750  1
  Fe  Fe162  1  0.49924493  0.83411309  0.75018528  1
  Fe  Fe163  1  0.24927900  0.00010136  0.87443074  1
  Fe  Fe164  1  0.24980785  -0.00057409  0.62531163  1
  Fe  Fe165  1  0.75067030  0.00071756  0.87515063  1
  Fe  Fe166  1  0.24993201  0.16639253  0.62492302  1
  Fe  Fe167  1  -0.00070234  0.83491690  0.49939663  1
  Fe  Fe168  1  0.75042859  0.16575665  0.12477426  1
  Fe  Fe169  1  0.24961992  0.49971203  0.62439843  1
  Fe  Fe170  1  0.25006749  0.49969904  0.87428299  1
  Fe  Fe171  1  0.75017694  0.50014750  0.87652965  1
  Fe  Fe172  1  -0.00029725  0.66712848  0.24993600  1
  Fe  Fe173  1  0.24953472  0.66666280  0.37541626  1
  Fe  Fe174  1  0.49978360  0.00017759  0.75015703  1
  Fe  Fe175  1  0.24917497  0.83323809  0.62544856  1
  Fe  Fe176  1  0.00051775  0.00113510  0.75039686  1
  Fe  Fe177  1  0.24992065  0.00045737  0.12391439  1
  Fe  Fe178  1  0.49993450  0.33250604  0.24989916  1
  Fe  Fe179  1  0.25020954  0.16645039  0.12360531  1
  Fe  Fe180  1  0.74997600  0.33251943  0.12528948  1
  Fe  Fe181  1  0.00004083  0.33267872  0.24898665  1
  Fe  Fe182  1  0.75036766  0.49922936  0.37463713  1
  Fe  Fe183  1  0.00065982  0.16698704  0.00001933  1
  Fe  Fe184  1  0.74991083  0.83327243  0.37471470  1
  Fe  Fe185  1  0.49986429  0.16648466  0.24941635  1
  Fe  Fe186  1  0.75000716  0.66675883  0.87600039  1
  Fe  Fe187  1  0.75076886  -0.00032615  0.12510445  1
  Fe  Fe188  1  0.24927770  0.83426870  0.87510867  1
  Fe  Fe189  1  0.24949163  0.33312297  0.62478953  1
  Fe  Fe190  1  0.75017925  0.00081181  0.62497631  1
  Fe  Fe191  1  0.49994059  0.33254400  0.49931881  1
  P  P192  1  0.04158328  0.24985425  0.10178484  1
  P  P193  1  0.04173045  0.24970002  0.35086395  1
  P  P194  1  0.04170392  0.24777361  0.60298001  1
  P  P195  1  0.04198923  0.25002378  0.85194227  1
  P  P196  1  0.04184096  0.58209128  0.10257480  1
  P  P197  1  0.04182421  0.58502898  0.35234431  1
  P  P198  1  0.04268963  0.58315993  0.60341516  1
  P  P199  1  0.04230266  0.58312220  0.85401364  1
  P  P200  1  0.04121062  0.91720243  0.10175755  1
  P  P201  1  0.04202184  0.91894315  0.35304773  1
  P  P202  1  0.04122072  0.91768294  0.60148194  1
  P  P203  1  0.04200796  0.91914836  0.85316325  1
  P  P204  1  0.54210792  0.24825559  0.10335241  1
  P  P205  1  0.54120748  0.24947596  0.35138439  1
  P  P206  1  0.54285386  0.25068804  0.60201945  1
  P  P207  1  0.54336199  0.24886878  0.85399717  1
  P  P208  1  0.54240304  0.58279539  0.10432886  1
  P  P209  1  0.54232797  0.58158463  0.35246610  1
  P  P210  1  0.54312141  0.58353200  0.60317588  1
  P  P211  1  0.54272800  0.58340641  0.85373110  1
  P  P212  1  0.54278182  0.91801246  0.10237307  1
  P  P213  1  0.54266863  0.91530559  0.35187501  1
  P  P214  1  0.54213629  0.91707795  0.60409356  1
  P  P215  1  0.54138636  0.91745052  0.85178636  1
  P  P216  1  0.45864155  0.08457392  0.14632477  1
  P  P217  1  0.45674347  0.08369025  0.39595036  1
  P  P218  1  0.45760651  0.08222208  0.64755514  1
  P  P219  1  0.45902938  0.08289884  0.89824596  1
  P  P220  1  0.45855446  0.41610785  0.14896544  1
  P  P221  1  0.45779845  0.41469920  0.39676153  1
  P  P222  1  0.45747341  0.41576969  0.64621702  1
  P  P223  1  0.45674234  0.41601572  0.89712377  1
  P  P224  1  0.45727775  0.75179274  0.14745108  1
  P  P225  1  0.45684505  0.75010497  0.39626571  1
  P  P226  1  0.45700860  0.75147630  0.64804277  1
  P  P227  1  0.45680765  0.75079018  0.89657037  1
  P  P228  1  0.95924566  0.08319231  0.14775815  1
  P  P229  1  0.95901088  0.08363190  0.39753033  1
  P  P230  1  0.95893483  0.08333686  0.64819251  1
  P  P231  1  0.95950854  0.08429673  0.89844831  1
  P  P232  1  0.95827903  0.41471346  0.14642296  1
  P  P233  1  0.95727394  0.41591382  0.39603116  1
  P  P234  1  0.95749321  0.41449690  0.64796339  1
  P  P235  1  0.95897316  0.41561995  0.89862583  1
  P  P236  1  0.95764546  0.74939915  0.14739933  1
  P  P237  1  0.95757289  0.75209857  0.39726690  1
  P  P238  1  0.95668843  0.75123005  0.64676477  1
  P  P239  1  0.95756311  0.75238814  0.89798360  1
  P  P240  1  0.20826997  0.08355496  0.22541654  1
  P  P241  1  0.20730944  0.08337703  0.47891163  1
  P  P242  1  0.20875872  0.08297512  0.72638567  1
  P  P243  1  0.20816925  0.08234644  0.97723141  1
  P  P244  1  0.20723444  0.41852331  0.22676297  1
  P  P245  1  0.20661244  0.41618738  0.47879870  1
  P  P246  1  0.20845046  0.41703659  0.72642781  1
  P  P247  1  0.20803295  0.41801684  0.97709430  1
  P  P248  1  0.20664330  0.75015653  0.22838265  1
  P  P249  1  0.20749163  0.74882945  0.47795967  1
  P  P250  1  0.20722411  0.75180593  0.72832799  1
  P  P251  1  0.20732518  0.75153337  0.97711783  1
  P  P252  1  0.70904185  0.08259623  0.22646020  1
  P  P253  1  0.70775138  0.08460435  0.47706213  1
  P  P254  1  0.70841774  0.08198673  0.72843398  1
  P  P255  1  0.70970743  0.08333003  0.97764537  1
  P  P256  1  0.70827834  0.41470307  0.22784461  1
  P  P257  1  0.70775345  0.41777410  0.47724108  1
  P  P258  1  0.70790940  0.41661072  0.72961831  1
  P  P259  1  0.70833633  0.41720618  0.97867600  1
  P  P260  1  0.70807284  0.74814034  0.22775229  1
  P  P261  1  0.70758444  0.75197392  0.47764809  1
  P  P262  1  0.70749792  0.75001919  0.72937551  1
  P  P263  1  0.70778958  0.74882595  0.97818003  1
  P  P264  1  0.29236877  0.24886202  0.02178999  1
  P  P265  1  0.29157150  0.24995034  0.27042676  1
  P  P266  1  0.29086154  0.24970223  0.52336567  1
  P  P267  1  0.29262069  0.24976291  0.77016477  1
  P  P268  1  0.29220914  0.58213265  0.02203712  1
  P  P269  1  0.29190202  0.58485373  0.27250555  1
  P  P270  1  0.29196700  0.58251656  0.52257461  1
  P  P271  1  0.29194297  0.58184119  0.77203607  1
  P  P272  1  0.29149654  0.91812055  0.02134109  1
  P  P273  1  0.29246004  0.91773204  0.27127089  1
  P  P274  1  0.29100481  0.91594947  0.52384444  1
  P  P275  1  0.29047387  0.91698361  0.77266874  1
  P  P276  1  0.79161209  0.24954886  0.02359893  1
  P  P277  1  0.79193731  0.24779452  0.27130296  1
  P  P278  1  0.79314393  0.24984899  0.52149886  1
  P  P279  1  0.79308791  0.24823015  0.77349670  1
  P  P280  1  0.79241801  0.58455256  0.02239344  1
  P  P281  1  0.79256095  0.58155538  0.27254244  1
  P  P282  1  0.79319166  0.58341775  0.52191019  1
  P  P283  1  0.79215363  0.58330832  0.77478372  1
  P  P284  1  0.79248743  0.91828103  0.02233342  1
  P  P285  1  0.79225508  0.91515547  0.27212459  1
  P  P286  1  0.79206275  0.91861439  0.52247351  1
  P  P287  1  0.79255448  0.91860367  0.77291073  1
  O  O288  1  0.03670449  0.24974167  0.18161711  1
  O  O289  1  0.03679739  0.24894258  0.43079113  1
  O  O290  1  0.03638270  0.24810924  0.68280110  1
  O  O291  1  0.03711092  0.25045332  0.93186128  1
  O  O292  1  0.03687358  0.58234210  0.18248093  1
  O  O293  1  0.03655534  0.58484618  0.43227423  1
  O  O294  1  0.03762637  0.58303195  0.68340660  1
  O  O295  1  0.03700026  0.58260342  0.93396822  1
  O  O296  1  0.03636742  0.91766062  0.18171991  1
  O  O297  1  0.03652112  0.91880708  0.43287150  1
  O  O298  1  0.03642553  0.91786017  0.68141984  1
  O  O299  1  0.03677744  0.91876715  0.93298824  1
  O  O300  1  0.53663256  0.24827003  0.18321935  1
  O  O301  1  0.53644220  0.25029723  0.43135303  1
  O  O302  1  0.53825592  0.25012394  0.68204884  1
  O  O303  1  0.53790507  0.24831884  0.93391801  1
  O  O304  1  0.53691089  0.58218897  0.18426244  1
  O  O305  1  0.53733910  0.58181389  0.43244096  1
  O  O306  1  0.53799527  0.58361404  0.68315333  1
  O  O307  1  0.53753660  0.58348942  0.93371003  1
  O  O308  1  0.53773050  0.91734316  0.18226718  1
  O  O309  1  0.53754471  0.91564336  0.43183248  1
  O  O310  1  0.53676701  0.91727820  0.68402074  1
  O  O311  1  0.53660948  0.91814706  0.93177344  1
  O  O312  1  0.46429853  0.08430612  0.06647369  1
  O  O313  1  0.46211773  0.08400523  0.31601180  1
  O  O314  1  0.46207087  0.08257288  0.56756033  1
  O  O315  1  0.46406648  0.08231570  0.81827286  1
  O  O316  1  0.46294437  0.41587186  0.06895937  1
  O  O317  1  0.46334721  0.41527574  0.31688036  1
  O  O318  1  0.46267034  0.41515499  0.56626041  1
  O  O319  1  0.46186548  0.41609593  0.81717792  1
  O  O320  1  0.46247432  0.75155350  0.06747331  1
  O  O321  1  0.46204731  0.75069060  0.31631211  1
  O  O322  1  0.46188880  0.75105901  0.56803938  1
  O  O323  1  0.46209210  0.75122595  0.81664570  1
  O  O324  1  0.96407823  0.08332666  0.06790430  1
  O  O325  1  0.96438337  0.08342024  0.31771040  1
  O  O326  1  0.96367599  0.08297797  0.56831327  1
  O  O327  1  0.96412271  0.08479757  0.81861916  1
  O  O328  1  0.96394984  0.41501447  0.06658315  1
  O  O329  1  0.96271029  0.41580082  0.31610426  1
  O  O330  1  0.96232021  0.41475173  0.56798024  1
  O  O331  1  0.96372583  0.41533247  0.81863916  1
  O  O332  1  0.96292965  0.74997495  0.06751562  1
  O  O333  1  0.96289820  0.75144297  0.31732511  1
  O  O334  1  0.96189281  0.75166013  0.56681591  1
  O  O335  1  0.96265069  0.75211455  0.81803852  1
  O  O336  1  0.21338817  0.08282150  0.05710287  1
  O  O337  1  0.21276628  0.08379197  0.30544421  1
  O  O338  1  0.21259959  0.08356232  0.55875665  1
  O  O339  1  0.21356666  0.08221541  0.80633169  1
  O  O340  1  0.21324607  0.41806222  0.05703247  1
  O  O341  1  0.21198552  0.41795055  0.30676339  1
  O  O342  1  0.21184979  0.41593591  0.55868861  1
  O  O343  1  0.21363455  0.41717635  0.80638912  1
  O  O344  1  0.21224191  0.75129431  0.05708026  1
  O  O345  1  0.21194887  0.74959420  0.30832845  1
  O  O346  1  0.21260380  0.74925153  0.55793875  1
  O  O347  1  0.21275054  0.75209411  0.80823561  1
  O  O348  1  0.71485837  0.08303630  0.05751932  1
  O  O349  1  0.71350792  0.08321708  0.30642346  1
  O  O350  1  0.71271930  0.08407941  0.55699332  1
  O  O351  1  0.71382387  0.08214361  0.80829734  1
  O  O352  1  0.71372722  0.41638312  0.05860165  1
  O  O353  1  0.71357395  0.41537190  0.30772898  1
  O  O354  1  0.71278359  0.41749847  0.55725546  1
  O  O355  1  0.71322007  0.41697030  0.80958284  1
  O  O356  1  0.71308416  0.74861354  0.05812622  1
  O  O357  1  0.71336145  0.74904804  0.30765830  1
  O  O358  1  0.71274107  0.75204271  0.55762801  1
  O  O359  1  0.71286853  0.74943364  0.80931563  1
  O  O360  1  0.28646138  0.24955246  0.19047939  1
  O  O361  1  0.28586136  0.25008300  0.44334379  1
  O  O362  1  0.28705712  0.24957310  0.69031473  1
  O  O363  1  0.28785707  0.24906289  0.94176210  1
  O  O364  1  0.28694694  0.58435203  0.19252619  1
  O  O365  1  0.28643794  0.58359196  0.44265574  1
  O  O366  1  0.28643207  0.58193082  0.69214262  1
  O  O367  1  0.28700306  0.58192512  0.94208457  1
  O  O368  1  0.28715270  0.91837203  0.19135293  1
  O  O369  1  0.28641386  0.91628738  0.44386161  1
  O  O370  1  0.28555724  0.91646886  0.69276288  1
  O  O371  1  0.28598979  0.91772908  0.94148056  1
  O  O372  1  0.78638196  0.24808163  0.19145605  1
  O  O373  1  0.78798871  0.24956231  0.44156414  1
  O  O374  1  0.78809646  0.24848096  0.69354483  1
  O  O375  1  0.78703713  0.24923322  0.94363715  1
  O  O376  1  0.78723118  0.58226474  0.19261052  1
  O  O377  1  0.78800494  0.58293156  0.44196855  1
  O  O378  1  0.78738719  0.58335613  0.69472265  1
  O  O379  1  0.78684689  0.58448134  0.94254127  1
  O  O380  1  0.78709939  0.91570459  0.19218588  1
  O  O381  1  0.78688797  0.91786273  0.44257498  1
  O  O382  1  0.78724088  0.91880125  0.69298131  1
  O  O383  1  0.78710746  0.91854785  0.94243631  1
  O  O384  1  0.22790256  0.24932213  0.05673851  1
  O  O385  1  0.22725087  0.25002994  0.30583225  1
  O  O386  1  0.22674879  0.24901329  0.55930357  1
  O  O387  1  0.22849735  0.24974994  0.80612155  1
  O  O388  1  0.22784826  0.58201338  0.05764441  1
  O  O389  1  0.22754347  0.58543758  0.30806634  1
  O  O390  1  0.22776050  0.58195450  0.55852146  1
  O  O391  1  0.22778620  0.58186696  0.80810630  1
  O  O392  1  0.22732695  0.91878539  0.05748208  1
  O  O393  1  0.22812168  0.91703467  0.30662193  1
  O  O394  1  0.22671256  0.91566976  0.55940147  1
  O  O395  1  0.22639355  0.91765779  0.80890318  1
  O  O396  1  0.72743744  0.24987479  0.05939318  1
  O  O397  1  0.72789627  0.24782466  0.30770494  1
  O  O398  1  0.72878863  0.24994807  0.55684771  1
  O  O399  1  0.72875869  0.24814266  0.80895425  1
  O  O400  1  0.72835561  0.58453869  0.05871338  1
  O  O401  1  0.72835923  0.58136693  0.30845350  1
  O  O402  1  0.72879297  0.58373057  0.55718678  1
  O  O403  1  0.72786953  0.58300085  0.81042371  1
  O  O404  1  0.72829518  0.91828366  0.05821194  1
  O  O405  1  0.72794746  0.91506901  0.30778045  1
  O  O406  1  0.72782663  0.91920708  0.55837816  1
  O  O407  1  0.72830189  0.91849036  0.80864585  1
  O  O408  1  0.27256751  0.08305708  0.18988686  1
  O  O409  1  0.27158131  0.08358346  0.44323624  1
  O  O410  1  0.27287582  0.08351642  0.69050595  1
  O  O411  1  0.27235004  0.08155836  0.94122792  1
  O  O412  1  0.27168296  0.41845009  0.19155295  1
  O  O413  1  0.27086555  0.41661735  0.44313640  1
  O  O414  1  0.27241746  0.41722089  0.69004916  1
  O  O415  1  0.27232398  0.41820293  0.94140748  1
  O  O416  1  0.27094258  0.75065403  0.19298916  1
  O  O417  1  0.27174569  0.74837178  0.44209894  1
  O  O418  1  0.27137958  0.75170949  0.69231739  1
  O  O419  1  0.27160724  0.75135089  0.94170094  1
  O  O420  1  0.77335964  0.08204647  0.19092483  1
  O  O421  1  0.77209744  0.08463570  0.44150572  1
  O  O422  1  0.77260864  0.08178427  0.69231519  1
  O  O423  1  0.77377254  0.08327796  0.94131233  1
  O  O424  1  0.77245430  0.41425311  0.19193299  1
  O  O425  1  0.77214116  0.41769749  0.44182949  1
  O  O426  1  0.77222623  0.41651537  0.69413043  1
  O  O427  1  0.77254005  0.41761679  0.94282323  1
  O  O428  1  0.77230318  0.74805382  0.19185301  1
  O  O429  1  0.77192085  0.75175881  0.44207346  1
  O  O430  1  0.77176230  0.75074001  0.69384054  1
  O  O431  1  0.77205948  0.74917128  0.94250836  1
  O  O432  1  0.02335850  0.08276473  0.18390218  1
  O  O433  1  0.02292980  0.08351636  0.43432280  1
  O  O434  1  0.02308832  0.08367737  0.68439671  1
  O  O435  1  0.02362795  0.08392361  0.93440016  1
  O  O436  1  0.02229787  0.41469416  0.18283684  1
  O  O437  1  0.02145769  0.41573527  0.43173683  1
  O  O438  1  0.02193523  0.41427198  0.68324243  1
  O  O439  1  0.02320609  0.41499793  0.93433314  1
  O  O440  1  0.02184630  0.74926035  0.18331614  1
  O  O441  1  0.02176010  0.75278684  0.43322559  1
  O  O442  1  0.02108040  0.75123727  0.68201298  1
  O  O443  1  0.02185344  0.75239812  0.93355187  1
  O  O444  1  0.52266322  0.08472794  0.18274339  1
  O  O445  1  0.52114654  0.08372797  0.43118150  1
  O  O446  1  0.52215644  0.08135207  0.68254367  1
  O  O447  1  0.52326729  0.08288902  0.93419714  1
  O  O448  1  0.52285387  0.41644937  0.18432168  1
  O  O449  1  0.52198034  0.41418142  0.43291957  1
  O  O450  1  0.52183316  0.41631545  0.68157697  1
  O  O451  1  0.52119920  0.41579745  0.93214315  1
  O  O452  1  0.52160608  0.75151985  0.18298555  1
  O  O453  1  0.52126395  0.74993624  0.43150348  1
  O  O454  1  0.52144456  0.75213762  0.68325985  1
  O  O455  1  0.52116482  0.75062153  0.93187109  1
  O  O456  1  0.47800226  0.24761242  0.06716947  1
  O  O457  1  0.47703866  0.24881841  0.31556248  1
  O  O458  1  0.47825291  0.25130244  0.56699745  1
  O  O459  1  0.47910352  0.24881526  0.81845033  1
  O  O460  1  0.47804594  0.58306596  0.06898582  1
  O  O461  1  0.47797973  0.58158068  0.31707370  1
  O  O462  1  0.47861315  0.58301239  0.56825092  1
  O  O463  1  0.47832154  0.58354482  0.81859038  1
  O  O464  1  0.47841484  0.91898703  0.06688480  1
  O  O465  1  0.47826750  0.91552454  0.31653987  1
  O  O466  1  0.47782261  0.91699009  0.56847854  1
  O  O467  1  0.47712843  0.91740864  0.81597246  1
  O  O468  1  0.97749816  0.25043009  0.06556725  1
  O  O469  1  0.97758581  0.25028063  0.31480623  1
  O  O470  1  0.97763489  0.24720478  0.56660965  1
  O  O471  1  0.97775950  0.24958277  0.81598326  1
  O  O472  1  0.97764491  0.58240439  0.06693170  1
  O  O473  1  0.97763489  0.58476285  0.31647009  1
  O  O474  1  0.97825538  0.58365120  0.56838983  1
  O  O475  1  0.97801765  0.58293818  0.81856955  1
  O  O476  1  0.97707040  0.91687354  0.06582173  1
  O  O477  1  0.97794059  0.91918432  0.31673168  1
  O  O478  1  0.97704482  0.91776156  0.56549134  1
  O  O479  1  0.97780896  0.91983905  0.81714420  1
  O  O480  1  0.07323883  0.31287178  0.07316088  1
  O  O481  1  0.07279675  0.31333186  0.32291616  1
  O  O482  1  0.07254113  0.31143681  0.57460182  1
  O  O483  1  0.07252080  0.31367644  0.82292957  1
  O  O484  1  0.07369284  0.64524071  0.07469166  1
  O  O485  1  0.07212011  0.64887093  0.32388764  1
  O  O486  1  0.07406691  0.64656954  0.57554892  1
  O  O487  1  0.07299706  0.64710722  0.82635047  1
  O  O488  1  0.07193187  0.98078377  0.07312139  1
  O  O489  1  0.07319654  0.98219253  0.32418831  1
  O  O490  1  0.07231032  0.98113444  0.57320885  1
  O  O491  1  0.07311984  0.98241659  0.82420734  1
  O  O492  1  0.57285965  0.31219672  0.07556785  1
  O  O493  1  0.57169369  0.31313101  0.32239194  1
  O  O494  1  0.57372883  0.31405061  0.57348164  1
  O  O495  1  0.57428726  0.31263209  0.82629917  1
  O  O496  1  0.57333741  0.64658491  0.07663381  1
  O  O497  1  0.57346937  0.64522085  0.32477674  1
  O  O498  1  0.57367098  0.64730777  0.57493710  1
  O  O499  1  0.57388919  0.64684493  0.82567186  1
  O  O500  1  0.57388777  0.98142589  0.07396858  1
  O  O501  1  0.57394352  0.97891617  0.32422476  1
  O  O502  1  0.57329642  0.98030440  0.57511860  1
  O  O503  1  0.57250170  0.98075643  0.82316207  1
  O  O504  1  0.42736131  0.02102122  0.17427353  1
  O  O505  1  0.42595450  0.01990236  0.42396102  1
  O  O506  1  0.42645955  0.01905989  0.67631964  1
  O  O507  1  0.42797901  0.01951775  0.92683305  1
  O  O508  1  0.42823129  0.35206519  0.17715889  1
  O  O509  1  0.42675026  0.35117974  0.42514661  1
  O  O510  1  0.42652499  0.35246125  0.67490602  1
  O  O511  1  0.42567896  0.35247099  0.92517797  1
  O  O512  1  0.42589846  0.68830667  0.17512742  1
  O  O513  1  0.42610740  0.68625222  0.42420876  1
  O  O514  1  0.42626440  0.68764900  0.67584204  1
  O  O515  1  0.42573412  0.68726819  0.92472906  1
  O  O516  1  0.92794165  0.01989480  0.17632401  1
  O  O517  1  0.92770154  0.02034855  0.42617931  1
  O  O518  1  0.92844883  0.01964092  0.67719584  1
  O  O519  1  0.92828740  0.02092197  0.92698556  1
  O  O520  1  0.92739718  0.35116998  0.17493151  1
  O  O521  1  0.92582105  0.35261044  0.42406511  1
  O  O522  1  0.92684516  0.35093521  0.67656675  1
  O  O523  1  0.92729168  0.35252256  0.92693958  1
  O  O524  1  0.92722474  0.68555589  0.17582664  1
  O  O525  1  0.92649955  0.68860577  0.42538803  1
  O  O526  1  0.92589276  0.68752875  0.67505550  1
  O  O527  1  0.92643315  0.68878183  0.92570846  1
  O  O528  1  0.17718128  0.02000737  0.19741291  1
  O  O529  1  0.17640863  0.01979591  0.45052760  1
  O  O530  1  0.17820359  0.01930384  0.69758150  1
  O  O531  1  0.17674102  0.01923139  0.94862527  1
  O  O532  1  0.17607308  0.35512319  0.19847264  1
  O  O533  1  0.17561483  0.35279589  0.44999466  1
  O  O534  1  0.17812035  0.35280508  0.69852015  1
  O  O535  1  0.17742669  0.35394212  0.94937523  1
  O  O536  1  0.17557118  0.68699737  0.19950377  1
  O  O537  1  0.17667937  0.68524570  0.44962515  1
  O  O538  1  0.17619344  0.68787188  0.70109009  1
  O  O539  1  0.17609218  0.68793387  0.94946047  1
  O  O540  1  0.67811677  0.01884013  0.19856376  1
  O  O541  1  0.67632667  0.02130628  0.44885356  1
  O  O542  1  0.67750039  0.01871900  0.69939260  1
  O  O543  1  0.67847053  0.02000661  0.94902335  1
  O  O544  1  0.67744972  0.35104436  0.19967837  1
  O  O545  1  0.67672276  0.35412389  0.44934217  1
  O  O546  1  0.67709708  0.35283107  0.70156332  1
  O  O547  1  0.67703099  0.35380396  0.95065791  1
  O  O548  1  0.67754584  0.68422791  0.19985582  1
  O  O549  1  0.67641543  0.68827685  0.45011411  1
  O  O550  1  0.67657273  0.68671587  0.70058266  1
  O  O551  1  0.67691795  0.68553137  0.94946180  1
  O  O552  1  0.32381345  0.31221741  0.04971256  1
  O  O553  1  0.32243125  0.31365141  0.29846012  1
  O  O554  1  0.32104068  0.31373442  0.55167683  1
  O  O555  1  0.32384623  0.31315446  0.79845865  1
  O  O556  1  0.32299257  0.64615415  0.04951752  1
  O  O557  1  0.32273475  0.64833777  0.30100878  1
  O  O558  1  0.32316311  0.64578983  0.55115287  1
  O  O559  1  0.32283757  0.64574370  0.79968783  1
  O  O560  1  0.32276220  0.98138961  0.04991527  1
  O  O561  1  0.32344783  0.98104315  0.29996970  1
  O  O562  1  0.32136429  0.97987262  0.55236258  1
  O  O563  1  0.32181944  0.98049110  0.80069973  1
  O  O564  1  0.82251098  0.31322339  0.05167556  1
  O  O565  1  0.82342734  0.31113223  0.29933695  1
  O  O566  1  0.82405863  0.31344644  0.54975448  1
  O  O567  1  0.82417831  0.31175575  0.80148989  1
  O  O568  1  0.82336760  0.64788243  0.05124854  1
  O  O569  1  0.82387932  0.64487784  0.30071637  1
  O  O570  1  0.82409936  0.64717728  0.54984143  1
  O  O571  1  0.82268914  0.64724579  0.80272114  1
  O  O572  1  0.82368684  0.98137374  0.05119504  1
  O  O573  1  0.82352465  0.97858554  0.30021458  1
  O  O574  1  0.82281918  0.98238693  0.55056217  1
  O  O575  1  0.82361034  0.98179905  0.80175400  1
  O  O576  1  0.42749205  0.14785507  0.17494459  1
  O  O577  1  0.42534305  0.14676811  0.42450622  1
  O  O578  1  0.42740689  0.14619414  0.67573361  1
  O  O579  1  0.42841699  0.14685190  0.92605907  1
  O  O580  1  0.42749008  0.47959420  0.17713361  1
  O  O581  1  0.42672672  0.47825371  0.42498854  1
  O  O582  1  0.42633288  0.47941538  0.67396710  1
  O  O583  1  0.42588394  0.47948092  0.92547368  1
  O  O584  1  0.42693750  0.81570935  0.17548006  1
  O  O585  1  0.42553318  0.81320205  0.42495995  1
  O  O586  1  0.42611209  0.81490197  0.67655385  1
  O  O587  1  0.42565062  0.81418900  0.92481891  1
  O  O588  1  0.92889550  0.14707983  0.17646275  1
  O  O589  1  0.92829353  0.14739700  0.42585133  1
  O  O590  1  0.92777396  0.14666822  0.67679158  1
  O  O591  1  0.92896798  0.14789035  0.92771719  1
  O  O592  1  0.92683172  0.47811129  0.17444851  1
  O  O593  1  0.92647043  0.47961598  0.42416211  1
  O  O594  1  0.92657244  0.47813282  0.67602153  1
  O  O595  1  0.92906017  0.47986057  0.92701402  1
  O  O596  1  0.92628241  0.81278752  0.17535375  1
  O  O597  1  0.92675778  0.81581228  0.42535325  1
  O  O598  1  0.92537807  0.81444915  0.67517182  1
  O  O599  1  0.92695296  0.81606511  0.92624862  1
  O  O600  1  0.07178302  0.18582662  0.07309540  1
  O  O601  1  0.07223884  0.18600843  0.32203785  1
  O  O602  1  0.07285506  0.18452969  0.57418291  1
  O  O603  1  0.07316346  0.18651856  0.82375659  1
  O  O604  1  0.07190976  0.51810109  0.07387308  1
  O  O605  1  0.07325775  0.52149642  0.32487706  1
  O  O606  1  0.07320447  0.51943840  0.57509585  1
  O  O607  1  0.07390070  0.52009246  0.82558353  1
  O  O608  1  0.07200856  0.85332726  0.07395360  1
  O  O609  1  0.07314352  0.85537822  0.32490414  1
  O  O610  1  0.07167583  0.85378373  0.57321959  1
  O  O611  1  0.07274295  0.85552789  0.82462471  1
  O  O612  1  0.57355585  0.18524515  0.07448316  1
  O  O613  1  0.57239019  0.18584895  0.32361629  1
  O  O614  1  0.57327503  0.18678264  0.57386552  1
  O  O615  1  0.57475144  0.18574796  0.82543623  1
  O  O616  1  0.57369739  0.51958615  0.07582778  1
  O  O617  1  0.57298615  0.51793718  0.32418575  1
  O  O618  1  0.57451694  0.52027659  0.57509902  1
  O  O619  1  0.57359484  0.51979605  0.82577346  1
  O  O620  1  0.57349914  0.85443100  0.07390413  1
  O  O621  1  0.57307041  0.85169438  0.32325032  1
  O  O622  1  0.57340952  0.85365097  0.57591877  1
  O  O623  1  0.57179798  0.85330486  0.82412322  1
  O  O624  1  0.32246158  0.18496765  0.05035563  1
  O  O625  1  0.32281776  0.18673432  0.29899002  1
  O  O626  1  0.32239283  0.18628928  0.55099177  1
  O  O627  1  0.32397787  0.18642863  0.79858080  1
  O  O628  1  0.32313379  0.51901633  0.05130961  1
  O  O629  1  0.32273509  0.52118641  0.30069474  1
  O  O630  1  0.32279264  0.51865317  0.55015111  1
  O  O631  1  0.32299918  0.51852102  0.80043588  1
  O  O632  1  0.32238554  0.85448476  0.04963968  1
  O  O633  1  0.32368843  0.85423012  0.29922436  1
  O  O634  1  0.32195067  0.85237293  0.55190711  1
  O  O635  1  0.32087048  0.85329626  0.80175376  1
  O  O636  1  0.82223675  0.18579375  0.05209305  1
  O  O637  1  0.82264070  0.18415321  0.29987712  1
  O  O638  1  0.82434322  0.18657843  0.54998205  1
  O  O639  1  0.82371404  0.18465555  0.80205301  1
  O  O640  1  0.82368106  0.52089055  0.05014297  1
  O  O641  1  0.82308127  0.51761654  0.30045357  1
  O  O642  1  0.82432937  0.52019858  0.55063355  1
  O  O643  1  0.82303183  0.51963137  0.80297748  1
  O  O644  1  0.82331736  0.85432941  0.04978971  1
  O  O645  1  0.82267319  0.85142638  0.30062067  1
  O  O646  1  0.82310591  0.85526864  0.55097403  1
  O  O647  1  0.82356411  0.85481441  0.80057135  1
  O  O648  1  0.17807647  0.14748146  0.19679915  1
  O  O649  1  0.17599705  0.14652403  0.44998376  1
  O  O650  1  0.17761654  0.14665367  0.69878178  1
  O  O651  1  0.17749163  0.14610413  0.94879035  1
  O  O652  1  0.17684660  0.48236244  0.19861242  1
  O  O653  1  0.17518977  0.47950603  0.45050865  1
  O  O654  1  0.17702214  0.48027400  0.69824161  1
  O  O655  1  0.17685125  0.48109046  0.94829636  1
  O  O656  1  0.17540412  0.81379179  0.20065870  1
  O  O657  1  0.17659083  0.81247486  0.44984029  1
  O  O658  1  0.17614094  0.81495205  0.69932982  1
  O  O659  1  0.17675111  0.81521407  0.94875216  1
  O  O660  1  0.67851884  0.14618032  0.19751403  1
  O  O661  1  0.67730833  0.14828568  0.44834432  1
  O  O662  1  0.67727331  0.14558447  0.70033003  1
  O  O663  1  0.67906869  0.14717423  0.94930588  1
  O  O664  1  0.67716527  0.47815433  0.19970614  1
  O  O665  1  0.67719301  0.48133559  0.44865206  1
  O  O666  1  0.67658823  0.47981954  0.70119459  1
  O  O667  1  0.67762500  0.48099848  0.95067359  1
  O  O668  1  0.67674884  0.81139173  0.19923673  1
  O  O669  1  0.67711172  0.81555790  0.44889792  1
  O  O670  1  0.67622249  0.81364861  0.70180936  1
  O  O671  1  0.67674851  0.81273098  0.95070196  1
