# generated using pymatgen
data_Na2MnFe(PO4)2
_symmetry_space_group_name_H-M   'P 1'
_cell_length_a   22.33909683
_cell_length_b   20.09001279
_cell_length_c   19.45355337
_cell_angle_alpha   89.97660547
_cell_angle_beta   89.96878604
_cell_angle_gamma   90.08688196
_symmetry_Int_Tables_number   1
_chemical_formula_structural   Na2MnFe(PO4)2
_chemical_formula_sum   'Na96 Mn48 Fe48 P96 O384'
_cell_volume   8730.60147618
_cell_formula_units_Z   48
loop_
 _symmetry_equiv_pos_site_id
 _symmetry_equiv_pos_as_xyz
  1  'x, y, z'
loop_
 _atom_site_type_symbol
 _atom_site_label
 _atom_site_symmetry_multiplicity
 _atom_site_fract_x
 _atom_site_fract_y
 _atom_site_fract_z
 _atom_site_occupancy
  Na  Na0  1  0.14069436  0.25091595  0.24314794  1
  Na  Na1  1  0.14051067  0.25013798  0.49280121  1
  Na  Na2  1  0.14145490  0.24935802  0.74215444  1
  Na  Na3  1  0.14113292  0.24983503  0.99545430  1
  Na  Na4  1  0.14117434  0.58332748  0.24358323  1
  Na  Na5  1  0.14037228  0.58323604  0.49365602  1
  Na  Na6  1  0.14040716  0.58327094  0.74327438  1
  Na  Na7  1  0.14051079  0.58376809  0.99351448  1
  Na  Na8  1  0.14043825  0.91731440  0.24304724  1
  Na  Na9  1  0.14033189  0.91692822  0.49369178  1
  Na  Na10  1  0.14056958  0.91688033  0.74428493  1
  Na  Na11  1  0.14028870  0.91627773  0.99313736  1
  Na  Na12  1  0.64046448  0.25000468  0.24386264  1
  Na  Na13  1  0.64056031  0.25122470  0.49458518  1
  Na  Na14  1  0.64077324  0.25006034  0.74361228  1
  Na  Na15  1  0.64050388  0.25198711  0.99431577  1
  Na  Na16  1  0.64034769  0.58132995  0.24373696  1
  Na  Na17  1  0.63949644  0.58251814  0.49367992  1
  Na  Na18  1  0.63987764  0.58136552  0.74330965  1
  Na  Na19  1  0.64042790  0.58362331  0.99395332  1
  Na  Na20  1  0.63985170  0.91644240  0.24415815  1
  Na  Na21  1  0.63964041  0.91818397  0.49309077  1
  Na  Na22  1  0.64012293  0.91648315  0.74360704  1
  Na  Na23  1  0.63985888  0.91710335  0.99305419  1
  Na  Na24  1  0.35943482  0.08357996  0.00705092  1
  Na  Na25  1  0.35989745  0.08270535  0.25766788  1
  Na  Na26  1  0.35916693  0.08195963  0.50693674  1
  Na  Na27  1  0.35922200  0.08193601  0.75569048  1
  Na  Na28  1  0.35966606  0.41650361  0.00698626  1
  Na  Na29  1  0.35992314  0.41732427  0.25623146  1
  Na  Na30  1  0.35976192  0.41674796  0.50776024  1
  Na  Na31  1  0.36015437  0.41634644  0.75676235  1
  Na  Na32  1  0.35941973  0.74953833  0.00611794  1
  Na  Na33  1  0.35901436  0.75065812  0.25702273  1
  Na  Na34  1  0.35949362  0.75044545  0.50698706  1
  Na  Na35  1  0.35907246  0.75028910  0.75557091  1
  Na  Na36  1  0.85958281  0.08450895  0.00590759  1
  Na  Na37  1  0.85987161  0.08418797  0.25593324  1
  Na  Na38  1  0.85967049  0.08535867  0.50582374  1
  Na  Na39  1  0.85947254  0.08235556  0.75569845  1
  Na  Na40  1  0.85933089  0.41799992  0.00647292  1
  Na  Na41  1  0.85985428  0.41543730  0.25643511  1
  Na  Na42  1  0.86038285  0.41710006  0.50643864  1
  Na  Na43  1  0.86019443  0.41636619  0.75533051  1
  Na  Na44  1  0.85994508  0.75001120  0.00653518  1
  Na  Na45  1  0.85973138  0.74889907  0.25498646  1
  Na  Na46  1  0.85881371  0.74972472  0.50584882  1
  Na  Na47  1  0.85871495  0.74894949  0.75649795  1
  Na  Na48  1  0.10998372  0.08381193  0.11875369  1
  Na  Na49  1  0.10973710  0.08398126  0.36834795  1
  Na  Na50  1  0.11049856  0.08419270  0.61748484  1
  Na  Na51  1  0.11028894  0.08285451  0.86895504  1
  Na  Na52  1  0.11057803  0.41697787  0.11871734  1
  Na  Na53  1  0.11060969  0.41656547  0.36886922  1
  Na  Na54  1  0.11040182  0.41644944  0.61748025  1
  Na  Na55  1  0.11014784  0.41685632  0.86909601  1
  Na  Na56  1  0.10995813  0.75198824  0.11788867  1
  Na  Na57  1  0.10966994  0.75083943  0.36872163  1
  Na  Na58  1  0.10935369  0.74974786  0.61891985  1
  Na  Na59  1  0.11014969  0.74934409  0.86895903  1
  Na  Na60  1  0.60921011  0.08285406  0.11972601  1
  Na  Na61  1  0.60919752  0.08302507  0.36905215  1
  Na  Na62  1  0.60965295  0.08188457  0.61857943  1
  Na  Na63  1  0.60933946  0.08446635  0.86835484  1
  Na  Na64  1  0.61039709  0.41715595  0.11886751  1
  Na  Na65  1  0.60977741  0.41661313  0.36893051  1
  Na  Na66  1  0.60986984  0.41737772  0.61900003  1
  Na  Na67  1  0.60998354  0.41744616  0.86861838  1
  Na  Na68  1  0.60924768  0.74876591  0.11832604  1
  Na  Na69  1  0.60889605  0.74947751  0.36904456  1
  Na  Na70  1  0.60852624  0.74989048  0.61774119  1
  Na  Na71  1  0.60931841  0.75078262  0.86874820  1
  Na  Na72  1  0.39021129  0.24971931  0.13290770  1
  Na  Na73  1  0.39054728  0.24906196  0.38157858  1
  Na  Na74  1  0.38999142  0.24985263  0.63275146  1
  Na  Na75  1  0.39005679  0.25074507  0.88134007  1
  Na  Na76  1  0.39007537  0.58256181  0.13087690  1
  Na  Na77  1  0.39033351  0.58282651  0.38188969  1
  Na  Na78  1  0.39014127  0.58230402  0.63098319  1
  Na  Na79  1  0.39003585  0.58380157  0.88120069  1
  Na  Na80  1  0.39010208  0.91613281  0.13200818  1
  Na  Na81  1  0.38984522  0.91606208  0.38247824  1
  Na  Na82  1  0.38941114  0.91594870  0.63089782  1
  Na  Na83  1  0.39001011  0.91667396  0.88104300  1
  Na  Na84  1  0.89054871  0.25063777  0.13154216  1
  Na  Na85  1  0.89086412  0.25085772  0.38136669  1
  Na  Na86  1  0.89066355  0.25141053  0.63064102  1
  Na  Na87  1  0.89055620  0.24941034  0.88079857  1
  Na  Na88  1  0.89012489  0.58400748  0.13171274  1
  Na  Na89  1  0.89027578  0.58187819  0.38085261  1
  Na  Na90  1  0.89007065  0.58182661  0.63082587  1
  Na  Na91  1  0.89019761  0.58313961  0.88155023  1
  Na  Na92  1  0.89057817  0.91776148  0.13002646  1
  Na  Na93  1  0.89048888  0.91743338  0.38073818  1
  Na  Na94  1  0.88971352  0.91711470  0.63101254  1
  Na  Na95  1  0.89020456  0.91547638  0.88186124  1
  Mn  Mn96  1  -0.00096040  0.66570621  0.49939732  1
  Mn  Mn97  1  0.25010383  0.66702135  0.37524593  1
  Mn  Mn98  1  0.74891520  0.66529292  0.62569378  1
  Mn  Mn99  1  -0.00069455  0.83321329  0.49985652  1
  Mn  Mn100  1  -0.00032985  0.50069455  0.00031040  1
  Mn  Mn101  1  0.49945719  0.66552324  0.24961243  1
  Mn  Mn102  1  0.00017232  0.00049090  0.24955088  1
  Mn  Mn103  1  0.74980321  0.00007337  0.87506017  1
  Mn  Mn104  1  0.49924736  0.83333970  0.25014019  1
  Mn  Mn105  1  0.24997159  -0.00019154  0.87491393  1
  Mn  Mn106  1  0.00022290  0.00004804  0.74960791  1
  Mn  Mn107  1  0.50015925  0.33343290  0.50041905  1
  Mn  Mn108  1  0.00035563  0.16684484  0.74967148  1
  Mn  Mn109  1  0.74883372  0.83371387  0.62504205  1
  Mn  Mn110  1  0.24976841  0.66688056  0.12530013  1
  Mn  Mn111  1  0.74990041  0.16689927  0.62500141  1
  Mn  Mn112  1  0.24966403  0.33222210  0.87536880  1
  Mn  Mn113  1  0.00106340  0.16616353  0.00032885  1
  Mn  Mn114  1  0.74972020  0.83303606  0.37476250  1
  Mn  Mn115  1  0.50003409  0.33354646  0.25082658  1
  Mn  Mn116  1  0.49913351  -0.00054954  0.00010826  1
  Mn  Mn117  1  0.25106181  0.33405244  0.37486049  1
  Mn  Mn118  1  0.75014711  0.83268023  0.12480019  1
  Mn  Mn119  1  0.00147972  0.33407103  0.74986924  1
  Mn  Mn120  1  0.50017810  0.33452067  0.00138487  1
  Mn  Mn121  1  0.24948963  0.50016434  0.87502193  1
  Mn  Mn122  1  0.75041328  0.00118106  0.37448965  1
  Mn  Mn123  1  0.00035914  0.00106102  0.49955189  1
  Mn  Mn124  1  -0.00059451  0.66539929  0.74948295  1
  Mn  Mn125  1  0.74980809  0.33387998  0.37484691  1
  Mn  Mn126  1  0.49915865  0.66606608  0.74947130  1
  Mn  Mn127  1  0.49990265  0.16696278  0.00015623  1
  Mn  Mn128  1  0.00073786  0.66797955  0.25045268  1
  Mn  Mn129  1  0.25072118  0.16642842  0.37529239  1
  Mn  Mn130  1  0.24940981  0.66707990  0.62443903  1
  Mn  Mn131  1  0.49956959  0.16668893  0.75034569  1
  Mn  Mn132  1  0.49969926  0.66623906  -0.00045121  1
  Mn  Mn133  1  0.50015840  0.16543493  0.50132825  1
  Mn  Mn134  1  0.25053653  0.00002136  0.12508032  1
  Mn  Mn135  1  0.74976420  0.66626141  0.87488120  1
  Mn  Mn136  1  -0.00036923  0.83273283  0.75060480  1
  Mn  Mn137  1  0.00094333  0.49980292  0.25025482  1
  Mn  Mn138  1  0.74979146  0.16794966  0.12500006  1
  Mn  Mn139  1  0.74954707  0.66494734  0.37531478  1
  Mn  Mn140  1  0.74965979  0.00057063  0.12431830  1
  Mn  Mn141  1  0.49930208  0.83400972  0.74867061  1
  Mn  Mn142  1  0.00038560  0.33324796  -0.00016461  1
  Mn  Mn143  1  0.75019435  0.33399720  0.87469070  1
  Fe  Fe144  1  0.25048200  0.16625527  0.87477389  1
  Fe  Fe145  1  0.74981024  0.16760158  0.37520117  1
  Fe  Fe146  1  0.75085690  0.33405597  0.12474602  1
  Fe  Fe147  1  0.50001202  -0.00037513  0.74960582  1
  Fe  Fe148  1  0.00099874  0.49940676  0.49990253  1
  Fe  Fe149  1  0.00030915  0.83349742  -0.00012546  1
  Fe  Fe150  1  -0.00021259  0.00022707  0.00008797  1
  Fe  Fe151  1  0.25031393  0.66677137  0.87458342  1
  Fe  Fe152  1  0.49956495  0.49957184  0.50040441  1
  Fe  Fe153  1  0.25032860  0.49969622  0.37488600  1
  Fe  Fe154  1  0.50001264  0.49995383  0.25060118  1
  Fe  Fe155  1  0.49969607  0.66582529  0.49979360  1
  Fe  Fe156  1  0.49982589  0.83323800  0.49948431  1
  Fe  Fe157  1  0.00005191  0.16764039  0.49882652  1
  Fe  Fe158  1  0.24994105  0.16592524  0.62460699  1
  Fe  Fe159  1  0.24908221  0.83338087  0.62527126  1
  Fe  Fe160  1  0.25012882  0.83340696  0.12504522  1
  Fe  Fe161  1  0.00065174  0.66697059  0.00035304  1
  Fe  Fe162  1  0.25045300  0.50014881  0.12484974  1
  Fe  Fe163  1  0.00028545  0.33366779  0.25059976  1
  Fe  Fe164  1  0.24989878  -0.00077597  0.62552343  1
  Fe  Fe165  1  0.75010027  0.50011462  0.87536444  1
  Fe  Fe166  1  0.74947060  0.66616630  0.12485758  1
  Fe  Fe167  1  0.49998076  -0.00064691  0.25045167  1
  Fe  Fe168  1  0.74967186  0.00027712  0.62506919  1
  Fe  Fe169  1  0.00056253  0.33334343  0.49957650  1
  Fe  Fe170  1  0.49995134  0.49990532  0.75002068  1
  Fe  Fe171  1  0.75025114  0.49919170  0.37454600  1
  Fe  Fe172  1  0.25037039  0.50028032  0.62523946  1
  Fe  Fe173  1  0.25045645  0.16684392  0.12559480  1
  Fe  Fe174  1  0.75001742  0.16718618  0.87463463  1
  Fe  Fe175  1  0.74953532  0.83313861  0.87494080  1
  Fe  Fe176  1  0.50033293  0.33408697  0.75074439  1
  Fe  Fe177  1  0.75043993  0.33350923  0.62494523  1
  Fe  Fe178  1  0.00049986  0.49983216  0.74997875  1
  Fe  Fe179  1  0.75037632  0.50018901  0.12501273  1
  Fe  Fe180  1  0.00002851  0.16735986  0.24975242  1
  Fe  Fe181  1  0.50014569  0.16578796  0.25105892  1
  Fe  Fe182  1  0.24935717  0.00000664  0.37553749  1
  Fe  Fe183  1  0.25036251  0.33309536  0.62499911  1
  Fe  Fe184  1  -0.00033597  0.83413915  0.24912466  1
  Fe  Fe185  1  0.25030006  0.83293097  0.87474605  1
  Fe  Fe186  1  0.49909646  -0.00057700  0.49967786  1
  Fe  Fe187  1  0.25063568  0.33349787  0.12511207  1
  Fe  Fe188  1  0.24942846  0.83419023  0.37570330  1
  Fe  Fe189  1  0.49983433  0.49989142  -0.00034836  1
  Fe  Fe190  1  0.49993738  0.83348020  -0.00018806  1
  Fe  Fe191  1  0.75012557  0.49927922  0.62470735  1
  P  P192  1  0.04292271  0.25028937  0.10426255  1
  P  P193  1  0.04188874  0.25029003  0.35195027  1
  P  P194  1  0.04193653  0.25025280  0.60080295  1
  P  P195  1  0.04396013  0.24985026  0.85284367  1
  P  P196  1  0.04275895  0.58519007  0.10269346  1
  P  P197  1  0.04332867  0.58313088  0.35353408  1
  P  P198  1  0.04228757  0.58163563  0.60252174  1
  P  P199  1  0.04244338  0.58231567  0.85278172  1
  P  P200  1  0.04160369  0.91720755  0.10151246  1
  P  P201  1  0.04228595  0.91593118  0.35183831  1
  P  P202  1  0.04266509  0.91685326  0.60286669  1
  P  P203  1  0.04255556  0.91649548  0.85412776  1
  P  P204  1  0.54244513  0.24965547  0.10436680  1
  P  P205  1  0.54212419  0.24858855  0.35302001  1
  P  P206  1  0.54247919  0.25027714  0.60422648  1
  P  P207  1  0.54230317  0.25185010  0.85269643  1
  P  P208  1  0.54193667  0.58151636  0.10243390  1
  P  P209  1  0.54188525  0.58203970  0.35348585  1
  P  P210  1  0.54105923  0.58264775  0.60176966  1
  P  P211  1  0.54182127  0.58209453  0.85245147  1
  P  P212  1  0.54206087  0.91536885  0.10272037  1
  P  P213  1  0.54161026  0.91737185  0.35330420  1
  P  P214  1  0.54083851  0.91688817  0.60125866  1
  P  P215  1  0.54197869  0.91768771  0.85223837  1
  P  P216  1  0.45834898  0.08264538  0.14919395  1
  P  P217  1  0.45763014  0.08180004  0.39735853  1
  P  P218  1  0.45766432  0.08143075  0.64747495  1
  P  P219  1  0.45682222  0.08338159  0.89671884  1
  P  P220  1  0.45803190  0.41824294  0.14787684  1
  P  P221  1  0.45771193  0.41780605  0.39774493  1
  P  P222  1  0.45861055  0.41679224  0.64846365  1
  P  P223  1  0.45769288  0.41785559  0.89712733  1
  P  P224  1  0.45677729  0.74964401  0.14660122  1
  P  P225  1  0.45815128  0.74921658  0.39853596  1
  P  P226  1  0.45694467  0.74949367  0.64538852  1
  P  P227  1  0.45753632  0.75141440  0.89736743  1
  P  P228  1  0.95794385  0.08464421  0.14718908  1
  P  P229  1  0.95804326  0.08557195  0.39651228  1
  P  P230  1  0.95748165  0.08426690  0.64584864  1
  P  P231  1  0.95774778  0.08214682  0.89754181  1
  P  P232  1  0.95818806  0.41587341  0.14799991  1
  P  P233  1  0.95939138  0.41625665  0.39817346  1
  P  P234  1  0.95895253  0.41790097  0.64663951  1
  P  P235  1  0.95733803  0.41700692  0.89656945  1
  P  P236  1  0.95849192  0.75186636  0.14642280  1
  P  P237  1  0.95641417  0.75010704  0.39616671  1
  P  P238  1  0.95625935  0.74946347  0.64690688  1
  P  P239  1  0.95864362  0.74928423  0.89865967  1
  P  P240  1  0.20824308  0.08430272  0.22773888  1
  P  P241  1  0.20799883  0.08217131  0.47829715  1
  P  P242  1  0.20860083  0.08305689  0.72662441  1
  P  P243  1  0.20843422  0.08476990  0.97778427  1
  P  P244  1  0.20931570  0.41722328  0.22677419  1
  P  P245  1  0.20883802  0.41776483  0.47831161  1
  P  P246  1  0.20916864  0.41644904  0.72644648  1
  P  P247  1  0.20764944  0.41634413  0.97904686  1
  P  P248  1  0.20786317  0.75190871  0.22791140  1
  P  P249  1  0.20758255  0.75167922  0.47777627  1
  P  P250  1  0.20753533  0.75110676  0.72805124  1
  P  P251  1  0.20891271  0.74987035  0.97665475  1
  P  P252  1  0.70726901  0.08408138  0.22836102  1
  P  P253  1  0.70763406  0.08539938  0.47761741  1
  P  P254  1  0.70751995  0.08226455  0.72769123  1
  P  P255  1  0.70738993  0.08552353  0.97717009  1
  P  P256  1  0.70897191  0.41660303  0.22665988  1
  P  P257  1  0.70793691  0.41803803  0.47807300  1
  P  P258  1  0.70868494  0.41627995  0.72672186  1
  P  P259  1  0.70804014  0.41846933  0.97814750  1
  P  P260  1  0.70722552  0.74781500  0.22731556  1
  P  P261  1  0.70648127  0.74952695  0.47810169  1
  P  P262  1  0.70621869  0.74964889  0.72856613  1
  P  P263  1  0.70763548  0.75061721  0.97760599  1
  P  P264  1  0.29200859  0.24961626  0.02367220  1
  P  P265  1  0.29302492  0.25024092  0.27137934  1
  P  P266  1  0.29175827  0.24959866  0.52368549  1
  P  P267  1  0.29198700  0.24809679  0.77173308  1
  P  P268  1  0.29210607  0.58274199  0.02224983  1
  P  P269  1  0.29220361  0.58228022  0.27250395  1
  P  P270  1  0.29188964  0.58223293  0.52218280  1
  P  P271  1  0.29189176  0.58436701  0.77204944  1
  P  P272  1  0.29211539  0.91506138  0.02233918  1
  P  P273  1  0.29117958  0.91694834  0.27386249  1
  P  P274  1  0.29046204  0.91630789  0.52308099  1
  P  P275  1  0.29194227  0.91522159  0.77203140  1
  P  P276  1  0.79257872  0.25200579  0.02203074  1
  P  P277  1  0.79248013  0.24951133  0.27252045  1
  P  P278  1  0.79224055  0.25167237  0.52228281  1
  P  P279  1  0.79247451  0.24919075  0.77204869  1
  P  P280  1  0.79165828  0.58358242  0.02322925  1
  P  P281  1  0.79229692  0.58114170  0.27159106  1
  P  P282  1  0.79191939  0.58152038  0.52230376  1
  P  P283  1  0.79193864  0.58115582  0.77225924  1
  P  P284  1  0.79240190  0.91660982  0.02104571  1
  P  P285  1  0.79289691  0.91645308  0.27154223  1
  P  P286  1  0.79175387  0.91858610  0.52244505  1
  P  P287  1  0.79201934  0.91541809  0.77231928  1
  O  O288  1  0.03736623  0.25039370  0.18414774  1
  O  O289  1  0.03674378  0.25007070  0.43188503  1
  O  O290  1  0.03769478  0.25042727  0.68079926  1
  O  O291  1  0.03898995  0.24973607  0.93278530  1
  O  O292  1  0.03794684  0.58501945  0.18264904  1
  O  O293  1  0.03788370  0.58231902  0.43345123  1
  O  O294  1  0.03711633  0.58147102  0.68250375  1
  O  O295  1  0.03734915  0.58334901  0.93272823  1
  O  O296  1  0.03664013  0.91676211  0.18150074  1
  O  O297  1  0.03708088  0.91632746  0.43173774  1
  O  O298  1  0.03764463  0.91683264  0.68284417  1
  O  O299  1  0.03722957  0.91687041  0.93405902  1
  O  O300  1  0.53712724  0.24887758  0.18429554  1
  O  O301  1  0.53709023  0.24880559  0.43298595  1
  O  O302  1  0.53716758  0.25092818  0.68413655  1
  O  O303  1  0.53724677  0.25189930  0.93269015  1
  O  O304  1  0.53665659  0.58152725  0.18237264  1
  O  O305  1  0.53623878  0.58244588  0.43333705  1
  O  O306  1  0.53594035  0.58225893  0.68171547  1
  O  O307  1  0.53670193  0.58212306  0.93237224  1
  O  O308  1  0.53698402  0.91597888  0.18265468  1
  O  O309  1  0.53615922  0.91711243  0.43315239  1
  O  O310  1  0.53613777  0.91711861  0.68123160  1
  O  O311  1  0.53681900  0.91692247  0.93217303  1
  O  O312  1  0.46306283  0.08307635  0.06919801  1
  O  O313  1  0.46332477  0.08213800  0.31752903  1
  O  O314  1  0.46286675  0.08125253  0.56754837  1
  O  O315  1  0.46201876  0.08301920  0.81681036  1
  O  O316  1  0.46319460  0.41833202  0.06792819  1
  O  O317  1  0.46297331  0.41784238  0.31782732  1
  O  O318  1  0.46368779  0.41697389  0.56849499  1
  O  O319  1  0.46310644  0.41719173  0.81723177  1
  O  O320  1  0.46212750  0.75010468  0.06669616  1
  O  O321  1  0.46273745  0.74938795  0.31852583  1
  O  O322  1  0.46247486  0.74920789  0.56554534  1
  O  O323  1  0.46247541  0.75122252  0.81740477  1
  O  O324  1  0.96317870  0.08366284  0.06725521  1
  O  O325  1  0.96342970  0.08573560  0.31658520  1
  O  O326  1  0.96265809  0.08504335  0.56586877  1
  O  O327  1  0.96275596  0.08248639  0.81755592  1
  O  O328  1  0.96297090  0.41630541  0.06805582  1
  O  O329  1  0.96414088  0.41555962  0.31823432  1
  O  O330  1  0.96427646  0.41770014  0.56677599  1
  O  O331  1  0.96280662  0.41745713  0.81664343  1
  O  O332  1  0.96423767  0.75145716  0.06654732  1
  O  O333  1  0.96180891  0.75077245  0.31622455  1
  O  O334  1  0.96101598  0.74931193  0.56693106  1
  O  O335  1  0.96310357  0.74900633  0.81864595  1
  O  O336  1  0.21389097  0.08493521  0.05766515  1
  O  O337  1  0.21318090  0.08345822  0.30765482  1
  O  O338  1  0.21328828  0.08241947  0.55814443  1
  O  O339  1  0.21351399  0.08315117  0.80658054  1
  O  O340  1  0.21313503  0.41654492  0.05889851  1
  O  O341  1  0.21428089  0.41737293  0.30676546  1
  O  O342  1  0.21411121  0.41743312  0.55817713  1
  O  O343  1  0.21337108  0.41589255  0.80646135  1
  O  O344  1  0.21382285  0.74988377  0.05662416  1
  O  O345  1  0.21306294  0.75211894  0.30780705  1
  O  O346  1  0.21257981  0.75159010  0.55770183  1
  O  O347  1  0.21339493  0.75051860  0.80786488  1
  O  O348  1  0.71247565  0.08520445  0.05713761  1
  O  O349  1  0.71267038  0.08454460  0.30825914  1
  O  O350  1  0.71264223  0.08457486  0.55755265  1
  O  O351  1  0.71266607  0.08273528  0.80757099  1
  O  O352  1  0.71353516  0.41825286  0.05797003  1
  O  O353  1  0.71399034  0.41689894  0.30662114  1
  O  O354  1  0.71327842  0.41774728  0.55791176  1
  O  O355  1  0.71338947  0.41653843  0.80666137  1
  O  O356  1  0.71285704  0.74983100  0.05751111  1
  O  O357  1  0.71230148  0.74788168  0.30727042  1
  O  O358  1  0.71140066  0.74956658  0.55806721  1
  O  O359  1  0.71164943  0.75023048  0.80850794  1
  O  O360  1  0.28785535  0.25009031  0.19152485  1
  O  O361  1  0.28732390  0.25017446  0.44367254  1
  O  O362  1  0.28652395  0.24840454  0.69188434  1
  O  O363  1  0.28708844  0.24947156  0.94369911  1
  O  O364  1  0.28669721  0.58233353  0.19258999  1
  O  O365  1  0.28674155  0.58204199  0.44226415  1
  O  O366  1  0.28662970  0.58402009  0.69211827  1
  O  O367  1  0.28683896  0.58352303  0.94233082  1
  O  O368  1  0.28669359  0.91690486  0.19387402  1
  O  O369  1  0.28532469  0.91685966  0.44320937  1
  O  O370  1  0.28649936  0.91545783  0.69221884  1
  O  O371  1  0.28689438  0.91505923  0.94245746  1
  O  O372  1  0.78761904  0.25045201  0.19262067  1
  O  O373  1  0.78689442  0.25123838  0.44241116  1
  O  O374  1  0.78719818  0.24972480  0.69216613  1
  O  O375  1  0.78729641  0.25143561  0.94213982  1
  O  O376  1  0.78686583  0.58151554  0.19171124  1
  O  O377  1  0.78696657  0.58135904  0.44233582  1
  O  O378  1  0.78660943  0.58109175  0.69235247  1
  O  O379  1  0.78669801  0.58351149  0.94328778  1
  O  O380  1  0.78770524  0.91647628  0.19158555  1
  O  O381  1  0.78687664  0.91843374  0.44246822  1
  O  O382  1  0.78654022  0.91610349  0.69240245  1
  O  O383  1  0.78711128  0.91615244  0.94111370  1
  O  O384  1  0.22791731  0.24929918  0.05982399  1
  O  O385  1  0.22883230  0.25017080  0.30719044  1
  O  O386  1  0.22743596  0.24927523  0.55908470  1
  O  O387  1  0.22786769  0.24764150  0.80804212  1
  O  O388  1  0.22792724  0.58225951  0.05824947  1
  O  O389  1  0.22804769  0.58222747  0.30854638  1
  O  O390  1  0.22768166  0.58212614  0.55805814  1
  O  O391  1  0.22769021  0.58487928  0.80795140  1
  O  O392  1  0.22791513  0.91538081  0.05832055  1
  O  O393  1  0.22684722  0.91665363  0.30951280  1
  O  O394  1  0.22652654  0.91603763  0.55965611  1
  O  O395  1  0.22791371  0.91491115  0.80846493  1
  O  O396  1  0.72831106  0.25266372  0.05786521  1
  O  O397  1  0.72807903  0.24901541  0.30805172  1
  O  O398  1  0.72805605  0.25192745  0.55825297  1
  O  O399  1  0.72819748  0.24906337  0.80789148  1
  O  O400  1  0.72746993  0.58331461  0.05924183  1
  O  O401  1  0.72808962  0.58049272  0.30774783  1
  O  O402  1  0.72754400  0.58111409  0.55783269  1
  O  O403  1  0.72768029  0.58138210  0.80806244  1
  O  O404  1  0.72807193  0.91643793  0.05645777  1
  O  O405  1  0.72845123  0.91683723  0.30664663  1
  O  O406  1  0.72729312  0.91872226  0.55774825  1
  O  O407  1  0.72778179  0.91498716  0.80827035  1
  O  O408  1  0.27257905  0.08464818  0.19211420  1
  O  O409  1  0.27217736  0.08172178  0.44223814  1
  O  O410  1  0.27270501  0.08338700  0.69054157  1
  O  O411  1  0.27256621  0.08453657  0.94164227  1
  O  O412  1  0.27340857  0.41771697  0.19071843  1
  O  O413  1  0.27301214  0.41847142  0.44215904  1
  O  O414  1  0.27347975  0.41661652  0.69110582  1
  O  O415  1  0.27171574  0.41641279  0.94293008  1
  O  O416  1  0.27210796  0.75166955  0.19205189  1
  O  O417  1  0.27187063  0.75183365  0.44204902  1
  O  O418  1  0.27153757  0.75139489  0.69148692  1
  O  O419  1  0.27302868  0.74986712  0.94049395  1
  O  O420  1  0.77157482  0.08397904  0.19286132  1
  O  O421  1  0.77199678  0.08605773  0.44202116  1
  O  O422  1  0.77178405  0.08208901  0.69185562  1
  O  O423  1  0.77175737  0.08536624  0.94169231  1
  O  O424  1  0.77311876  0.41665025  0.19057201  1
  O  O425  1  0.77215694  0.41823533  0.44199649  1
  O  O426  1  0.77290812  0.41621778  0.69079416  1
  O  O427  1  0.77217899  0.41845675  0.94189402  1
  O  O428  1  0.77161267  0.74770885  0.19186811  1
  O  O429  1  0.77095307  0.74934374  0.44307764  1
  O  O430  1  0.77052844  0.74955229  0.69315304  1
  O  O431  1  0.77186227  0.75104821  0.94164837  1
  O  O432  1  0.02218298  0.08504323  0.18290532  1
  O  O433  1  0.02227203  0.08560867  0.43234253  1
  O  O434  1  0.02194612  0.08380685  0.68092408  1
  O  O435  1  0.02219464  0.08155996  0.93278816  1
  O  O436  1  0.02263922  0.41523072  0.18317431  1
  O  O437  1  0.02362137  0.41668097  0.43384146  1
  O  O438  1  0.02315578  0.41866686  0.68274798  1
  O  O439  1  0.02168333  0.41727483  0.93189228  1
  O  O440  1  0.02255084  0.75248610  0.18283111  1
  O  O441  1  0.02079609  0.74967044  0.43138651  1
  O  O442  1  0.02081955  0.74938589  0.68159530  1
  O  O443  1  0.02293697  0.74919290  0.93418437  1
  O  O444  1  0.52257912  0.08218099  0.18489840  1
  O  O445  1  0.52174184  0.08124263  0.43359134  1
  O  O446  1  0.52190878  0.08183010  0.68323093  1
  O  O447  1  0.52118745  0.08315104  0.93197693  1
  O  O448  1  0.52226620  0.41826577  0.18368826  1
  O  O449  1  0.52203630  0.41792497  0.43327288  1
  O  O450  1  0.52275345  0.41698059  0.68456302  1
  O  O451  1  0.52195692  0.41838273  0.93306786  1
  O  O452  1  0.52107743  0.74962436  0.18200993  1
  O  O453  1  0.52233147  0.74885126  0.43420328  1
  O  O454  1  0.52105595  0.74958580  0.68136374  1
  O  O455  1  0.52182925  0.75124808  0.93294518  1
  O  O456  1  0.47814617  0.25013165  0.06891558  1
  O  O457  1  0.47787662  0.24892870  0.31755062  1
  O  O458  1  0.47819868  0.24980107  0.56876727  1
  O  O459  1  0.47796446  0.25187427  0.81727263  1
  O  O460  1  0.47772219  0.58146890  0.06655373  1
  O  O461  1  0.47771485  0.58133303  0.31730108  1
  O  O462  1  0.47692866  0.58287031  0.56574635  1
  O  O463  1  0.47749876  0.58161475  0.81683696  1
  O  O464  1  0.47766316  0.91476176  0.06724769  1
  O  O465  1  0.47743854  0.91798234  0.31721143  1
  O  O466  1  0.47660300  0.91698580  0.56555838  1
  O  O467  1  0.47764587  0.91831518  0.81661931  1
  O  O468  1  0.97877407  0.24976152  0.06836928  1
  O  O469  1  0.97777466  0.25059004  0.31570076  1
  O  O470  1  0.97757948  0.25008395  0.56553523  1
  O  O471  1  0.97942668  0.25049809  0.81806832  1
  O  O472  1  0.97829471  0.58558890  0.06753226  1
  O  O473  1  0.97905190  0.58344692  0.31813360  1
  O  O474  1  0.97799477  0.58104809  0.56691052  1
  O  O475  1  0.97808003  0.58109913  0.81721080  1
  O  O476  1  0.97746831  0.91733643  0.06552555  1
  O  O477  1  0.97797341  0.91581644  0.31628471  1
  O  O478  1  0.97820565  0.91729347  0.56793054  1
  O  O479  1  0.97829023  0.91675990  0.81845427  1
  O  O480  1  0.07393961  0.31380490  0.07577902  1
  O  O481  1  0.07303080  0.31402312  0.32383201  1
  O  O482  1  0.07248923  0.31414273  0.57238450  1
  O  O483  1  0.07537569  0.31318214  0.82460763  1
  O  O484  1  0.07372006  0.64864356  0.07411882  1
  O  O485  1  0.07453900  0.64684916  0.32596779  1
  O  O486  1  0.07279558  0.64584764  0.57490544  1
  O  O487  1  0.07305585  0.64599312  0.82411434  1
  O  O488  1  0.07243199  0.98119890  0.07381403  1
  O  O489  1  0.07335005  0.97973099  0.32409717  1
  O  O490  1  0.07395682  0.98022326  0.57459383  1
  O  O491  1  0.07422250  0.97956117  0.82538657  1
  O  O492  1  0.57357339  0.31348329  0.07678578  1
  O  O493  1  0.57365772  0.31218477  0.32548911  1
  O  O494  1  0.57367042  0.31350640  0.57541670  1
  O  O495  1  0.57320307  0.31534193  0.82412398  1
  O  O496  1  0.57282983  0.64545773  0.07467877  1
  O  O497  1  0.57272793  0.64575500  0.32502278  1
  O  O498  1  0.57206088  0.64639581  0.57376121  1
  O  O499  1  0.57238642  0.64616517  0.82461794  1
  O  O500  1  0.57306705  0.97898943  0.07446684  1
  O  O501  1  0.57296842  0.98056965  0.32452982  1
  O  O502  1  0.57214402  0.98018375  0.57282475  1
  O  O503  1  0.57291660  0.98135492  0.82398820  1
  O  O504  1  0.42725518  0.01886338  0.17692086  1
  O  O505  1  0.42621753  0.01851274  0.42590662  1
  O  O506  1  0.42695978  0.01789605  0.67616758  1
  O  O507  1  0.42522457  0.02031919  0.92536978  1
  O  O508  1  0.42710549  0.35430254  0.17552512  1
  O  O509  1  0.42680593  0.35381142  0.42541853  1
  O  O510  1  0.42798200  0.35287697  0.67664485  1
  O  O511  1  0.42661294  0.35434209  0.92580249  1
  O  O512  1  0.42585182  0.68583492  0.17450635  1
  O  O513  1  0.42686333  0.68573001  0.42652436  1
  O  O514  1  0.42561358  0.68622090  0.67415026  1
  O  O515  1  0.42633859  0.68766706  0.92493233  1
  O  O516  1  0.92664399  0.02117480  0.17541030  1
  O  O517  1  0.92704476  0.02159778  0.42396605  1
  O  O518  1  0.92630326  0.02065382  0.67376235  1
  O  O519  1  0.92664081  0.01878593  0.92603030  1
  O  O520  1  0.92706813  0.35256307  0.17653711  1
  O  O521  1  0.92867298  0.35264750  0.42711076  1
  O  O522  1  0.92828313  0.35391238  0.67471016  1
  O  O523  1  0.92658086  0.35308967  0.92438507  1
  O  O524  1  0.92745970  0.68816486  0.17457181  1
  O  O525  1  0.92527304  0.68635711  0.42397952  1
  O  O526  1  0.92525410  0.68590106  0.67521823  1
  O  O527  1  0.92768336  0.68567306  0.92701922  1
  O  O528  1  0.17714380  0.02087325  0.19916960  1
  O  O529  1  0.17675819  0.01892785  0.44948599  1
  O  O530  1  0.17834035  0.01884506  0.69856316  1
  O  O531  1  0.17735304  0.02084400  0.95034555  1
  O  O532  1  0.17923358  0.35293215  0.19864727  1
  O  O533  1  0.17821485  0.35384352  0.45001530  1
  O  O534  1  0.17860600  0.35271482  0.69770079  1
  O  O535  1  0.17642632  0.35285009  0.95075988  1
  O  O536  1  0.17672698  0.68804628  0.20042135  1
  O  O537  1  0.17681298  0.68770750  0.45003204  1
  O  O538  1  0.17623085  0.68760858  0.69975090  1
  O  O539  1  0.17835187  0.68592708  0.94841992  1
  O  O540  1  0.67626161  0.02033503  0.20045287  1
  O  O541  1  0.67659306  0.02193130  0.44923427  1
  O  O542  1  0.67697464  0.01850366  0.69912891  1
  O  O543  1  0.67602531  0.02194912  0.94956977  1
  O  O544  1  0.67842300  0.35252806  0.19884222  1
  O  O545  1  0.67675946  0.35437934  0.44995054  1
  O  O546  1  0.67817068  0.35234246  0.69845599  1
  O  O547  1  0.67659664  0.35506120  0.94997442  1
  O  O548  1  0.67653297  0.68419299  0.19880287  1
  O  O549  1  0.67541857  0.68600716  0.45007573  1
  O  O550  1  0.67528153  0.68576455  0.70091617  1
  O  O551  1  0.67641474  0.68706378  0.94955793  1
  O  O552  1  0.32222560  0.31385936  0.05182520  1
  O  O553  1  0.32421562  0.31374604  0.29970849  1
  O  O554  1  0.32216600  0.31347410  0.55233069  1
  O  O555  1  0.32291621  0.31182035  0.80001478  1
  O  O556  1  0.32332182  0.64615338  0.05056971  1
  O  O557  1  0.32317134  0.64624323  0.30006804  1
  O  O558  1  0.32275001  0.64624799  0.54952998  1
  O  O559  1  0.32287338  0.64793247  0.80037892  1
  O  O560  1  0.32337337  0.97881041  0.05002285  1
  O  O561  1  0.32135654  0.98098536  0.30240660  1
  O  O562  1  0.32123550  0.97995426  0.55196456  1
  O  O563  1  0.32293869  0.97894228  0.80017018  1
  O  O564  1  0.82350130  0.31557134  0.05046068  1
  O  O565  1  0.82348263  0.31300249  0.30101182  1
  O  O566  1  0.82296653  0.31537944  0.55066281  1
  O  O567  1  0.82393933  0.31254986  0.80001854  1
  O  O568  1  0.82200951  0.64760935  0.05154477  1
  O  O569  1  0.82320091  0.64485062  0.29981763  1
  O  O570  1  0.82255696  0.64551574  0.55015776  1
  O  O571  1  0.82310472  0.64494819  0.79995237  1
  O  O572  1  0.82312215  0.98059555  0.04876064  1
  O  O573  1  0.82434116  0.97982349  0.29947808  1
  O  O574  1  0.82238580  0.98226913  0.55091182  1
  O  O575  1  0.82331187  0.97893820  0.80024258  1
  O  O576  1  0.42810198  0.14646537  0.17777660  1
  O  O577  1  0.42674020  0.14544919  0.42561420  1
  O  O578  1  0.42653235  0.14515494  0.67494243  1
  O  O579  1  0.42628847  0.14721546  0.92486551  1
  O  O580  1  0.42701541  0.48143103  0.17653332  1
  O  O581  1  0.42669169  0.48088624  0.42676679  1
  O  O582  1  0.42749340  0.48026200  0.67655470  1
  O  O583  1  0.42664284  0.48129250  0.92546044  1
  O  O584  1  0.42542562  0.81266692  0.17538220  1
  O  O585  1  0.42803794  0.81336183  0.42667657  1
  O  O586  1  0.42578959  0.81297448  0.67351285  1
  O  O587  1  0.42717299  0.81504695  0.92593212  1
  O  O588  1  0.92715004  0.14825227  0.17536017  1
  O  O589  1  0.92710700  0.14879963  0.42529670  1
  O  O590  1  0.92653615  0.14753020  0.67470773  1
  O  O591  1  0.92719975  0.14602644  0.92541917  1
  O  O592  1  0.92778694  0.47983623  0.17593355  1
  O  O593  1  0.92843908  0.47995506  0.42600204  1
  O  O594  1  0.92758043  0.48085601  0.67560474  1
  O  O595  1  0.92585334  0.47998228  0.92527929  1
  O  O596  1  0.92729513  0.81525018  0.17473714  1
  O  O597  1  0.92527036  0.81330445  0.42476574  1
  O  O598  1  0.92548631  0.81297507  0.67522315  1
  O  O599  1  0.92822811  0.81322839  0.92662829  1
  O  O600  1  0.07443303  0.18704158  0.07602860  1
  O  O601  1  0.07264065  0.18670237  0.32337307  1
  O  O602  1  0.07274327  0.18675092  0.57240942  1
  O  O603  1  0.07436539  0.18615787  0.82446019  1
  O  O604  1  0.07337087  0.52134284  0.07490446  1
  O  O605  1  0.07449277  0.51995398  0.32485135  1
  O  O606  1  0.07372060  0.51872392  0.57368970  1
  O  O607  1  0.07365030  0.51891100  0.82468891  1
  O  O608  1  0.07248332  0.85376869  0.07286471  1
  O  O609  1  0.07293492  0.85245834  0.32337920  1
  O  O610  1  0.07327821  0.85315599  0.57483137  1
  O  O611  1  0.07322102  0.85268580  0.82606825  1
  O  O612  1  0.57353884  0.18655762  0.07540757  1
  O  O613  1  0.57240718  0.18487094  0.32450900  1
  O  O614  1  0.57358911  0.18661836  0.57656457  1
  O  O615  1  0.57321673  0.18810035  0.82512368  1
  O  O616  1  0.57298386  0.51837643  0.07372220  1
  O  O617  1  0.57312246  0.51879371  0.32496920  1
  O  O618  1  0.57186036  0.51904708  0.57341398  1
  O  O619  1  0.57301310  0.51901685  0.82360017  1
  O  O620  1  0.57275631  0.85181568  0.07416973  1
  O  O621  1  0.57243586  0.85360045  0.32526810  1
  O  O622  1  0.57104861  0.85279378  0.57297032  1
  O  O623  1  0.57282271  0.85422994  0.82371833  1
  O  O624  1  0.32339421  0.18641770  0.05205075  1
  O  O625  1  0.32422237  0.18702315  0.30012802  1
  O  O626  1  0.32274916  0.18591787  0.55132450  1
  O  O627  1  0.32306049  0.18478725  0.80041793  1
  O  O628  1  0.32292752  0.51910002  0.05037458  1
  O  O629  1  0.32321590  0.51906446  0.30116165  1
  O  O630  1  0.32287671  0.51913632  0.55135338  1
  O  O631  1  0.32279635  0.52076071  0.80007801  1
  O  O632  1  0.32275551  0.85171077  0.05128291  1
  O  O633  1  0.32238910  0.85362875  0.30230173  1
  O  O634  1  0.32155122  0.85272658  0.55111263  1
  O  O635  1  0.32311827  0.85196052  0.80062835  1
  O  O636  1  0.82351392  0.18843380  0.05014198  1
  O  O637  1  0.82304859  0.18588472  0.30092595  1
  O  O638  1  0.82346865  0.18830992  0.55030484  1
  O  O639  1  0.82281906  0.18534485  0.80049064  1
  O  O640  1  0.82295399  0.52027670  0.05145177  1
  O  O641  1  0.82348330  0.51787726  0.30023247  1
  O  O642  1  0.82308787  0.51842788  0.55113054  1
  O  O643  1  0.82271466  0.51788397  0.80111067  1
  O  O644  1  0.82391046  0.85360153  0.04949209  1
  O  O645  1  0.82343250  0.85269443  0.29962655  1
  O  O646  1  0.82265143  0.85484635  0.55016052  1
  O  O647  1  0.82272694  0.85172090  0.80051982  1
  O  O648  1  0.17758429  0.14798115  0.19958932  1
  O  O649  1  0.17721650  0.14588427  0.45002273  1
  O  O650  1  0.17722812  0.14622362  0.69813300  1
  O  O651  1  0.17758457  0.14799552  0.94886248  1
  O  O652  1  0.17772666  0.48036409  0.19856804  1
  O  O653  1  0.17748818  0.48079958  0.44946732  1
  O  O654  1  0.17850344  0.48031850  0.69866907  1
  O  O655  1  0.17626573  0.47959178  0.95055302  1
  O  O656  1  0.17722716  0.81516880  0.19866353  1
  O  O657  1  0.17646948  0.81483667  0.44911029  1
  O  O658  1  0.17639148  0.81450790  0.69980361  1
  O  O659  1  0.17792187  0.81340485  0.94854182  1
  O  O660  1  0.67600099  0.14725542  0.19994004  1
  O  O661  1  0.67697634  0.14917696  0.44952871  1
  O  O662  1  0.67625458  0.14566571  0.69970822  1
  O  O663  1  0.67706369  0.14932893  0.94884192  1
  O  O664  1  0.67782291  0.47989929  0.19824987  1
  O  O665  1  0.67692179  0.48114825  0.44899979  1
  O  O666  1  0.67772182  0.47972178  0.69827343  1
  O  O667  1  0.67739752  0.48197046  0.94927929  1
  O  O668  1  0.67622768  0.81151903  0.19968639  1
  O  O669  1  0.67580372  0.81319861  0.44997600  1
  O  O670  1  0.67479299  0.81269381  0.69992770  1
  O  O671  1  0.67687481  0.81424639  0.94939033  1
