# generated using pymatgen
data_Na2MnFe(PO4)2
_symmetry_space_group_name_H-M   'P 1'
_cell_length_a   22.34583528
_cell_length_b   20.09773958
_cell_length_c   19.44502986
_cell_angle_alpha   89.97382443
_cell_angle_beta   89.95440384
_cell_angle_gamma   90.07036871
_symmetry_Int_Tables_number   1
_chemical_formula_structural   Na2MnFe(PO4)2
_chemical_formula_sum   'Na96 Mn48 Fe48 P96 O384'
_cell_volume   8732.76777884
_cell_formula_units_Z   48
loop_
 _symmetry_equiv_pos_site_id
 _symmetry_equiv_pos_as_xyz
  1  'x, y, z'
loop_
 _atom_site_type_symbol
 _atom_site_label
 _atom_site_symmetry_multiplicity
 _atom_site_fract_x
 _atom_site_fract_y
 _atom_site_fract_z
 _atom_site_occupancy
  Na  Na0  1  0.14026502  0.25035796  0.24344286  1
  Na  Na1  1  0.13978501  0.25030597  0.49320522  1
  Na  Na2  1  0.14042543  0.25063710  0.74388029  1
  Na  Na3  1  0.14108953  0.24941796  0.99391874  1
  Na  Na4  1  0.14011368  0.58363125  0.24400505  1
  Na  Na5  1  0.14004548  0.58249883  0.49429502  1
  Na  Na6  1  0.14013399  0.58298069  0.74515153  1
  Na  Na7  1  0.14023452  0.58265924  0.99359968  1
  Na  Na8  1  0.14004187  0.91755244  0.24251349  1
  Na  Na9  1  0.13998395  0.91658839  0.49245711  1
  Na  Na10  1  0.14050562  0.91679808  0.74399121  1
  Na  Na11  1  0.14066278  0.91664385  0.99270443  1
  Na  Na12  1  0.64035570  0.24972528  0.24298824  1
  Na  Na13  1  0.64064841  0.24927220  0.49417080  1
  Na  Na14  1  0.64102582  0.24991959  0.74441082  1
  Na  Na15  1  0.64155876  0.25009980  0.99245887  1
  Na  Na16  1  0.64041165  0.58405518  0.24263446  1
  Na  Na17  1  0.64034966  0.58301611  0.49506340  1
  Na  Na18  1  0.64028795  0.58392563  0.74466738  1
  Na  Na19  1  0.64074898  0.58290660  0.99313633  1
  Na  Na20  1  0.64051730  0.91646019  0.24253046  1
  Na  Na21  1  0.64035002  0.91698179  0.49443324  1
  Na  Na22  1  0.64096852  0.91716223  0.74334560  1
  Na  Na23  1  0.64082850  0.91720580  0.99373316  1
  Na  Na24  1  0.35977124  0.08151816  0.00627652  1
  Na  Na25  1  0.36077349  0.08355974  0.25648152  1
  Na  Na26  1  0.36020312  0.08346474  0.50545922  1
  Na  Na27  1  0.35900413  0.08260968  0.75580152  1
  Na  Na28  1  0.36004257  0.41584163  0.00684689  1
  Na  Na29  1  0.35961922  0.41708472  0.25613443  1
  Na  Na30  1  0.35921769  0.41618097  0.50611186  1
  Na  Na31  1  0.35920584  0.41630315  0.75648129  1
  Na  Na32  1  0.35901101  0.74861044  0.00579448  1
  Na  Na33  1  0.35895107  0.74933820  0.25498150  1
  Na  Na34  1  0.35867309  0.74829611  0.50575381  1
  Na  Na35  1  0.35884772  0.74936931  0.75729479  1
  Na  Na36  1  0.86040964  0.08264559  0.00635852  1
  Na  Na37  1  0.86043294  0.08298232  0.25613803  1
  Na  Na38  1  0.85994091  0.08345145  0.50673116  1
  Na  Na39  1  0.85924390  0.08416509  0.75629746  1
  Na  Na40  1  0.86016841  0.41827673  0.00650514  1
  Na  Na41  1  0.85983802  0.41789726  0.25617696  1
  Na  Na42  1  0.85938948  0.41708606  0.50732388  1
  Na  Na43  1  0.85923890  0.41801294  0.75823144  1
  Na  Na44  1  0.85884858  0.75013039  0.00705883  1
  Na  Na45  1  0.85959717  0.75082281  0.25577166  1
  Na  Na46  1  0.85928032  0.75094069  0.50765908  1
  Na  Na47  1  0.85910845  0.75084619  0.75604547  1
  Na  Na48  1  0.11027467  0.08435668  0.11870888  1
  Na  Na49  1  0.10924857  0.08478315  0.36784841  1
  Na  Na50  1  0.10990914  0.08346488  0.61824457  1
  Na  Na51  1  0.11056382  0.08284582  0.86753859  1
  Na  Na52  1  0.10993633  0.41742849  0.11978267  1
  Na  Na53  1  0.10930859  0.41666054  0.36842265  1
  Na  Na54  1  0.10934184  0.41647332  0.61953059  1
  Na  Na55  1  0.10983822  0.41766727  0.86882083  1
  Na  Na56  1  0.10963404  0.75126874  0.11793091  1
  Na  Na57  1  0.10917786  0.75057174  0.36812476  1
  Na  Na58  1  0.10938141  0.74998869  0.61939499  1
  Na  Na59  1  0.10983372  0.74935486  0.86838108  1
  Na  Na60  1  0.61027233  0.08363456  0.11834787  1
  Na  Na61  1  0.60986268  0.08324132  0.36949887  1
  Na  Na62  1  0.61032418  0.08293958  0.61854834  1
  Na  Na63  1  0.61090341  0.08242817  0.86862146  1
  Na  Na64  1  0.60988771  0.41765713  0.11714926  1
  Na  Na65  1  0.60966603  0.41661180  0.36941167  1
  Na  Na66  1  0.60983797  0.41623207  0.61924056  1
  Na  Na67  1  0.61041475  0.41648014  0.86922470  1
  Na  Na68  1  0.60991181  0.74983626  0.11726743  1
  Na  Na69  1  0.60946954  0.75055001  0.36916645  1
  Na  Na70  1  0.60963059  0.74965757  0.61828020  1
  Na  Na71  1  0.61000127  0.74864207  0.86913832  1
  Na  Na72  1  0.39093173  0.24896052  0.13096382  1
  Na  Na73  1  0.39063543  0.24848948  0.38110165  1
  Na  Na74  1  0.38995940  0.24843362  0.63036660  1
  Na  Na75  1  0.39036645  0.24856349  0.88210190  1
  Na  Na76  1  0.38987464  0.58250063  0.13056202  1
  Na  Na77  1  0.38945630  0.58292434  0.38131863  1
  Na  Na78  1  0.38933540  0.58172524  0.63103318  1
  Na  Na79  1  0.38998114  0.58147266  0.88307619  1
  Na  Na80  1  0.39043225  0.91725352  0.13042825  1
  Na  Na81  1  0.39060710  0.91774886  0.37994074  1
  Na  Na82  1  0.38997013  0.91675127  0.63076875  1
  Na  Na83  1  0.38981586  0.91529765  0.88217323  1
  Na  Na84  1  0.89111626  0.25064800  0.13120911  1
  Na  Na85  1  0.89048526  0.25039266  0.38047355  1
  Na  Na86  1  0.89023728  0.24986599  0.63237903  1
  Na  Na87  1  0.89027009  0.25069959  0.88192398  1
  Na  Na88  1  0.89004938  0.58375683  0.13185000  1
  Na  Na89  1  0.88995265  0.58413092  0.38140995  1
  Na  Na90  1  0.88955512  0.58375274  0.63353772  1
  Na  Na91  1  0.88938807  0.58340555  0.88198739  1
  Na  Na92  1  0.89044422  0.91850251  0.13197134  1
  Na  Na93  1  0.89059614  0.91801444  0.38054664  1
  Na  Na94  1  0.88996388  0.91690470  0.63156826  1
  Na  Na95  1  0.89003692  0.91693944  0.88127380  1
  Mn  Mn96  1  0.24937485  0.66529387  0.62612317  1
  Mn  Mn97  1  0.50073607  0.16590098  0.00044680  1
  Mn  Mn98  1  0.24987954  0.00082516  0.62439941  1
  Mn  Mn99  1  0.49903572  0.83416034  0.49886893  1
  Mn  Mn100  1  0.74978540  0.83349132  0.87513686  1
  Mn  Mn101  1  -0.00081325  0.66688640  0.75036857  1
  Mn  Mn102  1  0.24949884  0.66619035  0.12458014  1
  Mn  Mn103  1  -0.00029094  0.83468049  -0.00015926  1
  Mn  Mn104  1  0.49966994  0.33219443  0.74976911  1
  Mn  Mn105  1  0.00121244  0.16667144  0.00045697  1
  Mn  Mn106  1  0.50026419  0.49978593  0.24899811  1
  Mn  Mn107  1  0.49984309  0.33245372  0.49967420  1
  Mn  Mn108  1  0.75141173  0.16615825  0.12368371  1
  Mn  Mn109  1  0.50003910  0.66650746  0.24958749  1
  Mn  Mn110  1  0.75025201  0.16646582  0.37470304  1
  Mn  Mn111  1  0.74970734  0.66703405  0.37547139  1
  Mn  Mn112  1  0.49901963  0.66580495  0.49928581  1
  Mn  Mn113  1  -0.00103949  0.49988975  0.50060175  1
  Mn  Mn114  1  0.75023813  0.33375904  0.62605375  1
  Mn  Mn115  1  0.75099611  0.33428270  0.12380669  1
  Mn  Mn116  1  0.25012659  0.00078148  0.37376981  1
  Mn  Mn117  1  -0.00010283  0.66764751  0.25020983  1
  Mn  Mn118  1  0.49968959  0.83438443  0.24883948  1
  Mn  Mn119  1  0.50008454  0.16563296  0.75055821  1
  Mn  Mn120  1  0.24944282  0.83305203  0.62499230  1
  Mn  Mn121  1  -0.00058676  0.66644057  -0.00023374  1
  Mn  Mn122  1  0.25041808  0.33287680  0.12503095  1
  Mn  Mn123  1  0.25026509  0.33279812  0.87511237  1
  Mn  Mn124  1  0.25000024  0.33324042  0.37494534  1
  Mn  Mn125  1  0.49979332  -0.00072862  0.74985535  1
  Mn  Mn126  1  0.25006237  -0.00029580  0.12437859  1
  Mn  Mn127  1  0.50005433  0.83254275  0.75022582  1
  Mn  Mn128  1  0.00083995  0.33469880  0.00105727  1
  Mn  Mn129  1  -0.00010269  -0.00096890  0.74871676  1
  Mn  Mn130  1  0.25008671  0.83253444  0.37455292  1
  Mn  Mn131  1  0.75009823  -0.00035082  0.37525974  1
  Mn  Mn132  1  0.75002078  0.50062525  0.37564219  1
  Mn  Mn133  1  -0.00026994  0.66791621  0.50070962  1
  Mn  Mn134  1  0.74996362  0.33367110  0.37505431  1
  Mn  Mn135  1  0.74985314  0.83339212  0.37519047  1
  Mn  Mn136  1  0.49928590  0.66548552  0.74953904  1
  Mn  Mn137  1  0.00010116  0.00042056  0.49940570  1
  Mn  Mn138  1  0.50044332  0.83320340  0.00006885  1
  Mn  Mn139  1  0.24989373  0.33302871  0.62491729  1
  Mn  Mn140  1  0.49954945  0.49871800  0.75071089  1
  Mn  Mn141  1  -0.00014455  0.16699354  0.75022376  1
  Mn  Mn142  1  -0.00112541  0.33284081  0.49952265  1
  Mn  Mn143  1  0.49962802  0.33256157  0.24992999  1
  Fe  Fe144  1  0.00012738  0.83463781  0.24949515  1
  Fe  Fe145  1  0.24957529  0.16668214  0.62485151  1
  Fe  Fe146  1  -0.00021044  0.49999293  0.75048645  1
  Fe  Fe147  1  0.50097824  0.00087383  0.25037587  1
  Fe  Fe148  1  0.50068724  -0.00010691  0.00039424  1
  Fe  Fe149  1  0.75028112  0.16714818  0.62567009  1
  Fe  Fe150  1  -0.00002237  0.33362024  0.75067929  1
  Fe  Fe151  1  0.50117121  0.16623244  0.24990048  1
  Fe  Fe152  1  0.75002110  0.66660308  0.12480234  1
  Fe  Fe153  1  -0.00001153  0.33408194  0.25029800  1
  Fe  Fe154  1  0.25005106  0.49994743  0.12525724  1
  Fe  Fe155  1  0.50028700  0.16577688  0.49993510  1
  Fe  Fe156  1  0.50076548  0.33264719  0.00060596  1
  Fe  Fe157  1  -0.00021377  0.16733831  0.49937656  1
  Fe  Fe158  1  0.25006808  0.16694736  0.37455194  1
  Fe  Fe159  1  0.49956802  0.49926755  0.49974423  1
  Fe  Fe160  1  0.75053370  0.33417899  0.87466083  1
  Fe  Fe161  1  0.25017803  -0.00021781  0.87495599  1
  Fe  Fe162  1  0.25083346  0.16609226  0.12432796  1
  Fe  Fe163  1  0.24980871  0.49941707  0.87551039  1
  Fe  Fe164  1  0.74947925  0.66697876  0.62587394  1
  Fe  Fe165  1  0.75012601  -0.00003131  0.12443660  1
  Fe  Fe166  1  0.75075774  0.00012463  0.87442520  1
  Fe  Fe167  1  0.75002071  0.00074187  0.62538727  1
  Fe  Fe168  1  -0.00016102  0.83415415  0.49933812  1
  Fe  Fe169  1  0.50017970  0.00014657  0.49978025  1
  Fe  Fe170  1  0.74991686  0.50049388  0.12457097  1
  Fe  Fe171  1  0.24972989  0.49957461  0.62528075  1
  Fe  Fe172  1  0.24910981  0.66606540  0.37476638  1
  Fe  Fe173  1  0.24983152  0.83272135  0.12420243  1
  Fe  Fe174  1  0.75035438  0.50117859  0.87552711  1
  Fe  Fe175  1  -0.00004739  0.83339132  0.75013284  1
  Fe  Fe176  1  0.75019982  0.83319719  0.12438143  1
  Fe  Fe177  1  0.24961822  0.83296169  0.87490508  1
  Fe  Fe178  1  -0.00014402  0.50052413  0.25043674  1
  Fe  Fe179  1  0.00065499  0.00068367  0.00045252  1
  Fe  Fe180  1  0.49961946  0.66619291  -0.00058484  1
  Fe  Fe181  1  0.00055498  0.00121648  0.25031374  1
  Fe  Fe182  1  0.74952304  0.83386101  0.62611659  1
  Fe  Fe183  1  0.50007196  0.49933965  -0.00025173  1
  Fe  Fe184  1  0.75074939  0.16651827  0.87466614  1
  Fe  Fe185  1  0.74944445  0.50080364  0.62662453  1
  Fe  Fe186  1  -0.00007188  0.50024152  0.00067798  1
  Fe  Fe187  1  0.24989062  0.66584948  0.87564510  1
  Fe  Fe188  1  0.24949202  0.50001210  0.37538136  1
  Fe  Fe189  1  0.00007326  0.16749452  0.24974095  1
  Fe  Fe190  1  0.74952100  0.66714435  0.87539629  1
  Fe  Fe191  1  0.25046507  0.16609978  0.87455044  1
  P  P192  1  0.04328067  0.25066141  0.10431909  1
  P  P193  1  0.04148344  0.25030744  0.35149330  1
  P  P194  1  0.04188998  0.24936267  0.60254052  1
  P  P195  1  0.04252147  0.25159140  0.85271899  1
  P  P196  1  0.04188514  0.58242174  0.10316341  1
  P  P197  1  0.04160023  0.58296856  0.35271294  1
  P  P198  1  0.04181042  0.58318509  0.60405844  1
  P  P199  1  0.04146269  0.58203456  0.85312513  1
  P  P200  1  0.04242647  0.91891740  0.10320369  1
  P  P201  1  0.04155713  0.91719192  0.35145326  1
  P  P202  1  0.04232423  0.91530255  0.60207722  1
  P  P203  1  0.04221439  0.91575180  0.85238493  1
  P  P204  1  0.54338638  0.25049214  0.10272960  1
  P  P205  1  0.54252027  0.24814381  0.35278829  1
  P  P206  1  0.54248463  0.24817436  0.60222358  1
  P  P207  1  0.54296611  0.24958665  0.85401045  1
  P  P208  1  0.54137526  0.58333771  0.10071021  1
  P  P209  1  0.54263991  0.58264508  0.35318220  1
  P  P210  1  0.54159632  0.58135560  0.60226284  1
  P  P211  1  0.54204262  0.58271222  0.85422006  1
  P  P212  1  0.54266022  0.91842305  0.10287869  1
  P  P213  1  0.54261762  0.91838495  0.35236849  1
  P  P214  1  0.54206519  0.91743724  0.60218861  1
  P  P215  1  0.54316649  0.91623476  0.85371046  1
  P  P216  1  0.45921327  0.08315801  0.14819092  1
  P  P217  1  0.45907566  0.08306556  0.39747810  1
  P  P218  1  0.45726383  0.08297235  0.64604839  1
  P  P219  1  0.45795488  0.08136863  0.89804558  1
  P  P220  1  0.45745640  0.41593997  0.14562041  1
  P  P221  1  0.45738775  0.41701927  0.39736961  1
  P  P222  1  0.45677591  0.41580152  0.64638825  1
  P  P223  1  0.45874363  0.41510654  0.89896633  1
  P  P224  1  0.45742013  0.74962674  0.14567080  1
  P  P225  1  0.45639265  0.75020179  0.39613190  1
  P  P226  1  0.45633869  0.74957594  0.64661414  1
  P  P227  1  0.45746036  0.74845201  0.89764281  1
  P  P228  1  0.95939756  0.08392607  0.14820440  1
  P  P229  1  0.95790500  0.08534802  0.39653697  1
  P  P230  1  0.95734970  0.08367727  0.64616776  1
  P  P231  1  0.95861703  0.08228693  0.89770232  1
  P  P232  1  0.95875509  0.41742083  0.14863125  1
  P  P233  1  0.95674701  0.41692062  0.39614655  1
  P  P234  1  0.95775425  0.41629647  0.64928561  1
  P  P235  1  0.95822788  0.41830252  0.89749039  1
  P  P236  1  0.95791820  0.75215176  0.14756421  1
  P  P237  1  0.95738785  0.75230242  0.39719293  1
  P  P238  1  0.95749553  0.75207324  0.64738274  1
  P  P239  1  0.95678562  0.75055380  0.89670106  1
  P  P240  1  0.20850343  0.08498097  0.22716183  1
  P  P241  1  0.20759803  0.08504066  0.47695870  1
  P  P242  1  0.20754680  0.08466144  0.72792248  1
  P  P243  1  0.20899363  0.08326157  0.97645767  1
  P  P244  1  0.20822216  0.41792715  0.22787733  1
  P  P245  1  0.20736391  0.41755016  0.47775045  1
  P  P246  1  0.20788376  0.41768478  0.72802186  1
  P  P247  1  0.20814741  0.41723295  0.97808434  1
  P  P248  1  0.20727697  0.75064514  0.22711340  1
  P  P249  1  0.20693946  0.74802932  0.47731060  1
  P  P250  1  0.20723935  0.74971231  0.72944141  1
  P  P251  1  0.20828959  0.74989486  0.97676251  1
  P  P252  1  0.70835159  0.08225002  0.22666404  1
  P  P253  1  0.70793081  0.08327897  0.47920643  1
  P  P254  1  0.70895792  0.08392685  0.72744762  1
  P  P255  1  0.70970228  0.08302608  0.97635669  1
  P  P256  1  0.70760038  0.41806506  0.22670020  1
  P  P257  1  0.70729250  0.41697884  0.47923527  1
  P  P258  1  0.70797425  0.41835410  0.72914165  1
  P  P259  1  0.70956346  0.41761025  0.97658646  1
  P  P260  1  0.70844421  0.74997497  0.22596052  1
  P  P261  1  0.70726071  0.75016789  0.47957847  1
  P  P262  1  0.70816064  0.74988932  0.72746422  1
  P  P263  1  0.70801285  0.74886394  0.97841669  1
  P  P264  1  0.29269823  0.24802074  0.02197689  1
  P  P265  1  0.29246950  0.24882269  0.27193013  1
  P  P266  1  0.29175771  0.24841429  0.52192288  1
  P  P267  1  0.29231339  0.24837449  0.77217626  1
  P  P268  1  0.29170014  0.58160943  0.02191155  1
  P  P269  1  0.29112110  0.58302297  0.27315231  1
  P  P270  1  0.29133605  0.58147132  0.52216768  1
  P  P271  1  0.29146544  0.58235872  0.77397758  1
  P  P272  1  0.29177357  0.91467549  0.02135996  1
  P  P273  1  0.29256141  0.91624602  0.27074067  1
  P  P274  1  0.29234883  0.91658681  0.52148733  1
  P  P275  1  0.29126502  0.91645959  0.77345729  1
  P  P276  1  0.79366728  0.25040533  0.02014042  1
  P  P277  1  0.79306574  0.25032489  0.27132962  1
  P  P278  1  0.79254971  0.24933531  0.52326123  1
  P  P279  1  0.79162140  0.25012700  0.77341605  1
  P  P280  1  0.79153337  0.58381174  0.02294561  1
  P  P281  1  0.79229589  0.58402770  0.27133215  1
  P  P282  1  0.79162541  0.58358030  0.52474087  1
  P  P283  1  0.79082478  0.58454715  0.77330845  1
  P  P284  1  0.79163325  0.91702815  0.02296244  1
  P  P285  1  0.79238770  0.91645964  0.27082462  1
  P  P286  1  0.79119314  0.91707868  0.52426053  1
  P  P287  1  0.79189710  0.91792839  0.77185174  1
  O  O288  1  0.03771868  0.25058879  0.18419684  1
  O  O289  1  0.03606491  0.24970089  0.43147504  1
  O  O290  1  0.03679315  0.25015481  0.68249861  1
  O  O291  1  0.03781539  0.25138347  0.93272293  1
  O  O292  1  0.03656175  0.58270415  0.18313911  1
  O  O293  1  0.03644533  0.58334197  0.43268066  1
  O  O294  1  0.03645413  0.58288042  0.68404224  1
  O  O295  1  0.03631261  0.58184125  0.93312710  1
  O  O296  1  0.03729873  0.91874225  0.18312637  1
  O  O297  1  0.03673378  0.91696123  0.43145238  1
  O  O298  1  0.03707521  0.91506583  0.68204487  1
  O  O299  1  0.03726400  0.91677157  0.93233044  1
  O  O300  1  0.53817841  0.24987580  0.18271818  1
  O  O301  1  0.53705697  0.24777493  0.43274571  1
  O  O302  1  0.53745739  0.24844699  0.68225266  1
  O  O303  1  0.53812397  0.25015499  0.93402761  1
  O  O304  1  0.53709389  0.58317619  0.18077311  1
  O  O305  1  0.53716024  0.58200682  0.43313776  1
  O  O306  1  0.53648202  0.58155447  0.68229496  1
  O  O307  1  0.53681930  0.58314440  0.93415974  1
  O  O308  1  0.53738905  0.91873928  0.18284532  1
  O  O309  1  0.53713882  0.91841205  0.43232984  1
  O  O310  1  0.53705244  0.91672594  0.68221264  1
  O  O311  1  0.53834078  0.91672470  0.93375090  1
  O  O312  1  0.46427070  0.08264199  0.06820013  1
  O  O313  1  0.46464808  0.08343283  0.31755129  1
  O  O314  1  0.46240764  0.08301634  0.56607461  1
  O  O315  1  0.46256370  0.08171540  0.81805239  1
  O  O316  1  0.46281294  0.41575270  0.06569322  1
  O  O317  1  0.46246656  0.41681597  0.31736155  1
  O  O318  1  0.46184978  0.41642007  0.56640924  1
  O  O319  1  0.46301881  0.41533887  0.81888550  1
  O  O320  1  0.46291012  0.74904042  0.06570947  1
  O  O321  1  0.46174065  0.75030547  0.31614466  1
  O  O322  1  0.46105744  0.74974128  0.56656791  1
  O  O323  1  0.46224481  0.74866900  0.81761624  1
  O  O324  1  0.96451911  0.08316802  0.06822852  1
  O  O325  1  0.96346374  0.08532510  0.31662247  1
  O  O326  1  0.96248029  0.08426076  0.56619144  1
  O  O327  1  0.96339492  0.08235805  0.81770374  1
  O  O328  1  0.96391405  0.41807385  0.06864043  1
  O  O329  1  0.96222052  0.41719446  0.31624693  1
  O  O330  1  0.96214662  0.41599795  0.56920673  1
  O  O331  1  0.96335627  0.41808686  0.81757189  1
  O  O332  1  0.96292779  0.75159401  0.06759432  1
  O  O333  1  0.96281806  0.75233303  0.31720924  1
  O  O334  1  0.96285958  0.75218831  0.56740610  1
  O  O335  1  0.96187955  0.75078148  0.81671660  1
  O  O336  1  0.21390307  0.08313024  0.05644911  1
  O  O337  1  0.21350025  0.08512337  0.30711268  1
  O  O338  1  0.21242086  0.08496725  0.55698298  1
  O  O339  1  0.21314736  0.08411831  0.80778697  1
  O  O340  1  0.21360235  0.41727651  0.05800340  1
  O  O341  1  0.21359106  0.41790271  0.30782240  1
  O  O342  1  0.21247439  0.41732644  0.55773661  1
  O  O343  1  0.21329351  0.41727268  0.80797718  1
  O  O344  1  0.21322381  0.75011256  0.05677380  1
  O  O345  1  0.21261517  0.74975639  0.30701902  1
  O  O346  1  0.21199971  0.74823593  0.55731992  1
  O  O347  1  0.21281790  0.74985920  0.80932587  1
  O  O348  1  0.71477496  0.08242773  0.05631118  1
  O  O349  1  0.71315927  0.08257282  0.30666024  1
  O  O350  1  0.71331582  0.08352375  0.55911169  1
  O  O351  1  0.71454274  0.08406452  0.80734476  1
  O  O352  1  0.71430847  0.41774870  0.05655811  1
  O  O353  1  0.71241417  0.41778776  0.30673919  1
  O  O354  1  0.71236769  0.41707985  0.55923116  1
  O  O355  1  0.71375552  0.41813487  0.80899691  1
  O  O356  1  0.71359785  0.74900343  0.05825160  1
  O  O357  1  0.71278301  0.75029695  0.30604833  1
  O  O358  1  0.71230800  0.75025896  0.55950718  1
  O  O359  1  0.71299136  0.74974763  0.80749462  1
  O  O360  1  0.28734850  0.24864580  0.19194883  1
  O  O361  1  0.28674335  0.24867192  0.44192382  1
  O  O362  1  0.28689000  0.24856552  0.69223238  1
  O  O363  1  0.28730704  0.24817419  0.94202608  1
  O  O364  1  0.28623349  0.58274773  0.19312333  1
  O  O365  1  0.28580505  0.58187282  0.44230735  1
  O  O366  1  0.28662003  0.58240262  0.69398139  1
  O  O367  1  0.28630293  0.58184751  0.94206558  1
  O  O368  1  0.28717470  0.91596020  0.19077517  1
  O  O369  1  0.28732732  0.91658738  0.44151813  1
  O  O370  1  0.28647157  0.91703316  0.69342902  1
  O  O371  1  0.28622504  0.91495585  0.94147259  1
  O  O372  1  0.78846686  0.25035259  0.19128875  1
  O  O373  1  0.78733896  0.24975186  0.44326953  1
  O  O374  1  0.78661234  0.24988252  0.69343213  1
  O  O375  1  0.78831534  0.25046441  0.94023469  1
  O  O376  1  0.78711568  0.58397220  0.19141249  1
  O  O377  1  0.78675369  0.58361134  0.44469914  1
  O  O378  1  0.78529958  0.58425363  0.69346074  1
  O  O379  1  0.78619073  0.58404202  0.94305559  1
  O  O380  1  0.78723140  0.91652915  0.19091773  1
  O  O381  1  0.78652508  0.91654424  0.44421369  1
  O  O382  1  0.78635955  0.91790127  0.69202343  1
  O  O383  1  0.78698707  0.91704453  0.94293875  1
  O  O384  1  0.22850446  0.24805353  0.05793614  1
  O  O385  1  0.22815544  0.24905301  0.30760323  1
  O  O386  1  0.22752311  0.24848253  0.55778017  1
  O  O387  1  0.22809959  0.24838335  0.80809933  1
  O  O388  1  0.22758958  0.58129081  0.05817725  1
  O  O389  1  0.22694225  0.58323761  0.30917921  1
  O  O390  1  0.22726996  0.58109410  0.55865498  1
  O  O391  1  0.22724497  0.58217330  0.80983886  1
  O  O392  1  0.22772249  0.91473719  0.05777988  1
  O  O393  1  0.22829259  0.91651352  0.30628521  1
  O  O394  1  0.22791934  0.91687102  0.55661188  1
  O  O395  1  0.22706220  0.91609644  0.80918526  1
  O  O396  1  0.72945058  0.25010837  0.05590166  1
  O  O397  1  0.72855549  0.25012711  0.30625168  1
  O  O398  1  0.72825790  0.24931108  0.55892702  1
  O  O399  1  0.72761576  0.24953252  0.80963270  1
  O  O400  1  0.72746055  0.58360536  0.05943531  1
  O  O401  1  0.72799480  0.58393143  0.30699835  1
  O  O402  1  0.72733288  0.58339156  0.56051890  1
  O  O403  1  0.72696376  0.58467702  0.81016767  1
  O  O404  1  0.72744707  0.91736059  0.05880266  1
  O  O405  1  0.72811469  0.91654297  0.30655819  1
  O  O406  1  0.72703257  0.91781345  0.56005696  1
  O  O407  1  0.72788158  0.91793824  0.80826895  1
  O  O408  1  0.27278868  0.08434883  0.19144971  1
  O  O409  1  0.27201593  0.08482345  0.44154485  1
  O  O410  1  0.27165862  0.08521456  0.69153940  1
  O  O411  1  0.27316089  0.08360732  0.94054531  1
  O  O412  1  0.27234395  0.41794050  0.19171602  1
  O  O413  1  0.27164677  0.41758182  0.44204665  1
  O  O414  1  0.27201242  0.41777140  0.69191181  1
  O  O415  1  0.27232758  0.41728131  0.94207512  1
  O  O416  1  0.27147012  0.75091066  0.19102377  1
  O  O417  1  0.27128688  0.74765837  0.44174779  1
  O  O418  1  0.27134329  0.74948338  0.69335229  1
  O  O419  1  0.27236114  0.75016840  0.94068262  1
  O  O420  1  0.77280169  0.08178050  0.19138068  1
  O  O421  1  0.77214171  0.08323739  0.44333186  1
  O  O422  1  0.77288432  0.08381869  0.69068481  1
  O  O423  1  0.77380555  0.08382043  0.94026614  1
  O  O424  1  0.77209197  0.41886281  0.19143350  1
  O  O425  1  0.77166592  0.41689970  0.44387503  1
  O  O426  1  0.77200917  0.41878449  0.69265302  1
  O  O427  1  0.77365388  0.41801072  0.94067500  1
  O  O428  1  0.77275207  0.74927582  0.19052496  1
  O  O429  1  0.77158135  0.75022758  0.44395053  1
  O  O430  1  0.77229545  0.74957416  0.69155901  1
  O  O431  1  0.77200297  0.74884762  0.94188495  1
  O  O432  1  0.02341250  0.08491359  0.18429462  1
  O  O433  1  0.02197837  0.08546542  0.43282018  1
  O  O434  1  0.02165710  0.08352974  0.68144364  1
  O  O435  1  0.02303420  0.08197823  0.93292998  1
  O  O436  1  0.02279513  0.41679435  0.18479492  1
  O  O437  1  0.02092953  0.41669065  0.43190297  1
  O  O438  1  0.02214160  0.41623592  0.68458774  1
  O  O439  1  0.02243980  0.41910164  0.93345989  1
  O  O440  1  0.02219365  0.75229038  0.18307650  1
  O  O441  1  0.02167314  0.75229017  0.43292423  1
  O  O442  1  0.02165180  0.75156526  0.68333718  1
  O  O443  1  0.02114797  0.75042733  0.93184909  1
  O  O444  1  0.52341204  0.08356988  0.18411329  1
  O  O445  1  0.52294678  0.08275563  0.43424056  1
  O  O446  1  0.52163089  0.08274807  0.68141789  1
  O  O447  1  0.52249408  0.08139240  0.93298610  1
  O  O448  1  0.52171709  0.41583038  0.18115221  1
  O  O449  1  0.52168249  0.41716672  0.43283680  1
  O  O450  1  0.52120639  0.41568982  0.68149990  1
  O  O451  1  0.52310943  0.41499285  0.93416918  1
  O  O452  1  0.52169270  0.75014315  0.18110562  1
  O  O453  1  0.52074260  0.75010310  0.43129866  1
  O  O454  1  0.52096869  0.74927501  0.68120241  1
  O  O455  1  0.52190754  0.74846172  0.93266848  1
  O  O456  1  0.47902871  0.25067662  0.06729183  1
  O  O457  1  0.47834152  0.24756089  0.31684189  1
  O  O458  1  0.47815687  0.24802270  0.56684106  1
  O  O459  1  0.47847329  0.24920176  0.81907086  1
  O  O460  1  0.47702629  0.58328152  0.06555874  1
  O  O461  1  0.47828261  0.58284735  0.31789327  1
  O  O462  1  0.47728922  0.58087872  0.56678622  1
  O  O463  1  0.47772715  0.58245900  0.81875880  1
  O  O464  1  0.47843548  0.91818377  0.06712904  1
  O  O465  1  0.47840467  0.91864770  0.31652367  1
  O  O466  1  0.47774843  0.91840365  0.56672925  1
  O  O467  1  0.47861016  0.91583611  0.81898813  1
  O  O468  1  0.97916923  0.25043492  0.06842790  1
  O  O469  1  0.97744527  0.25079806  0.31522295  1
  O  O470  1  0.97754731  0.24844423  0.56693162  1
  O  O471  1  0.97810182  0.25177476  0.81753055  1
  O  O472  1  0.97762688  0.58219534  0.06741726  1
  O  O473  1  0.97739546  0.58322297  0.31712162  1
  O  O474  1  0.97751133  0.58383944  0.56874246  1
  O  O475  1  0.97725713  0.58209095  0.81742691  1
  O  O476  1  0.97817213  0.91940679  0.06735663  1
  O  O477  1  0.97744098  0.91686391  0.31560047  1
  O  O478  1  0.97803956  0.91568116  0.56638730  1
  O  O479  1  0.97784924  0.91524410  0.81692960  1
  O  O480  1  0.07443972  0.31416625  0.07604360  1
  O  O481  1  0.07250830  0.31421096  0.32395288  1
  O  O482  1  0.07257697  0.31310134  0.57407239  1
  O  O483  1  0.07315430  0.31521998  0.82418333  1
  O  O484  1  0.07271866  0.64631277  0.07519307  1
  O  O485  1  0.07300791  0.64643208  0.32481018  1
  O  O486  1  0.07321933  0.64665113  0.57609703  1
  O  O487  1  0.07250900  0.64591744  0.82564177  1
  O  O488  1  0.07352563  0.98220734  0.07422099  1
  O  O489  1  0.07180814  0.98150285  0.32346054  1
  O  O490  1  0.07348278  0.97909200  0.57436452  1
  O  O491  1  0.07337696  0.97904614  0.82365648  1
  O  O492  1  0.57415035  0.31408990  0.07422573  1
  O  O493  1  0.57302061  0.31239944  0.32535759  1
  O  O494  1  0.57356785  0.31188328  0.57442882  1
  O  O495  1  0.57400225  0.31274654  0.82496767  1
  O  O496  1  0.57226575  0.64697831  0.07257717  1
  O  O497  1  0.57362348  0.64647142  0.32535784  1
  O  O498  1  0.57235824  0.64530011  0.57462380  1
  O  O499  1  0.57318582  0.64594727  0.82522848  1
  O  O500  1  0.57355204  0.98173915  0.07397434  1
  O  O501  1  0.57389869  0.98161506  0.32383446  1
  O  O502  1  0.57328891  0.98088218  0.57426091  1
  O  O503  1  0.57421291  0.97945328  0.82482463  1
  O  O504  1  0.42824185  0.01969331  0.17674264  1
  O  O505  1  0.42782766  0.01946281  0.42550742  1
  O  O506  1  0.42586338  0.01968062  0.67460524  1
  O  O507  1  0.42743623  0.01772385  0.92662327  1
  O  O508  1  0.42608856  0.35272987  0.17436698  1
  O  O509  1  0.42633313  0.35317006  0.42488478  1
  O  O510  1  0.42597239  0.35193023  0.67432491  1
  O  O511  1  0.42773476  0.35157731  0.92714607  1
  O  O512  1  0.42619546  0.68633101  0.17421781  1
  O  O513  1  0.42524052  0.68672139  0.42422313  1
  O  O514  1  0.42526523  0.68603092  0.67477876  1
  O  O515  1  0.42674308  0.68483785  0.92605925  1
  O  O516  1  0.92908033  0.02016189  0.17724931  1
  O  O517  1  0.92676025  0.02155915  0.42436887  1
  O  O518  1  0.92646234  0.01982513  0.67390325  1
  O  O519  1  0.92771206  0.01887669  0.92634745  1
  O  O520  1  0.92760030  0.35362087  0.17617271  1
  O  O521  1  0.92544892  0.35347365  0.42445542  1
  O  O522  1  0.92702392  0.35269538  0.67793201  1
  O  O523  1  0.92762645  0.35444332  0.92580979  1
  O  O524  1  0.92685880  0.68852407  0.17552514  1
  O  O525  1  0.92641537  0.68847541  0.42508781  1
  O  O526  1  0.92610312  0.68839311  0.67490523  1
  O  O527  1  0.92583448  0.68688758  0.92486882  1
  O  O528  1  0.17710009  0.02139411  0.19952507  1
  O  O529  1  0.17648913  0.02134174  0.44903258  1
  O  O530  1  0.17660971  0.02093276  0.69969747  1
  O  O531  1  0.17878052  0.01912685  0.94809336  1
  O  O532  1  0.17726269  0.35408408  0.20026348  1
  O  O533  1  0.17640740  0.35376528  0.44980994  1
  O  O534  1  0.17693602  0.35393217  0.70004587  1
  O  O535  1  0.17718157  0.35335926  0.95047280  1
  O  O536  1  0.17598641  0.68723399  0.19891347  1
  O  O537  1  0.17610091  0.68454841  0.44887066  1
  O  O538  1  0.17581385  0.68626892  0.70147944  1
  O  O539  1  0.17806590  0.68553510  0.94902938  1
  O  O540  1  0.67742461  0.01880632  0.19827755  1
  O  O541  1  0.67675503  0.01982620  0.45090659  1
  O  O542  1  0.67775060  0.02034229  0.69942940  1
  O  O543  1  0.67921697  0.01928763  0.94765102  1
  O  O544  1  0.67712837  0.35417373  0.19864152  1
  O  O545  1  0.67636086  0.35339380  0.45085676  1
  O  O546  1  0.67685093  0.35464112  0.70130366  1
  O  O547  1  0.67929098  0.35350857  0.94829966  1
  O  O548  1  0.67696322  0.68665205  0.19799853  1
  O  O549  1  0.67619593  0.68671613  0.45102116  1
  O  O550  1  0.67659158  0.68674689  0.69917070  1
  O  O551  1  0.67697448  0.68550663  0.94977428  1
  O  O552  1  0.32374361  0.31168232  0.04988230  1
  O  O553  1  0.32353845  0.31260336  0.29958314  1
  O  O554  1  0.32271651  0.31221962  0.54978816  1
  O  O555  1  0.32339743  0.31214004  0.79993472  1
  O  O556  1  0.32265568  0.64534671  0.04997004  1
  O  O557  1  0.32172994  0.64700341  0.30110337  1
  O  O558  1  0.32246123  0.64502269  0.55041820  1
  O  O559  1  0.32176116  0.64634709  0.80247573  1
  O  O560  1  0.32314031  0.97825979  0.04923457  1
  O  O561  1  0.32365569  0.97994347  0.29854693  1
  O  O562  1  0.32351551  0.98002167  0.54956056  1
  O  O563  1  0.32165893  0.98037055  0.80196538  1
  O  O564  1  0.82471406  0.31387061  0.04863377  1
  O  O565  1  0.82373561  0.31394281  0.29964890  1
  O  O566  1  0.82380439  0.31283646  0.55122079  1
  O  O567  1  0.82169185  0.31451290  0.80124023  1
  O  O568  1  0.82258541  0.64731758  0.05140254  1
  O  O569  1  0.82339180  0.64744608  0.29997753  1
  O  O570  1  0.82230125  0.64740601  0.55274701  1
  O  O571  1  0.82211791  0.64804439  0.80133480  1
  O  O572  1  0.82305901  0.98026514  0.05131660  1
  O  O573  1  0.82368800  0.97974497  0.29944150  1
  O  O574  1  0.82273974  0.98056309  0.55169817  1
  O  O575  1  0.82294636  0.98137722  0.80050732  1
  O  O576  1  0.42856245  0.14703881  0.17608511  1
  O  O577  1  0.42821458  0.14663684  0.42598138  1
  O  O578  1  0.42642101  0.14634239  0.67486314  1
  O  O579  1  0.42702332  0.14488076  0.92616136  1
  O  O580  1  0.42641815  0.47945371  0.17387625  1
  O  O581  1  0.42670678  0.48048261  0.42585030  1
  O  O582  1  0.42555885  0.47874518  0.67549060  1
  O  O583  1  0.42847169  0.47909286  0.92727181  1
  O  O584  1  0.42632843  0.81329984  0.17323336  1
  O  O585  1  0.42540864  0.81374241  0.42402187  1
  O  O586  1  0.42575059  0.81310986  0.67517448  1
  O  O587  1  0.42652378  0.81201388  0.92560694  1
  O  O588  1  0.92780162  0.14742487  0.17552072  1
  O  O589  1  0.92691190  0.14858626  0.42532799  1
  O  O590  1  0.92607952  0.14660216  0.67519531  1
  O  O591  1  0.92800954  0.14613146  0.92551318  1
  O  O592  1  0.92815675  0.48108306  0.17712962  1
  O  O593  1  0.92559799  0.48016812  0.42492626  1
  O  O594  1  0.92737462  0.48026121  0.67727395  1
  O  O595  1  0.92692283  0.48138276  0.92638746  1
  O  O596  1  0.92731188  0.81584232  0.17555419  1
  O  O597  1  0.92648444  0.81561286  0.42586634  1
  O  O598  1  0.92692874  0.81548301  0.67620562  1
  O  O599  1  0.92554970  0.81372081  0.92519840  1
  O  O600  1  0.07461575  0.18748068  0.07566817  1
  O  O601  1  0.07240587  0.18692995  0.32296624  1
  O  O602  1  0.07289333  0.18602384  0.57408330  1
  O  O603  1  0.07334009  0.18791571  0.82483505  1
  O  O604  1  0.07293623  0.51916114  0.07468882  1
  O  O605  1  0.07207702  0.51922764  0.32447231  1
  O  O606  1  0.07263812  0.51970866  0.57568837  1
  O  O607  1  0.07247937  0.51893018  0.82417043  1
  O  O608  1  0.07318015  0.85522190  0.07494727  1
  O  O609  1  0.07296012  0.85409507  0.32290841  1
  O  O610  1  0.07309338  0.85203526  0.57322759  1
  O  O611  1  0.07275764  0.85194528  0.82434153  1
  O  O612  1  0.57451348  0.18706138  0.07455400  1
  O  O613  1  0.57401389  0.18528915  0.32388096  1
  O  O614  1  0.57318263  0.18469351  0.57381951  1
  O  O615  1  0.57374902  0.18582991  0.82613256  1
  O  O616  1  0.57176449  0.51944757  0.07231977  1
  O  O617  1  0.57393213  0.51961412  0.32439363  1
  O  O618  1  0.57252732  0.51795445  0.57397529  1
  O  O619  1  0.57313945  0.51919551  0.82615177  1
  O  O620  1  0.57365315  0.85462004  0.07544263  1
  O  O621  1  0.57331960  0.85447059  0.32456049  1
  O  O622  1  0.57250603  0.85361152  0.57409228  1
  O  O623  1  0.57404854  0.85258735  0.82561054  1
  O  O624  1  0.32362160  0.18459162  0.05035767  1
  O  O625  1  0.32318245  0.18551650  0.30090646  1
  O  O626  1  0.32263232  0.18512940  0.55052980  1
  O  O627  1  0.32332888  0.18512368  0.80078478  1
  O  O628  1  0.32282171  0.51841522  0.05063366  1
  O  O629  1  0.32205865  0.51958018  0.30157751  1
  O  O630  1  0.32230006  0.51809561  0.55081348  1
  O  O631  1  0.32265281  0.51895133  0.80215538  1
  O  O632  1  0.32260207  0.85127898  0.05002335  1
  O  O633  1  0.32380818  0.85307143  0.29913280  1
  O  O634  1  0.32305341  0.85295973  0.54964506  1
  O  O635  1  0.32241295  0.85294293  0.80122941  1
  O  O636  1  0.82503827  0.18712763  0.04849545  1
  O  O637  1  0.82398733  0.18682622  0.29946064  1
  O  O638  1  0.82312581  0.18572425  0.55158885  1
  O  O639  1  0.82335408  0.18706975  0.80157937  1
  O  O640  1  0.82240284  0.52017304  0.05127188  1
  O  O641  1  0.82343330  0.52077350  0.30002875  1
  O  O642  1  0.82236567  0.51993140  0.55294607  1
  O  O643  1  0.82164480  0.52090448  0.80183194  1
  O  O644  1  0.82165712  0.85283771  0.05120342  1
  O  O645  1  0.82329733  0.85307290  0.29956314  1
  O  O646  1  0.82115643  0.85307825  0.55293846  1
  O  O647  1  0.82306228  0.85444663  0.79999127  1
  O  O648  1  0.17804354  0.14842438  0.19825828  1
  O  O649  1  0.17700394  0.14844355  0.44803047  1
  O  O650  1  0.17635977  0.14791843  0.69943320  1
  O  O651  1  0.17759821  0.14648933  0.94827752  1
  O  O652  1  0.17722272  0.48123717  0.19940473  1
  O  O653  1  0.17640695  0.48077417  0.44899785  1
  O  O654  1  0.17688835  0.48103079  0.69972750  1
  O  O655  1  0.17705662  0.48039931  0.94938288  1
  O  O656  1  0.17671341  0.81435269  0.19892054  1
  O  O657  1  0.17622886  0.81182207  0.44946835  1
  O  O658  1  0.17617650  0.81305831  0.70081533  1
  O  O659  1  0.17679184  0.81298589  0.94839309  1
  O  O660  1  0.67774638  0.14596718  0.19850443  1
  O  O661  1  0.67682187  0.14653951  0.45045939  1
  O  O662  1  0.67809633  0.14760259  0.69914971  1
  O  O663  1  0.67836320  0.14657161  0.94870827  1
  O  O664  1  0.67659193  0.48137074  0.19809186  1
  O  O665  1  0.67623930  0.48028345  0.45084529  1
  O  O666  1  0.67679324  0.48164812  0.70063731  1
  O  O667  1  0.67810035  0.48085114  0.94846201  1
  O  O668  1  0.67852027  0.81402423  0.19729358  1
  O  O669  1  0.67615776  0.81342333  0.45072997  1
  O  O670  1  0.67810676  0.81412508  0.69930814  1
  O  O671  1  0.67683860  0.81244643  0.95048436  1
