# generated using pymatgen
data_Na2MnFe(PO4)2
_symmetry_space_group_name_H-M   'P 1'
_cell_length_a   22.34429468
_cell_length_b   20.09193208
_cell_length_c   19.45025033
_cell_angle_alpha   89.97539395
_cell_angle_beta   90.00185571
_cell_angle_gamma   89.91892865
_symmetry_Int_Tables_number   1
_chemical_formula_structural   Na2MnFe(PO4)2
_chemical_formula_sum   'Na96 Mn48 Fe48 P96 O384'
_cell_volume   8731.98682791
_cell_formula_units_Z   48
loop_
 _symmetry_equiv_pos_site_id
 _symmetry_equiv_pos_as_xyz
  1  'x, y, z'
loop_
 _atom_site_type_symbol
 _atom_site_label
 _atom_site_symmetry_multiplicity
 _atom_site_fract_x
 _atom_site_fract_y
 _atom_site_fract_z
 _atom_site_occupancy
  Na  Na0  1  0.13953860  0.24956620  0.24302380  1
  Na  Na1  1  0.14025368  0.24973231  0.49306971  1
  Na  Na2  1  0.14016974  0.24894658  0.74327600  1
  Na  Na3  1  0.14002625  0.24980639  0.99289160  1
  Na  Na4  1  0.14034731  0.58217166  0.24404981  1
  Na  Na5  1  0.13998761  0.58292277  0.49363592  1
  Na  Na6  1  0.13976056  0.58361016  0.74419494  1
  Na  Na7  1  0.13997038  0.58410805  0.99386471  1
  Na  Na8  1  0.13969600  0.91542479  0.24275083  1
  Na  Na9  1  0.14035090  0.91695327  0.49416854  1
  Na  Na10  1  0.14051731  0.91661044  0.74349179  1
  Na  Na11  1  0.14041318  0.91661369  0.99312363  1
  Na  Na12  1  0.64044344  0.24998611  0.24408238  1
  Na  Na13  1  0.64060595  0.24940525  0.49295859  1
  Na  Na14  1  0.64018236  0.25050154  0.74353905  1
  Na  Na15  1  0.64060846  0.25087566  0.99416302  1
  Na  Na16  1  0.64055591  0.58336649  0.24427241  1
  Na  Na17  1  0.64044422  0.58413509  0.49452853  1
  Na  Na18  1  0.64029571  0.58488940  0.74509164  1
  Na  Na19  1  0.64025312  0.58434190  0.99305769  1
  Na  Na20  1  0.64087763  0.91696467  0.24384344  1
  Na  Na21  1  0.64114148  0.91743875  0.49446905  1
  Na  Na22  1  0.64115493  0.91721833  0.74311768  1
  Na  Na23  1  0.64076806  0.91704361  0.99394546  1
  Na  Na24  1  0.35945959  0.08410291  0.00521319  1
  Na  Na25  1  0.35925899  0.08344678  0.25439761  1
  Na  Na26  1  0.35907828  0.08352154  0.50562837  1
  Na  Na27  1  0.35928704  0.08337410  0.75549888  1
  Na  Na28  1  0.35942792  0.41769807  0.00607225  1
  Na  Na29  1  0.35943289  0.41554736  0.25605320  1
  Na  Na30  1  0.35932331  0.41609814  0.50618542  1
  Na  Na31  1  0.35927641  0.41622821  0.75696618  1
  Na  Na32  1  0.35971654  0.74979905  0.00601165  1
  Na  Na33  1  0.35951698  0.74837256  0.25564772  1
  Na  Na34  1  0.35962702  0.75000016  0.50750327  1
  Na  Na35  1  0.35976922  0.74916933  0.75725362  1
  Na  Na36  1  0.86014595  0.08353044  0.00715517  1
  Na  Na37  1  0.85941325  0.08268267  0.25726946  1
  Na  Na38  1  0.85965335  0.08231573  0.50605505  1
  Na  Na39  1  0.85960690  0.08330790  0.75429903  1
  Na  Na40  1  0.85926062  0.41740820  0.00630808  1
  Na  Na41  1  0.85949736  0.41556645  0.25675733  1
  Na  Na42  1  0.85994754  0.41572876  0.50631538  1
  Na  Na43  1  0.85971461  0.41694182  0.75653080  1
  Na  Na44  1  0.86063965  0.75057240  0.00752606  1
  Na  Na45  1  0.86022365  0.75048268  0.25680502  1
  Na  Na46  1  0.86011115  0.75094807  0.50675966  1
  Na  Na47  1  0.86063339  0.75027089  0.75757412  1
  Na  Na48  1  0.10929400  0.08128094  0.11712275  1
  Na  Na49  1  0.10927929  0.08261282  0.36867254  1
  Na  Na50  1  0.10990556  0.08301080  0.61771193  1
  Na  Na51  1  0.11008885  0.08366034  0.86744821  1
  Na  Na52  1  0.10938662  0.41547148  0.11883656  1
  Na  Na53  1  0.10976809  0.41758909  0.36803047  1
  Na  Na54  1  0.10902331  0.41638290  0.61832377  1
  Na  Na55  1  0.10907411  0.41760322  0.86884594  1
  Na  Na56  1  0.10970853  0.74919682  0.11903419  1
  Na  Na57  1  0.10923384  0.75005086  0.36883652  1
  Na  Na58  1  0.10970722  0.74919802  0.61902494  1
  Na  Na59  1  0.10956295  0.74928352  0.86914425  1
  Na  Na60  1  0.61027379  0.08444553  0.11850841  1
  Na  Na61  1  0.61026495  0.08443240  0.36782489  1
  Na  Na62  1  0.61004310  0.08440622  0.61737072  1
  Na  Na63  1  0.60983823  0.08315139  0.86886297  1
  Na  Na64  1  0.60916007  0.41745462  0.11869298  1
  Na  Na65  1  0.60978675  0.41630505  0.36956466  1
  Na  Na66  1  0.60924304  0.41742112  0.61990627  1
  Na  Na67  1  0.60946505  0.41826697  0.86943996  1
  Na  Na68  1  0.60986478  0.74966032  0.11811348  1
  Na  Na69  1  0.60989915  0.74989092  0.36957147  1
  Na  Na70  1  0.61014997  0.75062367  0.61988641  1
  Na  Na71  1  0.60983399  0.74940944  0.86893249  1
  Na  Na72  1  0.38996968  0.25110047  0.13021620  1
  Na  Na73  1  0.38960883  0.25099208  0.38066935  1
  Na  Na74  1  0.39003471  0.25032420  0.63045910  1
  Na  Na75  1  0.39028229  0.25026600  0.88136909  1
  Na  Na76  1  0.39016560  0.58269949  0.13048949  1
  Na  Na77  1  0.39023663  0.58214856  0.38203658  1
  Na  Na78  1  0.39014449  0.58426674  0.63236297  1
  Na  Na79  1  0.38994007  0.58310183  0.88249000  1
  Na  Na80  1  0.39016510  0.91735998  0.12974378  1
  Na  Na81  1  0.39029518  0.91603968  0.38059379  1
  Na  Na82  1  0.39056422  0.91643318  0.63194788  1
  Na  Na83  1  0.39068421  0.91613613  0.88084972  1
  Na  Na84  1  0.89035863  0.24796480  0.13233887  1
  Na  Na85  1  0.89018678  0.24976526  0.38216023  1
  Na  Na86  1  0.89008783  0.24902327  0.62999032  1
  Na  Na87  1  0.89040930  0.25006837  0.88079472  1
  Na  Na88  1  0.89027703  0.58427134  0.13113663  1
  Na  Na89  1  0.89091735  0.58385792  0.38080591  1
  Na  Na90  1  0.89110738  0.58342328  0.63179424  1
  Na  Na91  1  0.89000265  0.58513238  0.88228971  1
  Na  Na92  1  0.89105721  0.91550968  0.13277354  1
  Na  Na93  1  0.88998683  0.91637110  0.38206145  1
  Na  Na94  1  0.89003693  0.91622145  0.63146043  1
  Na  Na95  1  0.89094193  0.91621650  0.88132699  1
  Mn  Mn96  1  0.50028158  -0.00033035  0.74933573  1
  Mn  Mn97  1  0.74983820  0.50097430  0.12570087  1
  Mn  Mn98  1  0.74973893  0.33280541  0.12543327  1
  Mn  Mn99  1  0.75121327  0.83358994  0.87550682  1
  Mn  Mn100  1  0.24959841  0.49969460  0.12516705  1
  Mn  Mn101  1  0.24944909  0.16680790  0.12442588  1
  Mn  Mn102  1  0.50017403  0.00065349  0.24967623  1
  Mn  Mn103  1  0.25029146  0.83283217  0.37475733  1
  Mn  Mn104  1  0.49989183  0.83327389  0.24952792  1
  Mn  Mn105  1  0.75087839  0.49933736  0.37469433  1
  Mn  Mn106  1  -0.00085212  0.50067997  -0.00033856  1
  Mn  Mn107  1  0.24967879  0.66537460  0.37561308  1
  Mn  Mn108  1  0.49960604  0.16839801  0.49908045  1
  Mn  Mn109  1  0.74951861  0.33252587  0.62553236  1
  Mn  Mn110  1  -0.00040399  -0.00074363  0.75010739  1
  Mn  Mn111  1  0.50004448  0.00022724  0.49978524  1
  Mn  Mn112  1  0.75083236  0.66766873  0.37532320  1
  Mn  Mn113  1  0.24892337  0.33248581  0.62577614  1
  Mn  Mn114  1  -0.00049033  0.50030739  0.74991191  1
  Mn  Mn115  1  0.74996466  0.83368312  0.12531820  1
  Mn  Mn116  1  0.24934462  0.50025999  0.62548354  1
  Mn  Mn117  1  0.24938480  0.33333813  0.87460856  1
  Mn  Mn118  1  0.49922228  0.50053619  0.75008068  1
  Mn  Mn119  1  0.24986490  -0.00034575  0.37465056  1
  Mn  Mn120  1  0.24880527  0.16675955  0.37423841  1
  Mn  Mn121  1  0.50004690  0.50005306  0.50073199  1
  Mn  Mn122  1  0.75014913  0.50037210  0.62524128  1
  Mn  Mn123  1  -0.00022585  0.16690490  0.74910165  1
  Mn  Mn124  1  -0.00003214  0.50032269  0.24963555  1
  Mn  Mn125  1  0.00005126  0.83305469  0.49996097  1
  Mn  Mn126  1  0.50005220  0.16793470  0.74957508  1
  Mn  Mn127  1  0.50045235  0.83233153  0.50064766  1
  Mn  Mn128  1  0.75065726  0.33410801  0.87473880  1
  Mn  Mn129  1  0.75129380  0.66790981  0.62486705  1
  Mn  Mn130  1  -0.00002603  0.16566816  0.25037025  1
  Mn  Mn131  1  0.25005898  0.83346065  0.87482799  1
  Mn  Mn132  1  0.00007820  -0.00121552  -0.00018828  1
  Mn  Mn133  1  0.50020275  0.83331823  -0.00028117  1
  Mn  Mn134  1  0.00014446  0.33366081  0.49955705  1
  Mn  Mn135  1  0.74983244  0.16660053  0.87497245  1
  Mn  Mn136  1  0.75037451  0.00065518  0.87473481  1
  Mn  Mn137  1  0.50013524  0.49934441  0.25076168  1
  Mn  Mn138  1  0.50045917  0.16745513  -0.00063144  1
  Mn  Mn139  1  0.25016579  0.83323896  0.62555536  1
  Mn  Mn140  1  0.49906446  0.16827069  0.24879482  1
  Mn  Mn141  1  0.50019748  0.66612077  0.24980527  1
  Mn  Mn142  1  0.25002686  0.83303688  0.12408636  1
  Mn  Mn143  1  -0.00072280  0.33239791  -0.00030075  1
  Fe  Fe144  1  0.49989622  0.33422820  0.75052777  1
  Fe  Fe145  1  0.24942553  0.33358132  0.12436601  1
  Fe  Fe146  1  0.24998478  0.66613843  0.62556250  1
  Fe  Fe147  1  -0.00001329  0.83289673  0.25054791  1
  Fe  Fe148  1  0.24988815  0.16617357  0.62439379  1
  Fe  Fe149  1  0.75030951  0.16658766  0.12571227  1
  Fe  Fe150  1  0.75059577  0.83397708  0.62545624  1
  Fe  Fe151  1  0.75022416  0.66748745  0.87541983  1
  Fe  Fe152  1  0.24996694  0.00064597  0.87381237  1
  Fe  Fe153  1  -0.00010335  0.66683844  0.75033120  1
  Fe  Fe154  1  0.75012312  0.16618623  0.62369196  1
  Fe  Fe155  1  0.25047360  0.49915461  0.37485389  1
  Fe  Fe156  1  0.24970299  0.00012223  0.12377011  1
  Fe  Fe157  1  0.25014057  0.66599015  0.12496954  1
  Fe  Fe158  1  0.25007025  0.16647223  0.87447501  1
  Fe  Fe159  1  0.49980386  0.66677918  0.50108729  1
  Fe  Fe160  1  0.50037708  0.00000168  -0.00086232  1
  Fe  Fe161  1  0.49950115  0.66659531  -0.00035506  1
  Fe  Fe162  1  0.74962043  0.83401009  0.37529741  1
  Fe  Fe163  1  0.50015411  0.33395062  0.50024042  1
  Fe  Fe164  1  0.00031989  0.16637051  0.49960426  1
  Fe  Fe165  1  -0.00027107  0.50031199  0.49950800  1
  Fe  Fe166  1  0.75009330  0.16574340  0.37487149  1
  Fe  Fe167  1  0.75047869  0.00041258  0.12586101  1
  Fe  Fe168  1  0.00031475  0.16606556  -0.00032512  1
  Fe  Fe169  1  0.49991333  0.66679415  0.75089981  1
  Fe  Fe170  1  0.75004788  -0.00001243  0.37545877  1
  Fe  Fe171  1  0.00007289  -0.00069566  0.25015580  1
  Fe  Fe172  1  0.75012834  0.00034838  0.62407453  1
  Fe  Fe173  1  0.24977280  0.33296080  0.37482714  1
  Fe  Fe174  1  0.75002884  0.50113139  0.87573717  1
  Fe  Fe175  1  -0.00022155  0.66670006  0.50026141  1
  Fe  Fe176  1  0.49969914  0.50016728  -0.00011798  1
  Fe  Fe177  1  0.00045273  0.66673798  0.25045910  1
  Fe  Fe178  1  0.75019812  0.66726343  0.12518261  1
  Fe  Fe179  1  0.24989097  0.66642277  0.87510730  1
  Fe  Fe180  1  0.24940187  0.50035026  0.87563211  1
  Fe  Fe181  1  0.74965075  0.33220801  0.37531764  1
  Fe  Fe182  1  0.00013381  0.66757487  0.00089689  1
  Fe  Fe183  1  0.25003359  0.00025622  0.62480261  1
  Fe  Fe184  1  0.00047831  -0.00070487  0.49994991  1
  Fe  Fe185  1  0.49993498  0.33398081  0.24948157  1
  Fe  Fe186  1  0.00050636  0.83253936  0.75047440  1
  Fe  Fe187  1  -0.00025833  0.33317098  0.74936730  1
  Fe  Fe188  1  0.49988826  0.33412476  0.00006423  1
  Fe  Fe189  1  0.50073740  0.83279988  0.75063873  1
  Fe  Fe190  1  -0.00042324  0.33319826  0.25027394  1
  Fe  Fe191  1  0.00071681  0.83251019  0.00090345  1
  P  P192  1  0.04203487  0.24781569  0.10240736  1
  P  P193  1  0.04179838  0.25085211  0.35262831  1
  P  P194  1  0.04206253  0.24908167  0.60198989  1
  P  P195  1  0.04214361  0.25096477  0.85215666  1
  P  P196  1  0.04189734  0.58454011  0.10285352  1
  P  P197  1  0.04219159  0.58453713  0.35317746  1
  P  P198  1  0.04127059  0.58321214  0.60174195  1
  P  P199  1  0.04148573  0.58510305  0.85295576  1
  P  P200  1  0.04243693  0.91454187  0.10333733  1
  P  P201  1  0.04124964  0.91651053  0.35196455  1
  P  P202  1  0.04212249  0.91681965  0.60274525  1
  P  P203  1  0.04247077  0.91458449  0.85286627  1
  P  P204  1  0.54223131  0.25230459  0.10237857  1
  P  P205  1  0.54193313  0.25217295  0.35215619  1
  P  P206  1  0.54242034  0.25226172  0.60272089  1
  P  P207  1  0.54233938  0.25226882  0.85287070  1
  P  P208  1  0.54133408  0.58331905  0.10126985  1
  P  P209  1  0.54296295  0.58330575  0.35407982  1
  P  P210  1  0.54220775  0.58499605  0.60358288  1
  P  P211  1  0.54147722  0.58438368  0.85340816  1
  P  P212  1  0.54251383  0.91805491  0.10197294  1
  P  P213  1  0.54295297  0.91643073  0.35300153  1
  P  P214  1  0.54295863  0.91620990  0.60366791  1
  P  P215  1  0.54277576  0.91556557  0.85263575  1
  P  P216  1  0.45746015  0.08378788  0.14534554  1
  P  P217  1  0.45693137  0.08413098  0.39635038  1
  P  P218  1  0.45728538  0.08410611  0.64647472  1
  P  P219  1  0.45822314  0.08243869  0.89700403  1
  P  P220  1  0.45762077  0.41609915  0.14674942  1
  P  P221  1  0.45757476  0.41545685  0.39767446  1
  P  P222  1  0.45719376  0.41562308  0.64762092  1
  P  P223  1  0.45822313  0.41670925  0.89822394  1
  P  P224  1  0.45721777  0.74954905  0.14599980  1
  P  P225  1  0.45724847  0.74831042  0.39812075  1
  P  P226  1  0.45864938  0.74971351  0.64897538  1
  P  P227  1  0.45793038  0.74880100  0.89688203  1
  P  P228  1  0.95793694  0.08114810  0.14765650  1
  P  P229  1  0.95899755  0.08238905  0.39829163  1
  P  P230  1  0.95778480  0.08279624  0.64560249  1
  P  P231  1  0.95795542  0.08397795  0.89752847  1
  P  P232  1  0.95741395  0.41512469  0.14763494  1
  P  P233  1  0.95774464  0.41815819  0.39694547  1
  P  P234  1  0.95759853  0.41563302  0.64697288  1
  P  P235  1  0.95678018  0.41670284  0.89637429  1
  P  P236  1  0.95907916  0.74964230  0.14850476  1
  P  P237  1  0.95802600  0.74873103  0.39726791  1
  P  P238  1  0.95877545  0.74962461  0.64857952  1
  P  P239  1  0.95869144  0.75035037  0.89852595  1
  P  P240  1  0.20693297  0.08183789  0.22640769  1
  P  P241  1  0.20699672  0.08321435  0.47851687  1
  P  P242  1  0.20836186  0.08333836  0.72665272  1
  P  P243  1  0.20835649  0.08329997  0.97603781  1
  P  P244  1  0.20754903  0.41474220  0.22806811  1
  P  P245  1  0.20825589  0.41643982  0.47653582  1
  P  P246  1  0.20659567  0.41698562  0.72882583  1
  P  P247  1  0.20709686  0.41781349  0.97767196  1
  P  P248  1  0.20800489  0.74810839  0.22716957  1
  P  P249  1  0.20710959  0.74968474  0.47872587  1
  P  P250  1  0.20823917  0.74815236  0.72823083  1
  P  P251  1  0.20815718  0.74861644  0.97754581  1
  P  P252  1  0.70865444  0.08353014  0.22753857  1
  P  P253  1  0.70868092  0.08324340  0.47695430  1
  P  P254  1  0.70839818  0.08365983  0.72561647  1
  P  P255  1  0.70763975  0.08346812  0.97919865  1
  P  P256  1  0.70731391  0.41604671  0.22882397  1
  P  P257  1  0.70822640  0.41524407  0.47754198  1
  P  P258  1  0.70733744  0.41764292  0.72893598  1
  P  P259  1  0.70792345  0.41839439  0.97763001  1
  P  P260  1  0.70780513  0.74943408  0.22779718  1
  P  P261  1  0.70827476  0.75233990  0.47819807  1
  P  P262  1  0.70889884  0.75134772  0.72813050  1
  P  P263  1  0.70825892  0.74938269  0.97803638  1
  P  P264  1  0.29161081  0.25135724  0.02180383  1
  P  P265  1  0.29151058  0.25107185  0.27168909  1
  P  P266  1  0.29148950  0.24923360  0.52209324  1
  P  P267  1  0.29197365  0.24820985  0.77204944  1
  P  P268  1  0.29164810  0.58426636  0.02190831  1
  P  P269  1  0.29229702  0.58139928  0.27247832  1
  P  P270  1  0.29224450  0.58388808  0.52293270  1
  P  P271  1  0.29129794  0.58306540  0.77370983  1
  P  P272  1  0.29191675  0.91838081  0.02119293  1
  P  P273  1  0.29265364  0.91640870  0.27071590  1
  P  P274  1  0.29258012  0.91770516  0.52292012  1
  P  P275  1  0.29209968  0.91814618  0.77190497  1
  P  P276  1  0.79257149  0.24897714  0.02301762  1
  P  P277  1  0.79156734  0.24880152  0.27355649  1
  P  P278  1  0.79194571  0.24844190  0.52138218  1
  P  P279  1  0.79274164  0.24949777  0.77120337  1
  P  P280  1  0.79198903  0.58534035  0.02215683  1
  P  P281  1  0.79317468  0.58399208  0.27161197  1
  P  P282  1  0.79344352  0.58358092  0.52199004  1
  P  P283  1  0.79186774  0.58397976  0.77390706  1
  P  P284  1  0.79300615  0.91815123  0.02347786  1
  P  P285  1  0.79135414  0.91702419  0.27364235  1
  P  P286  1  0.79148131  0.91660819  0.52282866  1
  P  P287  1  0.79330552  0.91711579  0.77116932  1
  O  O288  1  0.03712597  0.24800234  0.18231440  1
  O  O289  1  0.03662572  0.25032753  0.43253285  1
  O  O290  1  0.03713633  0.24977267  0.68192335  1
  O  O291  1  0.03694040  0.25009073  0.93208033  1
  O  O292  1  0.03676857  0.58429229  0.18279777  1
  O  O293  1  0.03657046  0.58404194  0.43302438  1
  O  O294  1  0.03606029  0.58320795  0.68170765  1
  O  O295  1  0.03627749  0.58545475  0.93285749  1
  O  O296  1  0.03715488  0.91513615  0.18320406  1
  O  O297  1  0.03646976  0.91690646  0.43194434  1
  O  O298  1  0.03711054  0.91625022  0.68265275  1
  O  O299  1  0.03737555  0.91459842  0.93284202  1
  O  O300  1  0.53673952  0.25233794  0.18229310  1
  O  O301  1  0.53706493  0.25206660  0.43215830  1
  O  O302  1  0.53730117  0.25211650  0.68269666  1
  O  O303  1  0.53690123  0.25201500  0.93279534  1
  O  O304  1  0.53677136  0.58287395  0.18131165  1
  O  O305  1  0.53793127  0.58369759  0.43404413  1
  O  O306  1  0.53677096  0.58481120  0.68353099  1
  O  O307  1  0.53601867  0.58416166  0.93325330  1
  O  O308  1  0.53750411  0.91775964  0.18195128  1
  O  O309  1  0.53792841  0.91635205  0.43298890  1
  O  O310  1  0.53784484  0.91567717  0.68362848  1
  O  O311  1  0.53725473  0.91663207  0.93257719  1
  O  O312  1  0.46309880  0.08326926  0.06541968  1
  O  O313  1  0.46194927  0.08429781  0.31632929  1
  O  O314  1  0.46218307  0.08424992  0.56650080  1
  O  O315  1  0.46336716  0.08274665  0.81705001  1
  O  O316  1  0.46292491  0.41660225  0.06687940  1
  O  O317  1  0.46270980  0.41560519  0.31772233  1
  O  O318  1  0.46279067  0.41568114  0.56773028  1
  O  O319  1  0.46286839  0.41674728  0.81823828  1
  O  O320  1  0.46254944  0.74929003  0.06605929  1
  O  O321  1  0.46211650  0.74867052  0.31812440  1
  O  O322  1  0.46368516  0.74917472  0.56899635  1
  O  O323  1  0.46341299  0.74899944  0.81700548  1
  O  O324  1  0.96294432  0.08152237  0.06776327  1
  O  O325  1  0.96393040  0.08226455  0.31831020  1
  O  O326  1  0.96334960  0.08261093  0.56574330  1
  O  O327  1  0.96304838  0.08382103  0.81758197  1
  O  O328  1  0.96239595  0.41521239  0.06768292  1
  O  O329  1  0.96289584  0.41760541  0.31700725  1
  O  O330  1  0.96304679  0.41648747  0.56703969  1
  O  O331  1  0.96204692  0.41636897  0.81643157  1
  O  O332  1  0.96423015  0.75008593  0.06860973  1
  O  O333  1  0.96326412  0.74893433  0.31743962  1
  O  O334  1  0.96345477  0.74928461  0.56863276  1
  O  O335  1  0.96385338  0.75032507  0.81864813  1
  O  O336  1  0.21328515  0.08292980  0.05601433  1
  O  O337  1  0.21184419  0.08225436  0.30638287  1
  O  O338  1  0.21245659  0.08317819  0.55841044  1
  O  O339  1  0.21371560  0.08331283  0.80658666  1
  O  O340  1  0.21251039  0.41712357  0.05760699  1
  O  O341  1  0.21315467  0.41473985  0.30792960  1
  O  O342  1  0.21293819  0.41657879  0.55656288  1
  O  O343  1  0.21176462  0.41764400  0.80872771  1
  O  O344  1  0.21348118  0.74851886  0.05745027  1
  O  O345  1  0.21312116  0.74859905  0.30713465  1
  O  O346  1  0.21232177  0.74970607  0.55869702  1
  O  O347  1  0.21379693  0.74810596  0.80814947  1
  O  O348  1  0.71281046  0.08346466  0.05910951  1
  O  O349  1  0.71388696  0.08354561  0.30743582  1
  O  O350  1  0.71368289  0.08325065  0.55682448  1
  O  O351  1  0.71301018  0.08350112  0.80563589  1
  O  O352  1  0.71287860  0.41808813  0.05760300  1
  O  O353  1  0.71274336  0.41538437  0.30873606  1
  O  O354  1  0.71299282  0.41528952  0.55754930  1
  O  O355  1  0.71278667  0.41838558  0.80886401  1
  O  O356  1  0.71307494  0.74927345  0.05800775  1
  O  O357  1  0.71298121  0.75024179  0.30771481  1
  O  O358  1  0.71395965  0.75261344  0.55810513  1
  O  O359  1  0.71411323  0.75047847  0.80808396  1
  O  O360  1  0.28642690  0.25128333  0.19172783  1
  O  O361  1  0.28597490  0.25014273  0.44215650  1
  O  O362  1  0.28659350  0.24802183  0.69212578  1
  O  O363  1  0.28640625  0.25062598  0.94188957  1
  O  O364  1  0.28717657  0.58189771  0.19254952  1
  O  O365  1  0.28738003  0.58303183  0.44302887  1
  O  O366  1  0.28641778  0.58348747  0.69373241  1
  O  O367  1  0.28617902  0.58406152  0.94204923  1
  O  O368  1  0.28736771  0.91666796  0.19074716  1
  O  O369  1  0.28764101  0.91695034  0.44290468  1
  O  O370  1  0.28677242  0.91807156  0.69198019  1
  O  O371  1  0.28649245  0.91849038  0.94125079  1
  O  O372  1  0.78667982  0.24852880  0.19356981  1
  O  O373  1  0.78642682  0.24875122  0.44150411  1
  O  O374  1  0.78744741  0.24891965  0.69125223  1
  O  O375  1  0.78765555  0.24953760  0.94303267  1
  O  O376  1  0.78779037  0.58451724  0.19167087  1
  O  O377  1  0.78849035  0.58357575  0.44206024  1
  O  O378  1  0.78724201  0.58408287  0.69387901  1
  O  O379  1  0.78635009  0.58512099  0.94225475  1
  O  O380  1  0.78647195  0.91766190  0.19370662  1
  O  O381  1  0.78643567  0.91657249  0.44295281  1
  O  O382  1  0.78803654  0.91685048  0.69128382  1
  O  O383  1  0.78830449  0.91769319  0.94348554  1
  O  O384  1  0.22739087  0.25152070  0.05765723  1
  O  O385  1  0.22721151  0.25128739  0.30733514  1
  O  O386  1  0.22734108  0.24815066  0.55816992  1
  O  O387  1  0.22772067  0.24828397  0.80779556  1
  O  O388  1  0.22759690  0.58447352  0.05825706  1
  O  O389  1  0.22802534  0.58087276  0.30821594  1
  O  O390  1  0.22777954  0.58469662  0.55824172  1
  O  O391  1  0.22705760  0.58267255  0.80953767  1
  O  O392  1  0.22777770  0.91800677  0.05724794  1
  O  O393  1  0.22827550  0.91610883  0.30607099  1
  O  O394  1  0.22819580  0.91778313  0.55821153  1
  O  O395  1  0.22789894  0.91798715  0.80773320  1
  O  O396  1  0.72815833  0.24838562  0.05833008  1
  O  O397  1  0.72739353  0.24836212  0.30948630  1
  O  O398  1  0.72784733  0.24801520  0.55765448  1
  O  O399  1  0.72844047  0.25022156  0.80661473  1
  O  O400  1  0.72787554  0.58576020  0.05843715  1
  O  O401  1  0.72895064  0.58380878  0.30711234  1
  O  O402  1  0.72897135  0.58425892  0.55688652  1
  O  O403  1  0.72762247  0.58389390  0.80958976  1
  O  O404  1  0.72853404  0.91851932  0.05856118  1
  O  O405  1  0.72721047  0.91652235  0.30960609  1
  O  O406  1  0.72755520  0.91610316  0.55935479  1
  O  O407  1  0.72906086  0.91684469  0.80689041  1
  O  O408  1  0.27132340  0.08183137  0.19105646  1
  O  O409  1  0.27114758  0.08365116  0.44262010  1
  O  O410  1  0.27237943  0.08354584  0.69014481  1
  O  O411  1  0.27253813  0.08358573  0.94004530  1
  O  O412  1  0.27162587  0.41460165  0.19171078  1
  O  O413  1  0.27249377  0.41641728  0.44077530  1
  O  O414  1  0.27093403  0.41648011  0.69358814  1
  O  O415  1  0.27128527  0.41818382  0.94172363  1
  O  O416  1  0.27222026  0.74826070  0.19142275  1
  O  O417  1  0.27150697  0.74944588  0.44351924  1
  O  O418  1  0.27235773  0.74813082  0.69214823  1
  O  O419  1  0.27229846  0.74875444  0.94165136  1
  O  O420  1  0.77276326  0.08353599  0.19118181  1
  O  O421  1  0.77276984  0.08369107  0.44072567  1
  O  O422  1  0.77262960  0.08395023  0.68995823  1
  O  O423  1  0.77198425  0.08351911  0.94369846  1
  O  O424  1  0.77157488  0.41649925  0.19334428  1
  O  O425  1  0.77253367  0.41509183  0.44217241  1
  O  O426  1  0.77160877  0.41683705  0.69344767  1
  O  O427  1  0.77223658  0.41874794  0.94210750  1
  O  O428  1  0.77215368  0.74904675  0.19218274  1
  O  O429  1  0.77244733  0.75258890  0.44216954  1
  O  O430  1  0.77314964  0.75208500  0.69235039  1
  O  O431  1  0.77267890  0.74908389  0.94274921  1
  O  O432  1  0.02224610  0.08106461  0.18327926  1
  O  O433  1  0.02309878  0.08204154  0.43428491  1
  O  O434  1  0.02186086  0.08265678  0.68166353  1
  O  O435  1  0.02228014  0.08377293  0.93308272  1
  O  O436  1  0.02175077  0.41496419  0.18311096  1
  O  O437  1  0.02200615  0.41849054  0.43266050  1
  O  O438  1  0.02174929  0.41541295  0.68302757  1
  O  O439  1  0.02102755  0.41676864  0.93189226  1
  O  O440  1  0.02307488  0.74937947  0.18488003  1
  O  O441  1  0.02212150  0.74843360  0.43348297  1
  O  O442  1  0.02297860  0.74957922  0.68448344  1
  O  O443  1  0.02281832  0.74996492  0.93488083  1
  O  O444  1  0.52163800  0.08447936  0.18107857  1
  O  O445  1  0.52142591  0.08424975  0.43127635  1
  O  O446  1  0.52176567  0.08405665  0.68136816  1
  O  O447  1  0.52252572  0.08279806  0.93243009  1
  O  O448  1  0.52183070  0.41566127  0.18286617  1
  O  O449  1  0.52190443  0.41547217  0.43332074  1
  O  O450  1  0.52138793  0.41594302  0.68360738  1
  O  O451  1  0.52240543  0.41652276  0.93405797  1
  O  O452  1  0.52160032  0.74975781  0.18132287  1
  O  O453  1  0.52176558  0.74778831  0.43329481  1
  O  O454  1  0.52282346  0.74987539  0.68501177  1
  O  O455  1  0.52202718  0.74853821  0.93305485  1
  O  O456  1  0.47803198  0.25206911  0.06646705  1
  O  O457  1  0.47756557  0.25255259  0.31664412  1
  O  O458  1  0.47805403  0.25258690  0.56713464  1
  O  O459  1  0.47807423  0.25229442  0.81702886  1
  O  O460  1  0.47705843  0.58349470  0.06572620  1
  O  O461  1  0.47856921  0.58304729  0.31886020  1
  O  O462  1  0.47797654  0.58494528  0.56771815  1
  O  O463  1  0.47735947  0.58476081  0.81720596  1
  O  O464  1  0.47818541  0.91782204  0.06658326  1
  O  O465  1  0.47847427  0.91666952  0.31801341  1
  O  O466  1  0.47860222  0.91632944  0.56840888  1
  O  O467  1  0.47856765  0.91490335  0.81677291  1
  O  O468  1  0.97765370  0.24734905  0.06692944  1
  O  O469  1  0.97757622  0.25081359  0.31676891  1
  O  O470  1  0.97785648  0.24921613  0.56634500  1
  O  O471  1  0.97788199  0.25158754  0.81638213  1
  O  O472  1  0.97766951  0.58519339  0.06706792  1
  O  O473  1  0.97815327  0.58500459  0.31678403  1
  O  O474  1  0.97719145  0.58308668  0.56552721  1
  O  O475  1  0.97730692  0.58498566  0.81708708  1
  O  O476  1  0.97826515  0.91442987  0.06727843  1
  O  O477  1  0.97706390  0.91670539  0.31610787  1
  O  O478  1  0.97788362  0.91735061  0.56697832  1
  O  O479  1  0.97820908  0.91438045  0.81716179  1
  O  O480  1  0.07295003  0.31141064  0.07430964  1
  O  O481  1  0.07199380  0.31475686  0.32412941  1
  O  O482  1  0.07373654  0.31224370  0.57389882  1
  O  O483  1  0.07283135  0.31464201  0.82394559  1
  O  O484  1  0.07315515  0.64769517  0.07438368  1
  O  O485  1  0.07332430  0.64787418  0.32472610  1
  O  O486  1  0.07210983  0.64690334  0.57372194  1
  O  O487  1  0.07236602  0.64827312  0.82377697  1
  O  O488  1  0.07358929  0.97785386  0.07460687  1
  O  O489  1  0.07248873  0.97969275  0.32325844  1
  O  O490  1  0.07298441  0.98025643  0.57417478  1
  O  O491  1  0.07315226  0.97850800  0.82509387  1
  O  O492  1  0.57310617  0.31562511  0.07370738  1
  O  O493  1  0.57300870  0.31533584  0.32345939  1
  O  O494  1  0.57346035  0.31550213  0.57412459  1
  O  O495  1  0.57314154  0.31570487  0.82444803  1
  O  O496  1  0.57208939  0.64706930  0.07336493  1
  O  O497  1  0.57414195  0.64641746  0.32523431  1
  O  O498  1  0.57312354  0.64833563  0.57506665  1
  O  O499  1  0.57267413  0.64766263  0.82483249  1
  O  O500  1  0.57288673  0.98174394  0.07341984  1
  O  O501  1  0.57402248  0.97990041  0.32497505  1
  O  O502  1  0.57374621  0.97995713  0.57570042  1
  O  O503  1  0.57395115  0.97892444  0.82427592  1
  O  O504  1  0.42639715  0.02055502  0.17390297  1
  O  O505  1  0.42607257  0.02054087  0.42438324  1
  O  O506  1  0.42634103  0.02059465  0.67453402  1
  O  O507  1  0.42796289  0.01855781  0.92528080  1
  O  O508  1  0.42668256  0.35268438  0.17529622  1
  O  O509  1  0.42668835  0.35218419  0.42635563  1
  O  O510  1  0.42643321  0.35231842  0.67642457  1
  O  O511  1  0.42693367  0.35342354  0.92651973  1
  O  O512  1  0.42610353  0.68629573  0.17446631  1
  O  O513  1  0.42644161  0.68496909  0.42685993  1
  O  O514  1  0.42759428  0.68632335  0.67744524  1
  O  O515  1  0.42686308  0.68553745  0.92564451  1
  O  O516  1  0.92744416  0.01753360  0.17640825  1
  O  O517  1  0.92760754  0.01914433  0.42652415  1
  O  O518  1  0.92639161  0.01967818  0.67430717  1
  O  O519  1  0.92678604  0.02037055  0.92515405  1
  O  O520  1  0.92690818  0.35149141  0.17629795  1
  O  O521  1  0.92662627  0.35466597  0.42497244  1
  O  O522  1  0.92708416  0.35177150  0.67499523  1
  O  O523  1  0.92541677  0.35355207  0.92476679  1
  O  O524  1  0.92787856  0.68619354  0.17660047  1
  O  O525  1  0.92692756  0.68560464  0.42625890  1
  O  O526  1  0.92782669  0.68619170  0.67725389  1
  O  O527  1  0.92758337  0.68697117  0.92713395  1
  O  O528  1  0.17640641  0.01829943  0.19791033  1
  O  O529  1  0.17616274  0.01964193  0.45017166  1
  O  O530  1  0.17761598  0.01954736  0.69846930  1
  O  O531  1  0.17744560  0.01986649  0.94748705  1
  O  O532  1  0.17647848  0.35165516  0.19896277  1
  O  O533  1  0.17748130  0.35271725  0.44863265  1
  O  O534  1  0.17558361  0.35335062  0.70098122  1
  O  O535  1  0.17591877  0.35443407  0.94954001  1
  O  O536  1  0.17767832  0.68416849  0.19928402  1
  O  O537  1  0.17575948  0.68653008  0.45042078  1
  O  O538  1  0.17733112  0.68486901  0.69954933  1
  O  O539  1  0.17717465  0.68540854  0.94879562  1
  O  O540  1  0.67782179  0.01986311  0.19925369  1
  O  O541  1  0.67843145  0.01926433  0.44846014  1
  O  O542  1  0.67821640  0.01968439  0.69725130  1
  O  O543  1  0.67668844  0.02015786  0.95030414  1
  O  O544  1  0.67632784  0.35280627  0.20012679  1
  O  O545  1  0.67773961  0.35160744  0.44891778  1
  O  O546  1  0.67602712  0.35415871  0.70125016  1
  O  O547  1  0.67721134  0.35460674  0.94987386  1
  O  O548  1  0.67704457  0.68585197  0.19952012  1
  O  O549  1  0.67753409  0.68831687  0.45086805  1
  O  O550  1  0.67804323  0.68777962  0.69984918  1
  O  O551  1  0.67716959  0.68636498  0.94893822  1
  O  O552  1  0.32212123  0.31511170  0.04999159  1
  O  O553  1  0.32262467  0.31402974  0.30088178  1
  O  O554  1  0.32208105  0.31288708  0.55053000  1
  O  O555  1  0.32286049  0.31204932  0.79966151  1
  O  O556  1  0.32257487  0.64762154  0.05060360  1
  O  O557  1  0.32336673  0.64481450  0.30064151  1
  O  O558  1  0.32288798  0.64745094  0.55151608  1
  O  O559  1  0.32195869  0.64668494  0.80216387  1
  O  O560  1  0.32254829  0.98179381  0.04992571  1
  O  O561  1  0.32372216  0.97971347  0.29915716  1
  O  O562  1  0.32312295  0.98144079  0.55094083  1
  O  O563  1  0.32298681  0.98150956  0.80038372  1
  O  O564  1  0.82315042  0.31283294  0.05098745  1
  O  O565  1  0.82155444  0.31302387  0.30169022  1
  O  O566  1  0.82298683  0.31196789  0.54957797  1
  O  O567  1  0.82392438  0.31302428  0.79907215  1
  O  O568  1  0.82310584  0.64859087  0.05083453  1
  O  O569  1  0.82448017  0.64709452  0.30012136  1
  O  O570  1  0.82472349  0.64690433  0.55010264  1
  O  O571  1  0.82244278  0.64783039  0.80196776  1
  O  O572  1  0.82379905  0.98146331  0.05209514  1
  O  O573  1  0.82184276  0.98060797  0.30257403  1
  O  O574  1  0.82160375  0.98073601  0.55123700  1
  O  O575  1  0.82411510  0.98077948  0.79936947  1
  O  O576  1  0.42602917  0.14746054  0.17286564  1
  O  O577  1  0.42581986  0.14766260  0.42440552  1
  O  O578  1  0.42630674  0.14760957  0.67474851  1
  O  O579  1  0.42672339  0.14594025  0.92458384  1
  O  O580  1  0.42664630  0.47968119  0.17525439  1
  O  O581  1  0.42666752  0.47920432  0.42577166  1
  O  O582  1  0.42592394  0.47939140  0.67519367  1
  O  O583  1  0.42797445  0.48079361  0.92666351  1
  O  O584  1  0.42623863  0.81329811  0.17388848  1
  O  O585  1  0.42652623  0.81216460  0.42615007  1
  O  O586  1  0.42801102  0.81369373  0.67686874  1
  O  O587  1  0.42672908  0.81248553  0.92475041  1
  O  O588  1  0.92664345  0.14451598  0.17596853  1
  O  O589  1  0.92890352  0.14673499  0.42629678  1
  O  O590  1  0.92658083  0.14636946  0.67367403  1
  O  O591  1  0.92746272  0.14771109  0.92597019  1
  O  O592  1  0.92632508  0.47890268  0.17506262  1
  O  O593  1  0.92698228  0.48175420  0.42538107  1
  O  O594  1  0.92615346  0.47898675  0.67511085  1
  O  O595  1  0.92591790  0.48045162  0.92449197  1
  O  O596  1  0.92837038  0.81337488  0.17732477  1
  O  O597  1  0.92710177  0.81254886  0.42537115  1
  O  O598  1  0.92829763  0.81357424  0.67676145  1
  O  O599  1  0.92798617  0.81403453  0.92723061  1
  O  O600  1  0.07277767  0.18425158  0.07352430  1
  O  O601  1  0.07336058  0.18748604  0.32478639  1
  O  O602  1  0.07225702  0.18509581  0.57346236  1
  O  O603  1  0.07321318  0.18740391  0.82392607  1
  O  O604  1  0.07240167  0.52046872  0.07494811  1
  O  O605  1  0.07324823  0.52096921  0.32476163  1
  O  O606  1  0.07210890  0.51941508  0.57355703  1
  O  O607  1  0.07262070  0.52132969  0.82538860  1
  O  O608  1  0.07338801  0.85100565  0.07487100  1
  O  O609  1  0.07162976  0.85232262  0.32406302  1
  O  O610  1  0.07314208  0.85320601  0.57455296  1
  O  O611  1  0.07354634  0.85133059  0.82411614  1
  O  O612  1  0.57351849  0.18861591  0.07479368  1
  O  O613  1  0.57255569  0.18820577  0.32412030  1
  O  O614  1  0.57310007  0.18838132  0.57458520  1
  O  O615  1  0.57341866  0.18847231  0.82505355  1
  O  O616  1  0.57194285  0.51953211  0.07288347  1
  O  O617  1  0.57389845  0.51960432  0.32596736  1
  O  O618  1  0.57330194  0.52118818  0.57588893  1
  O  O619  1  0.57250921  0.52077128  0.82519233  1
  O  O620  1  0.57389876  0.85445221  0.07439481  1
  O  O621  1  0.57366255  0.85273457  0.32477526  1
  O  O622  1  0.57426541  0.85296459  0.57523470  1
  O  O623  1  0.57364666  0.85172602  0.82492516  1
  O  O624  1  0.32294364  0.18791409  0.04994385  1
  O  O625  1  0.32224785  0.18693871  0.29916449  1
  O  O626  1  0.32289381  0.18576908  0.54991792  1
  O  O627  1  0.32303925  0.18500419  0.80097168  1
  O  O628  1  0.32284764  0.52063359  0.04992281  1
  O  O629  1  0.32299956  0.51766330  0.30089725  1
  O  O630  1  0.32311661  0.52029490  0.55141409  1
  O  O631  1  0.32218999  0.51927646  0.80183733  1
  O  O632  1  0.32322479  0.85456795  0.04852368  1
  O  O633  1  0.32376517  0.85279440  0.29891456  1
  O  O634  1  0.32377752  0.85423933  0.55124752  1
  O  O635  1  0.32318541  0.85432731  0.79962883  1
  O  O636  1  0.82351495  0.18558329  0.05158453  1
  O  O637  1  0.82321447  0.18566200  0.30196954  1
  O  O638  1  0.82304537  0.18493110  0.54978390  1
  O  O639  1  0.82379619  0.18612039  0.79977503  1
  O  O640  1  0.82313070  0.52160334  0.05009084  1
  O  O641  1  0.82424194  0.52015385  0.29920762  1
  O  O642  1  0.82396070  0.51983998  0.55031460  1
  O  O643  1  0.82270273  0.52025554  0.80204798  1
  O  O644  1  0.82370601  0.85429367  0.05160935  1
  O  O645  1  0.82238034  0.85324893  0.30149507  1
  O  O646  1  0.82317649  0.85349661  0.55144093  1
  O  O647  1  0.82483295  0.85405322  0.80008054  1
  O  O648  1  0.17591315  0.14556117  0.19851749  1
  O  O649  1  0.17543930  0.14639519  0.44997664  1
  O  O650  1  0.17720544  0.14685874  0.69825509  1
  O  O651  1  0.17765161  0.14725909  0.94806543  1
  O  O652  1  0.17634092  0.47850731  0.20024676  1
  O  O653  1  0.17769789  0.48030116  0.44825348  1
  O  O654  1  0.17543037  0.48017788  0.69991908  1
  O  O655  1  0.17626085  0.48159044  0.94969764  1
  O  O656  1  0.17661313  0.81150134  0.19912217  1
  O  O657  1  0.17630592  0.81338708  0.45030887  1
  O  O658  1  0.17713681  0.81205614  0.70087255  1
  O  O659  1  0.17708517  0.81248411  0.94992392  1
  O  O660  1  0.67766225  0.14717508  0.19910901  1
  O  O661  1  0.67709858  0.14640863  0.44837711  1
  O  O662  1  0.67726526  0.14720294  0.69752703  1
  O  O663  1  0.67638104  0.14683104  0.95051514  1
  O  O664  1  0.67605414  0.47971793  0.20112500  1
  O  O665  1  0.67705415  0.47901927  0.45010126  1
  O  O666  1  0.67634785  0.48105421  0.70020016  1
  O  O667  1  0.67708389  0.48201431  0.94936419  1
  O  O668  1  0.67669126  0.81292473  0.19936394  1
  O  O669  1  0.67692778  0.81539244  0.44932462  1
  O  O670  1  0.67780627  0.81485482  0.69997299  1
  O  O671  1  0.67761012  0.81343119  0.95027910  1
