# generated using pymatgen
data_Na2MnFe(PO4)2
_symmetry_space_group_name_H-M   'P 1'
_cell_length_a   22.34682719
_cell_length_b   20.09661781
_cell_length_c   19.44606974
_cell_angle_alpha   90.00269183
_cell_angle_beta   90.03076581
_cell_angle_gamma   89.94400802
_symmetry_Int_Tables_number   1
_chemical_formula_structural   Na2MnFe(PO4)2
_chemical_formula_sum   'Na96 Mn48 Fe48 P96 O384'
_cell_volume   8733.13979798
_cell_formula_units_Z   48
loop_
 _symmetry_equiv_pos_site_id
 _symmetry_equiv_pos_as_xyz
  1  'x, y, z'
loop_
 _atom_site_type_symbol
 _atom_site_label
 _atom_site_symmetry_multiplicity
 _atom_site_fract_x
 _atom_site_fract_y
 _atom_site_fract_z
 _atom_site_occupancy
  Na  Na0  1  0.14036926  0.24903480  0.24353498  1
  Na  Na1  1  0.14019862  0.24811743  0.49423530  1
  Na  Na2  1  0.14039950  0.24951889  0.74369643  1
  Na  Na3  1  0.14032471  0.25110639  0.99287269  1
  Na  Na4  1  0.14054314  0.58333896  0.24356559  1
  Na  Na5  1  0.14024652  0.58317757  0.49494863  1
  Na  Na6  1  0.14037721  0.58340017  0.74404067  1
  Na  Na7  1  0.14105766  0.58371254  0.99320685  1
  Na  Na8  1  0.14030600  0.91604986  0.24329100  1
  Na  Na9  1  0.14093572  0.91624201  0.49363130  1
  Na  Na10  1  0.14058761  0.91699576  0.74383583  1
  Na  Na11  1  0.13955590  0.91658626  0.99281973  1
  Na  Na12  1  0.63989455  0.25161136  0.24395082  1
  Na  Na13  1  0.63984707  0.25005841  0.49329284  1
  Na  Na14  1  0.63967330  0.25015827  0.74417570  1
  Na  Na15  1  0.63961939  0.25044299  0.99348705  1
  Na  Na16  1  0.64048642  0.58239311  0.24421257  1
  Na  Na17  1  0.64035799  0.58314612  0.49438527  1
  Na  Na18  1  0.64030475  0.58440806  0.74419211  1
  Na  Na19  1  0.64045422  0.58280764  0.99472535  1
  Na  Na20  1  0.63965187  0.91774087  0.24329818  1
  Na  Na21  1  0.64020672  0.91751796  0.49374154  1
  Na  Na22  1  0.63986012  0.91783180  0.74283328  1
  Na  Na23  1  0.63974866  0.91716243  0.99136101  1
  Na  Na24  1  0.35988228  0.08331011  0.00615182  1
  Na  Na25  1  0.35981004  0.08256215  0.25692744  1
  Na  Na26  1  0.35961924  0.08171175  0.50703868  1
  Na  Na27  1  0.35993793  0.08272449  0.75667183  1
  Na  Na28  1  0.35977876  0.41689916  0.00684674  1
  Na  Na29  1  0.35991542  0.41589354  0.25705866  1
  Na  Na30  1  0.35966110  0.41464419  0.50586328  1
  Na  Na31  1  0.35964708  0.41571538  0.75718514  1
  Na  Na32  1  0.36012419  0.75096213  0.00520284  1
  Na  Na33  1  0.35948506  0.75000352  0.25608387  1
  Na  Na34  1  0.35941998  0.75001515  0.50669688  1
  Na  Na35  1  0.36029279  0.75097921  0.75766531  1
  Na  Na36  1  0.85983284  0.08382263  0.00568182  1
  Na  Na37  1  0.85977465  0.08454359  0.25614652  1
  Na  Na38  1  0.85992372  0.08409461  0.50476715  1
  Na  Na39  1  0.85973489  0.08425754  0.75639905  1
  Na  Na40  1  0.86002387  0.41644985  0.00585892  1
  Na  Na41  1  0.85913012  0.41665524  0.25594585  1
  Na  Na42  1  0.85915642  0.41613552  0.50691226  1
  Na  Na43  1  0.85969957  0.41677625  0.75716195  1
  Na  Na44  1  0.85987662  0.74993002  0.00579639  1
  Na  Na45  1  0.86005103  0.75013423  0.25611982  1
  Na  Na46  1  0.85966198  0.74974292  0.50531263  1
  Na  Na47  1  0.86024536  0.75090924  0.75721021  1
  Na  Na48  1  0.10920510  0.08300842  0.11915253  1
  Na  Na49  1  0.11029930  0.08244891  0.36765803  1
  Na  Na50  1  0.11049141  0.08351383  0.61854128  1
  Na  Na51  1  0.10961820  0.08233829  0.86764046  1
  Na  Na52  1  0.10994389  0.41625503  0.11805966  1
  Na  Na53  1  0.10919367  0.41646128  0.36862068  1
  Na  Na54  1  0.10934192  0.41664682  0.62107176  1
  Na  Na55  1  0.10995337  0.41596562  0.86778233  1
  Na  Na56  1  0.10975246  0.75048798  0.11892478  1
  Na  Na57  1  0.10984142  0.75018055  0.36779363  1
  Na  Na58  1  0.11019936  0.74999446  0.62000786  1
  Na  Na59  1  0.10953803  0.75003781  0.86828237  1
  Na  Na60  1  0.60860210  0.08339887  0.11747886  1
  Na  Na61  1  0.60922542  0.08484075  0.36888957  1
  Na  Na62  1  0.60959946  0.08425766  0.61841358  1
  Na  Na63  1  0.60978183  0.08356123  0.86802025  1
  Na  Na64  1  0.60968478  0.41590980  0.11937999  1
  Na  Na65  1  0.60949392  0.41549542  0.36810798  1
  Na  Na66  1  0.60894067  0.41532484  0.61908143  1
  Na  Na67  1  0.60922846  0.41686167  0.87002509  1
  Na  Na68  1  0.60916463  0.75064070  0.11857220  1
  Na  Na69  1  0.60948310  0.74985252  0.36863942  1
  Na  Na70  1  0.60989118  0.75029161  0.61923412  1
  Na  Na71  1  0.60939434  0.75089468  0.86754375  1
  Na  Na72  1  0.39015248  0.24990067  0.13140946  1
  Na  Na73  1  0.39042776  0.24891372  0.38189525  1
  Na  Na74  1  0.39018468  0.24811425  0.63114823  1
  Na  Na75  1  0.39053681  0.24963225  0.88235635  1
  Na  Na76  1  0.39032062  0.58308343  0.13180272  1
  Na  Na77  1  0.39026024  0.58203953  0.38112299  1
  Na  Na78  1  0.39077678  0.58295759  0.63196444  1
  Na  Na79  1  0.39066294  0.58378512  0.88196039  1
  Na  Na80  1  0.39060032  0.91682907  0.12968700  1
  Na  Na81  1  0.39037904  0.91818120  0.38219631  1
  Na  Na82  1  0.39019655  0.91663503  0.63271052  1
  Na  Na83  1  0.39037415  0.91754256  0.88099427  1
  Na  Na84  1  0.89025643  0.25016085  0.13113728  1
  Na  Na85  1  0.88972509  0.24951733  0.38094751  1
  Na  Na86  1  0.89020444  0.25016196  0.63147385  1
  Na  Na87  1  0.89061823  0.24891666  0.88107960  1
  Na  Na88  1  0.89059779  0.58403308  0.13130408  1
  Na  Na89  1  0.89035290  0.58449956  0.38096141  1
  Na  Na90  1  0.89040092  0.58431334  0.63282042  1
  Na  Na91  1  0.89068501  0.58360105  0.88124869  1
  Na  Na92  1  0.89065027  0.91687099  0.13026933  1
  Na  Na93  1  0.89083234  0.91674132  0.37940424  1
  Na  Na94  1  0.89076243  0.91710814  0.63148858  1
  Na  Na95  1  0.89050842  0.91684927  0.88098137  1
  Mn  Mn96  1  0.00016776  0.33338995  0.50046121  1
  Mn  Mn97  1  0.50019096  0.16661062  0.75014453  1
  Mn  Mn98  1  0.24973711  0.16645933  0.87503867  1
  Mn  Mn99  1  -0.00054339  0.50058851  0.24937148  1
  Mn  Mn100  1  0.00024722  0.66718919  0.50065985  1
  Mn  Mn101  1  0.74971635  0.83330295  0.87413336  1
  Mn  Mn102  1  0.00014892  0.83345549  0.49982531  1
  Mn  Mn103  1  0.00048302  0.16645452  -0.00043361  1
  Mn  Mn104  1  0.49927391  0.66610703  0.24949026  1
  Mn  Mn105  1  0.25032569  0.49927150  0.62499001  1
  Mn  Mn106  1  0.25070942  0.83285050  0.12480467  1
  Mn  Mn107  1  0.25015337  0.83294343  0.37523513  1
  Mn  Mn108  1  0.00073011  0.49945993  -0.00005551  1
  Mn  Mn109  1  0.00045897  -0.00001770  0.49955555  1
  Mn  Mn110  1  0.75005360  0.83305950  0.37451328  1
  Mn  Mn111  1  0.49941934  0.83452715  0.49998670  1
  Mn  Mn112  1  0.74944122  0.00084650  0.12426772  1
  Mn  Mn113  1  0.24976993  -0.00023624  0.12508323  1
  Mn  Mn114  1  0.49968088  0.83466255  0.24953254  1
  Mn  Mn115  1  0.75056454  0.83298372  0.62439419  1
  Mn  Mn116  1  0.75016190  0.50012182  0.37549554  1
  Mn  Mn117  1  0.74967467  0.50079194  0.62550320  1
  Mn  Mn118  1  0.00070575  0.66752439  0.00005376  1
  Mn  Mn119  1  0.24926382  0.16679343  0.12494974  1
  Mn  Mn120  1  0.25120540  0.66695927  0.62553031  1
  Mn  Mn121  1  0.25031626  0.66703142  0.87470696  1
  Mn  Mn122  1  0.00016011  0.16652608  0.49977294  1
  Mn  Mn123  1  0.74910231  0.16791303  0.12522909  1
  Mn  Mn124  1  0.50010516  0.49940754  0.00019614  1
  Mn  Mn125  1  0.50009184  0.49841435  0.50118196  1
  Mn  Mn126  1  0.74968370  0.33254677  0.62572874  1
  Mn  Mn127  1  0.74965935  0.50069774  0.87559152  1
  Mn  Mn128  1  0.50048035  0.66757588  0.00052964  1
  Mn  Mn129  1  0.00033014  -0.00025946  0.75002050  1
  Mn  Mn130  1  0.74942939  0.83332051  0.12403133  1
  Mn  Mn131  1  0.25013902  0.49994147  0.12519093  1
  Mn  Mn132  1  0.75003983  0.00111070  0.37429448  1
  Mn  Mn133  1  -0.00063488  0.33278890  0.24965861  1
  Mn  Mn134  1  0.49944643  0.49937309  0.75049133  1
  Mn  Mn135  1  0.49917041  0.16652869  0.24990332  1
  Mn  Mn136  1  0.74940977  0.33301536  0.87552553  1
  Mn  Mn137  1  0.24922710  0.33140711  0.37590137  1
  Mn  Mn138  1  -0.00031627  0.50029272  0.50068162  1
  Mn  Mn139  1  0.50001565  0.66646362  0.50008059  1
  Mn  Mn140  1  0.24940043  0.33185460  0.62562737  1
  Mn  Mn141  1  0.24946183  0.49985356  0.37513481  1
  Mn  Mn142  1  0.75034619  0.00148343  0.62391866  1
  Mn  Mn143  1  0.74934700  0.66602378  0.12530698  1
  Fe  Fe144  1  0.75019934  0.66658796  0.87534406  1
  Fe  Fe145  1  0.50029931  0.83421063  0.74979535  1
  Fe  Fe146  1  -0.00028580  0.83349060  0.00033838  1
  Fe  Fe147  1  0.75011715  0.33360527  0.12502060  1
  Fe  Fe148  1  0.49917715  0.33317436  0.00050571  1
  Fe  Fe149  1  0.74929311  0.16759284  0.37468487  1
  Fe  Fe150  1  0.24975932  -0.00014127  0.87469030  1
  Fe  Fe151  1  0.75085367  0.49986722  0.12521839  1
  Fe  Fe152  1  -0.00002526  0.66701392  0.75072778  1
  Fe  Fe153  1  0.49999447  0.83424050  -0.00101935  1
  Fe  Fe154  1  -0.00013261  -0.00015187  -0.00012334  1
  Fe  Fe155  1  0.50022116  -0.00013888  -0.00058089  1
  Fe  Fe156  1  -0.00012504  0.49969765  0.75061678  1
  Fe  Fe157  1  0.75016146  0.16714144  0.87492245  1
  Fe  Fe158  1  0.50031395  0.00050878  0.50051567  1
  Fe  Fe159  1  0.25058928  0.33332805  0.87506666  1
  Fe  Fe160  1  0.49951792  0.33260765  0.49958346  1
  Fe  Fe161  1  0.25005191  -0.00065110  0.37581878  1
  Fe  Fe162  1  0.49982617  0.00042277  0.75027986  1
  Fe  Fe163  1  0.49973984  0.16653993  0.00001421  1
  Fe  Fe164  1  0.25063176  0.50006675  0.87550251  1
  Fe  Fe165  1  0.49960749  0.33255559  0.75021871  1
  Fe  Fe166  1  0.00056048  0.66735811  0.24989794  1
  Fe  Fe167  1  0.00006422  0.33278450  -0.00074451  1
  Fe  Fe168  1  0.24981690  0.83382574  0.87495749  1
  Fe  Fe169  1  0.74997350  0.00086953  0.87403167  1
  Fe  Fe170  1  0.25030505  0.16526316  0.37504331  1
  Fe  Fe171  1  0.00013515  0.16641647  0.75019069  1
  Fe  Fe172  1  0.25010116  0.83341795  0.62529615  1
  Fe  Fe173  1  -0.00015258  0.33295522  0.75016894  1
  Fe  Fe174  1  0.24995991  -0.00050591  0.62522884  1
  Fe  Fe175  1  -0.00015435  0.83390240  0.24918893  1
  Fe  Fe176  1  0.25009566  0.33335967  0.12482456  1
  Fe  Fe177  1  0.50011602  0.49883748  0.25053330  1
  Fe  Fe178  1  0.50019042  0.66729016  0.75061303  1
  Fe  Fe179  1  0.74987219  0.33357359  0.37524166  1
  Fe  Fe180  1  -0.00007744  -0.00012915  0.24885575  1
  Fe  Fe181  1  0.49994764  0.00035916  0.24936271  1
  Fe  Fe182  1  0.25020204  0.66636589  0.37533482  1
  Fe  Fe183  1  0.75053472  0.66695300  0.62488629  1
  Fe  Fe184  1  0.00020539  0.16633100  0.24925814  1
  Fe  Fe185  1  0.25014173  0.66675252  0.12431010  1
  Fe  Fe186  1  0.25019785  0.16522159  0.62495564  1
  Fe  Fe187  1  0.00081945  0.83359632  0.75075272  1
  Fe  Fe188  1  0.49967777  0.33255243  0.25000984  1
  Fe  Fe189  1  0.74969694  0.66650511  0.37473181  1
  Fe  Fe190  1  0.74996347  0.16711020  0.62479763  1
  Fe  Fe191  1  0.49973468  0.16655347  0.50020528  1
  P  P192  1  0.04225847  0.25060352  0.10221441  1
  P  P193  1  0.04230256  0.24847205  0.35193732  1
  P  P194  1  0.04258095  0.24977799  0.60432265  1
  P  P195  1  0.04160608  0.24974165  0.85173310  1
  P  P196  1  0.04320334  0.58396516  0.10326499  1
  P  P197  1  0.04238339  0.58460119  0.35227553  1
  P  P198  1  0.04246648  0.58344406  0.60491440  1
  P  P199  1  0.04168744  0.58300421  0.85175137  1
  P  P200  1  0.04122992  0.91678177  0.10202114  1
  P  P201  1  0.04183654  0.91668074  0.35065914  1
  P  P202  1  0.04320634  0.91649975  0.60353271  1
  P  P203  1  0.04239308  0.91549053  0.85348377  1
  P  P204  1  0.54069345  0.25010261  0.10183396  1
  P  P205  1  0.54154297  0.25078727  0.35289142  1
  P  P206  1  0.54098953  0.25004562  0.60170280  1
  P  P207  1  0.54167496  0.25110270  0.85339422  1
  P  P208  1  0.54245814  0.58250256  0.10380824  1
  P  P209  1  0.54198775  0.58157468  0.35250529  1
  P  P210  1  0.54248904  0.58324538  0.60423447  1
  P  P211  1  0.54202951  0.58448776  0.85270316  1
  P  P212  1  0.54191909  0.91711931  0.10098816  1
  P  P213  1  0.54187861  0.91921542  0.35259909  1
  P  P214  1  0.54204166  0.91835041  0.60331805  1
  P  P215  1  0.54134004  0.91741938  0.85186978  1
  P  P216  1  0.45760771  0.08205557  0.14659059  1
  P  P217  1  0.45860902  0.08325865  0.39860575  1
  P  P218  1  0.45812958  0.08211259  0.64734897  1
  P  P219  1  0.45898856  0.08298830  0.89815803  1
  P  P220  1  0.45850224  0.41584692  0.14851221  1
  P  P221  1  0.45786890  0.41492217  0.39695029  1
  P  P222  1  0.45735394  0.41416398  0.64763448  1
  P  P223  1  0.45752266  0.41495439  0.89760667  1
  P  P224  1  0.45701675  0.75095532  0.14619050  1
  P  P225  1  0.45702104  0.75032666  0.39691117  1
  P  P226  1  0.45883359  0.75040659  0.64884830  1
  P  P227  1  0.45847920  0.75176282  0.89657981  1
  P  P228  1  0.95825460  0.08310576  0.14743706  1
  P  P229  1  0.95796487  0.08316661  0.39525997  1
  P  P230  1  0.95786661  0.08445319  0.64771514  1
  P  P231  1  0.95829823  0.08217585  0.89714718  1
  P  P232  1  0.95709178  0.41628894  0.14596651  1
  P  P233  1  0.95679263  0.41681268  0.39712003  1
  P  P234  1  0.95791700  0.41670344  0.64910973  1
  P  P235  1  0.95844895  0.41507668  0.89652951  1
  P  P236  1  0.95864383  0.75077819  0.14798379  1
  P  P237  1  0.95776392  0.75030391  0.39584782  1
  P  P238  1  0.95897687  0.75089443  0.64925059  1
  P  P239  1  0.95833980  0.75155790  0.89706156  1
  P  P240  1  0.20727006  0.08295004  0.22899450  1
  P  P241  1  0.20863267  0.08252787  0.47742078  1
  P  P242  1  0.20897643  0.08273757  0.72702712  1
  P  P243  1  0.20734019  0.08225501  0.97708873  1
  P  P244  1  0.20771914  0.41500820  0.22737450  1
  P  P245  1  0.20658390  0.41576686  0.47844365  1
  P  P246  1  0.20783902  0.41635285  0.72953741  1
  P  P247  1  0.20889486  0.41677017  0.97675817  1
  P  P248  1  0.20823763  0.74836967  0.22753150  1
  P  P249  1  0.20774481  0.74879405  0.47785341  1
  P  P250  1  0.20868844  0.75186233  0.72820057  1
  P  P251  1  0.20793750  0.75108123  0.97732228  1
  P  P252  1  0.70646215  0.08460891  0.22813230  1
  P  P253  1  0.70771995  0.08546326  0.47727318  1
  P  P254  1  0.70790293  0.08519547  0.72777231  1
  P  P255  1  0.70842176  0.08409820  0.97596068  1
  P  P256  1  0.70885335  0.41670067  0.22694144  1
  P  P257  1  0.70744780  0.41548456  0.47757168  1
  P  P258  1  0.70679585  0.41692648  0.72851272  1
  P  P259  1  0.70738248  0.41681256  0.97938887  1
  P  P260  1  0.70671003  0.74985921  0.22826755  1
  P  P261  1  0.70766243  0.74843058  0.47754001  1
  P  P262  1  0.70839971  0.74889160  0.72760132  1
  P  P263  1  0.70728892  0.74866622  0.97698395  1
  P  P264  1  0.29188184  0.25147180  0.02221317  1
  P  P265  1  0.29224658  0.24821495  0.27264569  1
  P  P266  1  0.29182506  0.24707874  0.52255009  1
  P  P267  1  0.29230823  0.25022784  0.77272688  1
  P  P268  1  0.29260494  0.58426187  0.02213939  1
  P  P269  1  0.29200100  0.58448835  0.27225471  1
  P  P270  1  0.29332026  0.58325236  0.52167471  1
  P  P271  1  0.29285363  0.58224300  0.77296477  1
  P  P272  1  0.29221137  0.91672464  0.02075328  1
  P  P273  1  0.29243607  0.91753729  0.27304707  1
  P  P274  1  0.29142643  0.91635325  0.52367041  1
  P  P275  1  0.29129646  0.91691719  0.77278471  1
  P  P276  1  0.79203911  0.25110106  0.02239574  1
  P  P277  1  0.79106185  0.25103914  0.27314612  1
  P  P278  1  0.79198769  0.24887700  0.52185241  1
  P  P279  1  0.79212854  0.24885348  0.77252494  1
  P  P280  1  0.79267696  0.58234599  0.02250684  1
  P  P281  1  0.79235040  0.58401503  0.27234834  1
  P  P282  1  0.79248058  0.58469332  0.52245630  1
  P  P283  1  0.79235869  0.58513171  0.77256471  1
  P  P284  1  0.79197606  0.91737988  0.02040831  1
  P  P285  1  0.79265076  0.91712305  0.27115182  1
  P  P286  1  0.79319691  0.91693903  0.52137356  1
  P  P287  1  0.79201333  0.91843713  0.77212546  1
  O  O288  1  0.03681402  0.24966024  0.18211732  1
  O  O289  1  0.03752713  0.24880143  0.43196373  1
  O  O290  1  0.03707051  0.24963782  0.68424337  1
  O  O291  1  0.03664905  0.25015930  0.93174441  1
  O  O292  1  0.03794277  0.58451194  0.18321179  1
  O  O293  1  0.03742565  0.58436380  0.43233110  1
  O  O294  1  0.03709638  0.58321724  0.68481999  1
  O  O295  1  0.03701774  0.58329599  0.93176744  1
  O  O296  1  0.03575083  0.91698033  0.18191997  1
  O  O297  1  0.03697907  0.91668578  0.43069987  1
  O  O298  1  0.03825573  0.91622270  0.68352571  1
  O  O299  1  0.03684508  0.91588866  0.93332686  1
  O  O300  1  0.53569890  0.24985587  0.18179349  1
  O  O301  1  0.53637507  0.25071753  0.43274024  1
  O  O302  1  0.53639668  0.24993620  0.68171176  1
  O  O303  1  0.53606712  0.25082212  0.93321464  1
  O  O304  1  0.53699127  0.58189271  0.18371251  1
  O  O305  1  0.53676657  0.58168257  0.43252097  1
  O  O306  1  0.53690673  0.58387961  0.68417517  1
  O  O307  1  0.53701424  0.58442077  0.93270166  1
  O  O308  1  0.53678964  0.91759910  0.18095089  1
  O  O309  1  0.53663841  0.91931344  0.43255673  1
  O  O310  1  0.53693893  0.91815422  0.68322880  1
  O  O311  1  0.53634777  0.91687421  0.93178328  1
  O  O312  1  0.46305809  0.08225292  0.06673879  1
  O  O313  1  0.46306160  0.08336534  0.31861218  1
  O  O314  1  0.46335228  0.08230552  0.56751562  1
  O  O315  1  0.46378048  0.08312294  0.81819638  1
  O  O316  1  0.46336490  0.41549751  0.06851142  1
  O  O317  1  0.46325688  0.41537593  0.31704536  1
  O  O318  1  0.46289216  0.41421824  0.56768573  1
  O  O319  1  0.46269274  0.41487042  0.81767529  1
  O  O320  1  0.46251161  0.75150323  0.06624155  1
  O  O321  1  0.46207758  0.75044453  0.31693471  1
  O  O322  1  0.46309793  0.75064984  0.56878750  1
  O  O323  1  0.46415153  0.75129476  0.81669838  1
  O  O324  1  0.96336095  0.08276752  0.06743268  1
  O  O325  1  0.96329504  0.08322790  0.31532098  1
  O  O326  1  0.96265493  0.08410098  0.56769961  1
  O  O327  1  0.96359437  0.08303817  0.81723227  1
  O  O328  1  0.96260500  0.41566749  0.06603048  1
  O  O329  1  0.96163890  0.41677385  0.31709963  1
  O  O330  1  0.96295226  0.41667593  0.56907831  1
  O  O331  1  0.96397946  0.41538526  0.81660950  1
  O  O332  1  0.96378263  0.75111202  0.06800436  1
  O  O333  1  0.96301191  0.75015711  0.31592076  1
  O  O334  1  0.96356654  0.75045516  0.56921231  1
  O  O335  1  0.96375237  0.75124586  0.81719571  1
  O  O336  1  0.21199878  0.08268650  0.05707098  1
  O  O337  1  0.21265257  0.08279705  0.30892715  1
  O  O338  1  0.21372552  0.08265690  0.55737969  1
  O  O339  1  0.21367610  0.08232649  0.80700369  1
  O  O340  1  0.21387276  0.41634024  0.05680534  1
  O  O341  1  0.21250652  0.41512403  0.30734721  1
  O  O342  1  0.21184669  0.41562167  0.55841877  1
  O  O343  1  0.21357819  0.41657072  0.80946221  1
  O  O344  1  0.21307520  0.75027257  0.05728325  1
  O  O345  1  0.21342592  0.74827730  0.30749677  1
  O  O346  1  0.21326502  0.74968348  0.55779339  1
  O  O347  1  0.21397957  0.75219740  0.80814500  1
  O  O348  1  0.71281316  0.08397132  0.05599940  1
  O  O349  1  0.71161132  0.08499303  0.30807878  1
  O  O350  1  0.71304587  0.08555412  0.55721944  1
  O  O351  1  0.71336722  0.08477051  0.80769119  1
  O  O352  1  0.71307079  0.41682231  0.05927372  1
  O  O353  1  0.71396284  0.41634109  0.30695777  1
  O  O354  1  0.71233117  0.41560962  0.55753758  1
  O  O355  1  0.71181821  0.41701388  0.80848346  1
  O  O356  1  0.71215941  0.74917949  0.05698956  1
  O  O357  1  0.71180015  0.74948141  0.30825301  1
  O  O358  1  0.71337073  0.74842614  0.55751634  1
  O  O359  1  0.71343865  0.74885425  0.80758166  1
  O  O360  1  0.28713732  0.24900259  0.19267676  1
  O  O361  1  0.28638105  0.24678768  0.44262017  1
  O  O362  1  0.28720787  0.24929949  0.69280396  1
  O  O363  1  0.28662018  0.25171751  0.94225846  1
  O  O364  1  0.28657374  0.58448398  0.19225676  1
  O  O365  1  0.28787455  0.58379192  0.44170698  1
  O  O366  1  0.28806961  0.58244237  0.69296436  1
  O  O367  1  0.28718313  0.58337695  0.94217470  1
  O  O368  1  0.28763483  0.91729496  0.19306891  1
  O  O369  1  0.28651279  0.91690111  0.44370885  1
  O  O370  1  0.28640723  0.91660265  0.69282728  1
  O  O371  1  0.28680508  0.91682872  0.94083584  1
  O  O372  1  0.78597444  0.25174202  0.19316660  1
  O  O373  1  0.78654872  0.24942492  0.44195324  1
  O  O374  1  0.78709620  0.24867968  0.69256069  1
  O  O375  1  0.78701075  0.25014557  0.94245833  1
  O  O376  1  0.78702375  0.58292581  0.19240456  1
  O  O377  1  0.78722151  0.58465181  0.44247915  1
  O  O378  1  0.78722508  0.58521470  0.69257440  1
  O  O379  1  0.78753283  0.58315260  0.94253546  1
  O  O380  1  0.78739498  0.91705468  0.19114928  1
  O  O381  1  0.78791305  0.91676365  0.44142523  1
  O  O382  1  0.78737744  0.91820047  0.69211820  1
  O  O383  1  0.78666025  0.91778604  0.94041964  1
  O  O384  1  0.22763093  0.25172150  0.05793998  1
  O  O385  1  0.22793281  0.24721498  0.30820385  1
  O  O386  1  0.22768025  0.24695136  0.55853278  1
  O  O387  1  0.22800319  0.25054109  0.80822935  1
  O  O388  1  0.22839028  0.58446976  0.05796988  1
  O  O389  1  0.22781452  0.58478625  0.30822327  1
  O  O390  1  0.22904314  0.58351213  0.55712073  1
  O  O391  1  0.22846244  0.58221358  0.80817712  1
  O  O392  1  0.22808179  0.91623690  0.05660170  1
  O  O393  1  0.22806545  0.91765026  0.30836675  1
  O  O394  1  0.22728495  0.91562916  0.55955042  1
  O  O395  1  0.22720966  0.91731664  0.80899811  1
  O  O396  1  0.72765922  0.25186495  0.05778444  1
  O  O397  1  0.72693415  0.25093848  0.30919294  1
  O  O398  1  0.72777122  0.24843370  0.55792587  1
  O  O399  1  0.72776813  0.24863137  0.80795683  1
  O  O400  1  0.72841345  0.58134186  0.05813266  1
  O  O401  1  0.72814824  0.58453568  0.30831751  1
  O  O402  1  0.72816463  0.58508876  0.55807268  1
  O  O403  1  0.72802362  0.58536674  0.80811874  1
  O  O404  1  0.72763650  0.91719374  0.05574812  1
  O  O405  1  0.72829230  0.91719216  0.30630395  1
  O  O406  1  0.72882513  0.91696537  0.55649431  1
  O  O407  1  0.72762976  0.91815275  0.80722979  1
  O  O408  1  0.27148071  0.08336738  0.19331213  1
  O  O409  1  0.27274144  0.08228697  0.44112965  1
  O  O410  1  0.27310616  0.08318524  0.69117557  1
  O  O411  1  0.27180086  0.08202992  0.94204554  1
  O  O412  1  0.27211388  0.41510212  0.19206518  1
  O  O413  1  0.27094265  0.41572554  0.44332164  1
  O  O414  1  0.27190433  0.41565715  0.69349204  1
  O  O415  1  0.27310025  0.41690451  0.94097358  1
  O  O416  1  0.27245996  0.74814359  0.19170449  1
  O  O417  1  0.27199495  0.74839120  0.44201414  1
  O  O418  1  0.27288741  0.75198412  0.69233715  1
  O  O419  1  0.27219000  0.75116435  0.94178608  1
  O  O420  1  0.77089084  0.08450758  0.19305762  1
  O  O421  1  0.77187922  0.08574789  0.44134531  1
  O  O422  1  0.77206208  0.08580819  0.69163435  1
  O  O423  1  0.77272943  0.08424051  0.94055606  1
  O  O424  1  0.77290452  0.41658807  0.19069214  1
  O  O425  1  0.77184129  0.41539974  0.44231015  1
  O  O426  1  0.77120519  0.41684463  0.69351440  1
  O  O427  1  0.77150088  0.41675538  0.94345578  1
  O  O428  1  0.77109146  0.74998891  0.19310385  1
  O  O429  1  0.77183392  0.74811670  0.44152156  1
  O  O430  1  0.77272248  0.74885076  0.69205811  1
  O  O431  1  0.77173825  0.74876730  0.94184799  1
  O  O432  1  0.02237904  0.08312749  0.18353317  1
  O  O433  1  0.02218850  0.08311332  0.43110172  1
  O  O434  1  0.02229505  0.08433363  0.68296062  1
  O  O435  1  0.02247955  0.08170724  0.93303773  1
  O  O436  1  0.02133282  0.41640329  0.18155173  1
  O  O437  1  0.02135234  0.41690938  0.43191729  1
  O  O438  1  0.02210761  0.41685162  0.68495119  1
  O  O439  1  0.02254451  0.41461084  0.93287339  1
  O  O440  1  0.02274352  0.75083863  0.18418131  1
  O  O441  1  0.02203330  0.75019027  0.43157027  1
  O  O442  1  0.02322502  0.75105800  0.68486442  1
  O  O443  1  0.02245139  0.75222575  0.93325407  1
  O  O444  1  0.52169553  0.08231506  0.18292299  1
  O  O445  1  0.52281019  0.08300029  0.43437027  1
  O  O446  1  0.52229202  0.08184509  0.68345060  1
  O  O447  1  0.52308100  0.08286497  0.93415242  1
  O  O448  1  0.52266177  0.41621576  0.18453774  1
  O  O449  1  0.52202845  0.41445061  0.43308891  1
  O  O450  1  0.52152450  0.41440759  0.68370233  1
  O  O451  1  0.52177508  0.41463184  0.93336454  1
  O  O452  1  0.52123942  0.75054000  0.18179063  1
  O  O453  1  0.52141787  0.75070508  0.43206078  1
  O  O454  1  0.52313938  0.74998734  0.68417936  1
  O  O455  1  0.52248918  0.75209005  0.93306207  1
  O  O456  1  0.47657857  0.25010337  0.06583205  1
  O  O457  1  0.47736016  0.25096700  0.31682249  1
  O  O458  1  0.47682103  0.25029094  0.56583579  1
  O  O459  1  0.47761272  0.25125424  0.81697502  1
  O  O460  1  0.47823835  0.58317503  0.06820520  1
  O  O461  1  0.47773217  0.58097658  0.31679204  1
  O  O462  1  0.47825744  0.58279423  0.56860209  1
  O  O463  1  0.47774594  0.58443988  0.81718521  1
  O  O464  1  0.47771850  0.91696634  0.06492920  1
  O  O465  1  0.47761624  0.91918976  0.31675201  1
  O  O466  1  0.47776600  0.91880500  0.56746611  1
  O  O467  1  0.47726727  0.91782663  0.81563461  1
  O  O468  1  0.97807148  0.25112634  0.06621858  1
  O  O469  1  0.97786115  0.24821862  0.31670912  1
  O  O470  1  0.97837688  0.24994205  0.56847448  1
  O  O471  1  0.97745669  0.24944294  0.81576645  1
  O  O472  1  0.97891125  0.58357496  0.06787752  1
  O  O473  1  0.97803659  0.58507145  0.31679006  1
  O  O474  1  0.97822214  0.58376454  0.56910438  1
  O  O475  1  0.97746117  0.58255662  0.81614851  1
  O  O476  1  0.97728935  0.91685516  0.06526123  1
  O  O477  1  0.97763054  0.91668346  0.31476648  1
  O  O478  1  0.97875859  0.91696046  0.56840631  1
  O  O479  1  0.97830649  0.91535323  0.81716839  1
  O  O480  1  0.07306922  0.31416630  0.07399245  1
  O  O481  1  0.07318910  0.31221597  0.32420522  1
  O  O482  1  0.07372505  0.31324026  0.57608900  1
  O  O483  1  0.07245474  0.31317584  0.82323788  1
  O  O484  1  0.07425463  0.64719796  0.07459844  1
  O  O485  1  0.07322542  0.64801630  0.32378682  1
  O  O486  1  0.07377958  0.64681753  0.57670922  1
  O  O487  1  0.07176111  0.64715316  0.82354403  1
  O  O488  1  0.07218999  0.98034455  0.07361194  1
  O  O489  1  0.07255528  0.98030960  0.32249808  1
  O  O490  1  0.07416240  0.98003211  0.57532100  1
  O  O491  1  0.07353772  0.97896297  0.82519630  1
  O  O492  1  0.57187036  0.31353280  0.07385566  1
  O  O493  1  0.57247123  0.31403270  0.32378157  1
  O  O494  1  0.57230372  0.31326471  0.57343337  1
  O  O495  1  0.57282263  0.31431285  0.82470315  1
  O  O496  1  0.57384803  0.64600460  0.07615808  1
  O  O497  1  0.57260790  0.64546814  0.32485416  1
  O  O498  1  0.57358523  0.64641819  0.57547356  1
  O  O499  1  0.57264876  0.64805641  0.82424614  1
  O  O500  1  0.57291820  0.98052026  0.07241553  1
  O  O501  1  0.57270374  0.98243262  0.32359227  1
  O  O502  1  0.57325260  0.98149846  0.57451030  1
  O  O503  1  0.57250488  0.98097182  0.82392406  1
  O  O504  1  0.42706434  0.01850738  0.17543794  1
  O  O505  1  0.42741125  0.02002995  0.42709607  1
  O  O506  1  0.42701608  0.01897693  0.67632190  1
  O  O507  1  0.42765684  0.01969889  0.92624339  1
  O  O508  1  0.42786017  0.35218146  0.17696434  1
  O  O509  1  0.42676195  0.35152444  0.42540504  1
  O  O510  1  0.42654653  0.35075273  0.67606643  1
  O  O511  1  0.42633768  0.35198285  0.92658773  1
  O  O512  1  0.42582120  0.68737799  0.17388975  1
  O  O513  1  0.42635712  0.68667311  0.42496896  1
  O  O514  1  0.42771851  0.68698587  0.67707456  1
  O  O515  1  0.42725392  0.68828236  0.92466769  1
  O  O516  1  0.92718778  0.01970161  0.17572117  1
  O  O517  1  0.92691852  0.01973280  0.42372568  1
  O  O518  1  0.92673731  0.02091967  0.67559645  1
  O  O519  1  0.92751733  0.01855940  0.92522663  1
  O  O520  1  0.92568627  0.35324152  0.17453013  1
  O  O521  1  0.92610588  0.35323839  0.42545542  1
  O  O522  1  0.92728056  0.35285066  0.67700982  1
  O  O523  1  0.92733859  0.35170738  0.92494167  1
  O  O524  1  0.92817433  0.68679076  0.17591096  1
  O  O525  1  0.92652742  0.68722655  0.42483996  1
  O  O526  1  0.92859979  0.68707795  0.67786361  1
  O  O527  1  0.92766466  0.68771769  0.92521547  1
  O  O528  1  0.17632052  0.01947175  0.20053636  1
  O  O529  1  0.17773089  0.01880460  0.44920353  1
  O  O530  1  0.17845487  0.01910359  0.69820049  1
  O  O531  1  0.17670237  0.01883814  0.94842281  1
  O  O532  1  0.17725908  0.35143450  0.19865923  1
  O  O533  1  0.17549984  0.35227314  0.45049217  1
  O  O534  1  0.17617082  0.35313611  0.70151555  1
  O  O535  1  0.17803797  0.35331060  0.94812069  1
  O  O536  1  0.17718828  0.68538456  0.19836680  1
  O  O537  1  0.17690761  0.68522589  0.44973805  1
  O  O538  1  0.17798756  0.68774597  0.70104139  1
  O  O539  1  0.17651288  0.68781155  0.94898754  1
  O  O540  1  0.67557169  0.02110986  0.19977925  1
  O  O541  1  0.67698579  0.02143605  0.44987715  1
  O  O542  1  0.67711244  0.02150393  0.69946680  1
  O  O543  1  0.67808462  0.02028051  0.94741605  1
  O  O544  1  0.67773310  0.35327135  0.19862877  1
  O  O545  1  0.67681372  0.35205451  0.44880157  1
  O  O546  1  0.67583982  0.35337092  0.70051763  1
  O  O547  1  0.67606735  0.35352125  0.95099944  1
  O  O548  1  0.67550083  0.68656691  0.19994211  1
  O  O549  1  0.67646985  0.68527442  0.44893097  1
  O  O550  1  0.67746332  0.68571435  0.69875303  1
  O  O551  1  0.67692827  0.68479898  0.94899170  1
  O  O552  1  0.32297844  0.31452393  0.05127834  1
  O  O553  1  0.32290405  0.31182623  0.30109794  1
  O  O554  1  0.32261283  0.31102131  0.55000123  1
  O  O555  1  0.32294015  0.31385144  0.80111037  1
  O  O556  1  0.32316501  0.64813970  0.04995008  1
  O  O557  1  0.32325070  0.64753797  0.30095026  1
  O  O558  1  0.32486456  0.64622198  0.55042943  1
  O  O559  1  0.32381287  0.64600852  0.80054798  1
  O  O560  1  0.32314674  0.98020769  0.04918874  1
  O  O561  1  0.32306682  0.98096006  0.30182158  1
  O  O562  1  0.32174038  0.98008976  0.55251311  1
  O  O563  1  0.32233448  0.98051660  0.80104611  1
  O  O564  1  0.82298391  0.31453947  0.05072465  1
  O  O565  1  0.82213588  0.31429753  0.30194189  1
  O  O566  1  0.82290403  0.31245900  0.55036499  1
  O  O567  1  0.82278659  0.31276066  0.80026171  1
  O  O568  1  0.82340666  0.64604233  0.05071702  1
  O  O569  1  0.82300664  0.64781121  0.30015330  1
  O  O570  1  0.82374167  0.64778002  0.55121331  1
  O  O571  1  0.82339318  0.64826036  0.80154213  1
  O  O572  1  0.82314896  0.98060885  0.04893498  1
  O  O573  1  0.82366908  0.98065068  0.29907016  1
  O  O574  1  0.82420663  0.98051458  0.54921517  1
  O  O575  1  0.82238902  0.98216332  0.80065436  1
  O  O576  1  0.42610740  0.14543791  0.17474226  1
  O  O577  1  0.42841882  0.14731375  0.42720689  1
  O  O578  1  0.42719734  0.14577261  0.67568541  1
  O  O579  1  0.42854180  0.14697692  0.92651871  1
  O  O580  1  0.42755669  0.47956119  0.17653824  1
  O  O581  1  0.42672444  0.47835203  0.42548992  1
  O  O582  1  0.42617345  0.47792682  0.67524293  1
  O  O583  1  0.42695347  0.47906681  0.92527986  1
  O  O584  1  0.42585637  0.81427579  0.17464282  1
  O  O585  1  0.42580660  0.81375724  0.42510548  1
  O  O586  1  0.42864042  0.81446433  0.67731981  1
  O  O587  1  0.42739770  0.81529645  0.92484146  1
  O  O588  1  0.92766242  0.14715008  0.17534264  1
  O  O589  1  0.92666107  0.14644688  0.42378872  1
  O  O590  1  0.92732467  0.14804887  0.67632977  1
  O  O591  1  0.92713198  0.14560295  0.92547906  1
  O  O592  1  0.92613957  0.48008316  0.17365401  1
  O  O593  1  0.92584928  0.48031549  0.42542759  1
  O  O594  1  0.92690056  0.48031388  0.67711932  1
  O  O595  1  0.92743183  0.47881959  0.92448763  1
  O  O596  1  0.92736641  0.81424055  0.17608151  1
  O  O597  1  0.92674028  0.81390562  0.42415026  1
  O  O598  1  0.92796525  0.81457300  0.67704312  1
  O  O599  1  0.92689219  0.81464579  0.92579022  1
  O  O600  1  0.07349199  0.18713620  0.07401470  1
  O  O601  1  0.07301432  0.18499098  0.32328245  1
  O  O602  1  0.07382419  0.18648710  0.57570622  1
  O  O603  1  0.07241271  0.18573557  0.82406947  1
  O  O604  1  0.07439254  0.52038357  0.07531054  1
  O  O605  1  0.07317603  0.52074334  0.32449919  1
  O  O606  1  0.07351006  0.52003747  0.57618599  1
  O  O607  1  0.07300450  0.51954165  0.82399789  1
  O  O608  1  0.07219618  0.85301493  0.07404770  1
  O  O609  1  0.07268448  0.85292640  0.32269298  1
  O  O610  1  0.07413097  0.85316294  0.57483768  1
  O  O611  1  0.07343437  0.85212758  0.82484250  1
  O  O612  1  0.57119390  0.18622349  0.07323774  1
  O  O613  1  0.57254640  0.18721819  0.32460838  1
  O  O614  1  0.57115129  0.18592787  0.57320423  1
  O  O615  1  0.57271700  0.18743516  0.82517687  1
  O  O616  1  0.57343066  0.51916027  0.07511614  1
  O  O617  1  0.57313459  0.51813724  0.32430218  1
  O  O618  1  0.57367518  0.51951425  0.57665162  1
  O  O619  1  0.57316675  0.52069412  0.82538981  1
  O  O620  1  0.57262041  0.85329240  0.07290041  1
  O  O621  1  0.57287696  0.85532780  0.32502013  1
  O  O622  1  0.57289580  0.85459987  0.57500782  1
  O  O623  1  0.57200461  0.85381774  0.82280295  1
  O  O624  1  0.32256932  0.18734799  0.04958781  1
  O  O625  1  0.32342724  0.18474628  0.30092044  1
  O  O626  1  0.32303982  0.18390388  0.55130501  1
  O  O627  1  0.32355468  0.18683265  0.80120561  1
  O  O628  1  0.32401012  0.52099838  0.05057437  1
  O  O629  1  0.32266051  0.52032244  0.29973670  1
  O  O630  1  0.32409083  0.51933009  0.54936889  1
  O  O631  1  0.32354185  0.51876174  0.80164673  1
  O  O632  1  0.32379126  0.85351841  0.04912937  1
  O  O633  1  0.32338341  0.85378385  0.30082874  1
  O  O634  1  0.32274226  0.85278733  0.55152858  1
  O  O635  1  0.32192447  0.85323989  0.80159911  1
  O  O636  1  0.82292625  0.18752594  0.05090252  1
  O  O637  1  0.82169368  0.18694148  0.30072687  1
  O  O638  1  0.82315996  0.18555360  0.55042362  1
  O  O639  1  0.82323838  0.18571934  0.80152924  1
  O  O640  1  0.82385712  0.51890620  0.05069040  1
  O  O641  1  0.82351147  0.52061530  0.30073646  1
  O  O642  1  0.82305799  0.52064782  0.55034674  1
  O  O643  1  0.82306781  0.52114564  0.80027533  1
  O  O644  1  0.82293073  0.85362264  0.04825709  1
  O  O645  1  0.82374647  0.85366831  0.29925714  1
  O  O646  1  0.82433115  0.85350801  0.54966378  1
  O  O647  1  0.82334241  0.85496118  0.80000861  1
  O  O648  1  0.17580662  0.14611477  0.20035690  1
  O  O649  1  0.17774534  0.14605436  0.44876536  1
  O  O650  1  0.17786410  0.14636976  0.69907797  1
  O  O651  1  0.17648017  0.14602716  0.94909933  1
  O  O652  1  0.17656255  0.47864477  0.19957308  1
  O  O653  1  0.17559579  0.47932851  0.45034249  1
  O  O654  1  0.17690749  0.47989537  0.70108791  1
  O  O655  1  0.17813172  0.48075390  0.94900290  1
  O  O656  1  0.17755186  0.81251753  0.20005078  1
  O  O657  1  0.17666600  0.81231875  0.44945754  1
  O  O658  1  0.17748485  0.81490122  0.69921530  1
  O  O659  1  0.17734800  0.81481975  0.94899285  1
  O  O660  1  0.67525977  0.14791850  0.19958610  1
  O  O661  1  0.67648715  0.14861647  0.44856139  1
  O  O662  1  0.67660395  0.14844985  0.69913411  1
  O  O663  1  0.67747758  0.14783735  0.94812041  1
  O  O664  1  0.67837878  0.48071096  0.19900240  1
  O  O665  1  0.67647639  0.47922319  0.44975329  1
  O  O666  1  0.67579471  0.48040135  0.70030169  1
  O  O667  1  0.67603102  0.48014016  0.95098658  1
  O  O668  1  0.67571021  0.81347049  0.20002159  1
  O  O669  1  0.67676716  0.81247806  0.45016209  1
  O  O670  1  0.67754927  0.81285748  0.69991131  1
  O  O671  1  0.67609891  0.81206660  0.94866599  1
