# generated using pymatgen
data_Na2MnFe(PO4)2
_symmetry_space_group_name_H-M   'P 1'
_cell_length_a   22.34439324
_cell_length_b   20.09900681
_cell_length_c   19.44646063
_cell_angle_alpha   89.94048431
_cell_angle_beta   89.97141177
_cell_angle_gamma   90.04466467
_symmetry_Int_Tables_number   1
_chemical_formula_structural   Na2MnFe(PO4)2
_chemical_formula_sum   'Na96 Mn48 Fe48 P96 O384'
_cell_volume   8733.39918547
_cell_formula_units_Z   48
loop_
 _symmetry_equiv_pos_site_id
 _symmetry_equiv_pos_as_xyz
  1  'x, y, z'
loop_
 _atom_site_type_symbol
 _atom_site_label
 _atom_site_symmetry_multiplicity
 _atom_site_fract_x
 _atom_site_fract_y
 _atom_site_fract_z
 _atom_site_occupancy
  Na  Na0  1  0.14113026  0.25026274  0.24232298  1
  Na  Na1  1  0.14087251  0.24977590  0.49295866  1
  Na  Na2  1  0.14082798  0.25109050  0.74399676  1
  Na  Na3  1  0.14037220  0.25159742  0.99493180  1
  Na  Na4  1  0.14048976  0.58346815  0.24248314  1
  Na  Na5  1  0.14095150  0.58425278  0.49376529  1
  Na  Na6  1  0.14041895  0.58393636  0.74322877  1
  Na  Na7  1  0.13994840  0.58320021  0.99351651  1
  Na  Na8  1  0.14092596  0.91752759  0.24312382  1
  Na  Na9  1  0.14144035  0.91615346  0.49259743  1
  Na  Na10  1  0.14094403  0.91661885  0.74345406  1
  Na  Na11  1  0.14043792  0.91660240  0.99491740  1
  Na  Na12  1  0.64009421  0.25045817  0.24335409  1
  Na  Na13  1  0.63979352  0.25056986  0.49335491  1
  Na  Na14  1  0.64039377  0.24986773  0.74401176  1
  Na  Na15  1  0.64030534  0.25006023  0.99515029  1
  Na  Na16  1  0.64035450  0.58426918  0.24226052  1
  Na  Na17  1  0.64048908  0.58374868  0.49360485  1
  Na  Na18  1  0.64059264  0.58137939  0.74477418  1
  Na  Na19  1  0.63991325  0.58433650  0.99475507  1
  Na  Na20  1  0.64021054  0.91564955  0.24289067  1
  Na  Na21  1  0.64041887  0.91687226  0.49300165  1
  Na  Na22  1  0.63969321  0.91554987  0.74489138  1
  Na  Na23  1  0.63948963  0.91582147  0.99373932  1
  Na  Na24  1  0.35922658  0.08332772  0.00865394  1
  Na  Na25  1  0.35897731  0.08260896  0.25634818  1
  Na  Na26  1  0.35991286  0.08249897  0.50598804  1
  Na  Na27  1  0.35976492  0.08384570  0.75556363  1
  Na  Na28  1  0.35908791  0.41647319  0.00706668  1
  Na  Na29  1  0.35931900  0.41624306  0.25695365  1
  Na  Na30  1  0.35950963  0.41699783  0.50653649  1
  Na  Na31  1  0.35976498  0.41758880  0.75563827  1
  Na  Na32  1  0.36002898  0.75009868  0.00833765  1
  Na  Na33  1  0.35947301  0.75050661  0.25765799  1
  Na  Na34  1  0.35941561  0.74927560  0.50556406  1
  Na  Na35  1  0.35981119  0.74981793  0.75644747  1
  Na  Na36  1  0.85905746  0.08294976  0.00711501  1
  Na  Na37  1  0.85919973  0.08282147  0.25599293  1
  Na  Na38  1  0.85952089  0.08469088  0.50511534  1
  Na  Na39  1  0.85932689  0.08259477  0.75581531  1
  Na  Na40  1  0.85974034  0.41726132  0.00821013  1
  Na  Na41  1  0.85992959  0.41721549  0.25576081  1
  Na  Na42  1  0.85978368  0.41696045  0.50482449  1
  Na  Na43  1  0.85990551  0.41658809  0.75705265  1
  Na  Na44  1  0.85981880  0.74917289  0.00682546  1
  Na  Na45  1  0.85969099  0.74956396  0.25489578  1
  Na  Na46  1  0.85973894  0.75005588  0.50414778  1
  Na  Na47  1  0.86002338  0.74840404  0.75708464  1
  Na  Na48  1  0.10980183  0.08319688  0.11864442  1
  Na  Na49  1  0.11044595  0.08432445  0.36733694  1
  Na  Na50  1  0.11004234  0.08399428  0.61809978  1
  Na  Na51  1  0.10964713  0.08377116  0.86998209  1
  Na  Na52  1  0.10992278  0.41765236  0.11787615  1
  Na  Na53  1  0.11004543  0.41829152  0.36708281  1
  Na  Na54  1  0.10984056  0.41840034  0.61936547  1
  Na  Na55  1  0.10995447  0.41850491  0.86959507  1
  Na  Na56  1  0.10980773  0.74918308  0.11851502  1
  Na  Na57  1  0.11069623  0.75032822  0.36709712  1
  Na  Na58  1  0.11065786  0.74931819  0.61829571  1
  Na  Na59  1  0.10976850  0.74910702  0.86929699  1
  Na  Na60  1  0.60903079  0.08236016  0.11808632  1
  Na  Na61  1  0.60951025  0.08395604  0.36856265  1
  Na  Na62  1  0.60917958  0.08411867  0.61796360  1
  Na  Na63  1  0.60891187  0.08207692  0.87047887  1
  Na  Na64  1  0.60961132  0.41617916  0.11844805  1
  Na  Na65  1  0.60935388  0.41660169  0.36849687  1
  Na  Na66  1  0.60963059  0.41629398  0.61921247  1
  Na  Na67  1  0.61002013  0.41664603  0.86972612  1
  Na  Na68  1  0.60945537  0.75053445  0.11858342  1
  Na  Na69  1  0.61000818  0.75001430  0.36702481  1
  Na  Na70  1  0.60952374  0.75098285  0.61937209  1
  Na  Na71  1  0.60916407  0.74963721  0.87000359  1
  Na  Na72  1  0.38961519  0.24908875  0.13214998  1
  Na  Na73  1  0.39015229  0.24901855  0.38182177  1
  Na  Na74  1  0.39026632  0.25044128  0.63036537  1
  Na  Na75  1  0.39030930  0.24922998  0.88166732  1
  Na  Na76  1  0.39012168  0.58317365  0.13267749  1
  Na  Na77  1  0.38987974  0.58316305  0.38192348  1
  Na  Na78  1  0.38986444  0.58400005  0.63212436  1
  Na  Na79  1  0.39019012  0.58302664  0.88119739  1
  Na  Na80  1  0.38973212  0.91552552  0.13234741  1
  Na  Na81  1  0.38990842  0.91635880  0.38161728  1
  Na  Na82  1  0.39029267  0.91697944  0.63057114  1
  Na  Na83  1  0.39048133  0.91606385  0.88250917  1
  Na  Na84  1  0.88993100  0.25075525  0.13263580  1
  Na  Na85  1  0.89025869  0.25066294  0.37970356  1
  Na  Na86  1  0.89038304  0.25136715  0.63104753  1
  Na  Na87  1  0.89046567  0.25116568  0.88198427  1
  Na  Na88  1  0.89028484  0.58251452  0.13142754  1
  Na  Na89  1  0.89020066  0.58391176  0.37865680  1
  Na  Na90  1  0.89036693  0.58377217  0.63122625  1
  Na  Na91  1  0.89096611  0.58282009  0.88227837  1
  Na  Na92  1  0.89022678  0.91466542  0.13091699  1
  Na  Na93  1  0.89039316  0.91689397  0.38008307  1
  Na  Na94  1  0.89060515  0.91562144  0.63067723  1
  Na  Na95  1  0.89042971  0.91479026  0.88158050  1
  Mn  Mn96  1  0.00023439  0.33466262  0.49989938  1
  Mn  Mn97  1  0.49975673  0.16620227  0.74987512  1
  Mn  Mn98  1  0.00048042  0.00045689  0.49989502  1
  Mn  Mn99  1  0.49908117  0.50014931  0.00079591  1
  Mn  Mn100  1  0.00013619  0.16740921  0.75037714  1
  Mn  Mn101  1  0.50036720  0.66715978  0.50072316  1
  Mn  Mn102  1  0.49930671  0.16647980  0.25024279  1
  Mn  Mn103  1  0.74944183  -0.00141057  0.87594037  1
  Mn  Mn104  1  0.50048952  0.49990320  0.49992451  1
  Mn  Mn105  1  0.25024969  0.00040612  0.87517086  1
  Mn  Mn106  1  0.25011549  0.66607194  0.87568862  1
  Mn  Mn107  1  0.00001710  0.16709810  0.24941806  1
  Mn  Mn108  1  0.00036428  -0.00043908  0.75005311  1
  Mn  Mn109  1  0.00028585  0.50090408  0.49895069  1
  Mn  Mn110  1  0.24978460  0.33373963  0.62434489  1
  Mn  Mn111  1  0.00042874  0.16762355  0.49920553  1
  Mn  Mn112  1  0.24994192  0.33325590  0.37490239  1
  Mn  Mn113  1  0.00044870  0.66661068  0.49925602  1
  Mn  Mn114  1  0.75009709  0.83258730  0.62439599  1
  Mn  Mn115  1  0.49947998  -0.00104652  0.24936783  1
  Mn  Mn116  1  0.25045319  0.83327655  0.87513948  1
  Mn  Mn117  1  0.50047767  0.33369317  0.75057058  1
  Mn  Mn118  1  0.75009132  0.66599241  0.87569571  1
  Mn  Mn119  1  0.25080063  0.33476159  0.87471065  1
  Mn  Mn120  1  0.49918019  0.33222824  -0.00041957  1
  Mn  Mn121  1  0.74988997  0.16661539  0.87523609  1
  Mn  Mn122  1  -0.00100576  0.16734461  0.00018814  1
  Mn  Mn123  1  0.49970421  0.83412078  0.49940881  1
  Mn  Mn124  1  0.74956228  0.33306315  0.37448329  1
  Mn  Mn125  1  0.00108635  0.33514102  0.75072346  1
  Mn  Mn126  1  0.49975306  0.49948806  0.25054112  1
  Mn  Mn127  1  0.75060267  0.33399273  0.87593725  1
  Mn  Mn128  1  -0.00061329  -0.00100338  -0.00065917  1
  Mn  Mn129  1  0.50016471  0.66692260  0.75066924  1
  Mn  Mn130  1  0.74988880  -0.00030517  0.62451611  1
  Mn  Mn131  1  0.74968255  0.66626818  0.62495514  1
  Mn  Mn132  1  0.74979386  -0.00077015  0.12533737  1
  Mn  Mn133  1  0.75102544  0.49897481  0.62420298  1
  Mn  Mn134  1  0.00028522  0.83296835  0.24921921  1
  Mn  Mn135  1  0.74935100  0.50078775  0.37478931  1
  Mn  Mn136  1  0.00062648  0.83325124  0.49927037  1
  Mn  Mn137  1  0.00115744  0.83181282  0.75061314  1
  Mn  Mn138  1  0.25007007  0.16741211  0.87565608  1
  Mn  Mn139  1  0.74962965  0.00005275  0.37414216  1
  Mn  Mn140  1  0.74958844  0.16745874  0.62566728  1
  Mn  Mn141  1  0.25010461  -0.00007067  0.62432160  1
  Mn  Mn142  1  0.49908811  -0.00073181  0.75027726  1
  Mn  Mn143  1  0.25030009  0.66666536  0.12573607  1
  Fe  Fe144  1  0.00008386  0.66642032  0.75031622  1
  Fe  Fe145  1  0.74991251  0.83277084  0.12468450  1
  Fe  Fe146  1  0.49991823  0.50022426  0.75028684  1
  Fe  Fe147  1  0.74939368  0.16644966  0.12531937  1
  Fe  Fe148  1  0.74991041  0.83238852  0.87510691  1
  Fe  Fe149  1  0.00049536  0.83220638  0.00040045  1
  Fe  Fe150  1  0.24986551  -0.00006623  0.37475100  1
  Fe  Fe151  1  -0.00006656  0.66638099  0.24830259  1
  Fe  Fe152  1  0.49906719  0.83215702  0.00089602  1
  Fe  Fe153  1  0.24957687  0.83362196  0.12636574  1
  Fe  Fe154  1  0.25000049  0.83320364  0.37509912  1
  Fe  Fe155  1  0.49988250  0.83322981  0.75077147  1
  Fe  Fe156  1  0.24990157  0.66643996  0.37516387  1
  Fe  Fe157  1  0.00021885  0.50032374  0.24873776  1
  Fe  Fe158  1  0.49922380  0.33357131  0.50016014  1
  Fe  Fe159  1  0.74998593  0.33333942  0.62499095  1
  Fe  Fe160  1  0.24956192  0.16673368  0.12528274  1
  Fe  Fe161  1  0.74971385  0.50053200  0.12542903  1
  Fe  Fe162  1  0.25030943  0.16615061  0.37401761  1
  Fe  Fe163  1  0.25069802  0.83269579  0.62389609  1
  Fe  Fe164  1  0.50010231  0.83308454  0.24986657  1
  Fe  Fe165  1  -0.00028178  0.50079005  0.75083985  1
  Fe  Fe166  1  0.24985863  -0.00008604  0.12612801  1
  Fe  Fe167  1  0.74972946  0.66704217  0.12451301  1
  Fe  Fe168  1  0.49905702  -0.00121607  0.00006456  1
  Fe  Fe169  1  0.49977619  0.16592235  0.00064270  1
  Fe  Fe170  1  0.75005828  0.16713558  0.37485612  1
  Fe  Fe171  1  0.75006820  0.66707513  0.37360564  1
  Fe  Fe172  1  0.49991366  0.66674646  0.25003414  1
  Fe  Fe173  1  0.25013376  0.33388387  0.12531854  1
  Fe  Fe174  1  0.75009343  0.83290827  0.37398438  1
  Fe  Fe175  1  0.74988181  0.33358633  0.12524813  1
  Fe  Fe176  1  0.74977754  0.49985504  0.87594957  1
  Fe  Fe177  1  0.50075448  0.00004657  0.50016548  1
  Fe  Fe178  1  0.25034246  0.66662998  0.62428845  1
  Fe  Fe179  1  0.49973901  0.66648808  0.00041078  1
  Fe  Fe180  1  0.00008840  0.50027763  0.00048867  1
  Fe  Fe181  1  0.00054175  0.33413662  0.24955203  1
  Fe  Fe182  1  0.25020040  0.50043251  0.87496413  1
  Fe  Fe183  1  -0.00006430  -0.00014247  0.24926125  1
  Fe  Fe184  1  -0.00004212  0.33428018  0.00060436  1
  Fe  Fe185  1  0.49987009  0.33275037  0.25013036  1
  Fe  Fe186  1  0.24977817  0.50023209  0.37506523  1
  Fe  Fe187  1  0.25009022  0.50058441  0.62470413  1
  Fe  Fe188  1  0.25018477  0.16651835  0.62434939  1
  Fe  Fe189  1  0.00028800  0.66566945  -0.00048423  1
  Fe  Fe190  1  0.25040778  0.50037450  0.12532690  1
  Fe  Fe191  1  0.49990915  0.16698753  0.49951507  1
  P  P192  1  0.04152692  0.25198900  0.10303213  1
  P  P193  1  0.04297292  0.25190017  0.35161601  1
  P  P194  1  0.04344223  0.25110059  0.60301886  1
  P  P195  1  0.04304581  0.25133323  0.85420509  1
  P  P196  1  0.04131487  0.58343666  0.10189612  1
  P  P197  1  0.04165091  0.58391104  0.35004023  1
  P  P198  1  0.04278436  0.58362072  0.60359820  1
  P  P199  1  0.04182489  0.58360538  0.85244363  1
  P  P200  1  0.04188281  0.91527215  0.10264705  1
  P  P201  1  0.04270514  0.91799141  0.35156821  1
  P  P202  1  0.04369594  0.91622314  0.60288750  1
  P  P203  1  0.04334159  0.91560024  0.85383088  1
  P  P204  1  0.54151016  0.24869116  0.10295470  1
  P  P205  1  0.54160585  0.25107963  0.35320239  1
  P  P206  1  0.54107708  0.25037532  0.60131395  1
  P  P207  1  0.54267531  0.24889013  0.85375242  1
  P  P208  1  0.54139375  0.58507532  0.10347860  1
  P  P209  1  0.54229291  0.58432595  0.35221194  1
  P  P210  1  0.54291707  0.58325572  0.60397527  1
  P  P211  1  0.54210691  0.58229264  0.85333364  1
  P  P212  1  0.54066880  0.91539073  0.10176487  1
  P  P213  1  0.54221999  0.91578759  0.35228875  1
  P  P214  1  0.54256601  0.91763185  0.60269074  1
  P  P215  1  0.54119070  0.91493587  0.85399735  1
  P  P216  1  0.45705875  0.08275872  0.14625776  1
  P  P217  1  0.45877373  0.08274696  0.39847102  1
  P  P218  1  0.45750126  0.08313340  0.64579224  1
  P  P219  1  0.45774297  0.08279937  0.89917953  1
  P  P220  1  0.45749219  0.41505293  0.14803781  1
  P  P221  1  0.45740626  0.41521270  0.39735314  1
  P  P222  1  0.45798946  0.41784444  0.64748003  1
  P  P223  1  0.45688329  0.41699490  0.89684072  1
  P  P224  1  0.45829350  0.74997832  0.14832337  1
  P  P225  1  0.45762232  0.74975508  0.39605273  1
  P  P226  1  0.45772096  0.75165755  0.64804700  1
  P  P227  1  0.45796129  0.74958591  0.89883435  1
  P  P228  1  0.95742195  0.08203196  0.14728068  1
  P  P229  1  0.95773115  0.08360134  0.39572436  1
  P  P230  1  0.95728905  0.08367774  0.64682722  1
  P  P231  1  0.95642104  0.08343811  0.89698086  1
  P  P232  1  0.95902331  0.41687721  0.14752520  1
  P  P233  1  0.95762022  0.41730638  0.39510649  1
  P  P234  1  0.95763599  0.41891400  0.64806151  1
  P  P235  1  0.95862569  0.41770521  0.89898860  1
  P  P236  1  0.95826894  0.74824076  0.14585905  1
  P  P237  1  0.95794929  0.74970353  0.39536945  1
  P  P238  1  0.95792549  0.74856089  0.64765359  1
  P  P239  1  0.95877276  0.74879990  0.89841316  1
  P  P240  1  0.20872985  0.08353990  0.22729397  1
  P  P241  1  0.20902444  0.08360221  0.47623289  1
  P  P242  1  0.20777212  0.08465488  0.72706539  1
  P  P243  1  0.20761347  0.08357185  0.97956006  1
  P  P244  1  0.20890208  0.41743055  0.22681682  1
  P  P245  1  0.20774844  0.41829117  0.47735147  1
  P  P246  1  0.20813557  0.41874759  0.72738376  1
  P  P247  1  0.20839572  0.41847849  0.97841149  1
  P  P248  1  0.20809149  0.75112513  0.22865880  1
  P  P249  1  0.20895213  0.74971929  0.47681035  1
  P  P250  1  0.20939821  0.74996214  0.72608210  1
  P  P251  1  0.20775693  0.75023109  0.97905891  1
  P  P252  1  0.70730909  0.08434178  0.22775918  1
  P  P253  1  0.70756545  0.08492109  0.47696539  1
  P  P254  1  0.70656397  0.08257217  0.72831671  1
  P  P255  1  0.70713484  0.08333497  0.97921147  1
  P  P256  1  0.70826214  0.41710546  0.22647126  1
  P  P257  1  0.70691946  0.41636176  0.47800783  1
  P  P258  1  0.70788508  0.41540323  0.72782657  1
  P  P259  1  0.70802795  0.41824701  0.97917928  1
  P  P260  1  0.70874083  0.75005162  0.22667830  1
  P  P261  1  0.70820949  0.74974337  0.47550322  1
  P  P262  1  0.70726790  0.74946704  0.72873787  1
  P  P263  1  0.70789372  0.75076588  0.97826811  1
  P  P264  1  0.29122585  0.25038420  0.02404222  1
  P  P265  1  0.29197618  0.24883901  0.27173488  1
  P  P266  1  0.29185326  0.24853442  0.52160839  1
  P  P267  1  0.29302491  0.25042434  0.77141411  1
  P  P268  1  0.29236054  0.58215328  0.02285828  1
  P  P269  1  0.29126819  0.58309832  0.27350420  1
  P  P270  1  0.29157193  0.58324978  0.52253904  1
  P  P271  1  0.29215674  0.58245890  0.77193988  1
  P  P272  1  0.29114461  0.91660214  0.02462409  1
  P  P273  1  0.29098167  0.91653869  0.27316243  1
  P  P274  1  0.29216810  0.91510269  0.52125947  1
  P  P275  1  0.29321386  0.91669754  0.77155284  1
  P  P276  1  0.79147419  0.25004612  0.02418226  1
  P  P277  1  0.79166835  0.24880832  0.27134064  1
  P  P278  1  0.79227436  0.25126912  0.52224840  1
  P  P279  1  0.79299818  0.25055292  0.77212108  1
  P  P280  1  0.79115903  0.58312435  0.02354912  1
  P  P281  1  0.79143016  0.58465888  0.27099392  1
  P  P282  1  0.79297281  0.58404367  0.52083564  1
  P  P283  1  0.79248198  0.58136395  0.77328135  1
  P  P284  1  0.79198687  0.91463848  0.02230615  1
  P  P285  1  0.79195336  0.91488255  0.27157915  1
  P  P286  1  0.79280090  0.91629542  0.52059618  1
  P  P287  1  0.79242644  0.91471041  0.77277847  1
  O  O288  1  0.03616339  0.25218715  0.18300461  1
  O  O289  1  0.03824014  0.25157088  0.43167072  1
  O  O290  1  0.03859029  0.25109027  0.68306139  1
  O  O291  1  0.03740173  0.25172938  0.93416782  1
  O  O292  1  0.03634067  0.58339181  0.18174605  1
  O  O293  1  0.03713461  0.58356402  0.43004562  1
  O  O294  1  0.03771626  0.58367498  0.68352299  1
  O  O295  1  0.03664594  0.58374919  0.93235619  1
  O  O296  1  0.03640090  0.91616777  0.18259298  1
  O  O297  1  0.03792737  0.91761245  0.43157948  1
  O  O298  1  0.03889429  0.91598082  0.68293031  1
  O  O299  1  0.03785018  0.91491363  0.93379019  1
  O  O300  1  0.53642360  0.24943685  0.18292198  1
  O  O301  1  0.53613651  0.25114649  0.43308291  1
  O  O302  1  0.53656302  0.25005660  0.68132755  1
  O  O303  1  0.53722103  0.24822609  0.93369031  1
  O  O304  1  0.53604758  0.58537493  0.18342168  1
  O  O305  1  0.53774313  0.58399907  0.43225298  1
  O  O306  1  0.53763782  0.58284890  0.68394113  1
  O  O307  1  0.53657106  0.58285125  0.93329286  1
  O  O308  1  0.53594019  0.91519464  0.18175693  1
  O  O309  1  0.53733056  0.91672905  0.43223360  1
  O  O310  1  0.53714278  0.91690829  0.68262999  1
  O  O311  1  0.53551512  0.91496035  0.93386498  1
  O  O312  1  0.46221801  0.08274935  0.06637904  1
  O  O313  1  0.46322942  0.08303488  0.31844366  1
  O  O314  1  0.46309095  0.08302713  0.56591388  1
  O  O315  1  0.46239912  0.08267039  0.81910933  1
  O  O316  1  0.46226419  0.41560214  0.06806370  1
  O  O317  1  0.46268816  0.41507295  0.31737661  1
  O  O318  1  0.46324687  0.41725271  0.56750321  1
  O  O319  1  0.46246261  0.41755751  0.81692740  1
  O  O320  1  0.46324750  0.74982487  0.06835747  1
  O  O321  1  0.46292710  0.74948601  0.31612329  1
  O  O322  1  0.46277347  0.75139222  0.56808177  1
  O  O323  1  0.46322306  0.74997969  0.81890248  1
  O  O324  1  0.96223889  0.08241623  0.06729739  1
  O  O325  1  0.96301378  0.08306418  0.31572003  1
  O  O326  1  0.96253066  0.08388969  0.56675851  1
  O  O327  1  0.96175706  0.08359074  0.81702889  1
  O  O328  1  0.96369543  0.41685737  0.06760933  1
  O  O329  1  0.96284319  0.41688278  0.31516569  1
  O  O330  1  0.96259424  0.41860887  0.56805067  1
  O  O331  1  0.96355296  0.41856546  0.81905054  1
  O  O332  1  0.96387557  0.74852347  0.06600555  1
  O  O333  1  0.96292200  0.74942093  0.31538124  1
  O  O334  1  0.96281555  0.74911601  0.56762753  1
  O  O335  1  0.96386964  0.74836448  0.81841971  1
  O  O336  1  0.21281944  0.08344613  0.05950576  1
  O  O337  1  0.21391367  0.08343744  0.30718067  1
  O  O338  1  0.21379661  0.08382058  0.55621191  1
  O  O339  1  0.21295785  0.08429866  0.80708107  1
  O  O340  1  0.21385275  0.41809566  0.05830034  1
  O  O341  1  0.21348382  0.41743831  0.30679617  1
  O  O342  1  0.21311280  0.41824897  0.55726698  1
  O  O343  1  0.21359320  0.41871189  0.80733026  1
  O  O344  1  0.21268570  0.75043069  0.05903560  1
  O  O345  1  0.21348762  0.75084497  0.30851583  1
  O  O346  1  0.21415862  0.74943237  0.55671198  1
  O  O347  1  0.21422404  0.74961188  0.80610685  1
  O  O348  1  0.71261506  0.08364026  0.05918712  1
  O  O349  1  0.71263445  0.08451762  0.30771870  1
  O  O350  1  0.71257166  0.08455186  0.55695020  1
  O  O351  1  0.71157324  0.08231804  0.80833514  1
  O  O352  1  0.71339478  0.41806612  0.05908340  1
  O  O353  1  0.71273646  0.41678631  0.30646465  1
  O  O354  1  0.71224220  0.41585812  0.55793104  1
  O  O355  1  0.71291824  0.41614318  0.80783289  1
  O  O356  1  0.71313825  0.75072913  0.05815592  1
  O  O357  1  0.71375460  0.74984251  0.30658366  1
  O  O358  1  0.71307795  0.74958087  0.55553517  1
  O  O359  1  0.71247277  0.74974843  0.80868944  1
  O  O360  1  0.28639660  0.24908742  0.19187328  1
  O  O361  1  0.28631851  0.24841927  0.44165451  1
  O  O362  1  0.28775867  0.25007665  0.69145782  1
  O  O363  1  0.28668087  0.25103616  0.94402608  1
  O  O364  1  0.28656989  0.58311956  0.19351672  1
  O  O365  1  0.28639583  0.58340406  0.44264793  1
  O  O366  1  0.28703470  0.58284232  0.69205097  1
  O  O367  1  0.28723290  0.58215551  0.94291985  1
  O  O368  1  0.28584609  0.91667354  0.19325093  1
  O  O369  1  0.28646179  0.91530071  0.44141219  1
  O  O370  1  0.28817976  0.91641344  0.69158334  1
  O  O371  1  0.28673932  0.91689476  0.94460131  1
  O  O372  1  0.78603558  0.24890021  0.19148829  1
  O  O373  1  0.78700750  0.25050046  0.44226306  1
  O  O374  1  0.78782276  0.25117479  0.69215345  1
  O  O375  1  0.78714441  0.25043733  0.94415161  1
  O  O376  1  0.78590989  0.58426382  0.19112945  1
  O  O377  1  0.78746140  0.58483842  0.44088946  1
  O  O378  1  0.78774233  0.58157161  0.69330590  1
  O  O379  1  0.78644061  0.58266555  0.94358503  1
  O  O380  1  0.78662566  0.91482565  0.19162180  1
  O  O381  1  0.78738062  0.91602744  0.44060844  1
  O  O382  1  0.78748628  0.91522079  0.69272616  1
  O  O383  1  0.78665534  0.91462960  0.94238315  1
  O  O384  1  0.22704413  0.24989495  0.05979225  1
  O  O385  1  0.22788846  0.24845296  0.30796041  1
  O  O386  1  0.22778254  0.24861413  0.55785306  1
  O  O387  1  0.22874654  0.25085786  0.80696326  1
  O  O388  1  0.22804764  0.58225462  0.05850666  1
  O  O389  1  0.22703086  0.58246142  0.30923441  1
  O  O390  1  0.22756004  0.58303614  0.55898228  1
  O  O391  1  0.22796744  0.58209674  0.80812488  1
  O  O392  1  0.22689883  0.91595014  0.06026230  1
  O  O393  1  0.22701646  0.91607679  0.30955780  1
  O  O394  1  0.22821689  0.91478248  0.55789560  1
  O  O395  1  0.22878183  0.91678751  0.80679392  1
  O  O396  1  0.72711830  0.24975369  0.05949140  1
  O  O397  1  0.72761234  0.24834547  0.30775978  1
  O  O398  1  0.72795969  0.25193976  0.55807908  1
  O  O399  1  0.72860377  0.25064258  0.80738992  1
  O  O400  1  0.72696564  0.58279045  0.05933879  1
  O  O401  1  0.72738027  0.58501064  0.30733060  1
  O  O402  1  0.72870253  0.58300011  0.55645020  1
  O  O403  1  0.72805504  0.58147367  0.80863493  1
  O  O404  1  0.72770707  0.91484802  0.05805879  1
  O  O405  1  0.72774353  0.91487302  0.30742010  1
  O  O406  1  0.72843944  0.91624209  0.55604080  1
  O  O407  1  0.72797702  0.91419838  0.80815658  1
  O  O408  1  0.27268248  0.08428561  0.19087735  1
  O  O409  1  0.27319042  0.08382545  0.44028278  1
  O  O410  1  0.27207059  0.08477493  0.69138491  1
  O  O411  1  0.27190074  0.08367904  0.94385713  1
  O  O412  1  0.27314219  0.41780320  0.19112791  1
  O  O413  1  0.27198758  0.41836821  0.44146619  1
  O  O414  1  0.27223869  0.41854089  0.69120274  1
  O  O415  1  0.27247763  0.41925532  0.94200687  1
  O  O416  1  0.27221181  0.75152344  0.19244937  1
  O  O417  1  0.27290692  0.75021134  0.44033557  1
  O  O418  1  0.27352061  0.75050602  0.69014633  1
  O  O419  1  0.27213576  0.74983230  0.94381136  1
  O  O420  1  0.77157032  0.08402047  0.19203514  1
  O  O421  1  0.77185093  0.08478348  0.44129612  1
  O  O422  1  0.77104517  0.08312041  0.69331113  1
  O  O423  1  0.77136057  0.08277781  0.94360344  1
  O  O424  1  0.77259474  0.41759917  0.19108755  1
  O  O425  1  0.77120865  0.41686566  0.44255271  1
  O  O426  1  0.77223320  0.41448581  0.69210437  1
  O  O427  1  0.77222044  0.41865710  0.94307643  1
  O  O428  1  0.77277672  0.75034632  0.19040211  1
  O  O429  1  0.77246120  0.74984459  0.43969159  1
  O  O430  1  0.77165881  0.74931508  0.69340084  1
  O  O431  1  0.77205465  0.75079497  0.94213092  1
  O  O432  1  0.02183550  0.08206334  0.18250305  1
  O  O433  1  0.02212254  0.08396072  0.43096822  1
  O  O434  1  0.02176009  0.08368526  0.68183715  1
  O  O435  1  0.02083106  0.08356112  0.93202464  1
  O  O436  1  0.02322483  0.41668622  0.18327490  1
  O  O437  1  0.02193402  0.41745954  0.43064075  1
  O  O438  1  0.02205467  0.41985211  0.68343780  1
  O  O439  1  0.02282847  0.41673848  0.93479969  1
  O  O440  1  0.02232810  0.74814490  0.18211445  1
  O  O441  1  0.02235814  0.74998409  0.43054134  1
  O  O442  1  0.02240929  0.74768488  0.68286552  1
  O  O443  1  0.02292539  0.74865158  0.93439420  1
  O  O444  1  0.52128863  0.08292734  0.18185777  1
  O  O445  1  0.52298514  0.08261675  0.43406548  1
  O  O446  1  0.52157590  0.08270580  0.68186694  1
  O  O447  1  0.52196169  0.08289914  0.93481339  1
  O  O448  1  0.52189134  0.41505380  0.18331071  1
  O  O449  1  0.52170585  0.41492309  0.43295747  1
  O  O450  1  0.52216977  0.41840781  0.68344680  1
  O  O451  1  0.52111714  0.41662175  0.93236738  1
  O  O452  1  0.52246411  0.75037613  0.18437777  1
  O  O453  1  0.52186864  0.75026102  0.43165178  1
  O  O454  1  0.52201360  0.75165656  0.68360523  1
  O  O455  1  0.52205885  0.74967742  0.93509037  1
  O  O456  1  0.47724677  0.24807917  0.06732099  1
  O  O457  1  0.47743944  0.25142494  0.31709253  1
  O  O458  1  0.47686390  0.25053223  0.56564228  1
  O  O459  1  0.47837840  0.24966439  0.81836846  1
  O  O460  1  0.47722088  0.58513182  0.06762507  1
  O  O461  1  0.47780329  0.58392257  0.31733183  1
  O  O462  1  0.47857364  0.58328136  0.56864103  1
  O  O463  1  0.47799607  0.58192768  0.81719208  1
  O  O464  1  0.47644039  0.91504111  0.06611721  1
  O  O465  1  0.47783074  0.91455580  0.31688223  1
  O  O466  1  0.47829884  0.91852204  0.56686223  1
  O  O467  1  0.47719978  0.91466109  0.81747752  1
  O  O468  1  0.97730440  0.25241686  0.06726473  1
  O  O469  1  0.97850669  0.25192009  0.31660563  1
  O  O470  1  0.97890854  0.25092843  0.56818756  1
  O  O471  1  0.97880370  0.25151750  0.81865660  1
  O  O472  1  0.97724179  0.58381000  0.06575116  1
  O  O473  1  0.97738238  0.58419023  0.31452754  1
  O  O474  1  0.97847273  0.58367247  0.56809031  1
  O  O475  1  0.97770847  0.58365491  0.81609818  1
  O  O476  1  0.97775636  0.91446691  0.06670954  1
  O  O477  1  0.97828652  0.91798367  0.31634471  1
  O  O478  1  0.97914787  0.91639592  0.56812510  1
  O  O479  1  0.97903465  0.91544567  0.81845984  1
  O  O480  1  0.07297207  0.31504116  0.07436141  1
  O  O481  1  0.07370745  0.31545500  0.32307466  1
  O  O482  1  0.07417076  0.31482468  0.57484928  1
  O  O483  1  0.07461809  0.31451156  0.82580503  1
  O  O484  1  0.07285568  0.64659731  0.07333405  1
  O  O485  1  0.07268780  0.64749447  0.32202891  1
  O  O486  1  0.07400068  0.64691519  0.57467755  1
  O  O487  1  0.07279170  0.64713822  0.82376800  1
  O  O488  1  0.07299815  0.97880594  0.07456919  1
  O  O489  1  0.07327342  0.98165717  0.32304484  1
  O  O490  1  0.07475199  0.97975902  0.57478622  1
  O  O491  1  0.07410532  0.97952091  0.82606509  1
  O  O492  1  0.57258678  0.31222234  0.07469661  1
  O  O493  1  0.57279156  0.31425326  0.32404518  1
  O  O494  1  0.57194448  0.31412054  0.57344156  1
  O  O495  1  0.57401727  0.31254521  0.82608083  1
  O  O496  1  0.57248060  0.64823046  0.07442258  1
  O  O497  1  0.57262134  0.64798341  0.32341099  1
  O  O498  1  0.57376219  0.64714674  0.57612988  1
  O  O499  1  0.57329542  0.64594832  0.82557542  1
  O  O500  1  0.57084666  0.97955507  0.07346907  1
  O  O501  1  0.57272914  0.97951224  0.32363593  1
  O  O502  1  0.57369246  0.98107714  0.57432227  1
  O  O503  1  0.57235001  0.97861285  0.82606899  1
  O  O504  1  0.42608321  0.01920206  0.17484071  1
  O  O505  1  0.42789982  0.01904402  0.42641736  1
  O  O506  1  0.42584633  0.02005461  0.67443944  1
  O  O507  1  0.42721699  0.01883772  0.92742619  1
  O  O508  1  0.42695893  0.35134882  0.17630750  1
  O  O509  1  0.42608419  0.35218745  0.42631880  1
  O  O510  1  0.42694245  0.35418009  0.67542902  1
  O  O511  1  0.42566418  0.35328442  0.92456245  1
  O  O512  1  0.42759935  0.68621871  0.17691214  1
  O  O513  1  0.42666407  0.68636035  0.42498859  1
  O  O514  1  0.42663860  0.68799746  0.67591701  1
  O  O515  1  0.42756159  0.68545757  0.92682906  1
  O  O516  1  0.92690707  0.01822085  0.17549157  1
  O  O517  1  0.92651336  0.02036530  0.42429600  1
  O  O518  1  0.92641870  0.01991205  0.67473383  1
  O  O519  1  0.92542973  0.01978144  0.92485307  1
  O  O520  1  0.92766445  0.35371056  0.17634659  1
  O  O521  1  0.92644829  0.35406249  0.42410838  1
  O  O522  1  0.92737237  0.35487095  0.67617558  1
  O  O523  1  0.92717212  0.35422587  0.92686902  1
  O  O524  1  0.92730208  0.68475248  0.17441292  1
  O  O525  1  0.92686511  0.68636528  0.42389505  1
  O  O526  1  0.92679592  0.68525201  0.67618266  1
  O  O527  1  0.92736418  0.68549151  0.92678070  1
  O  O528  1  0.17854704  0.01940819  0.19890170  1
  O  O529  1  0.17880856  0.01938240  0.44813575  1
  O  O530  1  0.17676883  0.02100665  0.69917247  1
  O  O531  1  0.17654803  0.02019604  0.95093050  1
  O  O532  1  0.17878333  0.35333250  0.19834925  1
  O  O533  1  0.17691130  0.35447087  0.44953016  1
  O  O534  1  0.17691623  0.35505285  0.69978137  1
  O  O535  1  0.17767695  0.35469599  0.95024342  1
  O  O536  1  0.17714993  0.68744235  0.20057447  1
  O  O537  1  0.17844857  0.68586129  0.44811606  1
  O  O538  1  0.17912236  0.68599124  0.69769973  1
  O  O539  1  0.17673063  0.68665435  0.95089854  1
  O  O540  1  0.67612299  0.02051254  0.20034175  1
  O  O541  1  0.67630599  0.02144065  0.44908115  1
  O  O542  1  0.67591956  0.01901930  0.69986165  1
  O  O543  1  0.67575951  0.01979943  0.95161767  1
  O  O544  1  0.67806568  0.35310816  0.19805530  1
  O  O545  1  0.67579916  0.35318926  0.44930425  1
  O  O546  1  0.67680709  0.35193217  0.69959128  1
  O  O547  1  0.67702492  0.35455414  0.95119950  1
  O  O548  1  0.67818765  0.68634161  0.19782935  1
  O  O549  1  0.67744268  0.68606722  0.44731446  1
  O  O550  1  0.67634199  0.68573393  0.70083331  1
  O  O551  1  0.67676562  0.68703851  0.95056971  1
  O  O552  1  0.32154680  0.31431001  0.05252240  1
  O  O553  1  0.32288784  0.31254943  0.29982261  1
  O  O554  1  0.32286012  0.31247995  0.54882463  1
  O  O555  1  0.32417024  0.31399646  0.79937398  1
  O  O556  1  0.32340038  0.64584540  0.05072268  1
  O  O557  1  0.32124875  0.64730310  0.30183104  1
  O  O558  1  0.32218768  0.64703357  0.55118749  1
  O  O559  1  0.32317429  0.64606962  0.80029276  1
  O  O560  1  0.32127515  0.98056216  0.05322160  1
  O  O561  1  0.32140694  0.98055384  0.30158051  1
  O  O562  1  0.32325666  0.97878892  0.54904773  1
  O  O563  1  0.32407147  0.98031675  0.79984676  1
  O  O564  1  0.82165939  0.31410053  0.05262872  1
  O  O565  1  0.82267333  0.31264430  0.29899893  1
  O  O566  1  0.82315650  0.31490838  0.55033482  1
  O  O567  1  0.82446727  0.31352120  0.80096262  1
  O  O568  1  0.82122303  0.64744474  0.05142521  1
  O  O569  1  0.82257844  0.64804891  0.29935828  1
  O  O570  1  0.82375165  0.64736994  0.54972962  1
  O  O571  1  0.82356797  0.64492927  0.80121737  1
  O  O572  1  0.82320413  0.97825764  0.05006423  1
  O  O573  1  0.82288037  0.97876885  0.29901590  1
  O  O574  1  0.82364813  0.97998135  0.54865330  1
  O  O575  1  0.82320429  0.97838429  0.80085866  1
  O  O576  1  0.42575951  0.14586263  0.17495151  1
  O  O577  1  0.42840876  0.14667677  0.42670171  1
  O  O578  1  0.42660547  0.14672940  0.67404463  1
  O  O579  1  0.42691058  0.14640820  0.92724675  1
  O  O580  1  0.42653566  0.47865129  0.17600554  1
  O  O581  1  0.42678884  0.47922439  0.42492684  1
  O  O582  1  0.42720546  0.48142083  0.67571862  1
  O  O583  1  0.42562686  0.48004077  0.92554149  1
  O  O584  1  0.42722699  0.81340153  0.17678919  1
  O  O585  1  0.42617789  0.81302753  0.42414924  1
  O  O586  1  0.42720598  0.81522955  0.67642274  1
  O  O587  1  0.42656197  0.81269594  0.92734573  1
  O  O588  1  0.92637524  0.14561575  0.17506702  1
  O  O589  1  0.92676796  0.14732057  0.42348398  1
  O  O590  1  0.92621943  0.14707705  0.67491659  1
  O  O591  1  0.92529164  0.14677783  0.92527464  1
  O  O592  1  0.92869638  0.48084545  0.17607661  1
  O  O593  1  0.92652014  0.48081252  0.42320201  1
  O  O594  1  0.92642133  0.48201312  0.67664519  1
  O  O595  1  0.92844498  0.48144388  0.92802175  1
  O  O596  1  0.92703627  0.81162660  0.17404752  1
  O  O597  1  0.92707021  0.81328670  0.42353259  1
  O  O598  1  0.92743059  0.81230419  0.67590736  1
  O  O599  1  0.92844409  0.81282453  0.92639570  1
  O  O600  1  0.07210069  0.18787414  0.07575871  1
  O  O601  1  0.07388134  0.18831754  0.32356016  1
  O  O602  1  0.07445531  0.18778440  0.57458108  1
  O  O603  1  0.07388823  0.18759447  0.82643004  1
  O  O604  1  0.07171707  0.51956467  0.07332346  1
  O  O605  1  0.07193577  0.52006129  0.32149638  1
  O  O606  1  0.07381780  0.52038439  0.57472413  1
  O  O607  1  0.07253123  0.51990300  0.82422606  1
  O  O608  1  0.07281956  0.85157347  0.07488671  1
  O  O609  1  0.07369632  0.85442342  0.32366761  1
  O  O610  1  0.07437202  0.85269415  0.57441853  1
  O  O611  1  0.07492618  0.85258369  0.82536423  1
  O  O612  1  0.57229223  0.18508707  0.07476668  1
  O  O613  1  0.57246031  0.18729094  0.32536014  1
  O  O614  1  0.57147423  0.18658133  0.57274119  1
  O  O615  1  0.57357039  0.18564647  0.82497273  1
  O  O616  1  0.57223926  0.52108896  0.07627599  1
  O  O617  1  0.57354455  0.52082922  0.32437086  1
  O  O618  1  0.57427978  0.52027924  0.57524886  1
  O  O619  1  0.57293744  0.51877279  0.82510631  1
  O  O620  1  0.57215092  0.85227171  0.07351510  1
  O  O621  1  0.57334503  0.85247991  0.32391320  1
  O  O622  1  0.57340117  0.85408831  0.57437986  1
  O  O623  1  0.57216839  0.85159561  0.82527858  1
  O  O624  1  0.32232183  0.18682229  0.05176462  1
  O  O625  1  0.32325605  0.18559222  0.30034242  1
  O  O626  1  0.32280185  0.18525588  0.55025762  1
  O  O627  1  0.32406892  0.18715067  0.80014481  1
  O  O628  1  0.32330210  0.51897131  0.05184365  1
  O  O629  1  0.32281123  0.51995044  0.30177793  1
  O  O630  1  0.32279584  0.51984449  0.55087355  1
  O  O631  1  0.32313649  0.51918023  0.80074578  1
  O  O632  1  0.32228805  0.85311838  0.05270256  1
  O  O633  1  0.32254953  0.85336694  0.30144128  1
  O  O634  1  0.32329755  0.85176173  0.54980584  1
  O  O635  1  0.32424035  0.85344436  0.80034454  1
  O  O636  1  0.82246977  0.18650583  0.05221854  1
  O  O637  1  0.82287728  0.18563618  0.30016908  1
  O  O638  1  0.82321557  0.18775557  0.55053997  1
  O  O639  1  0.82363215  0.18669379  0.80006690  1
  O  O640  1  0.82268282  0.52017369  0.05236685  1
  O  O641  1  0.82250461  0.52107592  0.29913246  1
  O  O642  1  0.82441649  0.52049861  0.54835946  1
  O  O643  1  0.82281960  0.51782939  0.80222737  1
  O  O644  1  0.82284144  0.85126564  0.05091067  1
  O  O645  1  0.82300412  0.85163010  0.30018036  1
  O  O646  1  0.82408867  0.85304326  0.54901199  1
  O  O647  1  0.82320387  0.85111832  0.80106658  1
  O  O648  1  0.17690221  0.14656024  0.19893254  1
  O  O649  1  0.17760849  0.14668298  0.44759768  1
  O  O650  1  0.17709631  0.14825036  0.69878157  1
  O  O651  1  0.17643744  0.14702245  0.95127605  1
  O  O652  1  0.17760028  0.48068231  0.19838760  1
  O  O653  1  0.17671808  0.48154849  0.44863128  1
  O  O654  1  0.17727180  0.48208012  0.69874924  1
  O  O655  1  0.17710035  0.48165816  0.94978482  1
  O  O656  1  0.17693258  0.81440427  0.20005627  1
  O  O657  1  0.17742893  0.81298099  0.44864506  1
  O  O658  1  0.17817240  0.81340922  0.69811995  1
  O  O659  1  0.17678147  0.81346302  0.95033903  1
  O  O660  1  0.67647791  0.14762498  0.19889982  1
  O  O661  1  0.67715261  0.14871197  0.44874478  1
  O  O662  1  0.67539780  0.14608832  0.70037018  1
  O  O663  1  0.67620517  0.14675078  0.95084489  1
  O  O664  1  0.67701095  0.48055679  0.19861929  1
  O  O665  1  0.67575328  0.47992394  0.45002854  1
  O  O666  1  0.67725605  0.47902359  0.69937656  1
  O  O667  1  0.67698430  0.48152784  0.95030636  1
  O  O668  1  0.67745884  0.81346119  0.19839044  1
  O  O669  1  0.67749148  0.81356036  0.44754855  1
  O  O670  1  0.67610795  0.81261522  0.69996763  1
  O  O671  1  0.67699763  0.81403188  0.94931526  1
