# generated using pymatgen
data_Na2MnFe(PO4)2
_symmetry_space_group_name_H-M   'P 1'
_cell_length_a   22.34671389
_cell_length_b   20.09667452
_cell_length_c   19.44725000
_cell_angle_alpha   89.99886596
_cell_angle_beta   90.04047625
_cell_angle_gamma   89.95959431
_symmetry_Int_Tables_number   1
_chemical_formula_structural   Na2MnFe(PO4)2
_chemical_formula_sum   'Na96 Mn48 Fe48 P96 O384'
_cell_volume   8733.65130162
_cell_formula_units_Z   48
loop_
 _symmetry_equiv_pos_site_id
 _symmetry_equiv_pos_as_xyz
  1  'x, y, z'
loop_
 _atom_site_type_symbol
 _atom_site_label
 _atom_site_symmetry_multiplicity
 _atom_site_fract_x
 _atom_site_fract_y
 _atom_site_fract_z
 _atom_site_occupancy
  Na  Na0  1  0.14055896  0.24854033  0.24349819  1
  Na  Na1  1  0.14065557  0.24923643  0.49379810  1
  Na  Na2  1  0.14055068  0.25089300  0.74316917  1
  Na  Na3  1  0.14055690  0.25031745  0.99415937  1
  Na  Na4  1  0.14058555  0.58234821  0.24291720  1
  Na  Na5  1  0.14036305  0.58138039  0.49410211  1
  Na  Na6  1  0.14003433  0.58206166  0.74441132  1
  Na  Na7  1  0.13997756  0.58347181  0.99286981  1
  Na  Na8  1  0.14012722  0.91584961  0.24244824  1
  Na  Na9  1  0.13971949  0.91632814  0.49296963  1
  Na  Na10  1  0.13980819  0.91689114  0.74349500  1
  Na  Na11  1  0.13978887  0.91556841  0.99330592  1
  Na  Na12  1  0.64074934  0.25128990  0.24346770  1
  Na  Na13  1  0.64022991  0.24982081  0.49289853  1
  Na  Na14  1  0.64037138  0.24897889  0.74328480  1
  Na  Na15  1  0.64065057  0.25000616  0.99442364  1
  Na  Na16  1  0.64025058  0.58381751  0.24355717  1
  Na  Na17  1  0.64029061  0.58432713  0.49446252  1
  Na  Na18  1  0.63993549  0.58411907  0.74501106  1
  Na  Na19  1  0.64002075  0.58335941  0.99375138  1
  Na  Na20  1  0.63964603  0.91917346  0.24398158  1
  Na  Na21  1  0.63987509  0.91876091  0.49296791  1
  Na  Na22  1  0.64009467  0.91713454  0.74467694  1
  Na  Na23  1  0.63957906  0.91617183  0.99359634  1
  Na  Na24  1  0.35972678  0.08255376  0.00729756  1
  Na  Na25  1  0.35978413  0.08282315  0.25692442  1
  Na  Na26  1  0.35995899  0.08361832  0.50647870  1
  Na  Na27  1  0.36035439  0.08408927  0.75527226  1
  Na  Na28  1  0.35913798  0.41787895  0.00605360  1
  Na  Na29  1  0.35958633  0.41573911  0.25637379  1
  Na  Na30  1  0.35942168  0.41508104  0.50566876  1
  Na  Na31  1  0.35943657  0.41730967  0.75534993  1
  Na  Na32  1  0.35948821  0.74997121  0.00788897  1
  Na  Na33  1  0.35940768  0.74939627  0.25649174  1
  Na  Na34  1  0.35985515  0.74878819  0.50669287  1
  Na  Na35  1  0.35968385  0.74853823  0.75698887  1
  Na  Na36  1  0.86049653  0.08375720  0.00643702  1
  Na  Na37  1  0.86037931  0.08417655  0.25610064  1
  Na  Na38  1  0.86031560  0.08302166  0.50499067  1
  Na  Na39  1  0.86011993  0.08277480  0.75612905  1
  Na  Na40  1  0.85936410  0.41669210  0.00631507  1
  Na  Na41  1  0.85965036  0.41611986  0.25467838  1
  Na  Na42  1  0.85989506  0.41673364  0.50611079  1
  Na  Na43  1  0.86028890  0.41749018  0.75755968  1
  Na  Na44  1  0.86016767  0.74926454  0.00653799  1
  Na  Na45  1  0.86002098  0.75162033  0.25569547  1
  Na  Na46  1  0.85988265  0.75215049  0.50617100  1
  Na  Na47  1  0.85964908  0.75101695  0.75760751  1
  Na  Na48  1  0.10949482  0.08147932  0.11887555  1
  Na  Na49  1  0.10999059  0.08089225  0.36778686  1
  Na  Na50  1  0.10987549  0.08209572  0.61826274  1
  Na  Na51  1  0.10960243  0.08304082  0.86918886  1
  Na  Na52  1  0.10981204  0.41605812  0.11785782  1
  Na  Na53  1  0.11023328  0.41553566  0.36797445  1
  Na  Na54  1  0.11011536  0.41649563  0.61889308  1
  Na  Na55  1  0.10934700  0.41753694  0.86815053  1
  Na  Na56  1  0.10948143  0.75026081  0.11695961  1
  Na  Na57  1  0.10916686  0.75107956  0.36826920  1
  Na  Na58  1  0.10901822  0.75083964  0.61953774  1
  Na  Na59  1  0.10963889  0.74961929  0.86923116  1
  Na  Na60  1  0.60969642  0.08263327  0.11897697  1
  Na  Na61  1  0.60999733  0.08478337  0.36862113  1
  Na  Na62  1  0.60952913  0.08347521  0.61731285  1
  Na  Na63  1  0.60955992  0.08204841  0.86916111  1
  Na  Na64  1  0.60993655  0.41713494  0.11818142  1
  Na  Na65  1  0.60946149  0.41736725  0.36825446  1
  Na  Na66  1  0.60941409  0.41721491  0.61879011  1
  Na  Na67  1  0.60956646  0.41713878  0.86894701  1
  Na  Na68  1  0.60871762  0.75058801  0.11881402  1
  Na  Na69  1  0.60905020  0.75162467  0.36994197  1
  Na  Na70  1  0.60890581  0.75073972  0.61960235  1
  Na  Na71  1  0.60912833  0.74991457  0.86998991  1
  Na  Na72  1  0.39038866  0.24968530  0.13197703  1
  Na  Na73  1  0.39052578  0.25026447  0.38209979  1
  Na  Na74  1  0.39023193  0.24990911  0.63026925  1
  Na  Na75  1  0.39054631  0.24860131  0.88032415  1
  Na  Na76  1  0.39004914  0.58331099  0.13141601  1
  Na  Na77  1  0.39038640  0.58334671  0.38130395  1
  Na  Na78  1  0.38987720  0.58304923  0.63115061  1
  Na  Na79  1  0.38949706  0.58436598  0.88206894  1
  Na  Na80  1  0.38982731  0.91561522  0.13214437  1
  Na  Na81  1  0.39051261  0.91768336  0.38184742  1
  Na  Na82  1  0.39083126  0.91660211  0.63020850  1
  Na  Na83  1  0.39071860  0.91568125  0.88262253  1
  Na  Na84  1  0.89033977  0.24849128  0.13167770  1
  Na  Na85  1  0.89065946  0.24794105  0.38025824  1
  Na  Na86  1  0.89096566  0.24982443  0.63149083  1
  Na  Na87  1  0.89126813  0.25032407  0.88197427  1
  Na  Na88  1  0.89024710  0.58373842  0.12987091  1
  Na  Na89  1  0.89074343  0.58457186  0.38078104  1
  Na  Na90  1  0.89080953  0.58378568  0.63269727  1
  Na  Na91  1  0.89019369  0.58372581  0.88281179  1
  Na  Na92  1  0.89079611  0.91754124  0.13055790  1
  Na  Na93  1  0.89057913  0.91746470  0.38075001  1
  Na  Na94  1  0.89033447  0.91757311  0.63078942  1
  Na  Na95  1  0.89111251  0.91731694  0.88124656  1
  Mn  Mn96  1  0.25066216  0.33439882  0.87394433  1
  Mn  Mn97  1  0.00029510  0.33286752  0.00024878  1
  Mn  Mn98  1  0.00080880  0.16490636  0.50084914  1
  Mn  Mn99  1  0.25002116  0.83274263  0.62519694  1
  Mn  Mn100  1  0.24960970  0.83293824  0.37475710  1
  Mn  Mn101  1  0.75037447  0.16586767  0.87439079  1
  Mn  Mn102  1  0.24928975  0.66477896  0.62541669  1
  Mn  Mn103  1  0.25060459  0.83243697  0.87520133  1
  Mn  Mn104  1  0.75045348  0.66759835  0.37489310  1
  Mn  Mn105  1  0.50040113  0.16496723  0.00108896  1
  Mn  Mn106  1  0.25008452  -0.00005772  0.87497530  1
  Mn  Mn107  1  0.00028635  0.33264058  0.49987956  1
  Mn  Mn108  1  0.25026264  0.16726180  0.87558845  1
  Mn  Mn109  1  0.75037467  0.33361923  0.87504668  1
  Mn  Mn110  1  0.75052577  0.66734512  0.62567173  1
  Mn  Mn111  1  0.50005201  0.16650642  0.25047498  1
  Mn  Mn112  1  -0.00017119  0.49978177  0.50027485  1
  Mn  Mn113  1  0.24955747  0.49967608  0.12496911  1
  Mn  Mn114  1  0.74926897  0.83550921  0.37574603  1
  Mn  Mn115  1  0.50018163  0.50036372  0.25021125  1
  Mn  Mn116  1  0.75062046  0.00144386  0.12479271  1
  Mn  Mn117  1  0.50010234  0.50090919  0.49944540  1
  Mn  Mn118  1  0.25032640  0.16674745  0.12548735  1
  Mn  Mn119  1  0.49978707  0.83278977  0.75046151  1
  Mn  Mn120  1  0.49988835  0.83374490  0.25052180  1
  Mn  Mn121  1  0.00028848  0.50024031  0.24938412  1
  Mn  Mn122  1  0.50034736  0.00022544  0.75001964  1
  Mn  Mn123  1  0.74985521  0.83405712  0.12492706  1
  Mn  Mn124  1  0.49914441  0.50062182  -0.00013654  1
  Mn  Mn125  1  0.75067910  0.16573243  0.62426467  1
  Mn  Mn126  1  0.75036146  0.83349700  0.87512321  1
  Mn  Mn127  1  0.24906679  0.66487608  0.37530439  1
  Mn  Mn128  1  0.75020872  0.33328752  0.62502379  1
  Mn  Mn129  1  0.25081390  0.00034197  0.62483251  1
  Mn  Mn130  1  0.00042776  0.66801761  0.24967108  1
  Mn  Mn131  1  -0.00043371  0.66737081  0.75029864  1
  Mn  Mn132  1  -0.00016153  0.33165570  0.24903261  1
  Mn  Mn133  1  0.49981506  0.33255579  -0.00077559  1
  Mn  Mn134  1  0.74981439  0.33308320  0.37469538  1
  Mn  Mn135  1  0.25010799  0.16617068  0.37474906  1
  Mn  Mn136  1  0.00069653  0.16612979  0.75021931  1
  Mn  Mn137  1  0.00032913  0.66816650  0.50062399  1
  Mn  Mn138  1  0.74930980  0.83517707  0.62610334  1
  Mn  Mn139  1  0.49996775  0.33232488  0.74905819  1
  Mn  Mn140  1  0.75053307  0.50015964  0.37472978  1
  Mn  Mn141  1  0.75041348  0.50055013  0.62575917  1
  Mn  Mn142  1  0.74936157  0.66644190  0.12562612  1
  Mn  Mn143  1  0.49924676  0.50106129  0.74921802  1
  Fe  Fe144  1  0.49986607  0.66690229  0.00058176  1
  Fe  Fe145  1  0.75030258  0.00150434  0.37417664  1
  Fe  Fe146  1  0.00017017  -0.00084871  0.24911017  1
  Fe  Fe147  1  0.24941150  0.50003068  0.87508112  1
  Fe  Fe148  1  0.49995503  0.00091079  0.50037098  1
  Fe  Fe149  1  0.74961584  0.66639376  0.87589356  1
  Fe  Fe150  1  0.25030507  0.49900734  0.62446667  1
  Fe  Fe151  1  -0.00000661  -0.00023244  0.00008749  1
  Fe  Fe152  1  0.50008431  0.33350934  0.49991250  1
  Fe  Fe153  1  -0.00006782  0.83399279  -0.00056091  1
  Fe  Fe154  1  0.50021068  0.16636751  0.74919497  1
  Fe  Fe155  1  0.74961227  0.00091800  0.62445271  1
  Fe  Fe156  1  0.00000298  0.50020447  0.75068223  1
  Fe  Fe157  1  0.75084964  0.16707713  0.37439269  1
  Fe  Fe158  1  0.25006717  0.49842044  0.37437132  1
  Fe  Fe159  1  0.00070888  0.16487780  0.25014998  1
  Fe  Fe160  1  0.74967196  0.16703783  0.12511812  1
  Fe  Fe161  1  0.24989986  0.33345905  0.12511108  1
  Fe  Fe162  1  0.24949953  0.16663613  0.62469673  1
  Fe  Fe163  1  -0.00037713  0.83393832  0.24888509  1
  Fe  Fe164  1  0.50034468  0.16737704  0.49921467  1
  Fe  Fe165  1  -0.00005699  0.66722159  -0.00052901  1
  Fe  Fe166  1  0.24992852  0.66605297  0.12501919  1
  Fe  Fe167  1  0.49937638  -0.00071589  0.00012735  1
  Fe  Fe168  1  0.49912729  0.66721045  0.75042779  1
  Fe  Fe169  1  -0.00027425  0.83406992  0.75001505  1
  Fe  Fe170  1  0.49937090  0.83299646  0.00100106  1
  Fe  Fe171  1  0.24968257  0.83276225  0.12519780  1
  Fe  Fe172  1  0.50017623  0.33347505  0.25025461  1
  Fe  Fe173  1  0.74944366  0.50010033  0.87570496  1
  Fe  Fe174  1  0.00031903  -0.00105886  0.49927639  1
  Fe  Fe175  1  0.24998753  0.33261128  0.37533508  1
  Fe  Fe176  1  0.24995791  0.33325507  0.62467775  1
  Fe  Fe177  1  0.00053090  0.16595180  0.00000935  1
  Fe  Fe178  1  0.25022642  -0.00059418  0.37476163  1
  Fe  Fe179  1  0.49959814  0.83375690  0.49984405  1
  Fe  Fe180  1  0.00059551  0.33349169  0.75095893  1
  Fe  Fe181  1  -0.00031633  0.83432081  0.49954092  1
  Fe  Fe182  1  0.49977030  0.00011347  0.25068804  1
  Fe  Fe183  1  0.75030020  0.50013211  0.12439147  1
  Fe  Fe184  1  0.75019563  0.33351493  0.12471699  1
  Fe  Fe185  1  0.49987394  0.66748043  0.50033103  1
  Fe  Fe186  1  0.74992055  0.00025237  0.87533254  1
  Fe  Fe187  1  0.24957533  0.66605877  0.87552389  1
  Fe  Fe188  1  0.24980052  -0.00053379  0.12531253  1
  Fe  Fe189  1  0.00016496  -0.00055754  0.75016362  1
  Fe  Fe190  1  0.49983474  0.66732073  0.25044818  1
  Fe  Fe191  1  -0.00007086  0.50004139  -0.00050340  1
  P  P192  1  0.04230400  0.24728636  0.10280636  1
  P  P193  1  0.04264301  0.24749076  0.35220832  1
  P  P194  1  0.04302227  0.24976401  0.60400594  1
  P  P195  1  0.04272618  0.25067778  0.85301768  1
  P  P196  1  0.04131492  0.58363585  0.10092798  1
  P  P197  1  0.04311287  0.58402355  0.35285829  1
  P  P198  1  0.04240270  0.58347152  0.60395674  1
  P  P199  1  0.04130418  0.58273961  0.85335410  1
  P  P200  1  0.04113614  0.91640411  0.10166058  1
  P  P201  1  0.04150975  0.91622777  0.35130116  1
  P  P202  1  0.04165060  0.91655342  0.60201448  1
  P  P203  1  0.04178508  0.91645439  0.85227267  1
  P  P204  1  0.54244935  0.25000255  0.10382252  1
  P  P205  1  0.54199725  0.25151643  0.35307810  1
  P  P206  1  0.54172999  0.24963222  0.60139390  1
  P  P207  1  0.54240346  0.24789469  0.85207368  1
  P  P208  1  0.54189807  0.58490013  0.10299970  1
  P  P209  1  0.54210719  0.58557847  0.35292637  1
  P  P210  1  0.54188540  0.58548791  0.60279668  1
  P  P211  1  0.54122428  0.58522322  0.85293723  1
  P  P212  1  0.54107792  0.91688302  0.10221534  1
  P  P213  1  0.54184247  0.91852978  0.35351888  1
  P  P214  1  0.54124579  0.91666767  0.60141189  1
  P  P215  1  0.54224876  0.91619320  0.85419962  1
  P  P216  1  0.45767944  0.08128039  0.14785285  1
  P  P217  1  0.45875349  0.08384742  0.39830025  1
  P  P218  1  0.45835046  0.08457788  0.64628604  1
  P  P219  1  0.45743848  0.08178516  0.89756444  1
  P  P220  1  0.45791757  0.41576577  0.14773769  1
  P  P221  1  0.45832838  0.41557061  0.39709953  1
  P  P222  1  0.45749899  0.41635370  0.64577428  1
  P  P223  1  0.45673745  0.41658281  0.89636518  1
  P  P224  1  0.45770150  0.74896360  0.14751851  1
  P  P225  1  0.45822149  0.75038035  0.39830577  1
  P  P226  1  0.45715003  0.74892891  0.64713992  1
  P  P227  1  0.45806325  0.74961612  0.89905353  1
  P  P228  1  0.95884765  0.08275998  0.14749743  1
  P  P229  1  0.95887823  0.08130040  0.39658256  1
  P  P230  1  0.95826958  0.08126781  0.64747905  1
  P  P231  1  0.95914410  0.08293384  0.89822487  1
  P  P232  1  0.95785062  0.41657152  0.14580895  1
  P  P233  1  0.95742618  0.41600473  0.39646714  1
  P  P234  1  0.95881305  0.41640503  0.64914211  1
  P  P235  1  0.95813844  0.41769198  0.89712965  1
  P  P236  1  0.95802354  0.75176890  0.14605563  1
  P  P237  1  0.95772878  0.75230186  0.39701087  1
  P  P238  1  0.95732647  0.75254225  0.64754653  1
  P  P239  1  0.95863999  0.75114167  0.89800081  1
  P  P240  1  0.20816884  0.08157328  0.22776198  1
  P  P241  1  0.20813160  0.08210789  0.47734114  1
  P  P242  1  0.20768578  0.08458825  0.72738025  1
  P  P243  1  0.20766783  0.08302469  0.97900932  1
  P  P244  1  0.20760814  0.41481937  0.22794494  1
  P  P245  1  0.20857404  0.41587819  0.47690616  1
  P  P246  1  0.20875803  0.41709745  0.72651456  1
  P  P247  1  0.20729344  0.41772801  0.97731055  1
  P  P248  1  0.20817292  0.74909013  0.22631839  1
  P  P249  1  0.20684795  0.74902106  0.47806332  1
  P  P250  1  0.20722893  0.74884042  0.72881685  1
  P  P251  1  0.20818532  0.74848812  0.97836348  1
  P  P252  1  0.70801643  0.08551405  0.22814110  1
  P  P253  1  0.70889894  0.08386743  0.47613212  1
  P  P254  1  0.70746072  0.08183966  0.72745000  1
  P  P255  1  0.70782602  0.08275713  0.97781286  1
  P  P256  1  0.70866353  0.41719849  0.22601185  1
  P  P257  1  0.70698719  0.41685740  0.47798734  1
  P  P258  1  0.70712887  0.41706341  0.72883486  1
  P  P259  1  0.70786878  0.41762215  0.97831377  1
  P  P260  1  0.70664370  0.75122572  0.22843836  1
  P  P261  1  0.70716188  0.75112541  0.47862746  1
  P  P262  1  0.70729280  0.75024595  0.72937020  1
  P  P263  1  0.70778412  0.74898247  0.97771811  1
  P  P264  1  0.29264240  0.25174801  0.02290637  1
  P  P265  1  0.29234969  0.25102831  0.27252649  1
  P  P266  1  0.29090078  0.24975409  0.52294880  1
  P  P267  1  0.29257542  0.25002555  0.77066775  1
  P  P268  1  0.29175832  0.58446002  0.02214843  1
  P  P269  1  0.29199628  0.58152787  0.27225954  1
  P  P270  1  0.29204105  0.58058423  0.52197783  1
  P  P271  1  0.29113550  0.58253790  0.77342800  1
  P  P272  1  0.29100360  0.91622631  0.02387495  1
  P  P273  1  0.29176512  0.91719522  0.27179263  1
  P  P274  1  0.29255399  0.91639989  0.52126474  1
  P  P275  1  0.29335871  0.91644485  0.77208915  1
  P  P276  1  0.79159255  0.24973132  0.02343124  1
  P  P277  1  0.79220639  0.24923295  0.27130041  1
  P  P278  1  0.79335515  0.24955130  0.52120030  1
  P  P279  1  0.79350229  0.24969411  0.77191919  1
  P  P280  1  0.79164523  0.58237823  0.02182522  1
  P  P281  1  0.79309684  0.58339617  0.27118321  1
  P  P282  1  0.79366792  0.58398507  0.52228442  1
  P  P283  1  0.79164421  0.58353002  0.77446077  1
  P  P284  1  0.79263466  0.91729554  0.02134870  1
  P  P285  1  0.79223189  0.91899761  0.27239218  1
  P  P286  1  0.79176897  0.91921672  0.52221325  1
  P  P287  1  0.79220557  0.91889768  0.77256430  1
  O  O288  1  0.03696676  0.24700487  0.18274314  1
  O  O289  1  0.03754760  0.24789179  0.43221288  1
  O  O290  1  0.03772905  0.25055975  0.68396102  1
  O  O291  1  0.03732300  0.25008476  0.93294764  1
  O  O292  1  0.03684986  0.58414882  0.18096228  1
  O  O293  1  0.03795590  0.58401869  0.43283582  1
  O  O294  1  0.03681132  0.58306881  0.68392181  1
  O  O295  1  0.03586115  0.58274914  0.93324103  1
  O  O296  1  0.03609122  0.91650661  0.18152252  1
  O  O297  1  0.03650241  0.91631988  0.43121531  1
  O  O298  1  0.03643135  0.91677671  0.68189736  1
  O  O299  1  0.03630330  0.91624953  0.93211457  1
  O  O300  1  0.53702743  0.25074993  0.18376403  1
  O  O301  1  0.53673665  0.25162117  0.43300386  1
  O  O302  1  0.53673840  0.24882440  0.68136596  1
  O  O303  1  0.53727176  0.24799891  0.93205508  1
  O  O304  1  0.53684845  0.58489901  0.18297144  1
  O  O305  1  0.53660731  0.58546389  0.43285960  1
  O  O306  1  0.53637310  0.58540854  0.68274169  1
  O  O307  1  0.53593806  0.58511179  0.93290216  1
  O  O308  1  0.53649154  0.91681222  0.18222154  1
  O  O309  1  0.53648119  0.91827862  0.43335006  1
  O  O310  1  0.53637250  0.91680388  0.68140187  1
  O  O311  1  0.53683743  0.91632411  0.93406918  1
  O  O312  1  0.46271873  0.08101491  0.06789396  1
  O  O313  1  0.46349341  0.08328669  0.31833183  1
  O  O314  1  0.46382367  0.08462064  0.56640689  1
  O  O315  1  0.46258818  0.08252614  0.81762789  1
  O  O316  1  0.46260251  0.41611630  0.06772103  1
  O  O317  1  0.46378912  0.41522005  0.31712853  1
  O  O318  1  0.46300758  0.41625746  0.56584401  1
  O  O319  1  0.46184458  0.41667012  0.81638623  1
  O  O320  1  0.46312720  0.74913627  0.06766157  1
  O  O321  1  0.46345670  0.75027121  0.31835048  1
  O  O322  1  0.46255636  0.74925583  0.56728387  1
  O  O323  1  0.46263719  0.74974463  0.81904907  1
  O  O324  1  0.96385654  0.08321352  0.06759220  1
  O  O325  1  0.96428834  0.08171260  0.31670399  1
  O  O326  1  0.96359744  0.08094739  0.56753837  1
  O  O327  1  0.96412285  0.08230813  0.81829326  1
  O  O328  1  0.96340311  0.41697742  0.06588000  1
  O  O329  1  0.96248561  0.41582469  0.31647518  1
  O  O330  1  0.96362461  0.41634970  0.56909172  1
  O  O331  1  0.96369048  0.41745697  0.81723109  1
  O  O332  1  0.96341880  0.75141879  0.06617125  1
  O  O333  1  0.96292621  0.75225855  0.31702147  1
  O  O334  1  0.96265342  0.75243691  0.56759750  1
  O  O335  1  0.96339793  0.75120559  0.81803689  1
  O  O336  1  0.21299979  0.08247291  0.05897871  1
  O  O337  1  0.21348951  0.08130591  0.30771909  1
  O  O338  1  0.21333049  0.08296961  0.55730429  1
  O  O339  1  0.21268617  0.08427793  0.80739913  1
  O  O340  1  0.21217306  0.41717863  0.05725571  1
  O  O341  1  0.21295124  0.41502316  0.30782245  1
  O  O342  1  0.21398319  0.41598453  0.55679509  1
  O  O343  1  0.21347376  0.41755146  0.80647420  1
  O  O344  1  0.21340408  0.74872339  0.05828178  1
  O  O345  1  0.21269070  0.74948513  0.30632099  1
  O  O346  1  0.21192333  0.74905602  0.55802247  1
  O  O347  1  0.21270267  0.74856117  0.80878750  1
  O  O348  1  0.71299444  0.08397591  0.05776597  1
  O  O349  1  0.71358453  0.08519729  0.30802173  1
  O  O350  1  0.71371881  0.08307458  0.55614509  1
  O  O351  1  0.71251334  0.08171293  0.80741987  1
  O  O352  1  0.71354665  0.41742697  0.05817973  1
  O  O353  1  0.71333713  0.41670240  0.30602260  1
  O  O354  1  0.71196412  0.41675545  0.55798990  1
  O  O355  1  0.71211030  0.41750808  0.80885971  1
  O  O356  1  0.71260373  0.74920634  0.05771362  1
  O  O357  1  0.71166241  0.75151798  0.30842873  1
  O  O358  1  0.71224834  0.75125540  0.55863481  1
  O  O359  1  0.71276643  0.74959719  0.80933587  1
  O  O360  1  0.28725239  0.25113322  0.19258265  1
  O  O361  1  0.28609221  0.25005072  0.44293870  1
  O  O362  1  0.28688484  0.24955924  0.69078863  1
  O  O363  1  0.28753213  0.25158158  0.94291639  1
  O  O364  1  0.28666290  0.58237470  0.19231369  1
  O  O365  1  0.28679230  0.58047587  0.44205719  1
  O  O366  1  0.28613881  0.58196389  0.69345053  1
  O  O367  1  0.28640295  0.58450259  0.94226863  1
  O  O368  1  0.28628686  0.91702817  0.19187572  1
  O  O369  1  0.28712848  0.91688382  0.44128669  1
  O  O370  1  0.28844372  0.91636561  0.69209106  1
  O  O371  1  0.28672734  0.91592385  0.94384787  1
  O  O372  1  0.78668285  0.24935904  0.19141505  1
  O  O373  1  0.78825074  0.24929648  0.44119051  1
  O  O374  1  0.78862180  0.24972761  0.69192787  1
  O  O375  1  0.78702430  0.24979632  0.94341485  1
  O  O376  1  0.78755935  0.58283078  0.19121676  1
  O  O377  1  0.78879851  0.58390732  0.44224919  1
  O  O378  1  0.78726527  0.58364603  0.69438729  1
  O  O379  1  0.78592017  0.58277339  0.94194662  1
  O  O380  1  0.78747588  0.91863219  0.19240338  1
  O  O381  1  0.78656062  0.91947286  0.44224408  1
  O  O382  1  0.78668570  0.91910163  0.69261090  1
  O  O383  1  0.78736138  0.91753226  0.94141958  1
  O  O384  1  0.22829894  0.25143140  0.05836405  1
  O  O385  1  0.22807152  0.25072415  0.30809192  1
  O  O386  1  0.22687194  0.24944801  0.55897457  1
  O  O387  1  0.22846433  0.25036772  0.80668259  1
  O  O388  1  0.22757257  0.58453049  0.05810353  1
  O  O389  1  0.22772906  0.58050278  0.30790657  1
  O  O390  1  0.22778811  0.58032518  0.55772446  1
  O  O391  1  0.22698096  0.58246119  0.80950838  1
  O  O392  1  0.22670239  0.91653996  0.05913591  1
  O  O393  1  0.22759807  0.91756226  0.30777296  1
  O  O394  1  0.22832421  0.91673858  0.55675954  1
  O  O395  1  0.22881164  0.91617665  0.80677693  1
  O  O396  1  0.72736769  0.24933133  0.05900059  1
  O  O397  1  0.72814081  0.24871940  0.30757054  1
  O  O398  1  0.72893796  0.24956222  0.55632413  1
  O  O399  1  0.72897000  0.24976456  0.80657837  1
  O  O400  1  0.72761544  0.58186412  0.05815427  1
  O  O401  1  0.72875877  0.58375621  0.30650654  1
  O  O402  1  0.72909609  0.58392111  0.55695604  1
  O  O403  1  0.72724308  0.58347367  0.80968404  1
  O  O404  1  0.72833192  0.91775491  0.05667123  1
  O  O405  1  0.72780617  0.91961481  0.30755013  1
  O  O406  1  0.72745673  0.91939526  0.55788877  1
  O  O407  1  0.72801421  0.91860761  0.80840023  1
  O  O408  1  0.27235778  0.08169894  0.19202486  1
  O  O409  1  0.27238608  0.08171483  0.44164029  1
  O  O410  1  0.27203678  0.08514905  0.69199967  1
  O  O411  1  0.27198387  0.08316744  0.94366685  1
  O  O412  1  0.27180116  0.41501651  0.19194390  1
  O  O413  1  0.27258765  0.41590224  0.44033780  1
  O  O414  1  0.27287798  0.41711348  0.69059099  1
  O  O415  1  0.27167717  0.41854104  0.94190276  1
  O  O416  1  0.27249291  0.74867584  0.19098183  1
  O  O417  1  0.27120769  0.74890653  0.44294937  1
  O  O418  1  0.27147335  0.74862005  0.69332593  1
  O  O419  1  0.27232633  0.74797884  0.94235626  1
  O  O420  1  0.77219348  0.08601103  0.19212137  1
  O  O421  1  0.77309798  0.08380124  0.44027211  1
  O  O422  1  0.77190714  0.08145880  0.69212237  1
  O  O423  1  0.77217152  0.08199376  0.94227476  1
  O  O424  1  0.77283893  0.41770147  0.19031900  1
  O  O425  1  0.77150953  0.41655659  0.44324439  1
  O  O426  1  0.77165350  0.41673930  0.69396558  1
  O  O427  1  0.77193591  0.41821020  0.94203228  1
  O  O428  1  0.77115030  0.75071118  0.19365006  1
  O  O429  1  0.77154246  0.75153936  0.44348987  1
  O  O430  1  0.77157693  0.75126726  0.69398623  1
  O  O431  1  0.77213274  0.74889238  0.94246371  1
  O  O432  1  0.02291111  0.08231877  0.18388360  1
  O  O433  1  0.02292180  0.08080791  0.43300887  1
  O  O434  1  0.02247669  0.08121276  0.68340452  1
  O  O435  1  0.02319970  0.08351521  0.93440270  1
  O  O436  1  0.02204578  0.41593006  0.18148876  1
  O  O437  1  0.02188808  0.41621070  0.43154278  1
  O  O438  1  0.02302183  0.41632874  0.68499567  1
  O  O439  1  0.02223332  0.41774246  0.93337704  1
  O  O440  1  0.02219455  0.75236544  0.18219066  1
  O  O441  1  0.02195308  0.75251151  0.43292247  1
  O  O442  1  0.02154900  0.75215526  0.68343471  1
  O  O443  1  0.02274927  0.75141373  0.93402211  1
  O  O444  1  0.52197736  0.08162530  0.18350210  1
  O  O445  1  0.52291514  0.08481595  0.43416441  1
  O  O446  1  0.52244222  0.08465528  0.68262660  1
  O  O447  1  0.52177443  0.08083959  0.93327730  1
  O  O448  1  0.52232671  0.41612935  0.18298135  1
  O  O449  1  0.52243191  0.41601505  0.43310952  1
  O  O450  1  0.52161660  0.41678999  0.68164136  1
  O  O451  1  0.52114231  0.41683701  0.93153746  1
  O  O452  1  0.52180074  0.74903998  0.18381424  1
  O  O453  1  0.52226193  0.75079038  0.43466073  1
  O  O454  1  0.52131530  0.74833823  0.68341469  1
  O  O455  1  0.52225689  0.74971422  0.93490425  1
  O  O456  1  0.47820359  0.24933803  0.06825544  1
  O  O457  1  0.47782407  0.25129750  0.31711715  1
  O  O458  1  0.47756265  0.24933636  0.56532002  1
  O  O459  1  0.47808470  0.24787039  0.81646976  1
  O  O460  1  0.47756707  0.58508984  0.06735916  1
  O  O461  1  0.47791723  0.58508094  0.31692063  1
  O  O462  1  0.47771104  0.58520531  0.56679317  1
  O  O463  1  0.47700480  0.58528962  0.81696981  1
  O  O464  1  0.47682452  0.91700524  0.06644424  1
  O  O465  1  0.47771536  0.91832934  0.31722973  1
  O  O466  1  0.47713424  0.91631657  0.56547016  1
  O  O467  1  0.47812831  0.91644160  0.81820361  1
  O  O468  1  0.97811688  0.24755077  0.06685201  1
  O  O469  1  0.97833714  0.24712630  0.31662568  1
  O  O470  1  0.97877776  0.24919907  0.56840814  1
  O  O471  1  0.97854338  0.25095004  0.81709035  1
  O  O472  1  0.97710952  0.58326453  0.06530094  1
  O  O473  1  0.97872362  0.58422616  0.31764938  1
  O  O474  1  0.97820901  0.58400430  0.56824158  1
  O  O475  1  0.97728262  0.58256799  0.81699269  1
  O  O476  1  0.97713233  0.91600651  0.06527037  1
  O  O477  1  0.97741197  0.91632291  0.31492243  1
  O  O478  1  0.97759590  0.91689517  0.56541352  1
  O  O479  1  0.97775959  0.91682301  0.81558911  1
  O  O480  1  0.07335107  0.31112586  0.07538848  1
  O  O481  1  0.07342979  0.31116325  0.32417611  1
  O  O482  1  0.07408223  0.31291693  0.57516481  1
  O  O483  1  0.07341162  0.31440907  0.82484125  1
  O  O484  1  0.07153645  0.64756751  0.07237380  1
  O  O485  1  0.07414039  0.64746828  0.32464396  1
  O  O486  1  0.07365362  0.64704165  0.57630755  1
  O  O487  1  0.07240290  0.64642615  0.82564439  1
  O  O488  1  0.07146559  0.98031073  0.07309133  1
  O  O489  1  0.07248964  0.97965902  0.32263641  1
  O  O490  1  0.07285989  0.97984236  0.57328836  1
  O  O491  1  0.07286680  0.98002314  0.82412296  1
  O  O492  1  0.57350342  0.31310628  0.07487142  1
  O  O493  1  0.57286375  0.31483372  0.32405241  1
  O  O494  1  0.57185532  0.31399544  0.57387074  1
  O  O495  1  0.57342745  0.31161378  0.82443186  1
  O  O496  1  0.57295439  0.64807320  0.07422358  1
  O  O497  1  0.57270782  0.64909283  0.32447329  1
  O  O498  1  0.57276401  0.64882601  0.57417862  1
  O  O499  1  0.57208581  0.64860351  0.82442686  1
  O  O500  1  0.57225962  0.98017293  0.07385092  1
  O  O501  1  0.57244850  0.98207910  0.32469675  1
  O  O502  1  0.57155651  0.98068717  0.57324063  1
  O  O503  1  0.57374588  0.97925304  0.82553128  1
  O  O504  1  0.42699592  0.01798969  0.17683046  1
  O  O505  1  0.42860744  0.02004533  0.42718581  1
  O  O506  1  0.42716901  0.02097649  0.67416588  1
  O  O507  1  0.42637897  0.01835680  0.92589762  1
  O  O508  1  0.42759221  0.35205183  0.17627097  1
  O  O509  1  0.42753549  0.35227606  0.42607227  1
  O  O510  1  0.42649325  0.35289340  0.67383870  1
  O  O511  1  0.42595788  0.35290632  0.92428946  1
  O  O512  1  0.42687286  0.68559175  0.17632497  1
  O  O513  1  0.42731887  0.68677599  0.42640918  1
  O  O514  1  0.42592455  0.68573276  0.67588666  1
  O  O515  1  0.42704269  0.68617888  0.92725099  1
  O  O516  1  0.92777378  0.01912575  0.17554515  1
  O  O517  1  0.92776533  0.01796000  0.42503857  1
  O  O518  1  0.92720462  0.01822650  0.67646730  1
  O  O519  1  0.92865291  0.01930759  0.92707442  1
  O  O520  1  0.92658381  0.35294801  0.17332285  1
  O  O521  1  0.92665923  0.35239772  0.42467625  1
  O  O522  1  0.92793652  0.35279906  0.67727004  1
  O  O523  1  0.92690159  0.35414048  0.92515608  1
  O  O524  1  0.92720939  0.68807080  0.17429830  1
  O  O525  1  0.92696201  0.68848589  0.42490154  1
  O  O526  1  0.92609022  0.68899647  0.67551362  1
  O  O527  1  0.92850734  0.68697609  0.92628006  1
  O  O528  1  0.17713343  0.01841373  0.19882739  1
  O  O529  1  0.17741247  0.01846592  0.44903512  1
  O  O530  1  0.17707671  0.02068522  0.69957292  1
  O  O531  1  0.17643014  0.01987160  0.95034336  1
  O  O532  1  0.17700631  0.35130887  0.19902750  1
  O  O533  1  0.17769254  0.35213336  0.44870678  1
  O  O534  1  0.17855680  0.35300477  0.69823405  1
  O  O535  1  0.17660667  0.35415866  0.94885456  1
  O  O536  1  0.17710014  0.68554665  0.19837762  1
  O  O537  1  0.17580667  0.68551266  0.45008000  1
  O  O538  1  0.17569712  0.68572075  0.70058379  1
  O  O539  1  0.17699633  0.68532110  0.94949297  1
  O  O540  1  0.67714506  0.02180834  0.19996232  1
  O  O541  1  0.67772212  0.02065560  0.44739131  1
  O  O542  1  0.67620074  0.01887069  0.69845700  1
  O  O543  1  0.67705366  0.01900591  0.94995965  1
  O  O544  1  0.67856230  0.35315089  0.19754467  1
  O  O545  1  0.67590223  0.35355516  0.44949703  1
  O  O546  1  0.67620738  0.35344595  0.70070298  1
  O  O547  1  0.67697555  0.35383025  0.95037769  1
  O  O548  1  0.67543114  0.68785490  0.20042123  1
  O  O549  1  0.67654856  0.68746080  0.45047492  1
  O  O550  1  0.67657775  0.68683311  0.70071989  1
  O  O551  1  0.67710679  0.68538481  0.94934387  1
  O  O552  1  0.32298554  0.31548330  0.05129813  1
  O  O553  1  0.32313248  0.31418015  0.30170692  1
  O  O554  1  0.32158136  0.31342598  0.55140233  1
  O  O555  1  0.32391204  0.31354792  0.79849332  1
  O  O556  1  0.32278494  0.64757887  0.05136069  1
  O  O557  1  0.32265822  0.64520622  0.30060737  1
  O  O558  1  0.32264146  0.64451018  0.54990288  1
  O  O559  1  0.32154940  0.64655577  0.80140752  1
  O  O560  1  0.32207687  0.97972715  0.05190961  1
  O  O561  1  0.32284140  0.98045403  0.30069015  1
  O  O562  1  0.32428817  0.97937855  0.54960133  1
  O  O563  1  0.32404320  0.98010958  0.80019000  1
  O  O564  1  0.82174454  0.31383205  0.05166474  1
  O  O565  1  0.82313552  0.31298555  0.29919065  1
  O  O566  1  0.82423726  0.31310342  0.54949426  1
  O  O567  1  0.82450242  0.31295324  0.80050297  1
  O  O568  1  0.82267961  0.64601631  0.04987328  1
  O  O569  1  0.82409804  0.64715923  0.29888225  1
  O  O570  1  0.82446044  0.64755329  0.55054097  1
  O  O571  1  0.82225193  0.64735272  0.80265686  1
  O  O572  1  0.82430918  0.98028391  0.04970493  1
  O  O573  1  0.82310539  0.98252402  0.30058888  1
  O  O574  1  0.82286414  0.98236618  0.55097788  1
  O  O575  1  0.82309402  0.98207672  0.80157159  1
  O  O576  1  0.42656777  0.14505203  0.17551425  1
  O  O577  1  0.42722830  0.14732799  0.42597156  1
  O  O578  1  0.42748494  0.14798325  0.67513795  1
  O  O579  1  0.42667592  0.14537481  0.92605912  1
  O  O580  1  0.42657760  0.47926820  0.17560712  1
  O  O581  1  0.42697204  0.47938159  0.42411418  1
  O  O582  1  0.42611898  0.47981193  0.67367453  1
  O  O583  1  0.42560762  0.47997786  0.92463740  1
  O  O584  1  0.42648248  0.81253529  0.17554175  1
  O  O585  1  0.42738769  0.81423756  0.42622499  1
  O  O586  1  0.42639540  0.81268609  0.67546864  1
  O  O587  1  0.42763029  0.81349044  0.92774196  1
  O  O588  1  0.92812982  0.14626262  0.17648944  1
  O  O589  1  0.92783705  0.14485143  0.42491331  1
  O  O590  1  0.92735565  0.14521019  0.67498219  1
  O  O591  1  0.92798036  0.14664576  0.92592846  1
  O  O592  1  0.92681891  0.47998753  0.17406419  1
  O  O593  1  0.92633844  0.47949565  0.42458949  1
  O  O594  1  0.92817890  0.48035065  0.67709615  1
  O  O595  1  0.92715692  0.48111191  0.92567236  1
  O  O596  1  0.92668666  0.81498887  0.17466843  1
  O  O597  1  0.92659428  0.81557045  0.42558872  1
  O  O598  1  0.92661097  0.81599989  0.67620595  1
  O  O599  1  0.92713454  0.81434145  0.92617085  1
  O  O600  1  0.07329161  0.18406723  0.07398962  1
  O  O601  1  0.07360202  0.18392260  0.32412964  1
  O  O602  1  0.07410790  0.18599949  0.57647372  1
  O  O603  1  0.07402816  0.18724219  0.82503387  1
  O  O604  1  0.07244030  0.51997219  0.07326204  1
  O  O605  1  0.07402257  0.52047008  0.32465631  1
  O  O606  1  0.07348745  0.52006202  0.57558093  1
  O  O607  1  0.07248078  0.51945381  0.82459223  1
  O  O608  1  0.07262559  0.85323874  0.07315103  1
  O  O609  1  0.07241436  0.85268784  0.32266578  1
  O  O610  1  0.07232777  0.85278885  0.57360773  1
  O  O611  1  0.07255741  0.85281201  0.82372340  1
  O  O612  1  0.57364698  0.18622550  0.07643676  1
  O  O613  1  0.57326055  0.18789604  0.32529300  1
  O  O614  1  0.57325609  0.18663945  0.57258222  1
  O  O615  1  0.57305129  0.18432166  0.82355471  1
  O  O616  1  0.57257165  0.52098830  0.07505813  1
  O  O617  1  0.57347946  0.52192623  0.32528528  1
  O  O618  1  0.57318293  0.52180953  0.57517559  1
  O  O619  1  0.57224275  0.52146322  0.82516030  1
  O  O620  1  0.57135069  0.85282281  0.07379604  1
  O  O621  1  0.57325242  0.85515164  0.32532901  1
  O  O622  1  0.57232573  0.85310661  0.57353075  1
  O  O623  1  0.57325443  0.85264796  0.82582210  1
  O  O624  1  0.32393312  0.18817635  0.05066015  1
  O  O625  1  0.32344492  0.18717532  0.30012576  1
  O  O626  1  0.32183177  0.18597720  0.55084657  1
  O  O627  1  0.32375380  0.18681656  0.79962565  1
  O  O628  1  0.32288347  0.52077533  0.05011510  1
  O  O629  1  0.32318095  0.51805226  0.30028914  1
  O  O630  1  0.32330504  0.51747787  0.55074573  1
  O  O631  1  0.32227030  0.51919205  0.80201001  1
  O  O632  1  0.32127409  0.85226969  0.05247578  1
  O  O633  1  0.32285567  0.85345380  0.29970664  1
  O  O634  1  0.32322424  0.85250028  0.54910484  1
  O  O635  1  0.32451141  0.85309275  0.80051501  1
  O  O636  1  0.82277575  0.18628404  0.05155327  1
  O  O637  1  0.82344819  0.18601399  0.30015354  1
  O  O638  1  0.82460541  0.18621813  0.54958820  1
  O  O639  1  0.82437387  0.18603225  0.79999913  1
  O  O640  1  0.82296278  0.51905735  0.05017818  1
  O  O641  1  0.82434923  0.52014757  0.29963368  1
  O  O642  1  0.82462728  0.52052215  0.55075428  1
  O  O643  1  0.82227732  0.51977140  0.80267222  1
  O  O644  1  0.82316961  0.85337661  0.04936764  1
  O  O645  1  0.82290671  0.85526573  0.30049270  1
  O  O646  1  0.82247826  0.85532596  0.55009668  1
  O  O647  1  0.82340566  0.85508047  0.80000266  1
  O  O648  1  0.17716719  0.14549705  0.20041858  1
  O  O649  1  0.17695158  0.14555306  0.44908335  1
  O  O650  1  0.17661918  0.14790254  0.69889458  1
  O  O651  1  0.17682011  0.14683462  0.95123168  1
  O  O652  1  0.17617222  0.47819921  0.19964404  1
  O  O653  1  0.17752597  0.47932696  0.44826501  1
  O  O654  1  0.17747319  0.48030642  0.69794178  1
  O  O655  1  0.17641160  0.48127241  0.94884126  1
  O  O656  1  0.17797860  0.81307683  0.19765494  1
  O  O657  1  0.17585756  0.81248939  0.44973440  1
  O  O658  1  0.17644263  0.81266939  0.70086833  1
  O  O659  1  0.17724512  0.81224943  0.95029442  1
  O  O660  1  0.67668449  0.14864518  0.19939973  1
  O  O661  1  0.67847931  0.14797634  0.44838867  1
  O  O662  1  0.67705884  0.14587584  0.69936139  1
  O  O663  1  0.67681017  0.14614079  0.94915589  1
  O  O664  1  0.67736176  0.48070206  0.19822758  1
  O  O665  1  0.67618062  0.48047858  0.44979735  1
  O  O666  1  0.67607519  0.48043066  0.70027634  1
  O  O667  1  0.67649323  0.48084574  0.94968628  1
  O  O668  1  0.67597257  0.81488194  0.20001063  1
  O  O669  1  0.67584464  0.81453903  0.45064143  1
  O  O670  1  0.67577481  0.81378058  0.70175553  1
  O  O671  1  0.67670509  0.81263850  0.95003056  1
