# generated using pymatgen
data_Na2MnFe(PO4)2
_symmetry_space_group_name_H-M   'P 1'
_cell_length_a   22.34626525
_cell_length_b   20.09741422
_cell_length_c   19.44743290
_cell_angle_alpha   89.95554604
_cell_angle_beta   90.01609956
_cell_angle_gamma   90.00086512
_symmetry_Int_Tables_number   1
_chemical_formula_structural   Na2MnFe(PO4)2
_chemical_formula_sum   'Na96 Mn48 Fe48 P96 O384'
_cell_volume   8733.88093285
_cell_formula_units_Z   48
loop_
 _symmetry_equiv_pos_site_id
 _symmetry_equiv_pos_as_xyz
  1  'x, y, z'
loop_
 _atom_site_type_symbol
 _atom_site_label
 _atom_site_symmetry_multiplicity
 _atom_site_fract_x
 _atom_site_fract_y
 _atom_site_fract_z
 _atom_site_occupancy
  Na  Na0  1  0.14030099  0.24997048  0.24318602  1
  Na  Na1  1  0.13991112  0.25088684  0.49251469  1
  Na  Na2  1  0.13996214  0.25201486  0.74280590  1
  Na  Na3  1  0.13986804  0.25055966  0.99412679  1
  Na  Na4  1  0.13981585  0.58205016  0.24234499  1
  Na  Na5  1  0.14009666  0.58378073  0.49270785  1
  Na  Na6  1  0.14021435  0.58215804  0.74346997  1
  Na  Na7  1  0.13975409  0.58264979  0.99316252  1
  Na  Na8  1  0.13983479  0.91654193  0.24384869  1
  Na  Na9  1  0.14000853  0.91761598  0.49146339  1
  Na  Na10  1  0.13955408  0.91574800  0.74349599  1
  Na  Na11  1  0.13955152  0.91566641  0.99378743  1
  Na  Na12  1  0.64126506  0.25042645  0.24431284  1
  Na  Na13  1  0.64050848  0.25062410  0.49375853  1
  Na  Na14  1  0.64032928  0.24997674  0.74483789  1
  Na  Na15  1  0.64082220  0.25171952  0.99371303  1
  Na  Na16  1  0.64061579  0.58263946  0.24497037  1
  Na  Na17  1  0.64097786  0.58460969  0.49347891  1
  Na  Na18  1  0.64097226  0.58341551  0.74573093  1
  Na  Na19  1  0.64071815  0.58263893  0.99434189  1
  Na  Na20  1  0.64034950  0.91692152  0.24424352  1
  Na  Na21  1  0.64102714  0.91745087  0.49289144  1
  Na  Na22  1  0.64018290  0.91627096  0.74460909  1
  Na  Na23  1  0.63987739  0.91658509  0.99318799  1
  Na  Na24  1  0.35902453  0.08312372  0.00606416  1
  Na  Na25  1  0.35923292  0.08252481  0.25596932  1
  Na  Na26  1  0.35921193  0.08425730  0.50481037  1
  Na  Na27  1  0.35862152  0.08328156  0.75633014  1
  Na  Na28  1  0.35949045  0.41588732  0.00720028  1
  Na  Na29  1  0.35933367  0.41559681  0.25478338  1
  Na  Na30  1  0.35922163  0.41663059  0.50607285  1
  Na  Na31  1  0.36010281  0.41608502  0.75567700  1
  Na  Na32  1  0.35896367  0.74987597  0.00616145  1
  Na  Na33  1  0.35869497  0.74872159  0.25604911  1
  Na  Na34  1  0.35942381  0.74982153  0.50559734  1
  Na  Na35  1  0.35955834  0.75015104  0.75593239  1
  Na  Na36  1  0.85947087  0.08463311  0.00667206  1
  Na  Na37  1  0.86022601  0.08270073  0.25810929  1
  Na  Na38  1  0.86052602  0.08353762  0.50528381  1
  Na  Na39  1  0.85976212  0.08293209  0.75469787  1
  Na  Na40  1  0.86055745  0.41735413  0.00741980  1
  Na  Na41  1  0.86001494  0.41714207  0.25651833  1
  Na  Na42  1  0.86030627  0.41703139  0.50635077  1
  Na  Na43  1  0.86095547  0.41683437  0.75813848  1
  Na  Na44  1  0.86038348  0.74850705  0.00720089  1
  Na  Na45  1  0.85955472  0.74957887  0.25808153  1
  Na  Na46  1  0.86030955  0.75116730  0.50621387  1
  Na  Na47  1  0.86045112  0.75003692  0.75747672  1
  Na  Na48  1  0.10934058  0.08345659  0.11918465  1
  Na  Na49  1  0.11004403  0.08338377  0.36724633  1
  Na  Na50  1  0.10889933  0.08379015  0.61674358  1
  Na  Na51  1  0.10865635  0.08339577  0.86878187  1
  Na  Na52  1  0.10958809  0.41739441  0.11732491  1
  Na  Na53  1  0.10954471  0.41658030  0.36791516  1
  Na  Na54  1  0.11016652  0.41705521  0.61809295  1
  Na  Na55  1  0.10999337  0.41630226  0.86862659  1
  Na  Na56  1  0.10885012  0.74796173  0.11823844  1
  Na  Na57  1  0.10933711  0.75013171  0.36775025  1
  Na  Na58  1  0.10897602  0.75121828  0.61808673  1
  Na  Na59  1  0.10926161  0.74919598  0.86912807  1
  Na  Na60  1  0.60948088  0.08251269  0.11885864  1
  Na  Na61  1  0.61026240  0.08339786  0.36831084  1
  Na  Na62  1  0.60960089  0.08386725  0.61882801  1
  Na  Na63  1  0.60931058  0.08315552  0.86886406  1
  Na  Na64  1  0.61036592  0.41650117  0.11811710  1
  Na  Na65  1  0.60999848  0.41684779  0.36936796  1
  Na  Na66  1  0.60995412  0.41742645  0.61978680  1
  Na  Na67  1  0.61004821  0.41716964  0.87055561  1
  Na  Na68  1  0.60950982  0.74975495  0.11930242  1
  Na  Na69  1  0.61011715  0.74985536  0.36868664  1
  Na  Na70  1  0.61000260  0.75068484  0.61956302  1
  Na  Na71  1  0.60958488  0.74999790  0.87007885  1
  Na  Na72  1  0.38998502  0.24920325  0.13081770  1
  Na  Na73  1  0.39005751  0.24974197  0.38068714  1
  Na  Na74  1  0.39000512  0.25120249  0.63063614  1
  Na  Na75  1  0.38997067  0.25092947  0.88164623  1
  Na  Na76  1  0.38955660  0.58226496  0.13098754  1
  Na  Na77  1  0.38970028  0.58185109  0.38126104  1
  Na  Na78  1  0.39060468  0.58374382  0.63064155  1
  Na  Na79  1  0.39051542  0.58323664  0.88194756  1
  Na  Na80  1  0.39007843  0.91633581  0.13033252  1
  Na  Na81  1  0.38979234  0.91649225  0.38109099  1
  Na  Na82  1  0.39000707  0.91672443  0.63005964  1
  Na  Na83  1  0.39018827  0.91606507  0.88109923  1
  Na  Na84  1  0.89068494  0.25070527  0.13212617  1
  Na  Na85  1  0.89113317  0.24880031  0.38190036  1
  Na  Na86  1  0.89106021  0.25098936  0.63053250  1
  Na  Na87  1  0.89063200  0.25119634  0.88157902  1
  Na  Na88  1  0.89034153  0.58283813  0.13185260  1
  Na  Na89  1  0.89060322  0.58371211  0.38191060  1
  Na  Na90  1  0.89111198  0.58425463  0.63143412  1
  Na  Na91  1  0.89096378  0.58259585  0.88294441  1
  Na  Na92  1  0.89071396  0.91602845  0.13235711  1
  Na  Na93  1  0.89066712  0.91734707  0.38315840  1
  Na  Na94  1  0.89049119  0.91737405  0.62964885  1
  Na  Na95  1  0.89063026  0.91514185  0.88119997  1
  Mn  Mn96  1  0.75051328  0.33352015  0.62551188  1
  Mn  Mn97  1  -0.00046174  0.83287150  0.25062420  1
  Mn  Mn98  1  0.24910644  0.66584597  0.62444558  1
  Mn  Mn99  1  0.49975108  0.49912200  0.25072194  1
  Mn  Mn100  1  0.24976991  0.83335641  0.62418390  1
  Mn  Mn101  1  -0.00040337  0.16785343  0.74906825  1
  Mn  Mn102  1  0.50074289  0.16585570  0.24978012  1
  Mn  Mn103  1  0.75118995  0.50064866  0.62584065  1
  Mn  Mn104  1  0.74994252  0.83319272  0.12566226  1
  Mn  Mn105  1  0.00003757  0.66681648  0.75038857  1
  Mn  Mn106  1  0.24958033  0.33369117  0.37396380  1
  Mn  Mn107  1  0.74977574  0.83396202  0.62552475  1
  Mn  Mn108  1  0.24953557  0.83248677  0.12492741  1
  Mn  Mn109  1  0.49972585  -0.00040605  0.74960108  1
  Mn  Mn110  1  0.75073368  0.33398348  0.37504515  1
  Mn  Mn111  1  0.50092320  0.83274941  0.49976477  1
  Mn  Mn112  1  0.49981703  0.66599873  0.24940635  1
  Mn  Mn113  1  0.49900792  0.83379689  0.24947528  1
  Mn  Mn114  1  0.75103319  0.83270934  0.87511113  1
  Mn  Mn115  1  0.50003419  0.33289957  0.24962159  1
  Mn  Mn116  1  0.24890570  0.16761445  0.87518919  1
  Mn  Mn117  1  0.49948222  0.66664344  0.00021405  1
  Mn  Mn118  1  0.24941010  0.00017470  0.62437819  1
  Mn  Mn119  1  0.25000316  0.66556099  0.37462248  1
  Mn  Mn120  1  -0.00083662  -0.00106791  -0.00021063  1
  Mn  Mn121  1  0.75065551  0.33353783  0.87557991  1
  Mn  Mn122  1  0.75028031  0.00043787  0.12537045  1
  Mn  Mn123  1  0.50025918  0.66781857  0.75138023  1
  Mn  Mn124  1  0.24890388  0.16800646  0.62519847  1
  Mn  Mn125  1  0.50050526  0.49984673  0.75016804  1
  Mn  Mn126  1  0.24985749  0.00013397  0.12486128  1
  Mn  Mn127  1  0.75082259  0.66684444  0.62524920  1
  Mn  Mn128  1  0.24834077  -0.00061278  0.87540520  1
  Mn  Mn129  1  0.49978147  0.16763177  0.49965404  1
  Mn  Mn130  1  -0.00068726  0.16746914  -0.00051636  1
  Mn  Mn131  1  0.00042635  0.50031088  0.49990971  1
  Mn  Mn132  1  0.50033609  0.49991471  0.50080913  1
  Mn  Mn133  1  0.50003840  0.00023240  0.50023055  1
  Mn  Mn134  1  0.74976394  0.16769851  0.12588998  1
  Mn  Mn135  1  0.75057264  0.00086441  0.87495979  1
  Mn  Mn136  1  0.49969000  0.16617097  0.00004091  1
  Mn  Mn137  1  0.75045021  0.16601307  0.62428807  1
  Mn  Mn138  1  0.25029272  0.66646535  0.87406734  1
  Mn  Mn139  1  0.00034799  0.33356906  0.25008123  1
  Mn  Mn140  1  0.49929357  0.16791402  0.74989645  1
  Mn  Mn141  1  0.25056565  0.49879936  0.87449560  1
  Mn  Mn142  1  -0.00033982  -0.00081674  0.74899025  1
  Mn  Mn143  1  0.74963699  0.66582439  0.12671357  1
  Fe  Fe144  1  0.00008485  -0.00016745  0.25053164  1
  Fe  Fe145  1  0.24962549  0.49949858  0.37373117  1
  Fe  Fe146  1  0.25024989  0.16717667  0.37431339  1
  Fe  Fe147  1  0.00047064  0.49971985  0.75056694  1
  Fe  Fe148  1  0.75044348  0.66615956  0.87640369  1
  Fe  Fe149  1  0.00011649  0.49989108  -0.00002250  1
  Fe  Fe150  1  0.00091188  0.16705525  0.49920040  1
  Fe  Fe151  1  0.24920997  0.66576991  0.12496735  1
  Fe  Fe152  1  0.25008793  0.33315356  0.87523586  1
  Fe  Fe153  1  0.25060362  0.49974271  0.62423332  1
  Fe  Fe154  1  0.50001765  0.66687209  0.50054499  1
  Fe  Fe155  1  0.00047026  0.33407000  0.74976094  1
  Fe  Fe156  1  0.24928954  0.16668388  0.12501760  1
  Fe  Fe157  1  -0.00042697  0.66633852  0.24947280  1
  Fe  Fe158  1  0.75006640  0.16697841  0.87492329  1
  Fe  Fe159  1  0.49959063  -0.00067116  -0.00068355  1
  Fe  Fe160  1  -0.00016841  0.50028546  0.24962846  1
  Fe  Fe161  1  0.25010824  0.33402396  0.62384137  1
  Fe  Fe162  1  0.00037477  0.83360546  0.49960205  1
  Fe  Fe163  1  0.49954028  0.83348657  0.00004872  1
  Fe  Fe164  1  0.50047351  0.33341774  0.50018319  1
  Fe  Fe165  1  0.49999104  0.33314333  0.00017854  1
  Fe  Fe166  1  0.49968427  -0.00049799  0.24948780  1
  Fe  Fe167  1  0.00021156  0.33401107  0.00034467  1
  Fe  Fe168  1  0.75018116  0.49989366  0.37514232  1
  Fe  Fe169  1  0.00030673  0.16639265  0.25031709  1
  Fe  Fe170  1  0.75064247  0.50015618  0.12574527  1
  Fe  Fe171  1  0.50003120  0.49949728  0.00006671  1
  Fe  Fe172  1  0.24941254  0.49911227  0.12410645  1
  Fe  Fe173  1  0.24935704  0.83275786  0.87490768  1
  Fe  Fe174  1  0.75006001  0.00025770  0.37522446  1
  Fe  Fe175  1  -0.00001970  0.83319937  0.74944762  1
  Fe  Fe176  1  0.50011136  0.33400007  0.75082942  1
  Fe  Fe177  1  0.24944634  0.83293144  0.37446785  1
  Fe  Fe178  1  0.74970454  0.00037227  0.62471931  1
  Fe  Fe179  1  0.49988153  0.83354912  0.74995122  1
  Fe  Fe180  1  0.24967470  0.00047151  0.37409543  1
  Fe  Fe181  1  0.75030997  0.83391922  0.37576445  1
  Fe  Fe182  1  0.00060969  0.00047454  0.49952655  1
  Fe  Fe183  1  -0.00030169  0.66570756  -0.00005521  1
  Fe  Fe184  1  0.75071888  0.16693047  0.37513194  1
  Fe  Fe185  1  -0.00023207  0.33386900  0.49988742  1
  Fe  Fe186  1  0.00036003  0.66688377  0.50007133  1
  Fe  Fe187  1  0.24974413  0.33255532  0.12523719  1
  Fe  Fe188  1  0.75055819  0.66668959  0.37553735  1
  Fe  Fe189  1  0.75088221  0.33404341  0.12528389  1
  Fe  Fe190  1  0.75066185  0.50003613  0.87617610  1
  Fe  Fe191  1  -0.00010123  0.83221727  0.00080562  1
  P  P192  1  0.04166641  0.25118532  0.10269903  1
  P  P193  1  0.04213870  0.24854832  0.35283120  1
  P  P194  1  0.04142375  0.25101701  0.60128026  1
  P  P195  1  0.04207212  0.25203646  0.85240707  1
  P  P196  1  0.04092892  0.58291836  0.10200248  1
  P  P197  1  0.04111501  0.58383245  0.35138548  1
  P  P198  1  0.04249837  0.58476929  0.60254755  1
  P  P199  1  0.04221097  0.58164335  0.85308481  1
  P  P200  1  0.04187501  0.91502369  0.10306115  1
  P  P201  1  0.04176066  0.91783332  0.35313296  1
  P  P202  1  0.04158954  0.91688747  0.60103435  1
  P  P203  1  0.04162825  0.91451985  0.85258769  1
  P  P204  1  0.54263825  0.25049798  0.10221265  1
  P  P205  1  0.54331075  0.25013212  0.35340593  1
  P  P206  1  0.54240735  0.25193039  0.60311214  1
  P  P207  1  0.54198266  0.25165133  0.85341268  1
  P  P208  1  0.54208208  0.58175728  0.10242727  1
  P  P209  1  0.54246059  0.58333775  0.35400385  1
  P  P210  1  0.54291137  0.58503322  0.60301529  1
  P  P211  1  0.54246222  0.58287256  0.85431480  1
  P  P212  1  0.54129657  0.91688507  0.10158418  1
  P  P213  1  0.54214699  0.91753778  0.35215034  1
  P  P214  1  0.54333487  0.91636185  0.60342474  1
  P  P215  1  0.54179952  0.91526061  0.85324977  1
  P  P216  1  0.45765233  0.08145195  0.14682555  1
  P  P217  1  0.45741633  0.08304494  0.39612627  1
  P  P218  1  0.45647704  0.08400731  0.64684024  1
  P  P219  1  0.45720517  0.08211648  0.89740583  1
  P  P220  1  0.45754210  0.41638718  0.14581586  1
  P  P221  1  0.45753974  0.41523341  0.39803965  1
  P  P222  1  0.45821179  0.41551491  0.64741808  1
  P  P223  1  0.45837345  0.41618850  0.89847973  1
  P  P224  1  0.45660373  0.75015339  0.14614690  1
  P  P225  1  0.45751858  0.74850279  0.39742685  1
  P  P226  1  0.45778864  0.75100316  0.64738929  1
  P  P227  1  0.45727819  0.75162086  0.89756741  1
  P  P228  1  0.95857007  0.08301105  0.14891590  1
  P  P229  1  0.95963562  0.08342525  0.39760643  1
  P  P230  1  0.95793898  0.08373659  0.64525921  1
  P  P231  1  0.95672958  0.08333009  0.89663902  1
  P  P232  1  0.95852542  0.41816409  0.14706624  1
  P  P233  1  0.95807660  0.41587496  0.39724789  1
  P  P234  1  0.95895248  0.41731081  0.64835683  1
  P  P235  1  0.95899434  0.41662608  0.89810184  1
  P  P236  1  0.95725318  0.74842548  0.14740310  1
  P  P237  1  0.95905661  0.74971129  0.39833748  1
  P  P238  1  0.95786134  0.75142336  0.64698514  1
  P  P239  1  0.95875916  0.74950526  0.89862781  1
  P  P240  1  0.20793630  0.08449916  0.22802355  1
  P  P241  1  0.20846087  0.08424033  0.47569825  1
  P  P242  1  0.20597236  0.08356755  0.72776201  1
  P  P243  1  0.20618626  0.08397160  0.97866890  1
  P  P244  1  0.20820600  0.41626846  0.22607253  1
  P  P245  1  0.20757781  0.41820239  0.47713334  1
  P  P246  1  0.20890434  0.41658538  0.72596465  1
  P  P247  1  0.20818749  0.41498050  0.97809185  1
  P  P248  1  0.20717393  0.74814041  0.22751794  1
  P  P249  1  0.20731865  0.75055721  0.47659090  1
  P  P250  1  0.20677275  0.74981798  0.72792134  1
  P  P251  1  0.20756328  0.74992903  0.97749393  1
  P  P252  1  0.70769311  0.08340278  0.22942443  1
  P  P253  1  0.70881643  0.08354988  0.47664786  1
  P  P254  1  0.70753263  0.08256864  0.72756887  1
  P  P255  1  0.70768460  0.08525761  0.97752333  1
  P  P256  1  0.70901769  0.41713427  0.22719010  1
  P  P257  1  0.70805340  0.41822248  0.47775444  1
  P  P258  1  0.70823226  0.41717825  0.72933300  1
  P  P259  1  0.70884384  0.41800997  0.97882997  1
  P  P260  1  0.70740421  0.75012010  0.22999527  1
  P  P261  1  0.70907360  0.75048276  0.47678877  1
  P  P262  1  0.70793926  0.74936024  0.72919847  1
  P  P263  1  0.70793710  0.74853713  0.97822671  1
  P  P264  1  0.29106698  0.24995967  0.02326691  1
  P  P265  1  0.29197980  0.24891871  0.27130250  1
  P  P266  1  0.29175176  0.25133736  0.52165522  1
  P  P267  1  0.29175952  0.25185741  0.77212641  1
  P  P268  1  0.29084260  0.58300468  0.02316083  1
  P  P269  1  0.29166297  0.58123634  0.27099107  1
  P  P270  1  0.29207441  0.58178683  0.52161061  1
  P  P271  1  0.29318612  0.58226804  0.77106738  1
  P  P272  1  0.29184615  0.91602803  0.02141691  1
  P  P273  1  0.29084720  0.91613493  0.27314426  1
  P  P274  1  0.29197501  0.91702953  0.52003014  1
  P  P275  1  0.29154643  0.91539852  0.77263278  1
  P  P276  1  0.79261137  0.25162553  0.02283495  1
  P  P277  1  0.79303648  0.24949108  0.27261416  1
  P  P278  1  0.79300587  0.25010161  0.52132336  1
  P  P279  1  0.79283880  0.24872566  0.77270037  1
  P  P280  1  0.79223837  0.58225499  0.02293564  1
  P  P281  1  0.79167407  0.58280830  0.27393509  1
  P  P282  1  0.79343992  0.58372671  0.52127054  1
  P  P283  1  0.79255606  0.58348956  0.77470268  1
  P  P284  1  0.79312275  0.91669088  0.02231769  1
  P  P285  1  0.79198268  0.91667620  0.27421468  1
  P  P286  1  0.79170063  0.91837941  0.52174618  1
  P  P287  1  0.79303678  0.91725082  0.77145438  1
  O  O288  1  0.03656167  0.25049849  0.18260567  1
  O  O289  1  0.03704106  0.24848766  0.43270393  1
  O  O290  1  0.03634336  0.25152888  0.68124750  1
  O  O291  1  0.03680340  0.25213050  0.93236487  1
  O  O292  1  0.03606322  0.58338197  0.18188815  1
  O  O293  1  0.03638449  0.58390766  0.43136294  1
  O  O294  1  0.03738239  0.58434435  0.68242212  1
  O  O295  1  0.03679606  0.58150118  0.93293894  1
  O  O296  1  0.03652618  0.91572033  0.18300232  1
  O  O297  1  0.03672228  0.91805533  0.43300892  1
  O  O298  1  0.03645334  0.91608489  0.68097523  1
  O  O299  1  0.03611856  0.91426525  0.93252137  1
  O  O300  1  0.53777854  0.25000812  0.18221272  1
  O  O301  1  0.53831260  0.25067945  0.43342031  1
  O  O302  1  0.53699917  0.25196075  0.68308773  1
  O  O303  1  0.53649893  0.25132397  0.93334972  1
  O  O304  1  0.53719531  0.58185328  0.18245004  1
  O  O305  1  0.53737141  0.58402562  0.43398686  1
  O  O306  1  0.53778394  0.58481152  0.68302068  1
  O  O307  1  0.53677177  0.58215679  0.93420225  1
  O  O308  1  0.53600352  0.91746359  0.18156890  1
  O  O309  1  0.53750644  0.91703155  0.43213321  1
  O  O310  1  0.53809143  0.91595794  0.68338401  1
  O  O311  1  0.53615613  0.91559957  0.93316574  1
  O  O312  1  0.46298152  0.08140549  0.06685732  1
  O  O313  1  0.46282253  0.08232729  0.31615464  1
  O  O314  1  0.46166046  0.08422380  0.56685226  1
  O  O315  1  0.46217161  0.08263033  0.81744461  1
  O  O316  1  0.46271713  0.41659465  0.06587453  1
  O  O317  1  0.46250005  0.41552486  0.31803783  1
  O  O318  1  0.46365227  0.41550585  0.56751946  1
  O  O319  1  0.46355360  0.41588045  0.81848519  1
  O  O320  1  0.46177127  0.75075165  0.06620120  1
  O  O321  1  0.46237811  0.74890850  0.31740935  1
  O  O322  1  0.46325759  0.74990355  0.56743254  1
  O  O323  1  0.46251664  0.75188508  0.81760083  1
  O  O324  1  0.96294682  0.08315249  0.06888571  1
  O  O325  1  0.96455973  0.08357442  0.31767947  1
  O  O326  1  0.96392613  0.08391798  0.56539209  1
  O  O327  1  0.96197654  0.08353532  0.81669696  1
  O  O328  1  0.96362032  0.41837073  0.06718886  1
  O  O329  1  0.96319225  0.41631097  0.31736052  1
  O  O330  1  0.96380561  0.41722707  0.56839618  1
  O  O331  1  0.96412096  0.41650224  0.81818795  1
  O  O332  1  0.96259392  0.74876361  0.06755653  1
  O  O333  1  0.96358259  0.74941651  0.31837639  1
  O  O334  1  0.96334692  0.75106150  0.56715381  1
  O  O335  1  0.96350484  0.74949519  0.81868658  1
  O  O336  1  0.21166399  0.08434919  0.05862483  1
  O  O337  1  0.21364263  0.08450696  0.30789712  1
  O  O338  1  0.21280627  0.08398721  0.55574440  1
  O  O339  1  0.21076742  0.08346744  0.80777256  1
  O  O340  1  0.21338453  0.41508365  0.05796898  1
  O  O341  1  0.21286167  0.41696754  0.30607279  1
  O  O342  1  0.21319182  0.41806623  0.55697847  1
  O  O343  1  0.21369405  0.41615056  0.80595248  1
  O  O344  1  0.21274782  0.74911960  0.05746060  1
  O  O345  1  0.21273304  0.74859751  0.30741989  1
  O  O346  1  0.21232692  0.75031839  0.55655318  1
  O  O347  1  0.21210110  0.75021068  0.80789827  1
  O  O348  1  0.71267984  0.08499290  0.05751928  1
  O  O349  1  0.71315586  0.08338267  0.30932187  1
  O  O350  1  0.71364141  0.08266908  0.55665139  1
  O  O351  1  0.71280181  0.08363087  0.80749899  1
  O  O352  1  0.71414027  0.41760675  0.05871253  1
  O  O353  1  0.71416180  0.41745452  0.30716891  1
  O  O354  1  0.71323487  0.41777359  0.55771406  1
  O  O355  1  0.71342107  0.41747143  0.80930427  1
  O  O356  1  0.71265541  0.74878037  0.05827289  1
  O  O357  1  0.71288929  0.75049328  0.30987473  1
  O  O358  1  0.71374131  0.75034548  0.55682011  1
  O  O359  1  0.71335955  0.74868461  0.80913922  1
  O  O360  1  0.28635065  0.24898383  0.19143571  1
  O  O361  1  0.28675941  0.25070396  0.44169298  1
  O  O362  1  0.28664511  0.25217984  0.69215738  1
  O  O363  1  0.28599670  0.25048624  0.94327778  1
  O  O364  1  0.28598697  0.58189163  0.19113477  1
  O  O365  1  0.28709140  0.58164192  0.44159981  1
  O  O366  1  0.28797696  0.58201758  0.69111954  1
  O  O367  1  0.28645582  0.58269471  0.94313735  1
  O  O368  1  0.28619320  0.91639370  0.19313120  1
  O  O369  1  0.28653902  0.91673993  0.44011136  1
  O  O370  1  0.28673872  0.91591514  0.69256517  1
  O  O371  1  0.28622552  0.91554062  0.94154809  1
  O  O372  1  0.78759699  0.25036712  0.19268071  1
  O  O373  1  0.78787277  0.24998586  0.44135917  1
  O  O374  1  0.78788316  0.24900292  0.69269746  1
  O  O375  1  0.78751388  0.25104768  0.94289467  1
  O  O376  1  0.78671358  0.58268986  0.19396599  1
  O  O377  1  0.78821849  0.58351443  0.44138699  1
  O  O378  1  0.78796899  0.58375577  0.69463390  1
  O  O379  1  0.78704670  0.58257342  0.94305327  1
  O  O380  1  0.78741155  0.91666759  0.19416827  1
  O  O381  1  0.78598206  0.91806580  0.44182509  1
  O  O382  1  0.78744426  0.91775392  0.69150689  1
  O  O383  1  0.78837181  0.91662343  0.94231475  1
  O  O384  1  0.22692737  0.25005376  0.05931921  1
  O  O385  1  0.22788928  0.24877584  0.30753834  1
  O  O386  1  0.22743499  0.25210390  0.55725057  1
  O  O387  1  0.22741710  0.25213654  0.80769043  1
  O  O388  1  0.22657918  0.58356290  0.05866111  1
  O  O389  1  0.22754094  0.58120312  0.30726138  1
  O  O390  1  0.22774746  0.58143692  0.55711848  1
  O  O391  1  0.22883240  0.58236519  0.80631979  1
  O  O392  1  0.22765917  0.91633202  0.05706442  1
  O  O393  1  0.22664536  0.91571084  0.30875265  1
  O  O394  1  0.22770934  0.91694521  0.55570960  1
  O  O395  1  0.22709212  0.91488035  0.80780268  1
  O  O396  1  0.72833981  0.25224823  0.05849988  1
  O  O397  1  0.72885665  0.24903208  0.30848637  1
  O  O398  1  0.72871599  0.25025525  0.55669227  1
  O  O399  1  0.72847419  0.24902924  0.80811368  1
  O  O400  1  0.72808602  0.58154174  0.05903248  1
  O  O401  1  0.72755702  0.58252432  0.30987937  1
  O  O402  1  0.72914985  0.58351766  0.55683249  1
  O  O403  1  0.72825363  0.58361107  0.81021111  1
  O  O404  1  0.72853955  0.91692525  0.05700057  1
  O  O405  1  0.72763278  0.91632516  0.30954578  1
  O  O406  1  0.72771477  0.91870663  0.55824582  1
  O  O407  1  0.72886183  0.91677434  0.80714857  1
  O  O408  1  0.27194789  0.08471619  0.19162526  1
  O  O409  1  0.27266788  0.08440468  0.44008636  1
  O  O410  1  0.27049348  0.08389245  0.69295580  1
  O  O411  1  0.27040850  0.08359296  0.94312468  1
  O  O412  1  0.27235980  0.41549522  0.19035127  1
  O  O413  1  0.27167970  0.41834889  0.44082618  1
  O  O414  1  0.27306892  0.41638631  0.68998566  1
  O  O415  1  0.27236710  0.41460468  0.94204266  1
  O  O416  1  0.27134428  0.74746267  0.19157934  1
  O  O417  1  0.27165172  0.75066843  0.44118008  1
  O  O418  1  0.27109855  0.74940789  0.69260677  1
  O  O419  1  0.27177795  0.75081661  0.94163562  1
  O  O420  1  0.77194361  0.08369524  0.19376928  1
  O  O421  1  0.77298695  0.08388113  0.44068361  1
  O  O422  1  0.77180364  0.08159410  0.69176481  1
  O  O423  1  0.77211032  0.08543044  0.94225788  1
  O  O424  1  0.77318930  0.41718501  0.19114743  1
  O  O425  1  0.77242019  0.41852507  0.44233292  1
  O  O426  1  0.77264173  0.41686721  0.69412058  1
  O  O427  1  0.77295707  0.41800209  0.94268857  1
  O  O428  1  0.77162758  0.74985601  0.19427909  1
  O  O429  1  0.77330183  0.75095637  0.44119301  1
  O  O430  1  0.77221136  0.75020643  0.69371134  1
  O  O431  1  0.77238781  0.74815735  0.94306692  1
  O  O432  1  0.02287829  0.08273281  0.18436167  1
  O  O433  1  0.02366770  0.08296932  0.43394442  1
  O  O434  1  0.02186505  0.08363887  0.68169002  1
  O  O435  1  0.02102686  0.08321523  0.93201948  1
  O  O436  1  0.02268561  0.41805036  0.18298685  1
  O  O437  1  0.02232114  0.41548243  0.43301049  1
  O  O438  1  0.02318218  0.41736573  0.68428338  1
  O  O439  1  0.02304109  0.41657038  0.93451851  1
  O  O440  1  0.02146995  0.74836463  0.18342812  1
  O  O441  1  0.02321904  0.74938818  0.43416803  1
  O  O442  1  0.02199407  0.75131200  0.68322863  1
  O  O443  1  0.02282931  0.75002391  0.93470753  1
  O  O444  1  0.52192502  0.08095374  0.18266888  1
  O  O445  1  0.52170159  0.08372282  0.43163416  1
  O  O446  1  0.52090744  0.08396572  0.68186787  1
  O  O447  1  0.52155024  0.08212867  0.93280955  1
  O  O448  1  0.52184222  0.41646205  0.18133503  1
  O  O449  1  0.52196234  0.41523787  0.43333475  1
  O  O450  1  0.52239729  0.41515513  0.68346054  1
  O  O451  1  0.52252572  0.41621644  0.93452219  1
  O  O452  1  0.52096528  0.75027289  0.18140491  1
  O  O453  1  0.52198867  0.74778128  0.43274940  1
  O  O454  1  0.52200502  0.75187505  0.68339876  1
  O  O455  1  0.52152570  0.75119711  0.93331140  1
  O  O456  1  0.47818951  0.25065409  0.06705348  1
  O  O457  1  0.47890821  0.24947615  0.31827716  1
  O  O458  1  0.47813900  0.25213761  0.56723955  1
  O  O459  1  0.47776439  0.25233090  0.81743828  1
  O  O460  1  0.47769490  0.58195249  0.06719850  1
  O  O461  1  0.47808176  0.58297827  0.31870536  1
  O  O462  1  0.47855466  0.58498284  0.56746668  1
  O  O463  1  0.47834448  0.58315984  0.81848875  1
  O  O464  1  0.47714653  0.91671931  0.06551678  1
  O  O465  1  0.47764710  0.91817477  0.31697960  1
  O  O466  1  0.47894452  0.91612072  0.56823984  1
  O  O467  1  0.47776505  0.91490072  0.81673420  1
  O  O468  1  0.97746762  0.25198727  0.06683607  1
  O  O469  1  0.97803268  0.24898137  0.31680940  1
  O  O470  1  0.97740758  0.25067225  0.56502203  1
  O  O471  1  0.97784448  0.25234214  0.81656250  1
  O  O472  1  0.97689930  0.58216336  0.06575624  1
  O  O473  1  0.97691941  0.58419903  0.31550226  1
  O  O474  1  0.97825770  0.58501367  0.56670361  1
  O  O475  1  0.97813160  0.58151019  0.81683181  1
  O  O476  1  0.97767392  0.91422944  0.06710035  1
  O  O477  1  0.97756786  0.91782830  0.31721611  1
  O  O478  1  0.97754411  0.91767584  0.56484951  1
  O  O479  1  0.97751783  0.91464343  0.81640727  1
  O  O480  1  0.07264753  0.31477623  0.07455063  1
  O  O481  1  0.07373337  0.31197333  0.32495892  1
  O  O482  1  0.07216440  0.31465811  0.57273944  1
  O  O483  1  0.07329363  0.31513733  0.82348353  1
  O  O484  1  0.07103226  0.64686682  0.07292783  1
  O  O485  1  0.07246560  0.64699950  0.32289473  1
  O  O486  1  0.07319159  0.64832667  0.57389018  1
  O  O487  1  0.07331720  0.64533288  0.82527328  1
  O  O488  1  0.07266172  0.97867783  0.07476860  1
  O  O489  1  0.07265650  0.98108381  0.32389860  1
  O  O490  1  0.07304644  0.98042761  0.57343252  1
  O  O491  1  0.07262721  0.97843499  0.82508675  1
  O  O492  1  0.57324768  0.31416373  0.07392865  1
  O  O493  1  0.57425624  0.31353294  0.32483504  1
  O  O494  1  0.57356966  0.31511475  0.57440974  1
  O  O495  1  0.57346575  0.31477968  0.82512390  1
  O  O496  1  0.57330849  0.64545057  0.07495826  1
  O  O497  1  0.57363544  0.64637043  0.32496810  1
  O  O498  1  0.57348633  0.64860403  0.57446333  1
  O  O499  1  0.57357198  0.64665546  0.82691366  1
  O  O500  1  0.57237620  0.98021850  0.07285938  1
  O  O501  1  0.57309078  0.98092551  0.32378921  1
  O  O502  1  0.57395762  0.98021297  0.57536145  1
  O  O503  1  0.57284717  0.97901624  0.82535130  1
  O  O504  1  0.42625465  0.01840103  0.17551690  1
  O  O505  1  0.42636346  0.01978168  0.42477046  1
  O  O506  1  0.42537407  0.02045441  0.67469190  1
  O  O507  1  0.42664079  0.01840554  0.92566967  1
  O  O508  1  0.42654313  0.35278490  0.17404100  1
  O  O509  1  0.42695670  0.35156559  0.42630078  1
  O  O510  1  0.42688816  0.35254126  0.67626361  1
  O  O511  1  0.42731098  0.35281303  0.92707750  1
  O  O512  1  0.42590291  0.68630238  0.17397650  1
  O  O513  1  0.42643542  0.68523338  0.42595399  1
  O  O514  1  0.42682796  0.68752072  0.67587530  1
  O  O515  1  0.42604644  0.68776832  0.92490354  1
  O  O516  1  0.92773502  0.01935010  0.17725192  1
  O  O517  1  0.92823941  0.02005742  0.42586422  1
  O  O518  1  0.92652242  0.02034805  0.67332672  1
  O  O519  1  0.92570212  0.01981142  0.92468954  1
  O  O520  1  0.92717889  0.35471432  0.17502926  1
  O  O521  1  0.92729457  0.35227528  0.42569273  1
  O  O522  1  0.92800649  0.35374454  0.67667742  1
  O  O523  1  0.92800230  0.35312392  0.92677710  1
  O  O524  1  0.92646418  0.68490142  0.17613429  1
  O  O525  1  0.92780367  0.68649800  0.42693942  1
  O  O526  1  0.92650022  0.68809410  0.67549578  1
  O  O527  1  0.92873751  0.68519425  0.92694295  1
  O  O528  1  0.17678601  0.02075293  0.20039450  1
  O  O529  1  0.17809153  0.02039834  0.44709678  1
  O  O530  1  0.17528709  0.02002578  0.69932628  1
  O  O531  1  0.17486024  0.02043085  0.95098023  1
  O  O532  1  0.17693313  0.35264989  0.19850718  1
  O  O533  1  0.17652250  0.35455928  0.44907960  1
  O  O534  1  0.17774051  0.35335795  0.69719738  1
  O  O535  1  0.17717773  0.35176867  0.94916479  1
  O  O536  1  0.17615972  0.68474317  0.19902983  1
  O  O537  1  0.17632377  0.68687464  0.44893466  1
  O  O538  1  0.17566563  0.68618811  0.70002132  1
  O  O539  1  0.17680803  0.68630707  0.94922548  1
  O  O540  1  0.67670857  0.01996528  0.20078111  1
  O  O541  1  0.67790427  0.02013992  0.44792176  1
  O  O542  1  0.67646793  0.01905524  0.69956069  1
  O  O543  1  0.67669731  0.02159259  0.94976195  1
  O  O544  1  0.67861494  0.35308858  0.19923196  1
  O  O545  1  0.67716508  0.35462789  0.44967643  1
  O  O546  1  0.67723380  0.35359940  0.70123571  1
  O  O547  1  0.67743686  0.35469437  0.95056266  1
  O  O548  1  0.67609242  0.68666828  0.20190208  1
  O  O549  1  0.67895922  0.68645385  0.44842577  1
  O  O550  1  0.67704050  0.68601935  0.70050352  1
  O  O551  1  0.67717916  0.68496878  0.94999100  1
  O  O552  1  0.32233251  0.31315669  0.05180988  1
  O  O553  1  0.32301513  0.31263923  0.29918815  1
  O  O554  1  0.32265746  0.31490446  0.54985123  1
  O  O555  1  0.32289682  0.31483368  0.80129958  1
  O  O556  1  0.32199299  0.64644050  0.05119097  1
  O  O557  1  0.32304937  0.64453691  0.29941731  1
  O  O558  1  0.32264833  0.64578094  0.54937150  1
  O  O559  1  0.32413525  0.64586240  0.79921393  1
  O  O560  1  0.32297844  0.97967449  0.04913483  1
  O  O561  1  0.32110186  0.98016273  0.30134423  1
  O  O562  1  0.32296801  0.98053186  0.54847101  1
  O  O563  1  0.32226005  0.97918532  0.80055818  1
  O  O564  1  0.82342680  0.31519283  0.05122670  1
  O  O565  1  0.82427778  0.31295839  0.30054820  1
  O  O566  1  0.82400888  0.31363527  0.54956521  1
  O  O567  1  0.82416230  0.31214772  0.80056784  1
  O  O568  1  0.82293269  0.64593423  0.05135010  1
  O  O569  1  0.82189064  0.64692567  0.30216550  1
  O  O570  1  0.82434565  0.64725632  0.54977490  1
  O  O571  1  0.82344507  0.64700593  0.80309677  1
  O  O572  1  0.82407893  0.98024182  0.05043435  1
  O  O573  1  0.82232999  0.98060082  0.30244110  1
  O  O574  1  0.82286211  0.98172001  0.55006145  1
  O  O575  1  0.82426195  0.98046717  0.79983746  1
  O  O576  1  0.42719079  0.14556946  0.17438731  1
  O  O577  1  0.42614870  0.14664314  0.42371603  1
  O  O578  1  0.42545404  0.14743912  0.67507453  1
  O  O579  1  0.42596011  0.14564585  0.92525244  1
  O  O580  1  0.42622524  0.47949021  0.17463989  1
  O  O581  1  0.42650572  0.47879575  0.42594386  1
  O  O582  1  0.42765074  0.47964760  0.67492587  1
  O  O583  1  0.42771866  0.48017188  0.92625280  1
  O  O584  1  0.42518326  0.81320941  0.17479733  1
  O  O585  1  0.42709998  0.81251201  0.42518959  1
  O  O586  1  0.42677209  0.81464924  0.67517467  1
  O  O587  1  0.42654427  0.81484276  0.92656291  1
  O  O588  1  0.92823033  0.14691594  0.17726786  1
  O  O589  1  0.92913325  0.14720317  0.42619965  1
  O  O590  1  0.92655902  0.14710949  0.67337974  1
  O  O591  1  0.92583141  0.14683688  0.92492265  1
  O  O592  1  0.92787461  0.48156114  0.17635027  1
  O  O593  1  0.92713037  0.47935917  0.42549655  1
  O  O594  1  0.92835765  0.48109983  0.67667518  1
  O  O595  1  0.92804190  0.48020090  0.92641592  1
  O  O596  1  0.92599715  0.81173713  0.17594103  1
  O  O597  1  0.92891845  0.81393968  0.42642993  1
  O  O598  1  0.92720587  0.81502952  0.67559118  1
  O  O599  1  0.92716100  0.81252770  0.92698046  1
  O  O600  1  0.07241972  0.18757598  0.07443060  1
  O  O601  1  0.07258004  0.18505419  0.32360697  1
  O  O602  1  0.07241500  0.18724957  0.57356185  1
  O  O603  1  0.07277229  0.18809826  0.82471151  1
  O  O604  1  0.07267419  0.51980835  0.07381965  1
  O  O605  1  0.07113022  0.51958439  0.32308986  1
  O  O606  1  0.07351794  0.52127302  0.57432243  1
  O  O607  1  0.07332612  0.51842871  0.82413459  1
  O  O608  1  0.07297198  0.85148498  0.07512105  1
  O  O609  1  0.07282947  0.85416219  0.32530006  1
  O  O610  1  0.07195008  0.85314333  0.57219459  1
  O  O611  1  0.07251437  0.85127311  0.82372127  1
  O  O612  1  0.57365145  0.18690852  0.07433279  1
  O  O613  1  0.57447905  0.18669101  0.32535179  1
  O  O614  1  0.57317222  0.18799906  0.57541653  1
  O  O615  1  0.57243374  0.18762001  0.82551460  1
  O  O616  1  0.57265593  0.51824041  0.07380273  1
  O  O617  1  0.57335531  0.51952026  0.32633076  1
  O  O618  1  0.57395871  0.52128168  0.57553590  1
  O  O619  1  0.57384716  0.51979804  0.82576705  1
  O  O620  1  0.57206047  0.85287820  0.07403110  1
  O  O621  1  0.57259239  0.85366685  0.32407029  1
  O  O622  1  0.57487888  0.85336855  0.57484231  1
  O  O623  1  0.57295855  0.85194509  0.82484318  1
  O  O624  1  0.32159158  0.18585873  0.05101129  1
  O  O625  1  0.32316788  0.18572632  0.30011105  1
  O  O626  1  0.32256400  0.18783812  0.55023662  1
  O  O627  1  0.32235570  0.18780857  0.79989577  1
  O  O628  1  0.32096182  0.51887942  0.05146498  1
  O  O629  1  0.32254943  0.51764931  0.29932915  1
  O  O630  1  0.32329153  0.51869422  0.55047857  1
  O  O631  1  0.32440416  0.51909066  0.79978895  1
  O  O632  1  0.32313270  0.85289342  0.05002641  1
  O  O633  1  0.32198956  0.85248701  0.30090350  1
  O  O634  1  0.32333227  0.85376434  0.54863046  1
  O  O635  1  0.32228399  0.85183692  0.80104395  1
  O  O636  1  0.82367092  0.18813145  0.05109598  1
  O  O637  1  0.82381319  0.18583151  0.30086888  1
  O  O638  1  0.82414468  0.18670206  0.54946155  1
  O  O639  1  0.82308960  0.18488882  0.80111039  1
  O  O640  1  0.82351411  0.51904417  0.05167830  1
  O  O641  1  0.82304590  0.51948140  0.30204424  1
  O  O642  1  0.82479901  0.52056760  0.55015918  1
  O  O643  1  0.82300818  0.51949552  0.80268842  1
  O  O644  1  0.82382743  0.85312108  0.05072563  1
  O  O645  1  0.82313632  0.85323176  0.30251323  1
  O  O646  1  0.82276272  0.85464349  0.54962174  1
  O  O647  1  0.82430616  0.85366870  0.79929083  1
  O  O648  1  0.17680513  0.14778319  0.19926402  1
  O  O649  1  0.17759680  0.14796834  0.44780250  1
  O  O650  1  0.17495959  0.14711850  0.69960438  1
  O  O651  1  0.17504251  0.14727579  0.95016073  1
  O  O652  1  0.17785139  0.47997661  0.19704242  1
  O  O653  1  0.17641179  0.48138650  0.44816471  1
  O  O654  1  0.17843293  0.48061650  0.69797009  1
  O  O655  1  0.17736340  0.47873216  0.94989065  1
  O  O656  1  0.17616636  0.81185907  0.19977038  1
  O  O657  1  0.17660216  0.81409516  0.44809815  1
  O  O658  1  0.17563111  0.81304955  0.69929788  1
  O  O659  1  0.17658177  0.81352499  0.94938209  1
  O  O660  1  0.67622201  0.14664892  0.20107348  1
  O  O661  1  0.67818065  0.14760894  0.44906150  1
  O  O662  1  0.67676750  0.14617809  0.69900376  1
  O  O663  1  0.67719581  0.14892596  0.94894114  1
  O  O664  1  0.67786984  0.48053526  0.19883138  1
  O  O665  1  0.67718982  0.48170884  0.44938873  1
  O  O666  1  0.67713959  0.48054233  0.70090645  1
  O  O667  1  0.67807554  0.48154792  0.95014740  1
  O  O668  1  0.67627286  0.81335726  0.20099223  1
  O  O669  1  0.67772032  0.81393916  0.44894816  1
  O  O670  1  0.67654857  0.81281814  0.70130722  1
  O  O671  1  0.67723426  0.81229040  0.95017339  1
