# generated using pymatgen
data_Na2MnFe(PO4)2
_symmetry_space_group_name_H-M   'P 1'
_cell_length_a   22.34716296
_cell_length_b   20.09614091
_cell_length_c   19.44741248
_cell_angle_alpha   89.98765431
_cell_angle_beta   89.97031433
_cell_angle_gamma   89.95609929
_symmetry_Int_Tables_number   1
_chemical_formula_structural   Na2MnFe(PO4)2
_chemical_formula_sum   'Na96 Mn48 Fe48 P96 O384'
_cell_volume   8733.66828852
_cell_formula_units_Z   48
loop_
 _symmetry_equiv_pos_site_id
 _symmetry_equiv_pos_as_xyz
  1  'x, y, z'
loop_
 _atom_site_type_symbol
 _atom_site_label
 _atom_site_symmetry_multiplicity
 _atom_site_fract_x
 _atom_site_fract_y
 _atom_site_fract_z
 _atom_site_occupancy
  Na  Na0  1  0.14013006  0.25119995  0.24246594  1
  Na  Na1  1  0.14064251  0.24996501  0.49257173  1
  Na  Na2  1  0.14071088  0.24878988  0.74345888  1
  Na  Na3  1  0.14068830  0.25073445  0.99337477  1
  Na  Na4  1  0.13985414  0.58260972  0.24252372  1
  Na  Na5  1  0.14006501  0.58323923  0.49314107  1
  Na  Na6  1  0.14006193  0.58253540  0.74371944  1
  Na  Na7  1  0.13961891  0.58211155  0.99226794  1
  Na  Na8  1  0.14025393  0.91919963  0.24433393  1
  Na  Na9  1  0.14033920  0.91937881  0.49380180  1
  Na  Na10  1  0.14071886  0.91881083  0.74336051  1
  Na  Na11  1  0.14059023  0.91844663  0.99412308  1
  Na  Na12  1  0.64043464  0.24817050  0.24384488  1
  Na  Na13  1  0.64081253  0.24936372  0.49424494  1
  Na  Na14  1  0.64109986  0.24925288  0.74459868  1
  Na  Na15  1  0.64050829  0.24845936  0.99428629  1
  Na  Na16  1  0.63972273  0.58314072  0.24182272  1
  Na  Na17  1  0.64043160  0.58352907  0.49325987  1
  Na  Na18  1  0.64059299  0.58287779  0.74474055  1
  Na  Na19  1  0.63966589  0.58352765  0.99453808  1
  Na  Na20  1  0.64104523  0.91590635  0.24443245  1
  Na  Na21  1  0.64070475  0.91800745  0.49432579  1
  Na  Na22  1  0.64009290  0.91682244  0.74442813  1
  Na  Na23  1  0.64110375  0.91532606  0.99393974  1
  Na  Na24  1  0.35991739  0.08507178  0.00634526  1
  Na  Na25  1  0.35961911  0.08539030  0.25729066  1
  Na  Na26  1  0.35928828  0.08482353  0.50600022  1
  Na  Na27  1  0.35941299  0.08448541  0.75712946  1
  Na  Na28  1  0.35888643  0.41621128  0.00679371  1
  Na  Na29  1  0.35886934  0.41618747  0.25561489  1
  Na  Na30  1  0.35886538  0.41585259  0.50454756  1
  Na  Na31  1  0.35887139  0.41529542  0.75629010  1
  Na  Na32  1  0.35916281  0.74893962  0.00647039  1
  Na  Na33  1  0.35915726  0.74966028  0.25651328  1
  Na  Na34  1  0.35926645  0.75105467  0.50582648  1
  Na  Na35  1  0.35935162  0.75080409  0.75690725  1
  Na  Na36  1  0.85996601  0.08263416  0.00593578  1
  Na  Na37  1  0.86031766  0.08221331  0.25860879  1
  Na  Na38  1  0.86078140  0.08405676  0.50660960  1
  Na  Na39  1  0.86046936  0.08286443  0.75666190  1
  Na  Na40  1  0.86031628  0.41645700  0.00703531  1
  Na  Na41  1  0.85957958  0.41460115  0.25501422  1
  Na  Na42  1  0.85907793  0.41637090  0.50559591  1
  Na  Na43  1  0.85939912  0.41659329  0.75592074  1
  Na  Na44  1  0.85974399  0.74884407  0.00654292  1
  Na  Na45  1  0.85966969  0.74992387  0.25620598  1
  Na  Na46  1  0.85946925  0.75053219  0.50630716  1
  Na  Na47  1  0.85968841  0.74979899  0.75629272  1
  Na  Na48  1  0.10999942  0.08510623  0.11951793  1
  Na  Na49  1  0.11013478  0.08459691  0.36801498  1
  Na  Na50  1  0.11054052  0.08365053  0.61817844  1
  Na  Na51  1  0.11041367  0.08361940  0.86750803  1
  Na  Na52  1  0.10966918  0.41710768  0.11675801  1
  Na  Na53  1  0.10975840  0.41679183  0.36679035  1
  Na  Na54  1  0.10974581  0.41614552  0.61778108  1
  Na  Na55  1  0.10990651  0.41632924  0.86833434  1
  Na  Na56  1  0.10932766  0.74930013  0.11887803  1
  Na  Na57  1  0.10891110  0.75077852  0.36918771  1
  Na  Na58  1  0.10923669  0.75071893  0.61923259  1
  Na  Na59  1  0.10944804  0.75005528  0.86893152  1
  Na  Na60  1  0.61002322  0.08255801  0.12029646  1
  Na  Na61  1  0.61038146  0.08310510  0.36858295  1
  Na  Na62  1  0.61052050  0.08209169  0.61964578  1
  Na  Na63  1  0.61042762  0.08247531  0.86882745  1
  Na  Na64  1  0.60913630  0.41638080  0.11852667  1
  Na  Na65  1  0.60949608  0.41662013  0.36840142  1
  Na  Na66  1  0.61016334  0.41658317  0.61870997  1
  Na  Na67  1  0.60941658  0.41697632  0.86987069  1
  Na  Na68  1  0.60988193  0.74850118  0.11879731  1
  Na  Na69  1  0.60965500  0.75018407  0.36730606  1
  Na  Na70  1  0.60939803  0.75097965  0.61957857  1
  Na  Na71  1  0.60949440  0.74958889  0.86983394  1
  Na  Na72  1  0.38976462  0.24966674  0.13191001  1
  Na  Na73  1  0.38934195  0.24981467  0.38091548  1
  Na  Na74  1  0.38950650  0.24946722  0.63186743  1
  Na  Na75  1  0.38988222  0.25061006  0.88241133  1
  Na  Na76  1  0.38947205  0.58251608  0.13099222  1
  Na  Na77  1  0.38981513  0.58310148  0.37963534  1
  Na  Na78  1  0.39009086  0.58395489  0.63085622  1
  Na  Na79  1  0.39004631  0.58285674  0.88174198  1
  Na  Na80  1  0.39065932  0.91695714  0.13139853  1
  Na  Na81  1  0.39024376  0.91784187  0.38073825  1
  Na  Na82  1  0.38998200  0.91748163  0.63197254  1
  Na  Na83  1  0.39027733  0.91719019  0.88116114  1
  Na  Na84  1  0.89067149  0.24972010  0.13184634  1
  Na  Na85  1  0.89064603  0.24898844  0.38102920  1
  Na  Na86  1  0.89068636  0.24865794  0.63125871  1
  Na  Na87  1  0.89047501  0.24952804  0.88109096  1
  Na  Na88  1  0.89043256  0.58265317  0.13072942  1
  Na  Na89  1  0.89012549  0.58362803  0.38012647  1
  Na  Na90  1  0.89011366  0.58339471  0.63073760  1
  Na  Na91  1  0.89069009  0.58334018  0.88165090  1
  Na  Na92  1  0.89056697  0.91601950  0.13247503  1
  Na  Na93  1  0.89034837  0.91751003  0.38268199  1
  Na  Na94  1  0.89062651  0.91765487  0.63147031  1
  Na  Na95  1  0.89086494  0.91655657  0.88125101  1
  Mn  Mn96  1  0.49980989  0.00004989  0.50021413  1
  Mn  Mn97  1  0.50002495  0.83376919  0.49957105  1
  Mn  Mn98  1  0.24947977  0.83466849  0.87537927  1
  Mn  Mn99  1  0.50087159  0.00046520  0.00068554  1
  Mn  Mn100  1  0.50097428  0.16613623  0.75083422  1
  Mn  Mn101  1  0.00079602  0.83300220  0.00083507  1
  Mn  Mn102  1  0.24928038  0.66580505  0.87548255  1
  Mn  Mn103  1  0.75022214  0.16592679  0.62527130  1
  Mn  Mn104  1  0.24985919  0.66638441  0.62513915  1
  Mn  Mn105  1  0.49973641  0.33291168  0.49953127  1
  Mn  Mn106  1  0.74918951  0.66644273  0.62477375  1
  Mn  Mn107  1  0.24938618  0.83518813  0.37575278  1
  Mn  Mn108  1  0.50010582  0.33346940  0.75093844  1
  Mn  Mn109  1  0.74905295  0.33183026  0.37579542  1
  Mn  Mn110  1  0.25093788  0.00239827  0.12459328  1
  Mn  Mn111  1  0.75017103  0.66722684  0.37463398  1
  Mn  Mn112  1  -0.00045843  0.16717732  0.00000674  1
  Mn  Mn113  1  0.50004948  0.33287745  0.24954468  1
  Mn  Mn114  1  0.25008754  0.83447176  0.12507687  1
  Mn  Mn115  1  0.24891648  0.66565815  0.12546094  1
  Mn  Mn116  1  0.74976778  0.50022696  0.87595257  1
  Mn  Mn117  1  0.49996349  0.50027196  0.49950734  1
  Mn  Mn118  1  0.25017979  0.49841425  0.62427369  1
  Mn  Mn119  1  -0.00007292  0.50012017  0.24906943  1
  Mn  Mn120  1  0.50014913  0.83254521  0.00105006  1
  Mn  Mn121  1  0.75013572  0.16589745  0.12538490  1
  Mn  Mn122  1  -0.00013299  0.83317354  0.25089152  1
  Mn  Mn123  1  0.00042570  0.00058350  0.00077899  1
  Mn  Mn124  1  -0.00032095  0.50061619  0.74931319  1
  Mn  Mn125  1  -0.00006386  0.83332255  0.75023183  1
  Mn  Mn126  1  0.75046554  -0.00121390  0.12582248  1
  Mn  Mn127  1  -0.00024458  0.50094578  0.49851998  1
  Mn  Mn128  1  0.74984157  0.33263554  0.87495870  1
  Mn  Mn129  1  -0.00033956  0.33248827  0.49877333  1
  Mn  Mn130  1  0.49980661  0.66701137  0.49976261  1
  Mn  Mn131  1  -0.00008646  0.83374948  0.50034295  1
  Mn  Mn132  1  0.49954590  0.83301206  0.24962004  1
  Mn  Mn133  1  0.24951977  0.83510272  0.62563942  1
  Mn  Mn134  1  -0.00031681  0.33251816  0.74897676  1
  Mn  Mn135  1  0.50041799  0.66745637  0.75063688  1
  Mn  Mn136  1  0.49986605  0.50031333  0.75015677  1
  Mn  Mn137  1  0.74932486  0.49913373  0.37427683  1
  Mn  Mn138  1  0.50006217  0.16613968  0.50063159  1
  Mn  Mn139  1  0.75026044  0.83284905  0.87503572  1
  Mn  Mn140  1  0.49997911  0.33306350  0.00107120  1
  Mn  Mn141  1  0.74996784  0.83456856  0.62590169  1
  Mn  Mn142  1  0.74975373  0.49917387  0.12477735  1
  Mn  Mn143  1  0.24886000  0.66627090  0.37499179  1
  Fe  Fe144  1  0.75084850  -0.00063884  0.87541208  1
  Fe  Fe145  1  0.75005750  0.49996684  0.62512555  1
  Fe  Fe146  1  0.74982394  0.83335881  0.37506859  1
  Fe  Fe147  1  0.00049098  0.16618387  0.74988184  1
  Fe  Fe148  1  -0.00010595  0.33338321  0.24890827  1
  Fe  Fe149  1  0.24956542  0.16780204  0.12478022  1
  Fe  Fe150  1  0.25042742  0.00172101  0.87459952  1
  Fe  Fe151  1  0.75088937  0.16611078  0.37569443  1
  Fe  Fe152  1  0.00015095  0.00046638  0.25102714  1
  Fe  Fe153  1  0.24935236  0.49900032  0.12428850  1
  Fe  Fe154  1  0.75082445  0.16586305  0.87487672  1
  Fe  Fe155  1  -0.00003757  0.66703258  0.49981004  1
  Fe  Fe156  1  0.25032432  0.16730580  0.62479292  1
  Fe  Fe157  1  0.24963014  0.33355027  0.12482261  1
  Fe  Fe158  1  0.00027471  0.00096971  0.50080467  1
  Fe  Fe159  1  0.00014967  0.66636573  0.24922304  1
  Fe  Fe160  1  -0.00007491  0.66644501  -0.00035593  1
  Fe  Fe161  1  -0.00007141  0.49988571  -0.00049348  1
  Fe  Fe162  1  0.75055973  0.00052215  0.62506220  1
  Fe  Fe163  1  0.50003292  0.00027552  0.25005613  1
  Fe  Fe164  1  0.00087526  0.16621575  0.49944944  1
  Fe  Fe165  1  0.49953759  0.50017088  0.24926331  1
  Fe  Fe166  1  0.49918691  0.66618327  0.24915210  1
  Fe  Fe167  1  0.24991818  0.49886003  0.87435357  1
  Fe  Fe168  1  -0.00000754  0.16689995  0.25001363  1
  Fe  Fe169  1  0.00072159  0.00025143  0.74998107  1
  Fe  Fe170  1  0.75006209  0.66643170  0.87510480  1
  Fe  Fe171  1  0.24999628  0.33295527  0.87521769  1
  Fe  Fe172  1  0.49937247  0.50022717  0.00030138  1
  Fe  Fe173  1  0.24960124  0.49920739  0.37446085  1
  Fe  Fe174  1  0.50021198  0.16611360  0.00063702  1
  Fe  Fe175  1  0.49922025  0.66613797  0.00003809  1
  Fe  Fe176  1  0.75084828  0.83279654  0.12495726  1
  Fe  Fe177  1  0.25016987  0.16745609  0.87468499  1
  Fe  Fe178  1  0.49951780  0.83341920  0.75056939  1
  Fe  Fe179  1  0.50002914  0.16633553  0.25033787  1
  Fe  Fe180  1  0.75000615  0.33189438  0.12505243  1
  Fe  Fe181  1  0.00001782  0.66668221  0.74997905  1
  Fe  Fe182  1  0.75016752  0.66648771  0.12490206  1
  Fe  Fe183  1  0.75026220  0.33289939  0.62506404  1
  Fe  Fe184  1  0.75068000  -0.00048316  0.37563475  1
  Fe  Fe185  1  0.49974578  -0.00023731  0.75066733  1
  Fe  Fe186  1  0.24996005  0.16809062  0.37529090  1
  Fe  Fe187  1  0.24931012  0.33266961  0.62488065  1
  Fe  Fe188  1  0.00047927  0.33316536  -0.00055310  1
  Fe  Fe189  1  0.25063139  0.00187698  0.62445661  1
  Fe  Fe190  1  0.24913486  0.33333171  0.37420829  1
  Fe  Fe191  1  0.25031077  0.00188986  0.37461525  1
  P  P192  1  0.04197825  0.25149517  0.10272195  1
  P  P193  1  0.04137392  0.25014929  0.35095678  1
  P  P194  1  0.04223459  0.24814654  0.60189027  1
  P  P195  1  0.04228017  0.24903735  0.85220236  1
  P  P196  1  0.04133948  0.58337057  0.10113340  1
  P  P197  1  0.04211266  0.58503126  0.35198491  1
  P  P198  1  0.04220817  0.58494178  0.60216583  1
  P  P199  1  0.04194125  0.58444254  0.85288374  1
  P  P200  1  0.04299974  0.91725171  0.10444108  1
  P  P201  1  0.04196299  0.91858493  0.35349129  1
  P  P202  1  0.04203961  0.91847333  0.60310618  1
  P  P203  1  0.04272300  0.91776099  0.85243377  1
  P  P204  1  0.54208362  0.24760817  0.10342947  1
  P  P205  1  0.54226920  0.24867047  0.35233875  1
  P  P206  1  0.54310465  0.24976779  0.60353399  1
  P  P207  1  0.54315499  0.24968281  0.85450628  1
  P  P208  1  0.54065028  0.58308800  0.10221989  1
  P  P209  1  0.54155013  0.58344632  0.35061036  1
  P  P210  1  0.54304398  0.58384805  0.60300417  1
  P  P211  1  0.54251975  0.58341421  0.85444038  1
  P  P212  1  0.54318392  0.91678458  0.10398296  1
  P  P213  1  0.54235608  0.91784036  0.35203293  1
  P  P214  1  0.54251655  0.91659684  0.60426449  1
  P  P215  1  0.54145799  0.91624504  0.85219791  1
  P  P216  1  0.45841568  0.08354919  0.14847006  1
  P  P217  1  0.45743100  0.08355566  0.39608687  1
  P  P218  1  0.45778911  0.08213636  0.64842441  1
  P  P219  1  0.45827007  0.08409689  0.89775538  1
  P  P220  1  0.45773934  0.41778140  0.14706998  1
  P  P221  1  0.45723815  0.41691507  0.39566104  1
  P  P222  1  0.45686869  0.41653420  0.64696437  1
  P  P223  1  0.45746397  0.41761057  0.89843300  1
  P  P224  1  0.45710689  0.74813404  0.14695329  1
  P  P225  1  0.45688034  0.74983814  0.39596402  1
  P  P226  1  0.45706429  0.75163476  0.64788541  1
  P  P227  1  0.45746987  0.74929348  0.89773436  1
  P  P228  1  0.95863734  0.08340757  0.14919883  1
  P  P229  1  0.95936398  0.08342753  0.39784525  1
  P  P230  1  0.95932518  0.08333405  0.64788117  1
  P  P231  1  0.95805939  0.08328484  0.89621578  1
  P  P232  1  0.95820293  0.41555787  0.14602630  1
  P  P233  1  0.95726364  0.41639732  0.39544971  1
  P  P234  1  0.95710818  0.41655821  0.64613090  1
  P  P235  1  0.95876959  0.41626268  0.89804685  1
  P  P236  1  0.95805371  0.74844682  0.14723478  1
  P  P237  1  0.95747938  0.74907146  0.39739642  1
  P  P238  1  0.95766471  0.74873684  0.64735846  1
  P  P239  1  0.95799664  0.74896046  0.89746897  1
  P  P240  1  0.20827093  0.08611603  0.22811877  1
  P  P241  1  0.20897985  0.08448364  0.47684900  1
  P  P242  1  0.20924820  0.08422025  0.72685996  1
  P  P243  1  0.20875203  0.08492069  0.97646743  1
  P  P244  1  0.20807083  0.41657613  0.22651846  1
  P  P245  1  0.20769947  0.41586027  0.47608954  1
  P  P246  1  0.20744780  0.41446311  0.72775402  1
  P  P247  1  0.20846913  0.41625525  0.97666918  1
  P  P248  1  0.20684222  0.75066826  0.22831234  1
  P  P249  1  0.20667719  0.75085253  0.47842117  1
  P  P250  1  0.20698748  0.75037734  0.72847713  1
  P  P251  1  0.20673514  0.75033341  0.97838400  1
  P  P252  1  0.70825458  0.08226588  0.22959781  1
  P  P253  1  0.70909738  0.08306224  0.47713560  1
  P  P254  1  0.70854369  0.08169386  0.72870475  1
  P  P255  1  0.70919516  0.08242622  0.97682921  1
  P  P256  1  0.70733106  0.41409861  0.22706875  1
  P  P257  1  0.70692192  0.41635163  0.47903464  1
  P  P258  1  0.70885684  0.41635984  0.72669857  1
  P  P259  1  0.70735012  0.41562290  0.97887628  1
  P  P260  1  0.70874684  0.75034379  0.22667832  1
  P  P261  1  0.70729223  0.75171419  0.47734924  1
  P  P262  1  0.70723403  0.74993900  0.72878758  1
  P  P263  1  0.70821699  0.74828174  0.97827654  1
  P  P264  1  0.29125034  0.25061192  0.02300199  1
  P  P265  1  0.29083527  0.25070491  0.27257784  1
  P  P266  1  0.29113511  0.25057984  0.52266214  1
  P  P267  1  0.29154414  0.25031510  0.77303473  1
  P  P268  1  0.29107527  0.58116013  0.02209629  1
  P  P269  1  0.29103403  0.58116630  0.27189339  1
  P  P270  1  0.29232191  0.58249350  0.52110862  1
  P  P271  1  0.29203258  0.58140711  0.77260716  1
  P  P272  1  0.29303059  0.91837636  0.02136484  1
  P  P273  1  0.29225307  0.91921663  0.27261494  1
  P  P274  1  0.29215033  0.91948760  0.52227387  1
  P  P275  1  0.29191597  0.91930010  0.77231181  1
  P  P276  1  0.79265445  0.24990996  0.02228145  1
  P  P277  1  0.79232045  0.24827971  0.27263834  1
  P  P278  1  0.79242129  0.25023143  0.52269821  1
  P  P279  1  0.79245308  0.24848578  0.77223039  1
  P  P280  1  0.79194436  0.58430927  0.02236263  1
  P  P281  1  0.79207359  0.58319290  0.27093062  1
  P  P282  1  0.79197441  0.58220548  0.52230263  1
  P  P283  1  0.79216715  0.58382351  0.77244051  1
  P  P284  1  0.79293935  0.91507285  0.02258038  1
  P  P285  1  0.79211780  0.91582826  0.27365279  1
  P  P286  1  0.79238006  0.91858625  0.52215336  1
  P  P287  1  0.79271616  0.91797548  0.77251702  1
  O  O288  1  0.03662035  0.25156763  0.18256658  1
  O  O289  1  0.03682579  0.24958262  0.43092318  1
  O  O290  1  0.03697747  0.24788902  0.68181261  1
  O  O291  1  0.03702224  0.24987226  0.93214645  1
  O  O292  1  0.03671133  0.58302160  0.18114202  1
  O  O293  1  0.03690730  0.58510002  0.43193266  1
  O  O294  1  0.03695633  0.58468229  0.68215939  1
  O  O295  1  0.03628434  0.58395007  0.93276914  1
  O  O296  1  0.03744749  0.91756301  0.18439757  1
  O  O297  1  0.03653454  0.91873869  0.43346536  1
  O  O298  1  0.03671018  0.91854493  0.68307086  1
  O  O299  1  0.03812134  0.91749655  0.93247383  1
  O  O300  1  0.53654080  0.24734568  0.18337820  1
  O  O301  1  0.53739957  0.24903503  0.43234870  1
  O  O302  1  0.53840349  0.24985374  0.68358065  1
  O  O303  1  0.53788971  0.24921515  0.93449416  1
  O  O304  1  0.53551744  0.58292852  0.18215390  1
  O  O305  1  0.53703460  0.58354972  0.43065904  1
  O  O306  1  0.53823328  0.58387330  0.68301255  1
  O  O307  1  0.53691557  0.58324509  0.93437224  1
  O  O308  1  0.53770918  0.91727548  0.18386406  1
  O  O309  1  0.53721045  0.91744449  0.43202835  1
  O  O310  1  0.53727538  0.91656289  0.68421737  1
  O  O311  1  0.53688333  0.91640874  0.93223340  1
  O  O312  1  0.46368125  0.08412567  0.06847484  1
  O  O313  1  0.46265729  0.08377991  0.31613697  1
  O  O314  1  0.46231468  0.08243441  0.56838123  1
  O  O315  1  0.46350529  0.08321027  0.81782943  1
  O  O316  1  0.46299088  0.41788794  0.06712038  1
  O  O317  1  0.46268581  0.41712953  0.31568739  1
  O  O318  1  0.46185904  0.41644170  0.56692232  1
  O  O319  1  0.46242696  0.41724288  0.81845647  1
  O  O320  1  0.46242532  0.74795503  0.06700518  1
  O  O321  1  0.46189693  0.74932158  0.31594593  1
  O  O322  1  0.46196688  0.75145119  0.56783985  1
  O  O323  1  0.46284431  0.75033384  0.81777608  1
  O  O324  1  0.96316623  0.08384599  0.06918041  1
  O  O325  1  0.96413418  0.08327445  0.31792979  1
  O  O326  1  0.96428023  0.08319026  0.56792433  1
  O  O327  1  0.96361836  0.08309808  0.81633317  1
  O  O328  1  0.96358031  0.41569146  0.06611937  1
  O  O329  1  0.96275511  0.41591033  0.31548847  1
  O  O330  1  0.96210326  0.41661569  0.56617558  1
  O  O331  1  0.96331736  0.41669693  0.81802834  1
  O  O332  1  0.96369610  0.74855747  0.06731849  1
  O  O333  1  0.96289570  0.74932089  0.31744778  1
  O  O334  1  0.96316688  0.74901990  0.56742329  1
  O  O335  1  0.96313347  0.74905737  0.81748717  1
  O  O336  1  0.21344694  0.08582262  0.05643945  1
  O  O337  1  0.21351378  0.08579021  0.30797536  1
  O  O338  1  0.21397995  0.08443049  0.55672696  1
  O  O339  1  0.21407395  0.08422880  0.80673889  1
  O  O340  1  0.21342857  0.41672878  0.05656043  1
  O  O341  1  0.21282041  0.41638988  0.30639833  1
  O  O342  1  0.21283199  0.41516076  0.55600939  1
  O  O343  1  0.21299575  0.41476715  0.80759757  1
  O  O344  1  0.21192625  0.75021680  0.05835930  1
  O  O345  1  0.21191321  0.75061188  0.30831445  1
  O  O346  1  0.21196457  0.75077783  0.55839567  1
  O  O347  1  0.21204861  0.75041855  0.80848310  1
  O  O348  1  0.71411975  0.08250112  0.05685248  1
  O  O349  1  0.71365808  0.08238643  0.30946618  1
  O  O350  1  0.71402421  0.08262492  0.55714737  1
  O  O351  1  0.71411774  0.08197623  0.80856438  1
  O  O352  1  0.71252050  0.41494019  0.05878563  1
  O  O353  1  0.71211335  0.41452457  0.30706950  1
  O  O354  1  0.71258973  0.41668163  0.55892236  1
  O  O355  1  0.71400550  0.41649224  0.80671718  1
  O  O356  1  0.71377100  0.74857383  0.05815744  1
  O  O357  1  0.71364959  0.75079117  0.30668090  1
  O  O358  1  0.71219480  0.75134531  0.55732511  1
  O  O359  1  0.71273089  0.74933643  0.80870874  1
  O  O360  1  0.28613130  0.25008237  0.19272363  1
  O  O361  1  0.28601369  0.25049285  0.44280570  1
  O  O362  1  0.28686718  0.25005224  0.69316697  1
  O  O363  1  0.28643066  0.25112110  0.94315963  1
  O  O364  1  0.28547152  0.58094875  0.19194830  1
  O  O365  1  0.28681960  0.58224963  0.44115994  1
  O  O366  1  0.28705092  0.58167819  0.69260299  1
  O  O367  1  0.28592118  0.58116453  0.94215853  1
  O  O368  1  0.28736795  0.91890246  0.19261371  1
  O  O369  1  0.28675612  0.91959508  0.44233046  1
  O  O370  1  0.28655809  0.91939291  0.69234734  1
  O  O371  1  0.28767399  0.91874845  0.94142648  1
  O  O372  1  0.78717239  0.24893404  0.19267055  1
  O  O373  1  0.78714826  0.24926901  0.44275886  1
  O  O374  1  0.78723058  0.24912331  0.69228529  1
  O  O375  1  0.78740870  0.24909569  0.94232984  1
  O  O376  1  0.78669351  0.58362914  0.19097831  1
  O  O377  1  0.78686937  0.58250824  0.44229930  1
  O  O378  1  0.78665216  0.58284234  0.69247960  1
  O  O379  1  0.78687206  0.58458512  0.94239614  1
  O  O380  1  0.78724843  0.91528951  0.19365026  1
  O  O381  1  0.78680756  0.91828032  0.44226447  1
  O  O382  1  0.78755374  0.91837408  0.69257241  1
  O  O383  1  0.78765372  0.91573182  0.94266005  1
  O  O384  1  0.22712494  0.25019401  0.05922216  1
  O  O385  1  0.22670815  0.25108976  0.30871877  1
  O  O386  1  0.22707783  0.25060966  0.55905869  1
  O  O387  1  0.22741336  0.25086396  0.80916120  1
  O  O388  1  0.22681824  0.58107814  0.05781938  1
  O  O389  1  0.22690430  0.58106594  0.30792729  1
  O  O390  1  0.22807829  0.58250826  0.55672266  1
  O  O391  1  0.22764550  0.58122543  0.80794029  1
  O  O392  1  0.22874020  0.91867044  0.05681480  1
  O  O393  1  0.22790849  0.91973301  0.30806380  1
  O  O394  1  0.22794397  0.91991161  0.55821548  1
  O  O395  1  0.22772771  0.91968930  0.80825820  1
  O  O396  1  0.72833043  0.25035546  0.05800227  1
  O  O397  1  0.72805111  0.24710496  0.30834235  1
  O  O398  1  0.72825536  0.25070801  0.55860763  1
  O  O399  1  0.72826907  0.24811526  0.80807701  1
  O  O400  1  0.72773444  0.58412440  0.05811030  1
  O  O401  1  0.72780754  0.58345712  0.30643307  1
  O  O402  1  0.72766020  0.58176851  0.55784561  1
  O  O403  1  0.72797210  0.58437304  0.80844864  1
  O  O404  1  0.72866771  0.91455360  0.05835629  1
  O  O405  1  0.72793376  0.91615532  0.30963450  1
  O  O406  1  0.72828665  0.91904149  0.55851854  1
  O  O407  1  0.72847783  0.91790718  0.80832486  1
  O  O408  1  0.27243521  0.08690115  0.19199260  1
  O  O409  1  0.27299659  0.08413962  0.44053159  1
  O  O410  1  0.27330380  0.08407538  0.69053448  1
  O  O411  1  0.27297748  0.08394433  0.94072057  1
  O  O412  1  0.27221267  0.41705191  0.19042857  1
  O  O413  1  0.27181464  0.41601278  0.43982871  1
  O  O414  1  0.27159922  0.41389080  0.69153742  1
  O  O415  1  0.27253880  0.41594269  0.94032645  1
  O  O416  1  0.27123214  0.75002024  0.19316975  1
  O  O417  1  0.27097368  0.75069034  0.44308854  1
  O  O418  1  0.27138191  0.75066515  0.69336920  1
  O  O419  1  0.27110097  0.75020832  0.94319174  1
  O  O420  1  0.77242049  0.08248083  0.19372785  1
  O  O421  1  0.77328559  0.08321570  0.44112778  1
  O  O422  1  0.77264024  0.08149927  0.69234230  1
  O  O423  1  0.77339456  0.08214059  0.94103695  1
  O  O424  1  0.77171255  0.41418594  0.19171688  1
  O  O425  1  0.77108439  0.41604257  0.44307928  1
  O  O426  1  0.77294015  0.41638740  0.69060390  1
  O  O427  1  0.77167164  0.41603146  0.94355291  1
  O  O428  1  0.77292948  0.75015292  0.19067528  1
  O  O429  1  0.77176433  0.75181292  0.44210072  1
  O  O430  1  0.77142276  0.74991537  0.69308743  1
  O  O431  1  0.77228288  0.74819090  0.94191044  1
  O  O432  1  0.02293492  0.08291980  0.18452968  1
  O  O433  1  0.02347832  0.08336367  0.43392626  1
  O  O434  1  0.02343541  0.08387992  0.68405085  1
  O  O435  1  0.02220679  0.08386111  0.93208139  1
  O  O436  1  0.02228568  0.41554659  0.18218859  1
  O  O437  1  0.02151384  0.41652000  0.43091774  1
  O  O438  1  0.02148287  0.41662417  0.68123895  1
  O  O439  1  0.02299681  0.41594412  0.93361981  1
  O  O440  1  0.02215119  0.74875401  0.18335583  1
  O  O441  1  0.02169321  0.74901356  0.43324790  1
  O  O442  1  0.02182255  0.74875024  0.68335327  1
  O  O443  1  0.02225591  0.74870402  0.93316691  1
  O  O444  1  0.52257015  0.08309539  0.18447312  1
  O  O445  1  0.52173664  0.08335939  0.43157479  1
  O  O446  1  0.52229937  0.08182932  0.68326914  1
  O  O447  1  0.52259384  0.08504021  0.93338565  1
  O  O448  1  0.52193137  0.41754382  0.18277096  1
  O  O449  1  0.52150260  0.41651778  0.43118310  1
  O  O450  1  0.52141815  0.41664355  0.68178132  1
  O  O451  1  0.52175707  0.41763269  0.93384099  1
  O  O452  1  0.52137451  0.74814312  0.18261320  1
  O  O453  1  0.52133960  0.75010928  0.43099650  1
  O  O454  1  0.52148520  0.75219089  0.68320348  1
  O  O455  1  0.52168597  0.74828788  0.93354163  1
  O  O456  1  0.47790424  0.24769725  0.06752229  1
  O  O457  1  0.47785788  0.24898297  0.31719983  1
  O  O458  1  0.47848168  0.24969877  0.56897195  1
  O  O459  1  0.47879000  0.24964586  0.81927169  1
  O  O460  1  0.47661792  0.58321672  0.06588200  1
  O  O461  1  0.47716799  0.58364851  0.31522429  1
  O  O462  1  0.47846721  0.58373115  0.56829533  1
  O  O463  1  0.47833097  0.58369604  0.81867703  1
  O  O464  1  0.47889369  0.91682713  0.06863646  1
  O  O465  1  0.47805784  0.91813524  0.31651902  1
  O  O466  1  0.47821321  0.91661627  0.56873134  1
  O  O467  1  0.47724481  0.91601163  0.81648819  1
  O  O468  1  0.97781843  0.25181836  0.06670611  1
  O  O469  1  0.97716582  0.25062761  0.31529892  1
  O  O470  1  0.97799930  0.24795249  0.56617172  1
  O  O471  1  0.97806025  0.24791718  0.81639620  1
  O  O472  1  0.97717472  0.58370760  0.06539556  1
  O  O473  1  0.97786795  0.58479660  0.31625486  1
  O  O474  1  0.97792049  0.58507157  0.56647325  1
  O  O475  1  0.97784468  0.58503447  0.81656849  1
  O  O476  1  0.97875929  0.91684035  0.06889898  1
  O  O477  1  0.97778654  0.91835033  0.31761000  1
  O  O478  1  0.97789724  0.91832763  0.56722539  1
  O  O479  1  0.97833247  0.91776783  0.81726342  1
  O  O480  1  0.07314960  0.31451908  0.07344797  1
  O  O481  1  0.07238313  0.31370749  0.32279187  1
  O  O482  1  0.07296197  0.31205042  0.57411543  1
  O  O483  1  0.07277827  0.31274740  0.82378852  1
  O  O484  1  0.07265316  0.64673027  0.07316058  1
  O  O485  1  0.07286843  0.64837978  0.32317777  1
  O  O486  1  0.07317859  0.64827625  0.57367959  1
  O  O487  1  0.07319123  0.64768288  0.82442405  1
  O  O488  1  0.07412871  0.98061611  0.07604038  1
  O  O489  1  0.07288735  0.98186416  0.32468178  1
  O  O490  1  0.07293703  0.98182029  0.57439999  1
  O  O491  1  0.07322008  0.98140092  0.82381826  1
  O  O492  1  0.57294053  0.31161587  0.07619642  1
  O  O493  1  0.57363858  0.31202686  0.32432149  1
  O  O494  1  0.57393364  0.31306795  0.57485908  1
  O  O495  1  0.57388426  0.31349209  0.82655066  1
  O  O496  1  0.57163563  0.64669700  0.07395778  1
  O  O497  1  0.57235812  0.64702067  0.32219902  1
  O  O498  1  0.57372701  0.64749275  0.57472436  1
  O  O499  1  0.57388481  0.64668291  0.82611751  1
  O  O500  1  0.57465202  0.97983389  0.07535579  1
  O  O501  1  0.57315964  0.98140106  0.32395019  1
  O  O502  1  0.57361597  0.97999547  0.57567371  1
  O  O503  1  0.57176311  0.98023509  0.82399908  1
  O  O504  1  0.42761793  0.01965500  0.17614314  1
  O  O505  1  0.42625111  0.02020735  0.42441293  1
  O  O506  1  0.42718698  0.01867568  0.67721006  1
  O  O507  1  0.42760558  0.02048262  0.92612975  1
  O  O508  1  0.42669550  0.35391793  0.17448562  1
  O  O509  1  0.42609472  0.35334736  0.42359650  1
  O  O510  1  0.42611622  0.35303046  0.67546793  1
  O  O511  1  0.42644508  0.35400372  0.92642284  1
  O  O512  1  0.42606356  0.68493045  0.17569176  1
  O  O513  1  0.42583327  0.68659434  0.42471197  1
  O  O514  1  0.42648536  0.68772496  0.67571142  1
  O  O515  1  0.42633640  0.68570966  0.92561552  1
  O  O516  1  0.92744844  0.01997265  0.17725471  1
  O  O517  1  0.92828697  0.02015988  0.42676638  1
  O  O518  1  0.92889948  0.01954636  0.67661693  1
  O  O519  1  0.92715535  0.01986380  0.92491336  1
  O  O520  1  0.92727055  0.35223049  0.17488998  1
  O  O521  1  0.92589825  0.35328911  0.42399875  1
  O  O522  1  0.92632062  0.35294803  0.67431846  1
  O  O523  1  0.92777698  0.35263234  0.92591322  1
  O  O524  1  0.92737963  0.68485884  0.17559631  1
  O  O525  1  0.92645190  0.68576197  0.42581462  1
  O  O526  1  0.92671414  0.68543308  0.67590622  1
  O  O527  1  0.92695324  0.68570891  0.92612273  1
  O  O528  1  0.17766295  0.02236637  0.19978212  1
  O  O529  1  0.17767419  0.02124843  0.44826862  1
  O  O530  1  0.17805018  0.02092241  0.69829955  1
  O  O531  1  0.17743542  0.02141668  0.94872735  1
  O  O532  1  0.17791273  0.35271962  0.19752282  1
  O  O533  1  0.17663539  0.35257040  0.44735867  1
  O  O534  1  0.17627519  0.35125594  0.69900581  1
  O  O535  1  0.17741393  0.35265188  0.94864545  1
  O  O536  1  0.17548375  0.68731747  0.20033326  1
  O  O537  1  0.17546901  0.68752509  0.45028663  1
  O  O538  1  0.17626089  0.68669660  0.70053417  1
  O  O539  1  0.17566173  0.68687975  0.95038354  1
  O  O540  1  0.67728989  0.01880362  0.20112359  1
  O  O541  1  0.67809137  0.01971346  0.44863833  1
  O  O542  1  0.67753130  0.01845231  0.69995066  1
  O  O543  1  0.67810540  0.01878598  0.94907627  1
  O  O544  1  0.67700552  0.35031943  0.19881713  1
  O  O545  1  0.67561604  0.35288778  0.45101700  1
  O  O546  1  0.67823106  0.35239590  0.69903150  1
  O  O547  1  0.67613474  0.35255291  0.95010299  1
  O  O548  1  0.67809703  0.68644152  0.19869742  1
  O  O549  1  0.67645529  0.68807655  0.44921498  1
  O  O550  1  0.67566491  0.68698918  0.70025473  1
  O  O551  1  0.67733086  0.68491498  0.94961936  1
  O  O552  1  0.32165935  0.31426200  0.05213567  1
  O  O553  1  0.32198038  0.31424074  0.30069349  1
  O  O554  1  0.32223549  0.31394092  0.55113008  1
  O  O555  1  0.32298611  0.31336632  0.80178562  1
  O  O556  1  0.32191603  0.64497748  0.04992232  1
  O  O557  1  0.32194316  0.64509425  0.29924537  1
  O  O558  1  0.32332116  0.64611770  0.54913600  1
  O  O559  1  0.32300690  0.64501947  0.80053903  1
  O  O560  1  0.32450557  0.98149145  0.04975927  1
  O  O561  1  0.32305158  0.98277002  0.30074270  1
  O  O562  1  0.32345900  0.98259641  0.55084011  1
  O  O563  1  0.32310968  0.98244689  0.80091119  1
  O  O564  1  0.82319234  0.31361483  0.05059227  1
  O  O565  1  0.82288565  0.31197907  0.30085015  1
  O  O566  1  0.82313404  0.31394048  0.55072019  1
  O  O567  1  0.82373071  0.31189117  0.80026034  1
  O  O568  1  0.82283671  0.64748227  0.05130879  1
  O  O569  1  0.82360521  0.64621696  0.29942414  1
  O  O570  1  0.82266923  0.64610038  0.54995258  1
  O  O571  1  0.82284653  0.64758696  0.80036831  1
  O  O572  1  0.82398263  0.97851682  0.05092837  1
  O  O573  1  0.82292556  0.97960723  0.30158996  1
  O  O574  1  0.82361885  0.98182469  0.55069549  1
  O  O575  1  0.82373619  0.98100921  0.80160253  1
  O  O576  1  0.42749310  0.14706462  0.17701740  1
  O  O577  1  0.42634736  0.14692240  0.42487234  1
  O  O578  1  0.42689242  0.14586332  0.67630085  1
  O  O579  1  0.42714539  0.14759213  0.92595784  1
  O  O580  1  0.42687666  0.48111397  0.17581917  1
  O  O581  1  0.42622840  0.48032869  0.42401469  1
  O  O582  1  0.42585320  0.48007089  0.67502995  1
  O  O583  1  0.42675326  0.48122955  0.92670942  1
  O  O584  1  0.42613483  0.81205778  0.17443559  1
  O  O585  1  0.42591351  0.81354478  0.42387151  1
  O  O586  1  0.42605488  0.81491474  0.67658527  1
  O  O587  1  0.42660027  0.81284862  0.92616740  1
  O  O588  1  0.92843246  0.14745194  0.17761235  1
  O  O589  1  0.92872759  0.14728400  0.42627240  1
  O  O590  1  0.92797078  0.14671885  0.67622355  1
  O  O591  1  0.92642782  0.14649882  0.92447353  1
  O  O592  1  0.92685204  0.47911312  0.17397276  1
  O  O593  1  0.92626330  0.48019172  0.42306969  1
  O  O594  1  0.92601371  0.47993833  0.67444463  1
  O  O595  1  0.92837001  0.48015739  0.92659306  1
  O  O596  1  0.92672002  0.81200442  0.17501351  1
  O  O597  1  0.92664885  0.81289166  0.42541470  1
  O  O598  1  0.92663600  0.81259456  0.67504108  1
  O  O599  1  0.92725797  0.81286549  0.92538035  1
  O  O600  1  0.07290601  0.18763366  0.07491062  1
  O  O601  1  0.07175528  0.18628938  0.32227311  1
  O  O602  1  0.07340182  0.18502614  0.57289210  1
  O  O603  1  0.07359658  0.18567404  0.82404962  1
  O  O604  1  0.07153641  0.51934300  0.07240780  1
  O  O605  1  0.07316763  0.52126442  0.32420436  1
  O  O606  1  0.07307789  0.52109586  0.57415291  1
  O  O607  1  0.07283312  0.52067328  0.82471989  1
  O  O608  1  0.07422393  0.85375795  0.07642883  1
  O  O609  1  0.07312581  0.85479467  0.32606485  1
  O  O610  1  0.07320860  0.85474997  0.57549985  1
  O  O611  1  0.07378300  0.85418875  0.82445345  1
  O  O612  1  0.57330786  0.18447108  0.07469784  1
  O  O613  1  0.57272807  0.18492589  0.32397374  1
  O  O614  1  0.57400057  0.18605416  0.57557299  1
  O  O615  1  0.57464731  0.18662726  0.82593715  1
  O  O616  1  0.57163849  0.51944065  0.07384410  1
  O  O617  1  0.57201663  0.51952436  0.32239971  1
  O  O618  1  0.57399219  0.52043214  0.57459463  1
  O  O619  1  0.57367866  0.51995190  0.82604284  1
  O  O620  1  0.57400167  0.85300730  0.07605050  1
  O  O621  1  0.57328557  0.85412497  0.32419934  1
  O  O622  1  0.57371995  0.85334609  0.57545296  1
  O  O623  1  0.57239730  0.85257939  0.82427444  1
  O  O624  1  0.32243337  0.18712762  0.05125913  1
  O  O625  1  0.32143181  0.18725045  0.30206596  1
  O  O626  1  0.32184907  0.18687168  0.55144469  1
  O  O627  1  0.32180889  0.18639607  0.80204010  1
  O  O628  1  0.32215813  0.51791103  0.05076917  1
  O  O629  1  0.32217388  0.51790779  0.30048299  1
  O  O630  1  0.32362018  0.51914214  0.54931049  1
  O  O631  1  0.32271802  0.51771368  0.80085334  1
  O  O632  1  0.32380162  0.85456946  0.04938973  1
  O  O633  1  0.32304879  0.85540997  0.30047865  1
  O  O634  1  0.32282878  0.85545099  0.54995354  1
  O  O635  1  0.32265121  0.85529576  0.79991906  1
  O  O636  1  0.82386887  0.18650599  0.05063842  1
  O  O637  1  0.82359550  0.18493986  0.30102999  1
  O  O638  1  0.82368586  0.18682271  0.55088541  1
  O  O639  1  0.82308292  0.18474534  0.80057636  1
  O  O640  1  0.82301753  0.52039531  0.04971312  1
  O  O641  1  0.82287802  0.51926584  0.29851009  1
  O  O642  1  0.82300114  0.51881580  0.55070930  1
  O  O643  1  0.82340573  0.52044164  0.80088310  1
  O  O644  1  0.82378278  0.85146673  0.05086862  1
  O  O645  1  0.82286049  0.85226373  0.30227738  1
  O  O646  1  0.82330509  0.85483286  0.55025604  1
  O  O647  1  0.82364553  0.85398531  0.79987991  1
  O  O648  1  0.17685728  0.14918058  0.19925506  1
  O  O649  1  0.17848324  0.14839652  0.44825756  1
  O  O650  1  0.17873669  0.14800887  0.69808046  1
  O  O651  1  0.17855305  0.14868843  0.94730169  1
  O  O652  1  0.17654274  0.47974790  0.19794334  1
  O  O653  1  0.17701886  0.47983135  0.44829429  1
  O  O654  1  0.17653397  0.47814248  0.69943078  1
  O  O655  1  0.17771748  0.47979326  0.94770173  1
  O  O656  1  0.17627906  0.81450876  0.20040388  1
  O  O657  1  0.17572421  0.81461316  0.45074308  1
  O  O658  1  0.17577615  0.81389351  0.70055547  1
  O  O659  1  0.17575468  0.81398598  0.95054505  1
  O  O660  1  0.67673314  0.14536599  0.20092260  1
  O  O661  1  0.67845659  0.14709466  0.44942305  1
  O  O662  1  0.67733224  0.14526814  0.70056577  1
  O  O663  1  0.67883740  0.14637945  0.94864264  1
  O  O664  1  0.67614894  0.47769330  0.19924480  1
  O  O665  1  0.67572484  0.47955897  0.45003033  1
  O  O666  1  0.67788458  0.48007169  0.69882761  1
  O  O667  1  0.67629795  0.47938924  0.95119368  1
  O  O668  1  0.67784372  0.81383911  0.19815937  1
  O  O669  1  0.67665382  0.81532169  0.44890353  1
  O  O670  1  0.67649665  0.81390616  0.70121237  1
  O  O671  1  0.67691601  0.81188440  0.95028527  1
