# generated using pymatgen
data_Na2MnFe(PO4)2
_symmetry_space_group_name_H-M   'P 1'
_cell_length_a   22.34604554
_cell_length_b   20.09878005
_cell_length_c   19.44866710
_cell_angle_alpha   90.00901330
_cell_angle_beta   89.98902875
_cell_angle_gamma   90.00020507
_symmetry_Int_Tables_number   1
_chemical_formula_structural   Na2MnFe(PO4)2
_chemical_formula_sum   'Na96 Mn48 Fe48 P96 O384'
_cell_volume   8734.94563795
_cell_formula_units_Z   48
loop_
 _symmetry_equiv_pos_site_id
 _symmetry_equiv_pos_as_xyz
  1  'x, y, z'
loop_
 _atom_site_type_symbol
 _atom_site_label
 _atom_site_symmetry_multiplicity
 _atom_site_fract_x
 _atom_site_fract_y
 _atom_site_fract_z
 _atom_site_occupancy
  Na  Na0  1  0.14146136  0.25082417  0.24412350  1
  Na  Na1  1  0.14057200  0.25060461  0.49418670  1
  Na  Na2  1  0.14076698  0.25089751  0.74329848  1
  Na  Na3  1  0.14080166  0.25102962  0.99488450  1
  Na  Na4  1  0.14058652  0.58312860  0.24422332  1
  Na  Na5  1  0.14061488  0.58351382  0.49495570  1
  Na  Na6  1  0.14047739  0.58453127  0.74344347  1
  Na  Na7  1  0.14069473  0.58444775  0.99490207  1
  Na  Na8  1  0.14086319  0.91734108  0.24404039  1
  Na  Na9  1  0.14065274  0.91704903  0.49478448  1
  Na  Na10  1  0.14005964  0.91651854  0.74319050  1
  Na  Na11  1  0.14009167  0.91695450  0.99417711  1
  Na  Na12  1  0.64001278  0.24995160  0.24195103  1
  Na  Na13  1  0.64010738  0.24948403  0.49167286  1
  Na  Na14  1  0.63969181  0.24953416  0.74267807  1
  Na  Na15  1  0.64025687  0.25050916  0.99248787  1
  Na  Na16  1  0.64057343  0.58240438  0.24303623  1
  Na  Na17  1  0.64057816  0.58302799  0.49333223  1
  Na  Na18  1  0.64033976  0.58285057  0.74393499  1
  Na  Na19  1  0.64006665  0.58172060  0.99461742  1
  Na  Na20  1  0.64035167  0.91544192  0.24236835  1
  Na  Na21  1  0.64030239  0.91555416  0.49346345  1
  Na  Na22  1  0.64029904  0.91562753  0.74274205  1
  Na  Na23  1  0.63954772  0.91603936  0.99352977  1
  Na  Na24  1  0.35980848  0.08409599  0.00653185  1
  Na  Na25  1  0.36031544  0.08435254  0.25672170  1
  Na  Na26  1  0.36059140  0.08309528  0.50681175  1
  Na  Na27  1  0.36020117  0.08243821  0.75621178  1
  Na  Na28  1  0.36023065  0.41673739  0.00886223  1
  Na  Na29  1  0.36035533  0.41656565  0.25740180  1
  Na  Na30  1  0.36075820  0.41682033  0.50587136  1
  Na  Na31  1  0.36059008  0.41673653  0.75618041  1
  Na  Na32  1  0.35947268  0.75035131  0.00630442  1
  Na  Na33  1  0.35975480  0.74875658  0.25627679  1
  Na  Na34  1  0.35942534  0.74937357  0.50643475  1
  Na  Na35  1  0.36023053  0.75073929  0.75620236  1
  Na  Na36  1  0.85875288  0.08253149  0.00588350  1
  Na  Na37  1  0.85936701  0.08241189  0.25607614  1
  Na  Na38  1  0.85951911  0.08248961  0.50624337  1
  Na  Na39  1  0.85910627  0.08320569  0.75594373  1
  Na  Na40  1  0.85915858  0.41728033  0.00521026  1
  Na  Na41  1  0.85901006  0.41770787  0.25527321  1
  Na  Na42  1  0.85909761  0.41840264  0.50615156  1
  Na  Na43  1  0.85973586  0.41678762  0.75688702  1
  Na  Na44  1  0.85878787  0.74983050  0.00700406  1
  Na  Na45  1  0.85883934  0.74967936  0.25636179  1
  Na  Na46  1  0.85880021  0.75054710  0.50684813  1
  Na  Na47  1  0.85938502  0.75016692  0.75666488  1
  Na  Na48  1  0.10990757  0.08354164  0.11982980  1
  Na  Na49  1  0.11028193  0.08469946  0.36947277  1
  Na  Na50  1  0.10974303  0.08291100  0.61945808  1
  Na  Na51  1  0.10931925  0.08362519  0.86860700  1
  Na  Na52  1  0.11034151  0.41754608  0.11913582  1
  Na  Na53  1  0.10974796  0.41830646  0.36899259  1
  Na  Na54  1  0.10960190  0.41720271  0.61949000  1
  Na  Na55  1  0.11007220  0.41805027  0.86874026  1
  Na  Na56  1  0.10955418  0.74971813  0.11992289  1
  Na  Na57  1  0.10984083  0.75076964  0.36914123  1
  Na  Na58  1  0.10964220  0.75057212  0.61996982  1
  Na  Na59  1  0.10914539  0.75094483  0.86779396  1
  Na  Na60  1  0.60914944  0.08314322  0.11776065  1
  Na  Na61  1  0.60976875  0.08236921  0.36799946  1
  Na  Na62  1  0.60942953  0.08367212  0.61749957  1
  Na  Na63  1  0.60917759  0.08165441  0.86788953  1
  Na  Na64  1  0.61014989  0.41633518  0.11763363  1
  Na  Na65  1  0.60966858  0.41569886  0.36728296  1
  Na  Na66  1  0.60952557  0.41520284  0.61837604  1
  Na  Na67  1  0.60971205  0.41514839  0.86895017  1
  Na  Na68  1  0.60956615  0.74993198  0.11832937  1
  Na  Na69  1  0.60981612  0.74856146  0.36793774  1
  Na  Na70  1  0.60997724  0.74986683  0.61775164  1
  Na  Na71  1  0.60951726  0.74956814  0.86918045  1
  Na  Na72  1  0.39079866  0.25108183  0.13287637  1
  Na  Na73  1  0.39135884  0.24970149  0.38100341  1
  Na  Na74  1  0.39140300  0.24968652  0.63012028  1
  Na  Na75  1  0.39096002  0.24981408  0.88153031  1
  Na  Na76  1  0.38995406  0.58249611  0.13330366  1
  Na  Na77  1  0.39017374  0.58158196  0.38160026  1
  Na  Na78  1  0.39078239  0.58183004  0.63108033  1
  Na  Na79  1  0.39096776  0.58300743  0.88230641  1
  Na  Na80  1  0.39071976  0.91725180  0.13063568  1
  Na  Na81  1  0.39110378  0.91712372  0.38172325  1
  Na  Na82  1  0.39027191  0.91762180  0.63194689  1
  Na  Na83  1  0.39037298  0.91591215  0.88071358  1
  Na  Na84  1  0.88987640  0.24966149  0.13055683  1
  Na  Na85  1  0.89023908  0.24998740  0.38017731  1
  Na  Na86  1  0.89059896  0.24969948  0.63093471  1
  Na  Na87  1  0.89019893  0.25114500  0.88039195  1
  Na  Na88  1  0.88917212  0.58361286  0.13204423  1
  Na  Na89  1  0.88912223  0.58483836  0.38105736  1
  Na  Na90  1  0.89003685  0.58370373  0.63238830  1
  Na  Na91  1  0.89005571  0.58327448  0.88040491  1
  Na  Na92  1  0.88945381  0.91637800  0.13219141  1
  Na  Na93  1  0.88994221  0.91870725  0.38104187  1
  Na  Na94  1  0.88961685  0.91651822  0.63268791  1
  Na  Na95  1  0.88940171  0.91703260  0.88045367  1
  Mn  Mn96  1  0.50062083  0.66658437  0.75056448  1
  Mn  Mn97  1  0.25101276  0.33477956  0.62440415  1
  Mn  Mn98  1  0.00003560  0.33395705  -0.00022627  1
  Mn  Mn99  1  -0.00062555  0.66681309  -0.00077097  1
  Mn  Mn100  1  0.74919381  0.16619922  0.87434611  1
  Mn  Mn101  1  0.49969106  0.66528911  0.49935628  1
  Mn  Mn102  1  0.50011717  0.66582629  0.24964801  1
  Mn  Mn103  1  0.25081158  0.83265423  0.37490059  1
  Mn  Mn104  1  -0.00053738  0.33343015  0.50010314  1
  Mn  Mn105  1  0.49956335  0.83351547  0.49934622  1
  Mn  Mn106  1  0.25064324  0.00107876  0.12479208  1
  Mn  Mn107  1  0.25054033  0.33418045  0.87575390  1
  Mn  Mn108  1  -0.00062351  0.83335280  0.00019023  1
  Mn  Mn109  1  0.50016725  0.16690466  -0.00061451  1
  Mn  Mn110  1  -0.00025269  0.16684703  -0.00023438  1
  Mn  Mn111  1  0.24943260  -0.00053307  0.87575604  1
  Mn  Mn112  1  -0.00009664  0.50085967  -0.00055297  1
  Mn  Mn113  1  0.75002085  0.16521682  0.37309406  1
  Mn  Mn114  1  0.00017339  0.33391012  0.25042371  1
  Mn  Mn115  1  -0.00027777  0.50080493  0.50054891  1
  Mn  Mn116  1  -0.00029118  0.66768040  0.50107147  1
  Mn  Mn117  1  0.25038923  0.83278472  0.12532254  1
  Mn  Mn118  1  0.25087670  0.16647843  0.62520038  1
  Mn  Mn119  1  -0.00039963  -0.00020532  -0.00016691  1
  Mn  Mn120  1  0.25018656  0.33389612  0.37524505  1
  Mn  Mn121  1  0.25017629  0.16701713  0.87525842  1
  Mn  Mn122  1  0.75039044  0.33391368  0.37345094  1
  Mn  Mn123  1  0.25076661  0.66790172  0.87452063  1
  Mn  Mn124  1  0.75019065  0.16568654  0.62400273  1
  Mn  Mn125  1  0.00000789  0.16695814  0.75038966  1
  Mn  Mn126  1  0.74978343  0.83293038  0.37494872  1
  Mn  Mn127  1  0.00047741  0.00113596  0.50104362  1
  Mn  Mn128  1  -0.00018676  0.83408460  0.25034752  1
  Mn  Mn129  1  0.49944840  0.66634536  0.00065656  1
  Mn  Mn130  1  0.74974168  0.33353287  0.62408710  1
  Mn  Mn131  1  0.50053263  0.49809592  0.75093390  1
  Mn  Mn132  1  0.74901304  0.66571340  0.87589197  1
  Mn  Mn133  1  0.25061405  0.50096058  0.87632252  1
  Mn  Mn134  1  0.74953788  0.16607992  0.12374655  1
  Mn  Mn135  1  0.50024611  -0.00002184  0.24953875  1
  Mn  Mn136  1  0.25099340  0.00080384  0.37483177  1
  Mn  Mn137  1  -0.00086045  0.50149766  0.24981077  1
  Mn  Mn138  1  0.25091648  0.66674185  0.62522999  1
  Mn  Mn139  1  0.74914111  0.83345612  0.87551147  1
  Mn  Mn140  1  0.00068726  0.16638016  0.25043503  1
  Mn  Mn141  1  0.50022726  -0.00014762  0.74982442  1
  Mn  Mn142  1  -0.00047923  0.83445605  0.50018558  1
  Mn  Mn143  1  0.74921960  0.50091474  0.62518262  1
  Fe  Fe144  1  0.25072472  0.50058894  0.62499121  1
  Fe  Fe145  1  0.75018613  0.33346512  0.12361794  1
  Fe  Fe146  1  0.24975706  0.83354083  0.87501410  1
  Fe  Fe147  1  0.74923067  -0.00057586  0.12467799  1
  Fe  Fe148  1  -0.00080325  0.00033302  0.74980416  1
  Fe  Fe149  1  0.49968173  0.83324032  0.24961523  1
  Fe  Fe150  1  0.25005171  0.83328543  0.62484598  1
  Fe  Fe151  1  0.00056305  0.33346029  0.74972184  1
  Fe  Fe152  1  0.74964022  -0.00126639  0.37478361  1
  Fe  Fe153  1  0.50042569  0.49874900  0.25053450  1
  Fe  Fe154  1  0.00004963  0.50015285  0.74999175  1
  Fe  Fe155  1  0.24961509  0.66669362  0.12557224  1
  Fe  Fe156  1  0.50072808  0.16666724  0.49933595  1
  Fe  Fe157  1  0.74938829  -0.00083557  0.62496079  1
  Fe  Fe158  1  0.50034113  0.16661248  0.24982307  1
  Fe  Fe159  1  0.50086781  0.49846222  0.50034752  1
  Fe  Fe160  1  0.74934094  -0.00070055  0.87487700  1
  Fe  Fe161  1  0.74962666  0.83260616  0.62456723  1
  Fe  Fe162  1  0.50100317  0.33246150  0.49909622  1
  Fe  Fe163  1  0.49979651  -0.00020027  -0.00045375  1
  Fe  Fe164  1  0.25057139  0.50060146  0.12614882  1
  Fe  Fe165  1  0.75006271  0.66655683  0.62498109  1
  Fe  Fe166  1  0.50015193  0.83334051  0.74936381  1
  Fe  Fe167  1  0.74982887  0.33340636  0.87439979  1
  Fe  Fe168  1  0.75008056  0.49980296  0.87518742  1
  Fe  Fe169  1  0.74962411  0.66588798  0.12537156  1
  Fe  Fe170  1  0.74954702  0.66657253  0.37503926  1
  Fe  Fe171  1  0.49992325  0.49900881  0.00069311  1
  Fe  Fe172  1  0.50092524  0.33332772  0.25011117  1
  Fe  Fe173  1  0.49985980  0.83312182  -0.00046055  1
  Fe  Fe174  1  0.25049869  0.16697245  0.37547353  1
  Fe  Fe175  1  0.50002179  0.33319589  0.00072060  1
  Fe  Fe176  1  0.50002127  0.16658397  0.74883254  1
  Fe  Fe177  1  0.00014893  0.00056628  0.25060999  1
  Fe  Fe178  1  -0.00013742  0.66755359  0.25046163  1
  Fe  Fe179  1  0.00018228  0.16696576  0.50056051  1
  Fe  Fe180  1  -0.00059847  0.83382090  0.75016966  1
  Fe  Fe181  1  0.24996272  0.66583743  0.37578320  1
  Fe  Fe182  1  0.74967324  0.83292773  0.12532610  1
  Fe  Fe183  1  0.50054371  0.00009766  0.49972961  1
  Fe  Fe184  1  0.25015510  -0.00020391  0.62539365  1
  Fe  Fe185  1  0.25042477  0.33375855  0.12631250  1
  Fe  Fe186  1  0.24999849  0.16724220  0.12565804  1
  Fe  Fe187  1  -0.00048417  0.66709696  0.75018721  1
  Fe  Fe188  1  0.50003528  0.33198953  0.74915376  1
  Fe  Fe189  1  0.24984761  0.50015309  0.37495600  1
  Fe  Fe190  1  0.74981644  0.49976469  0.12449279  1
  Fe  Fe191  1  0.74958497  0.50042014  0.37407920  1
  P  P192  1  0.04280501  0.25003961  0.10323910  1
  P  P193  1  0.04331842  0.25023550  0.35392683  1
  P  P194  1  0.04237222  0.24938354  0.60308706  1
  P  P195  1  0.04294503  0.25173598  0.85228955  1
  P  P196  1  0.04219309  0.58439863  0.10351599  1
  P  P197  1  0.04200854  0.58549437  0.35279931  1
  P  P198  1  0.04237663  0.58379805  0.60479167  1
  P  P199  1  0.04158716  0.58386105  0.85106888  1
  P  P200  1  0.04249867  0.91688806  0.10383595  1
  P  P201  1  0.04279561  0.91879566  0.35290766  1
  P  P202  1  0.04222754  0.91689708  0.60467341  1
  P  P203  1  0.04095867  0.91725840  0.85130080  1
  P  P204  1  0.54241754  0.25104723  0.10272316  1
  P  P205  1  0.54199216  0.24949702  0.35153673  1
  P  P206  1  0.54207726  0.24974439  0.60110550  1
  P  P207  1  0.54121947  0.24931346  0.85119533  1
  P  P208  1  0.54135335  0.58131966  0.10317081  1
  P  P209  1  0.54208778  0.58085076  0.35263989  1
  P  P210  1  0.54240193  0.58139302  0.60243645  1
  P  P211  1  0.54272030  0.58218538  0.85413611  1
  P  P212  1  0.54091261  0.91630712  0.10144968  1
  P  P213  1  0.54242304  0.91535595  0.35194810  1
  P  P214  1  0.54194785  0.91785056  0.60227566  1
  P  P215  1  0.54218522  0.91460689  0.85255555  1
  P  P216  1  0.45789687  0.08478963  0.14721749  1
  P  P217  1  0.45935013  0.08338707  0.39796147  1
  P  P218  1  0.45815067  0.08442831  0.64654214  1
  P  P219  1  0.45780616  0.08191583  0.89713245  1
  P  P220  1  0.45919869  0.41641467  0.14840993  1
  P  P221  1  0.45938119  0.41579858  0.39778876  1
  P  P222  1  0.45851490  0.41453492  0.64680618  1
  P  P223  1  0.45851153  0.41550240  0.89895285  1
  P  P224  1  0.45799340  0.75119767  0.14711026  1
  P  P225  1  0.45717889  0.74942305  0.39619382  1
  P  P226  1  0.45817150  0.75070989  0.64733921  1
  P  P227  1  0.45780679  0.75088353  0.89730219  1
  P  P228  1  0.95730561  0.08208145  0.14779905  1
  P  P229  1  0.95794847  0.08482043  0.39777667  1
  P  P230  1  0.95742502  0.08299081  0.64750825  1
  P  P231  1  0.95661949  0.08329557  0.89627056  1
  P  P232  1  0.95682785  0.41707873  0.14673253  1
  P  P233  1  0.95670302  0.41764988  0.39706721  1
  P  P234  1  0.95819001  0.41662310  0.64866083  1
  P  P235  1  0.95757600  0.41726158  0.89545008  1
  P  P236  1  0.95697642  0.74917529  0.14799261  1
  P  P237  1  0.95691589  0.75073147  0.39685042  1
  P  P238  1  0.95805619  0.75040818  0.64894862  1
  P  P239  1  0.95650541  0.75049287  0.89577734  1
  P  P240  1  0.20845691  0.08525399  0.22819448  1
  P  P241  1  0.20867296  0.08428512  0.47817734  1
  P  P242  1  0.20798052  0.08205080  0.72761913  1
  P  P243  1  0.20703563  0.08438831  0.97888387  1
  P  P244  1  0.20908184  0.41760971  0.22759909  1
  P  P245  1  0.20807484  0.41870469  0.47782874  1
  P  P246  1  0.20830468  0.41872353  0.72752785  1
  P  P247  1  0.20806705  0.41744388  0.98007034  1
  P  P248  1  0.20798704  0.74818525  0.22840657  1
  P  P249  1  0.20812218  0.74899926  0.47796936  1
  P  P250  1  0.20825628  0.75168445  0.72763010  1
  P  P251  1  0.20739011  0.75114436  0.97766246  1
  P  P252  1  0.70720125  0.08140264  0.22685360  1
  P  P253  1  0.70812729  0.08101446  0.47702265  1
  P  P254  1  0.70732103  0.08159281  0.72715226  1
  P  P255  1  0.70721556  0.08141186  0.97723622  1
  P  P256  1  0.70872503  0.41668108  0.22577849  1
  P  P257  1  0.70769228  0.41820611  0.47631254  1
  P  P258  1  0.70729707  0.41647837  0.72859129  1
  P  P259  1  0.70873111  0.41652673  0.97680906  1
  P  P260  1  0.70835707  0.74908945  0.22683823  1
  P  P261  1  0.70752412  0.74858482  0.47779000  1
  P  P262  1  0.70830833  0.74945319  0.72654572  1
  P  P263  1  0.70695566  0.74946801  0.97938507  1
  P  P264  1  0.29193878  0.25040802  0.02459894  1
  P  P265  1  0.29233004  0.24924656  0.27249332  1
  P  P266  1  0.29317786  0.25015739  0.52135940  1
  P  P267  1  0.29328448  0.25049216  0.77213827  1
  P  P268  1  0.29203014  0.58397953  0.02436032  1
  P  P269  1  0.29152520  0.58305731  0.27323106  1
  P  P270  1  0.29270269  0.58212708  0.52187173  1
  P  P271  1  0.29372378  0.58351825  0.77190845  1
  P  P272  1  0.29277394  0.91649081  0.02168454  1
  P  P273  1  0.29361716  0.91662820  0.27192859  1
  P  P274  1  0.29180546  0.91656986  0.52363936  1
  P  P275  1  0.29184922  0.91541694  0.77199020  1
  P  P276  1  0.79173011  0.25123098  0.02110653  1
  P  P277  1  0.79250413  0.24994305  0.27004734  1
  P  P278  1  0.79266206  0.24978916  0.52077986  1
  P  P279  1  0.79170720  0.25076078  0.77211120  1
  P  P280  1  0.79109568  0.58284628  0.02330680  1
  P  P281  1  0.79059870  0.58375531  0.27243699  1
  P  P282  1  0.79215898  0.58511035  0.52202067  1
  P  P283  1  0.79169248  0.58252824  0.77262026  1
  P  P284  1  0.79079217  0.91646898  0.02340839  1
  P  P285  1  0.79161629  0.91717035  0.27171689  1
  P  P286  1  0.79117567  0.91638418  0.52334767  1
  P  P287  1  0.79110521  0.91741983  0.77180612  1
  O  O288  1  0.03797042  0.25000787  0.18323127  1
  O  O289  1  0.03801123  0.24964399  0.43389219  1
  O  O290  1  0.03690634  0.25016918  0.68304198  1
  O  O291  1  0.03779581  0.25131303  0.93225771  1
  O  O292  1  0.03718833  0.58510294  0.18349828  1
  O  O293  1  0.03715122  0.58510299  0.43280778  1
  O  O294  1  0.03694258  0.58354856  0.68468660  1
  O  O295  1  0.03648863  0.58390262  0.93107809  1
  O  O296  1  0.03762259  0.91752302  0.18382277  1
  O  O297  1  0.03775550  0.91852042  0.43292090  1
  O  O298  1  0.03676468  0.91690058  0.68454806  1
  O  O299  1  0.03626592  0.91672991  0.93134289  1
  O  O300  1  0.53740772  0.25062864  0.18257225  1
  O  O301  1  0.53712699  0.25006115  0.43142306  1
  O  O302  1  0.53698541  0.24920502  0.68093212  1
  O  O303  1  0.53624955  0.24948435  0.93108588  1
  O  O304  1  0.53637354  0.58105103  0.18314938  1
  O  O305  1  0.53681507  0.58061655  0.43258411  1
  O  O306  1  0.53744603  0.58179501  0.68242745  1
  O  O307  1  0.53697742  0.58208620  0.93404987  1
  O  O308  1  0.53589895  0.91635135  0.18142216  1
  O  O309  1  0.53728074  0.91600537  0.43184935  1
  O  O310  1  0.53666114  0.91724375  0.68219350  1
  O  O311  1  0.53684600  0.91462461  0.93240943  1
  O  O312  1  0.46294593  0.08442798  0.06733183  1
  O  O313  1  0.46419932  0.08378312  0.31799047  1
  O  O314  1  0.46353079  0.08408354  0.56670550  1
  O  O315  1  0.46286357  0.08220279  0.81724823  1
  O  O316  1  0.46362354  0.41629361  0.06849178  1
  O  O317  1  0.46467314  0.41607702  0.31789280  1
  O  O318  1  0.46422562  0.41499146  0.56698924  1
  O  O319  1  0.46315238  0.41537309  0.81903530  1
  O  O320  1  0.46344036  0.75129009  0.06716993  1
  O  O321  1  0.46238390  0.74974227  0.31624718  1
  O  O322  1  0.46305235  0.75041818  0.56735276  1
  O  O323  1  0.46319444  0.75069858  0.81734585  1
  O  O324  1  0.96204118  0.08232073  0.06777734  1
  O  O325  1  0.96317497  0.08376386  0.31781598  1
  O  O326  1  0.96294422  0.08398750  0.56759560  1
  O  O327  1  0.96180432  0.08292314  0.81631045  1
  O  O328  1  0.96187622  0.41726559  0.06673346  1
  O  O329  1  0.96170303  0.41779564  0.31709429  1
  O  O330  1  0.96312007  0.41671287  0.56862135  1
  O  O331  1  0.96309257  0.41716544  0.81553162  1
  O  O332  1  0.96177993  0.74935760  0.06795727  1
  O  O333  1  0.96216961  0.75015089  0.31690448  1
  O  O334  1  0.96266174  0.75076816  0.56894151  1
  O  O335  1  0.96172942  0.75055839  0.81585037  1
  O  O336  1  0.21236899  0.08493863  0.05883164  1
  O  O337  1  0.21392107  0.08530346  0.30814875  1
  O  O338  1  0.21399801  0.08311413  0.55811508  1
  O  O339  1  0.21257266  0.08222027  0.80763363  1
  O  O340  1  0.21333852  0.41735959  0.05999177  1
  O  O341  1  0.21367962  0.41762437  0.30760416  1
  O  O342  1  0.21349290  0.41896480  0.55773788  1
  O  O343  1  0.21329319  0.41822776  0.80754265  1
  O  O344  1  0.21250030  0.75019562  0.05761917  1
  O  O345  1  0.21341727  0.74795379  0.30831058  1
  O  O346  1  0.21370570  0.74978677  0.55789735  1
  O  O347  1  0.21321388  0.75192853  0.80758515  1
  O  O348  1  0.71264945  0.08163119  0.05716292  1
  O  O349  1  0.71246027  0.08122073  0.30680511  1
  O  O350  1  0.71346354  0.08122054  0.55697246  1
  O  O351  1  0.71238474  0.08175671  0.80713211  1
  O  O352  1  0.71396547  0.41600912  0.05670113  1
  O  O353  1  0.71349694  0.41737518  0.30571980  1
  O  O354  1  0.71260099  0.41789792  0.55627319  1
  O  O355  1  0.71275085  0.41617137  0.80849215  1
  O  O356  1  0.71238042  0.74950172  0.05923717  1
  O  O357  1  0.71327298  0.74912452  0.30684212  1
  O  O358  1  0.71285492  0.74879374  0.55765814  1
  O  O359  1  0.71276953  0.74993253  0.80655924  1
  O  O360  1  0.28680974  0.24940032  0.19263099  1
  O  O361  1  0.28777443  0.24967585  0.44144548  1
  O  O362  1  0.28838242  0.25051932  0.69217444  1
  O  O363  1  0.28743907  0.25091925  0.94456624  1
  O  O364  1  0.28622726  0.58310418  0.19331686  1
  O  O365  1  0.28696231  0.58245923  0.44202200  1
  O  O366  1  0.28885218  0.58299246  0.69192902  1
  O  O367  1  0.28748901  0.58424450  0.94432734  1
  O  O368  1  0.28845282  0.91683661  0.19199930  1
  O  O369  1  0.28734364  0.91670223  0.44360797  1
  O  O370  1  0.28642886  0.91583295  0.69207190  1
  O  O371  1  0.28733308  0.91602379  0.94175629  1
  O  O372  1  0.78716716  0.25030231  0.19008692  1
  O  O373  1  0.78763625  0.24959404  0.44077638  1
  O  O374  1  0.78686941  0.25036051  0.69209708  1
  O  O375  1  0.78615634  0.25130483  0.94116434  1
  O  O376  1  0.78538989  0.58387145  0.19256816  1
  O  O377  1  0.78696958  0.58494877  0.44215338  1
  O  O378  1  0.78648699  0.58341476  0.69272070  1
  O  O379  1  0.78618167  0.58219879  0.94338895  1
  O  O380  1  0.78620806  0.91705881  0.19187983  1
  O  O381  1  0.78663684  0.91603503  0.44334116  1
  O  O382  1  0.78577375  0.91704701  0.69195117  1
  O  O383  1  0.78589493  0.91644237  0.94342512  1
  O  O384  1  0.22766839  0.25021192  0.06011357  1
  O  O385  1  0.22829627  0.24902363  0.30888513  1
  O  O386  1  0.22900664  0.25041971  0.55705174  1
  O  O387  1  0.22877507  0.25067944  0.80703880  1
  O  O388  1  0.22770851  0.58373325  0.05987308  1
  O  O389  1  0.22748912  0.58312764  0.30973397  1
  O  O390  1  0.22867908  0.58203842  0.55838288  1
  O  O391  1  0.22925535  0.58395712  0.80691804  1
  O  O392  1  0.22854064  0.91683019  0.05723433  1
  O  O393  1  0.22924521  0.91676065  0.30705344  1
  O  O394  1  0.22751913  0.91656158  0.55915926  1
  O  O395  1  0.22769209  0.91499204  0.80826253  1
  O  O396  1  0.72759169  0.25102569  0.05714864  1
  O  O397  1  0.72825143  0.24984265  0.30557554  1
  O  O398  1  0.72820642  0.24952886  0.55577526  1
  O  O399  1  0.72734263  0.25064800  0.80738418  1
  O  O400  1  0.72693570  0.58336378  0.05924679  1
  O  O401  1  0.72663388  0.58321861  0.30898829  1
  O  O402  1  0.72785956  0.58547097  0.55791584  1
  O  O403  1  0.72749630  0.58126872  0.80855099  1
  O  O404  1  0.72661865  0.91663587  0.05930379  1
  O  O405  1  0.72749714  0.91706706  0.30794528  1
  O  O406  1  0.72692635  0.91652935  0.55899726  1
  O  O407  1  0.72700320  0.91776217  0.80808774  1
  O  O408  1  0.27266250  0.08543602  0.19230477  1
  O  O409  1  0.27293141  0.08476348  0.44235540  1
  O  O410  1  0.27243347  0.08198095  0.69255322  1
  O  O411  1  0.27142445  0.08355048  0.94363888  1
  O  O412  1  0.27327546  0.41795063  0.19187960  1
  O  O413  1  0.27226959  0.41859396  0.44191675  1
  O  O414  1  0.27272371  0.41903182  0.69215570  1
  O  O415  1  0.27240074  0.41729953  0.94449208  1
  O  O416  1  0.27216550  0.74811952  0.19241829  1
  O  O417  1  0.27230394  0.74828698  0.44203087  1
  O  O418  1  0.27252641  0.75162400  0.69197409  1
  O  O419  1  0.27180441  0.75206599  0.94211931  1
  O  O420  1  0.77145309  0.08145581  0.19109869  1
  O  O421  1  0.77227385  0.08090798  0.44100560  1
  O  O422  1  0.77163319  0.08133130  0.69150328  1
  O  O423  1  0.77137202  0.08163768  0.94126987  1
  O  O424  1  0.77285891  0.41626274  0.18992633  1
  O  O425  1  0.77204259  0.41862783  0.44090934  1
  O  O426  1  0.77147819  0.41690391  0.69274467  1
  O  O427  1  0.77264869  0.41704260  0.94012797  1
  O  O428  1  0.77239812  0.74861526  0.19073692  1
  O  O429  1  0.77166596  0.74872120  0.44167807  1
  O  O430  1  0.77255474  0.74902031  0.69089784  1
  O  O431  1  0.77104970  0.74955285  0.94339067  1
  O  O432  1  0.02181502  0.08161109  0.18293714  1
  O  O433  1  0.02223858  0.08564492  0.43348158  1
  O  O434  1  0.02161534  0.08228026  0.68334053  1
  O  O435  1  0.02106456  0.08342735  0.93137360  1
  O  O436  1  0.02128699  0.41766070  0.18172396  1
  O  O437  1  0.02117812  0.41739267  0.43196745  1
  O  O438  1  0.02246630  0.41679862  0.68430684  1
  O  O439  1  0.02178978  0.41744898  0.93121602  1
  O  O440  1  0.02140004  0.74919892  0.18324570  1
  O  O441  1  0.02130399  0.75096524  0.43207733  1
  O  O442  1  0.02227717  0.74983562  0.68451408  1
  O  O443  1  0.02088528  0.75056216  0.93116476  1
  O  O444  1  0.52218420  0.08482011  0.18295323  1
  O  O445  1  0.52345734  0.08240405  0.43390591  1
  O  O446  1  0.52225338  0.08454390  0.68275639  1
  O  O447  1  0.52205427  0.08182706  0.93287030  1
  O  O448  1  0.52348919  0.41685809  0.18401432  1
  O  O449  1  0.52339585  0.41557139  0.43425921  1
  O  O450  1  0.52250484  0.41394035  0.68333834  1
  O  O451  1  0.52278435  0.41529388  0.93469185  1
  O  O452  1  0.52213886  0.75109494  0.18313590  1
  O  O453  1  0.52150183  0.74943099  0.43147532  1
  O  O454  1  0.52251640  0.75090793  0.68276572  1
  O  O455  1  0.52196183  0.75050464  0.93319364  1
  O  O456  1  0.47814474  0.25120141  0.06691609  1
  O  O457  1  0.47798818  0.24912527  0.31522553  1
  O  O458  1  0.47809026  0.25047999  0.56467396  1
  O  O459  1  0.47716289  0.24921193  0.81491739  1
  O  O460  1  0.47716415  0.58159375  0.06749284  1
  O  O461  1  0.47789159  0.58108514  0.31683076  1
  O  O462  1  0.47813522  0.58078600  0.56684249  1
  O  O463  1  0.47861133  0.58253777  0.81830204  1
  O  O464  1  0.47691005  0.91633305  0.06525418  1
  O  O465  1  0.47809346  0.91525449  0.31634368  1
  O  O466  1  0.47774525  0.91852438  0.56643711  1
  O  O467  1  0.47804866  0.91474926  0.81640307  1
  O  O468  1  0.97831832  0.25025987  0.06828198  1
  O  O469  1  0.97895310  0.25017986  0.31864817  1
  O  O470  1  0.97815822  0.24864639  0.56715002  1
  O  O471  1  0.97853100  0.25191289  0.81701067  1
  O  O472  1  0.97775806  0.58391873  0.06844856  1
  O  O473  1  0.97756730  0.58592428  0.31757273  1
  O  O474  1  0.97808086  0.58402723  0.56920599  1
  O  O475  1  0.97736326  0.58363144  0.81533523  1
  O  O476  1  0.97799789  0.91664522  0.06884883  1
  O  O477  1  0.97836814  0.91889303  0.31762094  1
  O  O478  1  0.97799154  0.91746218  0.56896698  1
  O  O479  1  0.97667578  0.91777276  0.81578673  1
  O  O480  1  0.07395469  0.31346133  0.07524333  1
  O  O481  1  0.07407088  0.31413598  0.32617023  1
  O  O482  1  0.07337619  0.31295981  0.57503366  1
  O  O483  1  0.07375328  0.31521493  0.82385735  1
  O  O484  1  0.07322013  0.64755376  0.07453140  1
  O  O485  1  0.07280810  0.64895388  0.32436178  1
  O  O486  1  0.07364751  0.64718238  0.57652796  1
  O  O487  1  0.07218716  0.64779073  0.82325980  1
  O  O488  1  0.07376245  0.97991061  0.07494754  1
  O  O489  1  0.07344183  0.98239385  0.32458652  1
  O  O490  1  0.07388174  0.98002194  0.57636342  1
  O  O491  1  0.07206104  0.98083804  0.82351961  1
  O  O492  1  0.57312172  0.31454582  0.07383839  1
  O  O493  1  0.57255960  0.31321859  0.32262140  1
  O  O494  1  0.57372767  0.31293232  0.57289591  1
  O  O495  1  0.57206106  0.31290375  0.82284674  1
  O  O496  1  0.57253776  0.64509165  0.07587601  1
  O  O497  1  0.57310944  0.64466649  0.32502417  1
  O  O498  1  0.57297880  0.64523890  0.57440676  1
  O  O499  1  0.57407321  0.64565671  0.82622114  1
  O  O500  1  0.57119939  0.98040136  0.07317159  1
  O  O501  1  0.57362958  0.97870205  0.32365114  1
  O  O502  1  0.57284072  0.98138552  0.57398942  1
  O  O503  1  0.57344977  0.97815261  0.82461018  1
  O  O504  1  0.42665720  0.02134414  0.17525997  1
  O  O505  1  0.42804269  0.01989266  0.42597578  1
  O  O506  1  0.42685383  0.02108775  0.67492494  1
  O  O507  1  0.42737667  0.01819148  0.92577331  1
  O  O508  1  0.42907925  0.35254854  0.17752288  1
  O  O509  1  0.42830001  0.35213620  0.42573146  1
  O  O510  1  0.42739387  0.35115641  0.67532660  1
  O  O511  1  0.42740519  0.35218624  0.92757901  1
  O  O512  1  0.42704337  0.68727558  0.17450704  1
  O  O513  1  0.42641953  0.68567894  0.42425176  1
  O  O514  1  0.42716629  0.68708135  0.67520354  1
  O  O515  1  0.42647396  0.68731355  0.92519914  1
  O  O516  1  0.92660772  0.01868297  0.17660165  1
  O  O517  1  0.92700879  0.02128745  0.42613558  1
  O  O518  1  0.92643075  0.01936182  0.67541089  1
  O  O519  1  0.92537254  0.02014216  0.92484113  1
  O  O520  1  0.92625842  0.35337081  0.17478675  1
  O  O521  1  0.92556452  0.35420140  0.42507649  1
  O  O522  1  0.92769922  0.35262978  0.67641568  1
  O  O523  1  0.92641517  0.35392491  0.92392233  1
  O  O524  1  0.92641390  0.68565161  0.17662424  1
  O  O525  1  0.92566292  0.68772081  0.42573390  1
  O  O526  1  0.92679970  0.68694432  0.67681626  1
  O  O527  1  0.92547613  0.68698230  0.92415056  1
  O  O528  1  0.17762424  0.02133120  0.20058020  1
  O  O529  1  0.17738832  0.02099402  0.44972826  1
  O  O530  1  0.17747156  0.01846176  0.69895640  1
  O  O531  1  0.17558863  0.02095191  0.95108877  1
  O  O532  1  0.17896425  0.35340227  0.19941268  1
  O  O533  1  0.17705024  0.35483728  0.45038491  1
  O  O534  1  0.17750796  0.35504005  0.69937851  1
  O  O535  1  0.17683383  0.35425414  0.95122585  1
  O  O536  1  0.17698061  0.68502975  0.19944316  1
  O  O537  1  0.17710718  0.68540443  0.45001345  1
  O  O538  1  0.17739750  0.68778353  0.70006656  1
  O  O539  1  0.17677878  0.68752125  0.94900377  1
  O  O540  1  0.67612426  0.01817845  0.19814910  1
  O  O541  1  0.67719519  0.01756385  0.44864998  1
  O  O542  1  0.67622244  0.01840427  0.69846989  1
  O  O543  1  0.67648976  0.01793316  0.94876210  1
  O  O544  1  0.67776919  0.35300092  0.19777949  1
  O  O545  1  0.67692179  0.35446080  0.44828120  1
  O  O546  1  0.67626631  0.35314029  0.69976204  1
  O  O547  1  0.67806095  0.35286312  0.94803775  1
  O  O548  1  0.67665680  0.68595663  0.19878111  1
  O  O549  1  0.67666720  0.68522174  0.44887386  1
  O  O550  1  0.67724533  0.68582976  0.69879121  1
  O  O551  1  0.67575023  0.68600729  0.95113299  1
  O  O552  1  0.32229687  0.31416060  0.05354488  1
  O  O553  1  0.32341383  0.31302019  0.30022947  1
  O  O554  1  0.32416905  0.31395883  0.54893798  1
  O  O555  1  0.32430816  0.31386848  0.80051026  1
  O  O556  1  0.32249140  0.64779307  0.05264263  1
  O  O557  1  0.32248475  0.64657141  0.30173319  1
  O  O558  1  0.32402369  0.64563334  0.54991267  1
  O  O559  1  0.32462844  0.64724858  0.79987125  1
  O  O560  1  0.32393514  0.98015305  0.04937518  1
  O  O561  1  0.32477820  0.98004151  0.30011377  1
  O  O562  1  0.32237611  0.98034259  0.55201702  1
  O  O563  1  0.32291189  0.97903907  0.80013417  1
  O  O564  1  0.82271682  0.31454520  0.04969651  1
  O  O565  1  0.82391504  0.31307410  0.29847824  1
  O  O566  1  0.82341100  0.31349301  0.54877752  1
  O  O567  1  0.82226036  0.31440258  0.80053005  1
  O  O568  1  0.82220451  0.64642655  0.05126970  1
  O  O569  1  0.82122296  0.64741266  0.30114365  1
  O  O570  1  0.82310060  0.64834121  0.55115614  1
  O  O571  1  0.82213758  0.64628187  0.80104256  1
  O  O572  1  0.82208465  0.97985708  0.05147433  1
  O  O573  1  0.82234012  0.98058538  0.30075150  1
  O  O574  1  0.82240495  0.97971484  0.55157444  1
  O  O575  1  0.82205615  0.98078723  0.80057191  1
  O  O576  1  0.42746343  0.14839656  0.17601074  1
  O  O577  1  0.42917756  0.14729791  0.42659810  1
  O  O578  1  0.42736670  0.14795104  0.67527194  1
  O  O579  1  0.42650760  0.14532046  0.92522035  1
  O  O580  1  0.42779064  0.47959389  0.17710630  1
  O  O581  1  0.42851829  0.47932769  0.42644656  1
  O  O582  1  0.42752323  0.47806761  0.67524020  1
  O  O583  1  0.42830122  0.47953696  0.92754514  1
  O  O584  1  0.42704036  0.81449858  0.17573516  1
  O  O585  1  0.42573856  0.81254262  0.42471292  1
  O  O586  1  0.42762156  0.81447400  0.67554022  1
  O  O587  1  0.42701773  0.81428932  0.92589530  1
  O  O588  1  0.92663561  0.14593448  0.17559618  1
  O  O589  1  0.92699788  0.14836502  0.42591631  1
  O  O590  1  0.92626784  0.14638820  0.67575535  1
  O  O591  1  0.92587152  0.14708462  0.92430363  1
  O  O592  1  0.92542284  0.48034871  0.17490911  1
  O  O593  1  0.92592404  0.48121448  0.42539253  1
  O  O594  1  0.92722771  0.48026204  0.67664348  1
  O  O595  1  0.92631774  0.48065165  0.92382482  1
  O  O596  1  0.92601331  0.81285558  0.17576075  1
  O  O597  1  0.92602361  0.81458541  0.42461295  1
  O  O598  1  0.92784403  0.81441674  0.67729336  1
  O  O599  1  0.92531166  0.81371473  0.92465217  1
  O  O600  1  0.07338929  0.18633750  0.07499402  1
  O  O601  1  0.07473528  0.18724551  0.32518218  1
  O  O602  1  0.07326961  0.18571151  0.57513130  1
  O  O603  1  0.07393534  0.18805700  0.82444400  1
  O  O604  1  0.07328300  0.52080294  0.07556644  1
  O  O605  1  0.07271908  0.52168887  0.32484836  1
  O  O606  1  0.07337990  0.52044026  0.57601659  1
  O  O607  1  0.07272013  0.52030536  0.82323482  1
  O  O608  1  0.07320719  0.85305557  0.07578852  1
  O  O609  1  0.07381431  0.85516472  0.32504509  1
  O  O610  1  0.07300393  0.85335656  0.57605487  1
  O  O611  1  0.07121029  0.85329040  0.82287568  1
  O  O612  1  0.57361496  0.18772198  0.07407810  1
  O  O613  1  0.57318258  0.18596628  0.32343116  1
  O  O614  1  0.57235530  0.18589447  0.57203431  1
  O  O615  1  0.57190385  0.18548935  0.82296969  1
  O  O616  1  0.57210346  0.51798819  0.07413590  1
  O  O617  1  0.57311145  0.51765955  0.32378864  1
  O  O618  1  0.57346659  0.51791374  0.57431897  1
  O  O619  1  0.57385814  0.51881313  0.82595003  1
  O  O620  1  0.57220076  0.85290684  0.07345270  1
  O  O621  1  0.57291189  0.85158847  0.32349625  1
  O  O622  1  0.57291844  0.85425427  0.57426067  1
  O  O623  1  0.57295211  0.85123151  0.82338693  1
  O  O624  1  0.32292573  0.18670090  0.05228535  1
  O  O625  1  0.32343684  0.18602322  0.30134855  1
  O  O626  1  0.32455157  0.18705746  0.54984338  1
  O  O627  1  0.32396758  0.18681636  0.80032668  1
  O  O628  1  0.32291709  0.52034141  0.05245550  1
  O  O629  1  0.32248526  0.51938522  0.30145601  1
  O  O630  1  0.32370509  0.51873524  0.55039496  1
  O  O631  1  0.32483735  0.52044303  0.80092995  1
  O  O632  1  0.32398516  0.85328931  0.05015744  1
  O  O633  1  0.32447794  0.85304272  0.29988682  1
  O  O634  1  0.32255948  0.85278424  0.55158030  1
  O  O635  1  0.32287856  0.85206199  0.80057587  1
  O  O636  1  0.82286729  0.18739692  0.04850898  1
  O  O637  1  0.82342364  0.18620420  0.29788832  1
  O  O638  1  0.82380260  0.18648179  0.54916458  1
  O  O639  1  0.82290496  0.18723833  0.79999594  1
  O  O640  1  0.82161511  0.51918035  0.05208211  1
  O  O641  1  0.82179817  0.52019220  0.30055263  1
  O  O642  1  0.82305334  0.52146597  0.55033909  1
  O  O643  1  0.82299741  0.51918493  0.80066860  1
  O  O644  1  0.82110109  0.85247295  0.05189009  1
  O  O645  1  0.82293808  0.85370986  0.29975036  1
  O  O646  1  0.82137972  0.85237739  0.55202832  1
  O  O647  1  0.82208154  0.85381181  0.80006958  1
  O  O648  1  0.17728645  0.14843652  0.19960351  1
  O  O649  1  0.17806108  0.14814941  0.45029795  1
  O  O650  1  0.17698141  0.14571640  0.69982751  1
  O  O651  1  0.17632432  0.14781713  0.95013601  1
  O  O652  1  0.17762802  0.48076492  0.19926048  1
  O  O653  1  0.17694386  0.48181458  0.44894705  1
  O  O654  1  0.17755838  0.48225566  0.69928529  1
  O  O655  1  0.17703938  0.48096143  0.95167857  1
  O  O656  1  0.17706527  0.81211705  0.20096342  1
  O  O657  1  0.17708313  0.81255287  0.44981416  1
  O  O658  1  0.17723040  0.81478445  0.69861260  1
  O  O659  1  0.17639124  0.81464742  0.94946444  1
  O  O660  1  0.67625770  0.14520437  0.19913866  1
  O  O661  1  0.67710094  0.14470699  0.44912493  1
  O  O662  1  0.67665930  0.14549855  0.69916935  1
  O  O663  1  0.67594987  0.14504692  0.94951657  1
  O  O664  1  0.67810434  0.48033433  0.19702667  1
  O  O665  1  0.67690853  0.48168259  0.44791378  1
  O  O666  1  0.67586516  0.47983290  0.70050047  1
  O  O667  1  0.67755855  0.48015788  0.94898531  1
  O  O668  1  0.67832657  0.81331478  0.19857789  1
  O  O669  1  0.67618224  0.81201595  0.44957381  1
  O  O670  1  0.67810004  0.81330802  0.69778046  1
  O  O671  1  0.67572481  0.81269137  0.95065625  1
