# generated using pymatgen
data_Na2MnFe(PO4)2
_symmetry_space_group_name_H-M   'P 1'
_cell_length_a   22.35000135
_cell_length_b   20.09981367
_cell_length_c   19.44314424
_cell_angle_alpha   89.96005477
_cell_angle_beta   89.98627346
_cell_angle_gamma   89.99722725
_symmetry_Int_Tables_number   1
_chemical_formula_structural   Na2MnFe(PO4)2
_chemical_formula_sum   'Na96 Mn48 Fe48 P96 O384'
_cell_volume   8734.45807689
_cell_formula_units_Z   48
loop_
 _symmetry_equiv_pos_site_id
 _symmetry_equiv_pos_as_xyz
  1  'x, y, z'
loop_
 _atom_site_type_symbol
 _atom_site_label
 _atom_site_symmetry_multiplicity
 _atom_site_fract_x
 _atom_site_fract_y
 _atom_site_fract_z
 _atom_site_occupancy
  Na  Na0  1  0.14077179  0.25040900  0.24482919  1
  Na  Na1  1  0.14121502  0.25004159  0.49395212  1
  Na  Na2  1  0.14025599  0.25033698  0.74415565  1
  Na  Na3  1  0.14092483  0.24990124  0.99346936  1
  Na  Na4  1  0.14048700  0.58329027  0.24497116  1
  Na  Na5  1  0.14024557  0.58353163  0.49139409  1
  Na  Na6  1  0.14055352  0.58448633  0.74290729  1
  Na  Na7  1  0.14072218  0.58271777  0.99441797  1
  Na  Na8  1  0.14070129  0.91801159  0.24466672  1
  Na  Na9  1  0.14079186  0.91737859  0.49285753  1
  Na  Na10  1  0.14045697  0.91949495  0.74328160  1
  Na  Na11  1  0.14024681  0.91875773  0.99306602  1
  Na  Na12  1  0.64047713  0.24921693  0.24476123  1
  Na  Na13  1  0.64058658  0.24846334  0.49475913  1
  Na  Na14  1  0.64057866  0.25080724  0.74322314  1
  Na  Na15  1  0.64054457  0.24977723  0.99332345  1
  Na  Na16  1  0.64051290  0.58374572  0.24313535  1
  Na  Na17  1  0.63987957  0.58225311  0.49401729  1
  Na  Na18  1  0.64002711  0.58214722  0.74314523  1
  Na  Na19  1  0.64029937  0.58182951  0.99356899  1
  Na  Na20  1  0.63965764  0.91594059  0.24316278  1
  Na  Na21  1  0.63979532  0.91667214  0.49276361  1
  Na  Na22  1  0.63979904  0.91832763  0.74336729  1
  Na  Na23  1  0.63948797  0.91565770  0.99383641  1
  Na  Na24  1  0.35989056  0.08427430  0.00642565  1
  Na  Na25  1  0.35963210  0.08416166  0.25770951  1
  Na  Na26  1  0.36022932  0.08224987  0.50639519  1
  Na  Na27  1  0.36011201  0.08495946  0.75765597  1
  Na  Na28  1  0.35985516  0.41578826  0.00653141  1
  Na  Na29  1  0.35914555  0.41634622  0.25717698  1
  Na  Na30  1  0.35973374  0.41654640  0.50620716  1
  Na  Na31  1  0.35975935  0.41708999  0.75677999  1
  Na  Na32  1  0.35942769  0.75126962  0.00607388  1
  Na  Na33  1  0.35978163  0.75094089  0.25791219  1
  Na  Na34  1  0.35992328  0.75039572  0.50567909  1
  Na  Na35  1  0.35925271  0.75224372  0.75506867  1
  Na  Na36  1  0.85969873  0.08151219  0.00542275  1
  Na  Na37  1  0.85940596  0.08265860  0.25669414  1
  Na  Na38  1  0.85958830  0.08251411  0.50698450  1
  Na  Na39  1  0.85997147  0.08420286  0.75637791  1
  Na  Na40  1  0.85956238  0.41645157  0.00499791  1
  Na  Na41  1  0.85921200  0.41608265  0.25613993  1
  Na  Na42  1  0.86001619  0.41513339  0.50757454  1
  Na  Na43  1  0.86007309  0.41601294  0.75557387  1
  Na  Na44  1  0.85881246  0.74875643  0.00640892  1
  Na  Na45  1  0.85940968  0.74946848  0.25561583  1
  Na  Na46  1  0.85943208  0.74845780  0.50650062  1
  Na  Na47  1  0.85892370  0.75026087  0.75505217  1
  Na  Na48  1  0.10997716  0.08500012  0.11861586  1
  Na  Na49  1  0.11028905  0.08326442  0.36925415  1
  Na  Na50  1  0.11023551  0.08504180  0.61899992  1
  Na  Na51  1  0.10979256  0.08420802  0.86796935  1
  Na  Na52  1  0.11010592  0.41617388  0.11938783  1
  Na  Na53  1  0.11018841  0.41708754  0.36880439  1
  Na  Na54  1  0.10954076  0.41702643  0.61783774  1
  Na  Na55  1  0.11014677  0.41485133  0.86887198  1
  Na  Na56  1  0.10969884  0.75055750  0.12004776  1
  Na  Na57  1  0.10981515  0.74975641  0.36886269  1
  Na  Na58  1  0.10961678  0.75093632  0.61716866  1
  Na  Na59  1  0.10922291  0.75147369  0.86868462  1
  Na  Na60  1  0.60944733  0.08199293  0.11986701  1
  Na  Na61  1  0.60983084  0.08162393  0.36792283  1
  Na  Na62  1  0.60949931  0.08284429  0.61884516  1
  Na  Na63  1  0.60940200  0.08247787  0.86845102  1
  Na  Na64  1  0.60984844  0.41660727  0.11825973  1
  Na  Na65  1  0.60972643  0.41627641  0.36966957  1
  Na  Na66  1  0.60972412  0.41738900  0.61921977  1
  Na  Na67  1  0.60992984  0.41648164  0.86795632  1
  Na  Na68  1  0.60942443  0.75047939  0.11766706  1
  Na  Na69  1  0.60952909  0.75031484  0.36862222  1
  Na  Na70  1  0.60899800  0.75040606  0.61734588  1
  Na  Na71  1  0.60885577  0.75052260  0.86898442  1
  Na  Na72  1  0.38993594  0.24925078  0.13242474  1
  Na  Na73  1  0.39010632  0.24908493  0.38219187  1
  Na  Na74  1  0.39050052  0.24975867  0.63264232  1
  Na  Na75  1  0.39021234  0.24964088  0.88271336  1
  Na  Na76  1  0.39049249  0.58388835  0.13153112  1
  Na  Na77  1  0.39052034  0.58416758  0.38250115  1
  Na  Na78  1  0.39011235  0.58393232  0.62965552  1
  Na  Na79  1  0.39046131  0.58381405  0.88111141  1
  Na  Na80  1  0.39061679  0.91780932  0.13166704  1
  Na  Na81  1  0.39043598  0.91608152  0.38209743  1
  Na  Na82  1  0.39016494  0.91757058  0.63081615  1
  Na  Na83  1  0.39024965  0.91815996  0.88079219  1
  Na  Na84  1  0.89023915  0.24996788  0.13006469  1
  Na  Na85  1  0.89012030  0.24907081  0.38296236  1
  Na  Na86  1  0.89045027  0.24965329  0.63190886  1
  Na  Na87  1  0.89026245  0.24911488  0.87992116  1
  Na  Na88  1  0.88970664  0.58289003  0.13116386  1
  Na  Na89  1  0.89057027  0.58247618  0.38137787  1
  Na  Na90  1  0.89064513  0.58189356  0.63083418  1
  Na  Na91  1  0.89022439  0.58160779  0.88109827  1
  Na  Na92  1  0.89029157  0.91605843  0.13084250  1
  Na  Na93  1  0.89008999  0.91582031  0.38154939  1
  Na  Na94  1  0.89026693  0.91761503  0.63116729  1
  Na  Na95  1  0.89001191  0.91717812  0.88057659  1
  Mn  Mn96  1  0.24956543  0.66783549  0.87449309  1
  Mn  Mn97  1  0.49954700  0.33391519  0.75071593  1
  Mn  Mn98  1  0.50012525  0.50014489  0.25031611  1
  Mn  Mn99  1  0.25043542  0.49945424  0.87471357  1
  Mn  Mn100  1  -0.00014420  0.66640111  0.74960174  1
  Mn  Mn101  1  0.75006257  0.16565213  0.12450466  1
  Mn  Mn102  1  0.24928319  0.83541802  0.87520830  1
  Mn  Mn103  1  -0.00009534  0.83355737  0.49999742  1
  Mn  Mn104  1  0.74983904  0.16662252  0.87476197  1
  Mn  Mn105  1  0.49946635  0.66716636  -0.00036893  1
  Mn  Mn106  1  0.25010936  0.66691712  0.12572643  1
  Mn  Mn107  1  0.74956315  0.00003637  0.62443380  1
  Mn  Mn108  1  -0.00025598  0.16673743  -0.00079820  1
  Mn  Mn109  1  0.49916062  0.66655070  0.74932556  1
  Mn  Mn110  1  0.75053733  0.33330527  0.12458777  1
  Mn  Mn111  1  -0.00072149  0.50030554  0.24983915  1
  Mn  Mn112  1  0.00073180  0.49881530  0.00038274  1
  Mn  Mn113  1  0.25069397  0.49909013  0.12507024  1
  Mn  Mn114  1  -0.00013039  -0.00002263  0.24983252  1
  Mn  Mn115  1  -0.00084522  0.83432543  -0.00060404  1
  Mn  Mn116  1  0.00021699  0.16649171  0.50069553  1
  Mn  Mn117  1  0.75007619  0.49913456  0.37497747  1
  Mn  Mn118  1  -0.00029020  0.16683579  0.25000539  1
  Mn  Mn119  1  0.00057441  0.83257706  0.25076488  1
  Mn  Mn120  1  0.74917773  0.83301000  0.37480408  1
  Mn  Mn121  1  0.50053269  0.66766095  0.25012820  1
  Mn  Mn122  1  0.49934180  0.33245060  0.25021930  1
  Mn  Mn123  1  0.74905110  0.83356219  0.87529518  1
  Mn  Mn124  1  0.24995973  0.83464798  0.12555761  1
  Mn  Mn125  1  0.25009143  0.00099021  0.62453934  1
  Mn  Mn126  1  0.49964219  0.83446471  0.74880697  1
  Mn  Mn127  1  0.25022924  0.00197597  0.12527652  1
  Mn  Mn128  1  0.74958586  0.33189322  0.37571758  1
  Mn  Mn129  1  0.74920260  -0.00142056  0.12570522  1
  Mn  Mn130  1  -0.00039395  0.83448011  0.74884529  1
  Mn  Mn131  1  0.50018710  0.16544932  0.50095839  1
  Mn  Mn132  1  0.00123882  0.49885697  0.74991299  1
  Mn  Mn133  1  0.50052272  0.33346738  0.50106587  1
  Mn  Mn134  1  0.50058622  0.16549101  0.00109987  1
  Mn  Mn135  1  0.25005709  0.66821302  0.62380314  1
  Mn  Mn136  1  0.25026276  0.33259861  0.62522842  1
  Mn  Mn137  1  0.24988728  0.50022526  0.62461694  1
  Mn  Mn138  1  0.74987453  0.66610324  0.37481314  1
  Mn  Mn139  1  0.50071759  0.33344316  0.00041075  1
  Mn  Mn140  1  0.74940245  0.66582754  0.62562671  1
  Mn  Mn141  1  -0.00019775  0.33354991  0.25059570  1
  Mn  Mn142  1  0.74901479  0.66554443  0.87490027  1
  Mn  Mn143  1  0.00001813  0.66650472  -0.00035597  1
  Fe  Fe144  1  0.74984567  -0.00024460  0.87469923  1
  Fe  Fe145  1  -0.00006798  0.33290551  0.74934137  1
  Fe  Fe146  1  0.25039986  0.00089551  0.37553864  1
  Fe  Fe147  1  0.75020519  0.49930911  0.87448223  1
  Fe  Fe148  1  0.24959949  0.83438500  0.62409627  1
  Fe  Fe149  1  0.74960828  0.16620868  0.62508656  1
  Fe  Fe150  1  0.00018188  0.00073090  0.74993367  1
  Fe  Fe151  1  0.75027332  0.49891322  0.62505118  1
  Fe  Fe152  1  0.25025848  0.16779388  0.87571343  1
  Fe  Fe153  1  0.00027460  0.16671285  0.74955271  1
  Fe  Fe154  1  0.74937784  0.83346270  0.62500301  1
  Fe  Fe155  1  0.25033856  0.49949899  0.37447535  1
  Fe  Fe156  1  0.74956276  0.49927518  0.12462578  1
  Fe  Fe157  1  0.00017909  0.49988427  0.49995319  1
  Fe  Fe158  1  0.50030350  0.66705916  0.49983677  1
  Fe  Fe159  1  0.00070766  0.33323588  0.50039667  1
  Fe  Fe160  1  0.25006849  0.33274869  0.87586393  1
  Fe  Fe161  1  0.49918850  0.83428006  -0.00058095  1
  Fe  Fe162  1  0.75046944  -0.00072000  0.37517650  1
  Fe  Fe163  1  0.25106234  0.16703276  0.62542698  1
  Fe  Fe164  1  0.25037421  0.16699729  0.37509996  1
  Fe  Fe165  1  -0.00003756  0.66635331  0.25020419  1
  Fe  Fe166  1  0.75012407  0.33352031  0.87395713  1
  Fe  Fe167  1  0.49963659  0.50015842  0.00010724  1
  Fe  Fe168  1  0.24996509  0.33270277  0.12601700  1
  Fe  Fe169  1  0.50009745  -0.00045156  0.49913077  1
  Fe  Fe170  1  -0.00012330  0.66648836  0.49964528  1
  Fe  Fe171  1  0.00011814  0.00052051  -0.00031541  1
  Fe  Fe172  1  0.25040757  0.00183456  0.87453537  1
  Fe  Fe173  1  0.49944714  0.83362934  0.24991442  1
  Fe  Fe174  1  0.50034994  0.16563985  0.25085970  1
  Fe  Fe175  1  0.00020157  0.00047993  0.50044490  1
  Fe  Fe176  1  0.49978934  0.50036654  0.49994101  1
  Fe  Fe177  1  0.49959370  -0.00005369  0.00050944  1
  Fe  Fe178  1  0.75048783  0.16600793  0.37539332  1
  Fe  Fe179  1  0.24979206  0.16742972  0.12551881  1
  Fe  Fe180  1  0.50014119  0.83390568  0.49964117  1
  Fe  Fe181  1  0.75011134  0.33263647  0.62531714  1
  Fe  Fe182  1  0.25051981  0.33266953  0.37515307  1
  Fe  Fe183  1  -0.00010922  0.33263412  -0.00066186  1
  Fe  Fe184  1  0.74993929  0.66580415  0.12434730  1
  Fe  Fe185  1  0.24989403  0.83404169  0.37495649  1
  Fe  Fe186  1  0.50009521  0.00008926  0.75022342  1
  Fe  Fe187  1  0.25024744  0.66708831  0.37513369  1
  Fe  Fe188  1  0.50011408  0.16623318  0.75089352  1
  Fe  Fe189  1  0.49990198  0.50057299  0.74959305  1
  Fe  Fe190  1  0.75030274  0.83283886  0.12474868  1
  Fe  Fe191  1  0.49989132  -0.00101349  0.24984636  1
  P  P192  1  0.04242576  0.25106649  0.10201126  1
  P  P193  1  0.04257258  0.25010506  0.35410526  1
  P  P194  1  0.04234371  0.25130628  0.60324592  1
  P  P195  1  0.04109859  0.25005400  0.85141654  1
  P  P196  1  0.04291930  0.58342177  0.10365668  1
  P  P197  1  0.04185811  0.58437213  0.35331009  1
  P  P198  1  0.04194717  0.58334625  0.60102675  1
  P  P199  1  0.04336012  0.58283932  0.85292050  1
  P  P200  1  0.04255603  0.91813478  0.10213654  1
  P  P201  1  0.04278487  0.91694616  0.35391832  1
  P  P202  1  0.04244100  0.91883190  0.60263801  1
  P  P203  1  0.04211062  0.91862099  0.85226268  1
  P  P204  1  0.54295779  0.24907059  0.10410542  1
  P  P205  1  0.54209942  0.24817255  0.35312969  1
  P  P206  1  0.54249097  0.24942879  0.60454051  1
  P  P207  1  0.54214640  0.24871353  0.85270320  1
  P  P208  1  0.54218812  0.58271055  0.10207480  1
  P  P209  1  0.54268577  0.58375376  0.35409948  1
  P  P210  1  0.54117509  0.58335276  0.60166755  1
  P  P211  1  0.54189809  0.58227962  0.85250187  1
  P  P212  1  0.54095737  0.91655427  0.10212549  1
  P  P213  1  0.54118297  0.91605866  0.35192972  1
  P  P214  1  0.54126535  0.91755413  0.60132372  1
  P  P215  1  0.54181282  0.91778060  0.85288176  1
  P  P216  1  0.45863077  0.08280200  0.14904983  1
  P  P217  1  0.45832654  0.08164471  0.39687084  1
  P  P218  1  0.45865750  0.08290326  0.64869358  1
  P  P219  1  0.45823751  0.08214222  0.89743116  1
  P  P220  1  0.45702402  0.41686295  0.14684472  1
  P  P221  1  0.45799294  0.41738019  0.39815277  1
  P  P222  1  0.45759546  0.41858023  0.64734456  1
  P  P223  1  0.45814738  0.41814544  0.89748262  1
  P  P224  1  0.45753004  0.75204528  0.14717349  1
  P  P225  1  0.45913647  0.75072326  0.39816672  1
  P  P226  1  0.45731972  0.75039597  0.64522703  1
  P  P227  1  0.45706822  0.75185691  0.89715426  1
  P  P228  1  0.95689295  0.08335061  0.14622683  1
  P  P229  1  0.95751921  0.08209861  0.39806331  1
  P  P230  1  0.95878189  0.08325573  0.64803649  1
  P  P231  1  0.95802700  0.08205076  0.89632417  1
  P  P232  1  0.95689518  0.41603309  0.14645400  1
  P  P233  1  0.95860793  0.41633881  0.39893404  1
  P  P234  1  0.95846744  0.41531299  0.64650366  1
  P  P235  1  0.95825976  0.41448174  0.89673364  1
  P  P236  1  0.95775843  0.74882747  0.14775695  1
  P  P237  1  0.95772107  0.74838474  0.39737788  1
  P  P238  1  0.95722406  0.74973503  0.64587080  1
  P  P239  1  0.95632208  0.75026904  0.89641607  1
  P  P240  1  0.20798171  0.08568322  0.22868783  1
  P  P241  1  0.20920191  0.08430270  0.47709325  1
  P  P242  1  0.20875043  0.08559318  0.72815446  1
  P  P243  1  0.20858035  0.08458029  0.97672209  1
  P  P244  1  0.20822176  0.41526420  0.22866198  1
  P  P245  1  0.20917955  0.41599457  0.47627086  1
  P  P246  1  0.20722848  0.41618406  0.72828743  1
  P  P247  1  0.20819916  0.41474985  0.97816428  1
  P  P248  1  0.20789817  0.75065707  0.22963083  1
  P  P249  1  0.20874735  0.75104404  0.47645284  1
  P  P250  1  0.20723473  0.75275636  0.72663394  1
  P  P251  1  0.20672802  0.75094996  0.97829503  1
  P  P252  1  0.70750606  0.08284659  0.22938038  1
  P  P253  1  0.70876665  0.08302848  0.47671561  1
  P  P254  1  0.70791957  0.08426393  0.72766416  1
  P  P255  1  0.70741966  0.08144504  0.97721167  1
  P  P256  1  0.70731960  0.41708108  0.22727813  1
  P  P257  1  0.70762999  0.41558041  0.47932866  1
  P  P258  1  0.70893906  0.41625637  0.72708367  1
  P  P259  1  0.70856565  0.41638709  0.97623016  1
  P  P260  1  0.70831595  0.74961117  0.22588243  1
  P  P261  1  0.70704492  0.74954606  0.47864177  1
  P  P262  1  0.70671242  0.75134267  0.72730243  1
  P  P263  1  0.70696400  0.74895351  0.97886537  1
  P  P264  1  0.29167014  0.25005481  0.02349874  1
  P  P265  1  0.29174436  0.24997085  0.27317470  1
  P  P266  1  0.29302561  0.24827957  0.52217209  1
  P  P267  1  0.29203250  0.25030510  0.77380177  1
  P  P268  1  0.29305131  0.58336147  0.02202842  1
  P  P269  1  0.29181892  0.58344529  0.27379266  1
  P  P270  1  0.29200923  0.58371889  0.52025918  1
  P  P271  1  0.29282427  0.58422306  0.77150915  1
  P  P272  1  0.29259908  0.91864416  0.02178805  1
  P  P273  1  0.29150097  0.91777466  0.27398590  1
  P  P274  1  0.29194051  0.91602027  0.52139560  1
  P  P275  1  0.29204037  0.91926356  0.77199101  1
  P  P276  1  0.79260150  0.24977151  0.02080995  1
  P  P277  1  0.79261459  0.24837582  0.27288291  1
  P  P278  1  0.79163494  0.24872491  0.52359141  1
  P  P279  1  0.79161098  0.25130825  0.77130090  1
  P  P280  1  0.79117654  0.58187398  0.02274618  1
  P  P281  1  0.79251930  0.58296647  0.27079641  1
  P  P282  1  0.79213602  0.58137192  0.52292484  1
  P  P283  1  0.79194859  0.58153874  0.77194825  1
  P  P284  1  0.79191122  0.91521503  0.02226277  1
  P  P285  1  0.79207920  0.91677013  0.27239660  1
  P  P286  1  0.79185603  0.91540553  0.52222146  1
  P  P287  1  0.79166166  0.91774851  0.77191793  1
  O  O288  1  0.03746587  0.25053724  0.18202169  1
  O  O289  1  0.03754842  0.25030463  0.43410257  1
  O  O290  1  0.03684365  0.25112600  0.68314696  1
  O  O291  1  0.03615887  0.24992854  0.93138516  1
  O  O292  1  0.03740801  0.58383408  0.18364534  1
  O  O293  1  0.03646991  0.58416677  0.43324768  1
  O  O294  1  0.03763302  0.58295831  0.68111503  1
  O  O295  1  0.03827902  0.58270510  0.93291201  1
  O  O296  1  0.03755055  0.91733002  0.18216886  1
  O  O297  1  0.03749339  0.91747026  0.43388156  1
  O  O298  1  0.03709403  0.91888687  0.68261623  1
  O  O299  1  0.03686982  0.91860042  0.93224004  1
  O  O300  1  0.53757636  0.24865530  0.18406792  1
  O  O301  1  0.53711389  0.24837968  0.43317933  1
  O  O302  1  0.53696049  0.24925150  0.68447476  1
  O  O303  1  0.53757152  0.24889987  0.93276376  1
  O  O304  1  0.53724878  0.58329203  0.18209218  1
  O  O305  1  0.53727975  0.58385325  0.43405521  1
  O  O306  1  0.53605188  0.58290246  0.68168137  1
  O  O307  1  0.53659807  0.58225891  0.93247718  1
  O  O308  1  0.53567833  0.91615928  0.18203553  1
  O  O309  1  0.53648175  0.91642933  0.43185651  1
  O  O310  1  0.53654005  0.91786193  0.68127940  1
  O  O311  1  0.53627573  0.91740441  0.93273928  1
  O  O312  1  0.46336601  0.08220392  0.06905556  1
  O  O313  1  0.46374567  0.08217533  0.31704391  1
  O  O314  1  0.46350389  0.08278335  0.56870998  1
  O  O315  1  0.46377289  0.08255316  0.81757106  1
  O  O316  1  0.46228807  0.41721065  0.06683678  1
  O  O317  1  0.46288728  0.41688418  0.31817092  1
  O  O318  1  0.46316604  0.41839883  0.56740845  1
  O  O319  1  0.46337807  0.41827410  0.81747102  1
  O  O320  1  0.46255608  0.75207677  0.06717039  1
  O  O321  1  0.46382888  0.75131513  0.31813562  1
  O  O322  1  0.46306943  0.75020223  0.56534122  1
  O  O323  1  0.46210823  0.75140486  0.81714443  1
  O  O324  1  0.96203469  0.08308426  0.06621630  1
  O  O325  1  0.96230363  0.08263245  0.31806477  1
  O  O326  1  0.96347131  0.08312515  0.56801835  1
  O  O327  1  0.96362340  0.08228658  0.81641715  1
  O  O328  1  0.96211546  0.41543009  0.06648555  1
  O  O329  1  0.96295901  0.41689483  0.31886337  1
  O  O330  1  0.96378855  0.41561641  0.56659281  1
  O  O331  1  0.96373985  0.41453335  0.81676125  1
  O  O332  1  0.96268861  0.74950826  0.06776248  1
  O  O333  1  0.96305010  0.74825267  0.31740744  1
  O  O334  1  0.96263654  0.74920201  0.56590078  1
  O  O335  1  0.96130923  0.75056021  0.81637867  1
  O  O336  1  0.21330010  0.08507046  0.05674852  1
  O  O337  1  0.21349047  0.08535704  0.30854876  1
  O  O338  1  0.21399704  0.08420854  0.55706068  1
  O  O339  1  0.21392038  0.08520954  0.80803990  1
  O  O340  1  0.21363875  0.41451625  0.05813592  1
  O  O341  1  0.21364652  0.41552368  0.30856903  1
  O  O342  1  0.21381122  0.41616388  0.55629986  1
  O  O343  1  0.21230964  0.41586510  0.80827391  1
  O  O344  1  0.21202055  0.75088359  0.05830402  1
  O  O345  1  0.21361749  0.75049431  0.30957012  1
  O  O346  1  0.21351883  0.75151431  0.55647283  1
  O  O347  1  0.21210806  0.75253021  0.80664075  1
  O  O348  1  0.71239134  0.08157231  0.05722585  1
  O  O349  1  0.71315999  0.08268593  0.30929137  1
  O  O350  1  0.71352199  0.08336005  0.55677593  1
  O  O351  1  0.71321924  0.08322368  0.80755563  1
  O  O352  1  0.71357759  0.41678916  0.05624005  1
  O  O353  1  0.71236445  0.41652216  0.30727960  1
  O  O354  1  0.71314242  0.41558396  0.55924427  1
  O  O355  1  0.71414300  0.41639131  0.80702242  1
  O  O356  1  0.71272001  0.74885483  0.05875886  1
  O  O357  1  0.71319658  0.74946819  0.30595658  1
  O  O358  1  0.71217494  0.75015249  0.55858361  1
  O  O359  1  0.71168684  0.75102452  0.80731424  1
  O  O360  1  0.28643914  0.25019422  0.19327426  1
  O  O361  1  0.28784289  0.24843119  0.44229018  1
  O  O362  1  0.28750707  0.24985977  0.69379672  1
  O  O363  1  0.28645045  0.25011442  0.94355548  1
  O  O364  1  0.28731369  0.58314926  0.19372878  1
  O  O365  1  0.28663645  0.58362004  0.44031714  1
  O  O366  1  0.28763369  0.58423551  0.69147255  1
  O  O367  1  0.28779288  0.58348808  0.94205514  1
  O  O368  1  0.28675932  0.91825472  0.19396581  1
  O  O369  1  0.28657060  0.91632751  0.44150588  1
  O  O370  1  0.28686675  0.91868240  0.69203484  1
  O  O371  1  0.28735632  0.91931765  0.94182385  1
  O  O372  1  0.78773163  0.24888624  0.19285909  1
  O  O373  1  0.78661158  0.24812856  0.44358055  1
  O  O374  1  0.78593407  0.25113884  0.69140834  1
  O  O375  1  0.78711539  0.25026651  0.94085314  1
  O  O376  1  0.78704991  0.58300862  0.19085395  1
  O  O377  1  0.78718622  0.58179371  0.44291221  1
  O  O378  1  0.78667407  0.58154513  0.69198924  1
  O  O379  1  0.78609862  0.58163888  0.94273819  1
  O  O380  1  0.78716564  0.91599799  0.19241422  1
  O  O381  1  0.78670221  0.91618615  0.44224741  1
  O  O382  1  0.78635335  0.91720504  0.69193830  1
  O  O383  1  0.78661620  0.91606002  0.94231793  1
  O  O384  1  0.22760159  0.24982969  0.05991689  1
  O  O385  1  0.22774595  0.24982765  0.30967263  1
  O  O386  1  0.22876588  0.24807270  0.55808911  1
  O  O387  1  0.22773323  0.25068545  0.80948290  1
  O  O388  1  0.22873030  0.58309719  0.05736844  1
  O  O389  1  0.22757565  0.58386177  0.30925480  1
  O  O390  1  0.22787662  0.58397440  0.55618428  1
  O  O391  1  0.22841020  0.58377507  0.80656088  1
  O  O392  1  0.22828830  0.91860800  0.05719891  1
  O  O393  1  0.22732406  0.91710542  0.30962331  1
  O  O394  1  0.22783513  0.91628542  0.55759542  1
  O  O395  1  0.22781942  0.91992381  0.80783297  1
  O  O396  1  0.72841494  0.24970965  0.05651217  1
  O  O397  1  0.72820801  0.24775677  0.30823944  1
  O  O398  1  0.72746182  0.24887184  0.55955920  1
  O  O399  1  0.72765677  0.25131606  0.80780667  1
  O  O400  1  0.72713272  0.58197597  0.05905100  1
  O  O401  1  0.72826855  0.58270662  0.30653998  1
  O  O402  1  0.72781744  0.58119753  0.55836350  1
  O  O403  1  0.72766205  0.58105495  0.80763936  1
  O  O404  1  0.72762729  0.91421504  0.05797872  1
  O  O405  1  0.72769712  0.91752265  0.30771896  1
  O  O406  1  0.72753442  0.91505281  0.55783962  1
  O  O407  1  0.72742589  0.91837233  0.80773835  1
  O  O408  1  0.27212427  0.08620118  0.19247684  1
  O  O409  1  0.27332811  0.08473286  0.44118853  1
  O  O410  1  0.27290066  0.08527944  0.69205778  1
  O  O411  1  0.27281941  0.08432615  0.94096078  1
  O  O412  1  0.27232022  0.41481770  0.19246919  1
  O  O413  1  0.27337327  0.41589604  0.44066629  1
  O  O414  1  0.27163407  0.41648783  0.69310050  1
  O  O415  1  0.27234774  0.41455350  0.94211622  1
  O  O416  1  0.27206922  0.75086846  0.19375384  1
  O  O417  1  0.27290142  0.75104801  0.44055503  1
  O  O418  1  0.27166677  0.75285967  0.69133033  1
  O  O419  1  0.27110195  0.75134880  0.94309128  1
  O  O420  1  0.77160521  0.08235253  0.19334518  1
  O  O421  1  0.77299167  0.08304247  0.44095621  1
  O  O422  1  0.77208974  0.08443392  0.69172904  1
  O  O423  1  0.77173194  0.08163022  0.94168389  1
  O  O424  1  0.77170351  0.41788781  0.19185178  1
  O  O425  1  0.77178781  0.41525008  0.44342579  1
  O  O426  1  0.77292739  0.41608240  0.69062640  1
  O  O427  1  0.77268854  0.41624998  0.94004064  1
  O  O428  1  0.77249457  0.74974035  0.19000766  1
  O  O429  1  0.77134327  0.74970541  0.44323671  1
  O  O430  1  0.77108081  0.75112917  0.69192880  1
  O  O431  1  0.77100913  0.74913973  0.94272390  1
  O  O432  1  0.02133051  0.08366010  0.18134797  1
  O  O433  1  0.02199545  0.08198982  0.43321990  1
  O  O434  1  0.02299388  0.08312811  0.68366233  1
  O  O435  1  0.02208573  0.08195044  0.93269711  1
  O  O436  1  0.02124791  0.41661155  0.18173686  1
  O  O437  1  0.02297955  0.41602139  0.43416678  1
  O  O438  1  0.02261800  0.41470272  0.68252645  1
  O  O439  1  0.02241546  0.41436703  0.93275519  1
  O  O440  1  0.02208738  0.74823833  0.18330419  1
  O  O441  1  0.02196144  0.74868307  0.43314314  1
  O  O442  1  0.02151272  0.75021455  0.68124711  1
  O  O443  1  0.02081681  0.75054442  0.93121888  1
  O  O444  1  0.52279886  0.08311931  0.18480105  1
  O  O445  1  0.52245299  0.08116482  0.43308518  1
  O  O446  1  0.52280155  0.08256937  0.68468039  1
  O  O447  1  0.52228666  0.08131737  0.93377145  1
  O  O448  1  0.52139210  0.41629679  0.18200920  1
  O  O449  1  0.52229378  0.41776616  0.43355478  1
  O  O450  1  0.52175220  0.41839622  0.68335633  1
  O  O451  1  0.52238675  0.41833954  0.93327739  1
  O  O452  1  0.52188419  0.75226207  0.18275020  1
  O  O453  1  0.52320102  0.74996080  0.43408210  1
  O  O454  1  0.52135421  0.75031238  0.68137647  1
  O  O455  1  0.52131972  0.75188398  0.93273638  1
  O  O456  1  0.47867243  0.24951964  0.06871300  1
  O  O457  1  0.47779602  0.24779613  0.31765390  1
  O  O458  1  0.47833583  0.24957983  0.56885612  1
  O  O459  1  0.47774266  0.24905515  0.81766834  1
  O  O460  1  0.47782107  0.58241898  0.06673894  1
  O  O461  1  0.47846023  0.58422589  0.31842707  1
  O  O462  1  0.47719310  0.58401948  0.56537098  1
  O  O463  1  0.47763611  0.58201461  0.81671352  1
  O  O464  1  0.47695000  0.91702860  0.06560613  1
  O  O465  1  0.47703088  0.91558574  0.31593898  1
  O  O466  1  0.47709857  0.91817036  0.56550819  1
  O  O467  1  0.47773449  0.91854317  0.81656200  1
  O  O468  1  0.97806251  0.25112529  0.06660863  1
  O  O469  1  0.97815389  0.24997793  0.31899239  1
  O  O470  1  0.97822260  0.25141643  0.56716386  1
  O  O471  1  0.97710075  0.25021059  0.81524063  1
  O  O472  1  0.97863715  0.58270054  0.06818894  1
  O  O473  1  0.97776033  0.58489516  0.31704529  1
  O  O474  1  0.97755466  0.58349401  0.56590926  1
  O  O475  1  0.97889356  0.58236408  0.81796349  1
  O  O476  1  0.97812116  0.91897475  0.06679285  1
  O  O477  1  0.97851197  0.91641779  0.31851077  1
  O  O478  1  0.97813839  0.91865239  0.56702838  1
  O  O479  1  0.97784506  0.91873086  0.81653837  1
  O  O480  1  0.07297796  0.31468920  0.07362421  1
  O  O481  1  0.07371164  0.31340268  0.32565947  1
  O  O482  1  0.07345647  0.31449364  0.57429655  1
  O  O483  1  0.07248035  0.31327545  0.82318891  1
  O  O484  1  0.07395066  0.64674503  0.07516429  1
  O  O485  1  0.07310694  0.64756163  0.32462498  1
  O  O486  1  0.07282215  0.64696490  0.57285401  1
  O  O487  1  0.07390310  0.64659156  0.82467169  1
  O  O488  1  0.07355378  0.98169172  0.07410363  1
  O  O489  1  0.07392346  0.98015758  0.32527284  1
  O  O490  1  0.07326206  0.98228290  0.57402891  1
  O  O491  1  0.07319165  0.98187917  0.82356974  1
  O  O492  1  0.57418755  0.31251412  0.07586144  1
  O  O493  1  0.57289938  0.31203620  0.32549644  1
  O  O494  1  0.57359681  0.31302582  0.57664908  1
  O  O495  1  0.57344578  0.31218220  0.82484504  1
  O  O496  1  0.57297220  0.64639445  0.07401077  1
  O  O497  1  0.57413629  0.64691018  0.32535032  1
  O  O498  1  0.57240160  0.64701099  0.57398093  1
  O  O499  1  0.57251964  0.64630255  0.82470701  1
  O  O500  1  0.57210161  0.98022516  0.07414648  1
  O  O501  1  0.57147915  0.97984477  0.32286687  1
  O  O502  1  0.57293817  0.98051630  0.57268728  1
  O  O503  1  0.57315352  0.98093910  0.82416808  1
  O  O504  1  0.42794825  0.01919003  0.17781681  1
  O  O505  1  0.42731694  0.01817669  0.42539310  1
  O  O506  1  0.42727673  0.01962872  0.67687630  1
  O  O507  1  0.42682777  0.01907876  0.92614152  1
  O  O508  1  0.42584526  0.35334667  0.17496433  1
  O  O509  1  0.42714044  0.35369690  0.42618840  1
  O  O510  1  0.42644781  0.35488073  0.67522312  1
  O  O511  1  0.42752108  0.35403838  0.92504049  1
  O  O512  1  0.42697657  0.68807904  0.17522644  1
  O  O513  1  0.42781673  0.68721480  0.42595483  1
  O  O514  1  0.42589773  0.68718319  0.67369703  1
  O  O515  1  0.42600153  0.68826546  0.92515838  1
  O  O516  1  0.92579139  0.02007737  0.17482029  1
  O  O517  1  0.92695256  0.01845946  0.42643608  1
  O  O518  1  0.92735893  0.02011244  0.67646770  1
  O  O519  1  0.92698517  0.01883365  0.92521685  1
  O  O520  1  0.92589615  0.35276657  0.17527082  1
  O  O521  1  0.92766784  0.35267591  0.42683846  1
  O  O522  1  0.92720973  0.35211866  0.67523850  1
  O  O523  1  0.92726333  0.35110499  0.92516014  1
  O  O524  1  0.92680264  0.68533513  0.17588347  1
  O  O525  1  0.92683544  0.68508313  0.42621919  1
  O  O526  1  0.92607935  0.68646012  0.67443502  1
  O  O527  1  0.92558445  0.68656822  0.92449844  1
  O  O528  1  0.17707389  0.02200500  0.20054354  1
  O  O529  1  0.17914435  0.02010858  0.44874656  1
  O  O530  1  0.17718735  0.02250881  0.69958499  1
  O  O531  1  0.17784768  0.02093533  0.94844656  1
  O  O532  1  0.17710557  0.35196472  0.20003242  1
  O  O533  1  0.17834166  0.35222993  0.44853083  1
  O  O534  1  0.17635571  0.35283353  0.69965014  1
  O  O535  1  0.17712163  0.35153207  0.94946369  1
  O  O536  1  0.17674242  0.68725452  0.20135353  1
  O  O537  1  0.17829718  0.68702079  0.44853363  1
  O  O538  1  0.17631988  0.68909657  0.69864682  1
  O  O539  1  0.17594559  0.68737808  0.95011201  1
  O  O540  1  0.67584783  0.01966073  0.20114063  1
  O  O541  1  0.67845157  0.01894084  0.44866154  1
  O  O542  1  0.67646518  0.02118612  0.69909118  1
  O  O543  1  0.67699769  0.01777981  0.94882247  1
  O  O544  1  0.67687882  0.35315727  0.19931244  1
  O  O545  1  0.67620625  0.35223659  0.45112144  1
  O  O546  1  0.67778886  0.35274408  0.69892565  1
  O  O547  1  0.67789253  0.35251242  0.94824547  1
  O  O548  1  0.67759328  0.68593835  0.19774608  1
  O  O549  1  0.67644343  0.68572671  0.45068641  1
  O  O550  1  0.67550098  0.68771100  0.69978194  1
  O  O551  1  0.67581756  0.68555771  0.95041354  1
  O  O552  1  0.32253097  0.31356646  0.05202220  1
  O  O553  1  0.32259247  0.31354603  0.30180132  1
  O  O554  1  0.32397168  0.31190939  0.55039456  1
  O  O555  1  0.32281679  0.31398859  0.80196818  1
  O  O556  1  0.32393113  0.64689699  0.05023785  1
  O  O557  1  0.32303532  0.64692511  0.30172110  1
  O  O558  1  0.32334905  0.64709453  0.54838140  1
  O  O559  1  0.32348516  0.64798372  0.79942000  1
  O  O560  1  0.32393660  0.98167017  0.05061887  1
  O  O561  1  0.32155869  0.98183195  0.30239683  1
  O  O562  1  0.32333717  0.97939081  0.54950080  1
  O  O563  1  0.32289894  0.98277923  0.80034009  1
  O  O564  1  0.82395379  0.31289409  0.04927798  1
  O  O565  1  0.82316955  0.31219292  0.30101904  1
  O  O566  1  0.82233147  0.31260714  0.55134222  1
  O  O567  1  0.82261446  0.31465386  0.79989794  1
  O  O568  1  0.82180757  0.64580188  0.05073666  1
  O  O569  1  0.82339689  0.64645134  0.29939935  1
  O  O570  1  0.82312247  0.64494060  0.55082866  1
  O  O571  1  0.82242659  0.64557978  0.79971653  1
  O  O572  1  0.82273105  0.97871156  0.05060147  1
  O  O573  1  0.82297930  0.98022879  0.30092781  1
  O  O574  1  0.82298300  0.97885883  0.55039421  1
  O  O575  1  0.82243200  0.98137709  0.80020471  1
  O  O576  1  0.42774735  0.14652266  0.17699607  1
  O  O577  1  0.42730432  0.14503765  0.42547203  1
  O  O578  1  0.42859147  0.14700101  0.67725205  1
  O  O579  1  0.42750336  0.14592657  0.92564731  1
  O  O580  1  0.42602763  0.48019883  0.17540446  1
  O  O581  1  0.42721271  0.48103154  0.42621847  1
  O  O582  1  0.42664747  0.48196813  0.67565185  1
  O  O583  1  0.42694861  0.48124201  0.92619341  1
  O  O584  1  0.42635341  0.81511691  0.17601633  1
  O  O585  1  0.42878971  0.81452716  0.42691156  1
  O  O586  1  0.42617767  0.81393348  0.67328444  1
  O  O587  1  0.42642049  0.81551279  0.92530641  1
  O  O588  1  0.92598621  0.14695972  0.17441061  1
  O  O589  1  0.92660026  0.14560341  0.42631439  1
  O  O590  1  0.92864243  0.14738815  0.67637869  1
  O  O591  1  0.92680743  0.14573765  0.92398623  1
  O  O592  1  0.92577851  0.47953857  0.17449448  1
  O  O593  1  0.92832257  0.48022719  0.42749493  1
  O  O594  1  0.92771440  0.47905358  0.67473315  1
  O  O595  1  0.92734874  0.47827877  0.92443163  1
  O  O596  1  0.92715448  0.81264534  0.17582779  1
  O  O597  1  0.92659822  0.81216617  0.42486065  1
  O  O598  1  0.92609030  0.81341898  0.67346292  1
  O  O599  1  0.92521134  0.81361673  0.92478565  1
  O  O600  1  0.07343874  0.18757353  0.07379475  1
  O  O601  1  0.07333925  0.18648552  0.32582580  1
  O  O602  1  0.07348780  0.18763768  0.57542106  1
  O  O603  1  0.07141730  0.18596819  0.82316588  1
  O  O604  1  0.07428727  0.51986297  0.07597489  1
  O  O605  1  0.07264353  0.52052531  0.32540059  1
  O  O606  1  0.07232574  0.51947926  0.57248774  1
  O  O607  1  0.07472161  0.51954587  0.82486791  1
  O  O608  1  0.07307969  0.85435522  0.07396205  1
  O  O609  1  0.07388072  0.85330914  0.32617816  1
  O  O610  1  0.07351033  0.85516226  0.57491180  1
  O  O611  1  0.07296184  0.85482895  0.82440298  1
  O  O612  1  0.57409210  0.18575077  0.07572776  1
  O  O613  1  0.57295384  0.18469982  0.32483714  1
  O  O614  1  0.57377130  0.18619009  0.57619022  1
  O  O615  1  0.57241610  0.18491462  0.82425281  1
  O  O616  1  0.57290574  0.51907297  0.07399144  1
  O  O617  1  0.57361835  0.52018047  0.32586176  1
  O  O618  1  0.57179009  0.51959277  0.57336400  1
  O  O619  1  0.57310032  0.51921349  0.82362020  1
  O  O620  1  0.57166734  0.85305486  0.07326872  1
  O  O621  1  0.57251470  0.85275188  0.32353915  1
  O  O622  1  0.57120067  0.85330321  0.57302491  1
  O  O623  1  0.57258638  0.85411299  0.82448085  1
  O  O624  1  0.32268024  0.18644152  0.05183657  1
  O  O625  1  0.32292730  0.18652391  0.30146300  1
  O  O626  1  0.32390602  0.18499475  0.55131280  1
  O  O627  1  0.32271189  0.18678921  0.80262993  1
  O  O628  1  0.32418213  0.51987538  0.05000745  1
  O  O629  1  0.32200347  0.51936313  0.30212916  1
  O  O630  1  0.32312516  0.52029829  0.54869492  1
  O  O631  1  0.32409622  0.52088159  0.79965523  1
  O  O632  1  0.32338255  0.85485824  0.04970372  1
  O  O633  1  0.32289614  0.85435042  0.30176424  1
  O  O634  1  0.32248434  0.85244294  0.55018913  1
  O  O635  1  0.32301094  0.85567482  0.80011026  1
  O  O636  1  0.82350341  0.18596153  0.04851468  1
  O  O637  1  0.82361297  0.18503919  0.30137764  1
  O  O638  1  0.82262280  0.18529276  0.55225240  1
  O  O639  1  0.82293496  0.18772176  0.79906604  1
  O  O640  1  0.82223171  0.51840591  0.05100666  1
  O  O641  1  0.82392335  0.51972221  0.29930990  1
  O  O642  1  0.82286879  0.51774683  0.55116550  1
  O  O643  1  0.82334031  0.51845516  0.80055319  1
  O  O644  1  0.82297886  0.85167482  0.05047088  1
  O  O645  1  0.82302754  0.85322351  0.30069115  1
  O  O646  1  0.82251822  0.85177320  0.55060453  1
  O  O647  1  0.82267479  0.85419132  0.79997765  1
  O  O648  1  0.17676245  0.14882275  0.19978986  1
  O  O649  1  0.17756529  0.14736276  0.44882259  1
  O  O650  1  0.17832243  0.14930771  0.69943715  1
  O  O651  1  0.17778616  0.14816893  0.94812568  1
  O  O652  1  0.17723391  0.47894416  0.20051681  1
  O  O653  1  0.17850814  0.47972296  0.44789195  1
  O  O654  1  0.17613068  0.47969080  0.70000053  1
  O  O655  1  0.17732004  0.47865127  0.95063923  1
  O  O656  1  0.17655904  0.81407669  0.20143038  1
  O  O657  1  0.17751393  0.81438107  0.44812314  1
  O  O658  1  0.17664005  0.81636338  0.69812205  1
  O  O659  1  0.17550944  0.81439823  0.95027584  1
  O  O660  1  0.67665822  0.14632641  0.20076924  1
  O  O661  1  0.67764291  0.14641438  0.44837133  1
  O  O662  1  0.67734985  0.14812684  0.69969841  1
  O  O663  1  0.67624520  0.14505434  0.94948717  1
  O  O664  1  0.67618123  0.48038632  0.19891696  1
  O  O665  1  0.67655271  0.47895790  0.45084287  1
  O  O666  1  0.67802147  0.47987363  0.69857560  1
  O  O667  1  0.67755698  0.47980194  0.94769496  1
  O  O668  1  0.67756577  0.81349206  0.19814849  1
  O  O669  1  0.67558316  0.81256263  0.44985606  1
  O  O670  1  0.67635748  0.81509642  0.69879302  1
  O  O671  1  0.67546676  0.81224230  0.95070191  1
