# generated using pymatgen
data_Na2MnFe(PO4)2
_symmetry_space_group_name_H-M   'P 1'
_cell_length_a   22.34124498
_cell_length_b   20.09451848
_cell_length_c   19.44965321
_cell_angle_alpha   89.94961535
_cell_angle_beta   89.95611337
_cell_angle_gamma   90.04332631
_symmetry_Int_Tables_number   1
_chemical_formula_structural   Na2MnFe(PO4)2
_chemical_formula_sum   'Na96 Mn48 Fe48 P96 O384'
_cell_volume   8731.65197014
_cell_formula_units_Z   48
loop_
 _symmetry_equiv_pos_site_id
 _symmetry_equiv_pos_as_xyz
  1  'x, y, z'
loop_
 _atom_site_type_symbol
 _atom_site_label
 _atom_site_symmetry_multiplicity
 _atom_site_fract_x
 _atom_site_fract_y
 _atom_site_fract_z
 _atom_site_occupancy
  Na  Na0  1  0.14098906  0.24982793  0.24254480  1
  Na  Na1  1  0.14048121  0.24949647  0.49226484  1
  Na  Na2  1  0.14101535  0.25018609  0.74403102  1
  Na  Na3  1  0.14101554  0.25081420  0.99398032  1
  Na  Na4  1  0.14104067  0.58291918  0.24303158  1
  Na  Na5  1  0.14043985  0.58419670  0.49331092  1
  Na  Na6  1  0.14064183  0.58411852  0.74364960  1
  Na  Na7  1  0.14133837  0.58457341  0.99461607  1
  Na  Na8  1  0.14031849  0.91718864  0.24409149  1
  Na  Na9  1  0.14011878  0.91712279  0.49249246  1
  Na  Na10  1  0.14002281  0.91741726  0.74419716  1
  Na  Na11  1  0.14078562  0.91699839  0.99340943  1
  Na  Na12  1  0.64000236  0.25026931  0.24289869  1
  Na  Na13  1  0.63963628  0.25039969  0.49339484  1
  Na  Na14  1  0.64043206  0.25019094  0.74345642  1
  Na  Na15  1  0.64091154  0.24985654  0.99309856  1
  Na  Na16  1  0.64025325  0.58448252  0.24260610  1
  Na  Na17  1  0.64022427  0.58241519  0.49432886  1
  Na  Na18  1  0.64049526  0.58190015  0.74507153  1
  Na  Na19  1  0.64033797  0.58259784  0.99254334  1
  Na  Na20  1  0.64053580  0.91649558  0.24308939  1
  Na  Na21  1  0.64011999  0.91705470  0.49450218  1
  Na  Na22  1  0.63988675  0.91631691  0.74579846  1
  Na  Na23  1  0.64061019  0.91684547  0.99385404  1
  Na  Na24  1  0.35949780  0.08306015  0.00663856  1
  Na  Na25  1  0.35943850  0.08309236  0.25694341  1
  Na  Na26  1  0.35973018  0.08287169  0.50520589  1
  Na  Na27  1  0.35888991  0.08226415  0.75712109  1
  Na  Na28  1  0.35947892  0.41712516  0.00744033  1
  Na  Na29  1  0.35993663  0.41547531  0.25637871  1
  Na  Na30  1  0.36013491  0.41662833  0.50595001  1
  Na  Na31  1  0.35972005  0.41619571  0.75629136  1
  Na  Na32  1  0.35923631  0.74939001  0.00792082  1
  Na  Na33  1  0.36003912  0.74934999  0.25653701  1
  Na  Na34  1  0.35915951  0.74943140  0.50549267  1
  Na  Na35  1  0.35847031  0.74986588  0.75660513  1
  Na  Na36  1  0.85927214  0.08277217  0.00568880  1
  Na  Na37  1  0.86050412  0.08313173  0.25652369  1
  Na  Na38  1  0.86006934  0.08413493  0.50709218  1
  Na  Na39  1  0.85903460  0.08254902  0.75646680  1
  Na  Na40  1  0.85988077  0.41647671  0.00514531  1
  Na  Na41  1  0.86002708  0.41790904  0.25498972  1
  Na  Na42  1  0.85950343  0.41671536  0.50628478  1
  Na  Na43  1  0.85893626  0.41652218  0.75620986  1
  Na  Na44  1  0.85915401  0.75084995  0.00607641  1
  Na  Na45  1  0.85963195  0.75078769  0.25590542  1
  Na  Na46  1  0.85985135  0.75028846  0.50757889  1
  Na  Na47  1  0.85898115  0.74999947  0.75669708  1
  Na  Na48  1  0.11026182  0.08427872  0.11872804  1
  Na  Na49  1  0.10993061  0.08342258  0.36839749  1
  Na  Na50  1  0.10940282  0.08224816  0.61834376  1
  Na  Na51  1  0.11044687  0.08378779  0.86863994  1
  Na  Na52  1  0.11052227  0.41768822  0.11845790  1
  Na  Na53  1  0.10993964  0.41674900  0.36808408  1
  Na  Na54  1  0.10990130  0.41765087  0.61799028  1
  Na  Na55  1  0.11058734  0.41736687  0.86910724  1
  Na  Na56  1  0.11043686  0.75080318  0.11855377  1
  Na  Na57  1  0.10956543  0.75064085  0.36883657  1
  Na  Na58  1  0.10929275  0.75188321  0.61803626  1
  Na  Na59  1  0.10978832  0.75251728  0.86918396  1
  Na  Na60  1  0.60991728  0.08316759  0.11854304  1
  Na  Na61  1  0.60929984  0.08388096  0.36868819  1
  Na  Na62  1  0.60940887  0.08337392  0.61926914  1
  Na  Na63  1  0.60994223  0.08288917  0.86830555  1
  Na  Na64  1  0.60970056  0.41718675  0.11783165  1
  Na  Na65  1  0.60961046  0.41659966  0.36909363  1
  Na  Na66  1  0.60987347  0.41496743  0.61818360  1
  Na  Na67  1  0.61021257  0.41650785  0.86809548  1
  Na  Na68  1  0.60964849  0.75011956  0.11799906  1
  Na  Na69  1  0.60945986  0.74975281  0.36875848  1
  Na  Na70  1  0.60907293  0.74864427  0.62003671  1
  Na  Na71  1  0.60968378  0.74896254  0.86967697  1
  Na  Na72  1  0.39016378  0.24980859  0.13196267  1
  Na  Na73  1  0.39058671  0.25023158  0.38076528  1
  Na  Na74  1  0.39001292  0.24949980  0.63009551  1
  Na  Na75  1  0.39016078  0.24970427  0.88224983  1
  Na  Na76  1  0.39040650  0.58313109  0.13213544  1
  Na  Na77  1  0.39042034  0.58209268  0.38068130  1
  Na  Na78  1  0.38982938  0.58049195  0.63098333  1
  Na  Na79  1  0.38969486  0.58206488  0.88245866  1
  Na  Na80  1  0.39033676  0.91625342  0.13226403  1
  Na  Na81  1  0.38981169  0.91628598  0.38135979  1
  Na  Na82  1  0.38930800  0.91555351  0.63126436  1
  Na  Na83  1  0.38916989  0.91557950  0.88302817  1
  Na  Na84  1  0.89117437  0.25078997  0.13057806  1
  Na  Na85  1  0.89073347  0.24927484  0.38086324  1
  Na  Na86  1  0.89052542  0.24906612  0.63116124  1
  Na  Na87  1  0.89011147  0.25022605  0.88090098  1
  Na  Na88  1  0.89023582  0.58334021  0.13040149  1
  Na  Na89  1  0.89065856  0.58363190  0.38067152  1
  Na  Na90  1  0.89017928  0.58377271  0.63131740  1
  Na  Na91  1  0.88994520  0.58350164  0.88221203  1
  Na  Na92  1  0.88997216  0.91778366  0.13139337  1
  Na  Na93  1  0.89075852  0.91771351  0.38175959  1
  Na  Na94  1  0.89004104  0.91745450  0.63100336  1
  Na  Na95  1  0.88949027  0.91762893  0.88174971  1
  Mn  Mn96  1  0.49880239  0.66506945  0.49978795  1
  Mn  Mn97  1  0.25009594  -0.00025006  0.12501189  1
  Mn  Mn98  1  0.49905175  0.83217679  0.75101996  1
  Mn  Mn99  1  0.75015510  0.66699502  0.37502740  1
  Mn  Mn100  1  0.75020805  0.83392132  0.37562961  1
  Mn  Mn101  1  0.24946000  -0.00094313  0.62532810  1
  Mn  Mn102  1  0.74990091  0.50030751  0.37490466  1
  Mn  Mn103  1  -0.00017774  0.33232358  0.49887486  1
  Mn  Mn104  1  0.00054615  0.33363130  0.25041220  1
  Mn  Mn105  1  -0.00103094  0.83522115  0.74860416  1
  Mn  Mn106  1  0.00002666  0.50057752  0.74970572  1
  Mn  Mn107  1  0.74936007  0.16699251  0.62568677  1
  Mn  Mn108  1  -0.00041883  0.50087797  0.49941314  1
  Mn  Mn109  1  0.00108980  0.50019419  -0.00001466  1
  Mn  Mn110  1  0.49998633  0.00041496  0.25061459  1
  Mn  Mn111  1  0.74985744  0.33390317  0.37428716  1
  Mn  Mn112  1  0.74901183  0.66575160  0.62648268  1
  Mn  Mn113  1  0.75115852  0.16598780  0.12374946  1
  Mn  Mn114  1  -0.00044144  0.83437786  0.25043790  1
  Mn  Mn115  1  0.74886641  0.83397198  0.62672818  1
  Mn  Mn116  1  0.00049286  0.33310132  0.74918191  1
  Mn  Mn117  1  0.25027012  0.33415931  0.62442512  1
  Mn  Mn118  1  -0.00035903  0.66820661  0.75016149  1
  Mn  Mn119  1  0.00058306  0.16605868  0.75034068  1
  Mn  Mn120  1  0.24942370  0.16609950  0.62460174  1
  Mn  Mn121  1  0.49884173  0.16694987  0.74964129  1
  Mn  Mn122  1  0.75081543  0.33405822  0.12332933  1
  Mn  Mn123  1  0.00007726  0.16763549  -0.00024510  1
  Mn  Mn124  1  0.49983545  0.83267433  0.00071336  1
  Mn  Mn125  1  0.00052672  0.66815765  0.00038889  1
  Mn  Mn126  1  0.49916375  -0.00050160  0.74990870  1
  Mn  Mn127  1  0.50093357  0.16622129  0.00039580  1
  Mn  Mn128  1  0.50057703  0.49967758  0.25006910  1
  Mn  Mn129  1  0.24970279  0.33339344  0.37434806  1
  Mn  Mn130  1  0.24988989  0.66721043  0.87516562  1
  Mn  Mn131  1  0.75020222  0.66676982  0.12418480  1
  Mn  Mn132  1  0.74998996  0.16704358  0.37504166  1
  Mn  Mn133  1  0.75003182  0.00032162  0.37501627  1
  Mn  Mn134  1  0.50027342  0.00018808  0.49992192  1
  Mn  Mn135  1  0.25020146  0.33371170  0.87522264  1
  Mn  Mn136  1  -0.00024383  0.66684609  0.24941889  1
  Mn  Mn137  1  -0.00008940  0.00026075  0.00024973  1
  Mn  Mn138  1  0.24979452  0.66668814  0.62505984  1
  Mn  Mn139  1  0.25016697  0.66634019  0.37498675  1
  Mn  Mn140  1  0.49923339  0.66487457  0.75012618  1
  Mn  Mn141  1  0.49940028  0.83244757  0.50005928  1
  Mn  Mn142  1  0.50075199  0.33350189  0.00064956  1
  Mn  Mn143  1  0.50012843  0.49808884  0.75056150  1
  Fe  Fe144  1  0.25036415  0.16689578  0.87543655  1
  Fe  Fe145  1  0.25002467  0.50047782  0.87578059  1
  Fe  Fe146  1  0.00052077  0.16575194  0.50011632  1
  Fe  Fe147  1  0.00062806  0.00092174  0.25078587  1
  Fe  Fe148  1  0.75027986  0.83337050  0.12444057  1
  Fe  Fe149  1  0.49999529  0.33240355  0.49941399  1
  Fe  Fe150  1  0.49979676  0.33227192  0.74927431  1
  Fe  Fe151  1  0.75009027  0.33325641  0.87423825  1
  Fe  Fe152  1  0.00022396  0.66718571  0.49967215  1
  Fe  Fe153  1  -0.00027724  0.00059935  0.49949235  1
  Fe  Fe154  1  0.00092534  0.33402748  0.00029575  1
  Fe  Fe155  1  0.25042001  0.16649317  0.37424777  1
  Fe  Fe156  1  0.74997430  -0.00006010  0.12457254  1
  Fe  Fe157  1  0.25023646  0.66680812  0.12539025  1
  Fe  Fe158  1  0.49998882  0.16716128  0.24988908  1
  Fe  Fe159  1  0.50042982  0.49865750  0.49968511  1
  Fe  Fe160  1  0.25033460  0.83358264  0.12529398  1
  Fe  Fe161  1  0.75001925  0.49964196  0.62556063  1
  Fe  Fe162  1  0.25052644  0.50005182  0.12511105  1
  Fe  Fe163  1  0.25014517  0.16625849  0.12497189  1
  Fe  Fe164  1  0.49958859  0.66612958  0.00061745  1
  Fe  Fe165  1  0.50066982  0.66616073  0.25019514  1
  Fe  Fe166  1  0.74974923  -0.00032335  0.87559926  1
  Fe  Fe167  1  0.75012730  0.50022792  0.12359225  1
  Fe  Fe168  1  0.00013070  0.83466707  0.00005233  1
  Fe  Fe169  1  0.25036160  0.33329158  0.12489765  1
  Fe  Fe170  1  0.24967391  0.50012396  0.62498828  1
  Fe  Fe171  1  0.50041306  0.83315827  0.24979862  1
  Fe  Fe172  1  0.74981718  0.16637087  0.87438762  1
  Fe  Fe173  1  0.75002533  0.49923626  0.87407504  1
  Fe  Fe174  1  0.24962033  0.83359449  0.62510793  1
  Fe  Fe175  1  0.00059504  0.50029630  0.24978515  1
  Fe  Fe176  1  0.00056774  0.16677148  0.25023300  1
  Fe  Fe177  1  0.49967166  -0.00005812  0.00085869  1
  Fe  Fe178  1  0.75010292  0.66618374  0.87554946  1
  Fe  Fe179  1  0.49950745  0.16698249  0.49945311  1
  Fe  Fe180  1  0.25003472  0.49970081  0.37418385  1
  Fe  Fe181  1  0.74934258  0.00029542  0.62622071  1
  Fe  Fe182  1  0.24968493  0.83337856  0.87560987  1
  Fe  Fe183  1  0.50026095  0.33331597  0.25035134  1
  Fe  Fe184  1  -0.00046785  0.00015646  0.74941025  1
  Fe  Fe185  1  0.25019765  -0.00020636  0.87560816  1
  Fe  Fe186  1  0.49946821  0.49965413  0.00033891  1
  Fe  Fe187  1  0.74996490  0.33330331  0.62525341  1
  Fe  Fe188  1  0.25010075  -0.00054477  0.37454564  1
  Fe  Fe189  1  0.24987366  0.83293160  0.37477917  1
  Fe  Fe190  1  -0.00035898  0.83416484  0.49960770  1
  Fe  Fe191  1  0.74997954  0.83344504  0.87565820  1
  P  P192  1  0.04275982  0.25152070  0.10287664  1
  P  P193  1  0.04287624  0.24809977  0.35262024  1
  P  P194  1  0.04281240  0.24838752  0.60182940  1
  P  P195  1  0.04337223  0.25063317  0.85340075  1
  P  P196  1  0.04327022  0.58377371  0.10354880  1
  P  P197  1  0.04246513  0.58300958  0.35236961  1
  P  P198  1  0.04243664  0.58530187  0.60212734  1
  P  P199  1  0.04294053  0.58443057  0.85306282  1
  P  P200  1  0.04280322  0.91643417  0.10294453  1
  P  P201  1  0.04188030  0.91849754  0.35346922  1
  P  P202  1  0.04112865  0.91776610  0.60102536  1
  P  P203  1  0.04168255  0.91837217  0.85239368  1
  P  P204  1  0.54335112  0.24984471  0.10412243  1
  P  P205  1  0.54156567  0.25018544  0.35213623  1
  P  P206  1  0.54125724  0.24960383  0.60155477  1
  P  P207  1  0.54214129  0.25085004  0.85220287  1
  P  P208  1  0.54148806  0.58333725  0.10188266  1
  P  P209  1  0.54260659  0.58343377  0.35269638  1
  P  P210  1  0.54186435  0.58069308  0.60236728  1
  P  P211  1  0.54212061  0.58233183  0.85442799  1
  P  P212  1  0.54175955  0.91745684  0.10320030  1
  P  P213  1  0.54212040  0.91537895  0.35231046  1
  P  P214  1  0.54236250  0.91599050  0.60345173  1
  P  P215  1  0.54163112  0.91642102  0.85441288  1
  P  P216  1  0.45790488  0.08424716  0.14770378  1
  P  P217  1  0.45796817  0.08500253  0.39687610  1
  P  P218  1  0.45631623  0.08343529  0.64624292  1
  P  P219  1  0.45773627  0.08211881  0.89812243  1
  P  P220  1  0.45815316  0.41561074  0.14769297  1
  P  P221  1  0.45871305  0.41577221  0.39784478  1
  P  P222  1  0.45799790  0.41417414  0.64660187  1
  P  P223  1  0.45768588  0.41691844  0.89791286  1
  P  P224  1  0.45911667  0.74914205  0.14849932  1
  P  P225  1  0.45711289  0.74918421  0.39579640  1
  P  P226  1  0.45601880  0.74855805  0.64719100  1
  P  P227  1  0.45692951  0.74790058  0.89846251  1
  P  P228  1  0.95921989  0.08369573  0.14868988  1
  P  P229  1  0.95852442  0.08371506  0.39771014  1
  P  P230  1  0.95768793  0.08222900  0.64684419  1
  P  P231  1  0.95730677  0.08345321  0.89663166  1
  P  P232  1  0.95854812  0.41786327  0.14713625  1
  P  P233  1  0.95730347  0.41683691  0.39608342  1
  P  P234  1  0.95706089  0.41675298  0.64638947  1
  P  P235  1  0.95831958  0.41567069  0.89751712  1
  P  P236  1  0.95733328  0.75135681  0.14643770  1
  P  P237  1  0.95840348  0.75029878  0.39841869  1
  P  P238  1  0.95680383  0.75080467  0.64558354  1
  P  P239  1  0.95760318  0.75258017  0.89776651  1
  P  P240  1  0.20850268  0.08417844  0.22793126  1
  P  P241  1  0.20888887  0.08301095  0.47581340  1
  P  P242  1  0.20721099  0.08303346  0.72908532  1
  P  P243  1  0.20898852  0.08373103  0.97705708  1
  P  P244  1  0.20917291  0.41675171  0.22654171  1
  P  P245  1  0.20780325  0.41846352  0.47719992  1
  P  P246  1  0.20778554  0.41813179  0.72777209  1
  P  P247  1  0.20859743  0.41821824  0.97860763  1
  P  P248  1  0.20908925  0.75050568  0.22702226  1
  P  P249  1  0.20769760  0.75115289  0.47757010  1
  P  P250  1  0.20732928  0.75172174  0.72769060  1
  P  P251  1  0.20806695  0.75134011  0.97852152  1
  P  P252  1  0.70801215  0.08224907  0.22674848  1
  P  P253  1  0.70688374  0.08367764  0.47877938  1
  P  P254  1  0.70741385  0.08219986  0.72887280  1
  P  P255  1  0.70865398  0.08314274  0.97653956  1
  P  P256  1  0.70781845  0.41823864  0.22612521  1
  P  P257  1  0.70735082  0.41658066  0.47892175  1
  P  P258  1  0.70844013  0.41620395  0.72719596  1
  P  P259  1  0.70888307  0.41661524  0.97600663  1
  P  P260  1  0.70788538  0.75138019  0.22678281  1
  P  P261  1  0.70688291  0.75007966  0.47876943  1
  P  P262  1  0.70673915  0.74957591  0.73032324  1
  P  P263  1  0.70871628  0.75017776  0.97703123  1
  P  P264  1  0.29142709  0.24946934  0.02333014  1
  P  P265  1  0.29204496  0.24877721  0.27150993  1
  P  P266  1  0.29204014  0.24971583  0.52093831  1
  P  P267  1  0.29242541  0.24899959  0.77279335  1
  P  P268  1  0.29160619  0.58348869  0.02368842  1
  P  P269  1  0.29217048  0.58185594  0.27159900  1
  P  P270  1  0.29204314  0.58196271  0.52212705  1
  P  P271  1  0.29179876  0.58209495  0.77268678  1
  P  P272  1  0.29222564  0.91554529  0.02235450  1
  P  P273  1  0.29136088  0.91586119  0.27305970  1
  P  P274  1  0.29164446  0.91520622  0.52177099  1
  P  P275  1  0.29104713  0.91605056  0.77377616  1
  P  P276  1  0.79318077  0.24987979  0.01984253  1
  P  P277  1  0.79314142  0.25027483  0.27114107  1
  P  P278  1  0.79212916  0.25128416  0.52293158  1
  P  P279  1  0.79128546  0.24999923  0.77281332  1
  P  P280  1  0.79217353  0.58225211  0.02093774  1
  P  P281  1  0.79299649  0.58368535  0.27106256  1
  P  P282  1  0.79210115  0.58222415  0.52330358  1
  P  P283  1  0.79137661  0.58289193  0.77353900  1
  P  P284  1  0.79113243  0.91699497  0.02269788  1
  P  P285  1  0.79296049  0.91688142  0.27112824  1
  P  P286  1  0.79175371  0.91834691  0.52375134  1
  P  P287  1  0.79092119  0.91677876  0.77387776  1
  O  O288  1  0.03743233  0.25074124  0.18280921  1
  O  O289  1  0.03776474  0.24772399  0.43256306  1
  O  O290  1  0.03772644  0.24861863  0.68181631  1
  O  O291  1  0.03822754  0.25141302  0.93337323  1
  O  O292  1  0.03798848  0.58310436  0.18347608  1
  O  O293  1  0.03698417  0.58380423  0.43231758  1
  O  O294  1  0.03731395  0.58504639  0.68211303  1
  O  O295  1  0.03810747  0.58434386  0.93307388  1
  O  O296  1  0.03792886  0.91706744  0.18288986  1
  O  O297  1  0.03626710  0.91829431  0.43331143  1
  O  O298  1  0.03623546  0.91809049  0.68101100  1
  O  O299  1  0.03673100  0.91734135  0.93234945  1
  O  O300  1  0.53823254  0.24986779  0.18404905  1
  O  O301  1  0.53592835  0.24988000  0.43205133  1
  O  O302  1  0.53606471  0.25002037  0.68151291  1
  O  O303  1  0.53772985  0.25049236  0.93220502  1
  O  O304  1  0.53692680  0.58370501  0.18192197  1
  O  O305  1  0.53698239  0.58234755  0.43255839  1
  O  O306  1  0.53679368  0.58067066  0.68234217  1
  O  O307  1  0.53687170  0.58236054  0.93435541  1
  O  O308  1  0.53667767  0.91696090  0.18317001  1
  O  O309  1  0.53724009  0.91554120  0.43229341  1
  O  O310  1  0.53698680  0.91591332  0.68344343  1
  O  O311  1  0.53650882  0.91710832  0.93442153  1
  O  O312  1  0.46306742  0.08332331  0.06773521  1
  O  O313  1  0.46347966  0.08525282  0.31694568  1
  O  O314  1  0.46165605  0.08389557  0.56627045  1
  O  O315  1  0.46208588  0.08234871  0.81808184  1
  O  O316  1  0.46335896  0.41650294  0.06779175  1
  O  O317  1  0.46390545  0.41556465  0.31789342  1
  O  O318  1  0.46340517  0.41451632  0.56672607  1
  O  O319  1  0.46219120  0.41630719  0.81794289  1
  O  O320  1  0.46398412  0.74876993  0.06849760  1
  O  O321  1  0.46294643  0.74934059  0.31591067  1
  O  O322  1  0.46101870  0.74868516  0.56719020  1
  O  O323  1  0.46165705  0.74816739  0.81847564  1
  O  O324  1  0.96406358  0.08385749  0.06871858  1
  O  O325  1  0.96392640  0.08380849  0.31780322  1
  O  O326  1  0.96300879  0.08247507  0.56693396  1
  O  O327  1  0.96225915  0.08283710  0.81669019  1
  O  O328  1  0.96422281  0.41699991  0.06722979  1
  O  O329  1  0.96285223  0.41738944  0.31615128  1
  O  O330  1  0.96179406  0.41678578  0.56639579  1
  O  O331  1  0.96315167  0.41602278  0.81752032  1
  O  O332  1  0.96269856  0.75203815  0.06653091  1
  O  O333  1  0.96306874  0.75059122  0.31839451  1
  O  O334  1  0.96207205  0.75028878  0.56569376  1
  O  O335  1  0.96234200  0.75258707  0.81774077  1
  O  O336  1  0.21396242  0.08370881  0.05703416  1
  O  O337  1  0.21397376  0.08393920  0.30774891  1
  O  O338  1  0.21331161  0.08240607  0.55583094  1
  O  O339  1  0.21265589  0.08318353  0.80894754  1
  O  O340  1  0.21437573  0.41781289  0.05843134  1
  O  O341  1  0.21386029  0.41666228  0.30654129  1
  O  O342  1  0.21297338  0.41849212  0.55715939  1
  O  O343  1  0.21297565  0.41793728  0.80775348  1
  O  O344  1  0.21346092  0.75105681  0.05837415  1
  O  O345  1  0.21406580  0.75034010  0.30698548  1
  O  O346  1  0.21285605  0.75107189  0.55749498  1
  O  O347  1  0.21271932  0.75157925  0.80763523  1
  O  O348  1  0.71384493  0.08251079  0.05644949  1
  O  O349  1  0.71272093  0.08280296  0.30674714  1
  O  O350  1  0.71162679  0.08348330  0.55878205  1
  O  O351  1  0.71297365  0.08271378  0.80872465  1
  O  O352  1  0.71392756  0.41740617  0.05592830  1
  O  O353  1  0.71268927  0.41796972  0.30611416  1
  O  O354  1  0.71252721  0.41626541  0.55883962  1
  O  O355  1  0.71388231  0.41580077  0.80709276  1
  O  O356  1  0.71409187  0.75046840  0.05698328  1
  O  O357  1  0.71264254  0.75111926  0.30677616  1
  O  O358  1  0.71142945  0.74991418  0.55880849  1
  O  O359  1  0.71247882  0.74936071  0.81018051  1
  O  O360  1  0.28672030  0.24902854  0.19163495  1
  O  O361  1  0.28666162  0.24960868  0.44100585  1
  O  O362  1  0.28709373  0.24943510  0.69287351  1
  O  O363  1  0.28647592  0.24944871  0.94335141  1
  O  O364  1  0.28665863  0.58223398  0.19174904  1
  O  O365  1  0.28690064  0.58204190  0.44215470  1
  O  O366  1  0.28643593  0.58208141  0.69275577  1
  O  O367  1  0.28669141  0.58380965  0.94373301  1
  O  O368  1  0.28667102  0.91604661  0.19308207  1
  O  O369  1  0.28641940  0.91544767  0.44189263  1
  O  O370  1  0.28619819  0.91610408  0.69377997  1
  O  O371  1  0.28696299  0.91573068  0.94249681  1
  O  O372  1  0.78858594  0.25016353  0.19110754  1
  O  O373  1  0.78736419  0.25095397  0.44290925  1
  O  O374  1  0.78582176  0.25060857  0.69286906  1
  O  O375  1  0.78746617  0.24976205  0.93998418  1
  O  O376  1  0.78800806  0.58348847  0.19107877  1
  O  O377  1  0.78719822  0.58291159  0.44329846  1
  O  O378  1  0.78614195  0.58235150  0.69361207  1
  O  O379  1  0.78680295  0.58260208  0.94107980  1
  O  O380  1  0.78797031  0.91672567  0.19120275  1
  O  O381  1  0.78693035  0.91804037  0.44375649  1
  O  O382  1  0.78577274  0.91771542  0.69399607  1
  O  O383  1  0.78591426  0.91664796  0.94284021  1
  O  O384  1  0.22737498  0.24924568  0.05949887  1
  O  O385  1  0.22789233  0.24846483  0.30764573  1
  O  O386  1  0.22784827  0.25022275  0.55666303  1
  O  O387  1  0.22820693  0.24869619  0.80870705  1
  O  O388  1  0.22752197  0.58297331  0.05974195  1
  O  O389  1  0.22808623  0.58161281  0.30798918  1
  O  O390  1  0.22781294  0.58195278  0.55807364  1
  O  O391  1  0.22765949  0.58214097  0.80881581  1
  O  O392  1  0.22802852  0.91506529  0.05841420  1
  O  O393  1  0.22717510  0.91563770  0.30892205  1
  O  O394  1  0.22741819  0.91483321  0.55794556  1
  O  O395  1  0.22693668  0.91605540  0.80988166  1
  O  O396  1  0.72906505  0.24974671  0.05589557  1
  O  O397  1  0.72852470  0.25017403  0.30584723  1
  O  O398  1  0.72770361  0.25147797  0.55822724  1
  O  O399  1  0.72725577  0.24967820  0.80923677  1
  O  O400  1  0.72802250  0.58210808  0.05717048  1
  O  O401  1  0.72851822  0.58390123  0.30618312  1
  O  O402  1  0.72769321  0.58131733  0.55874967  1
  O  O403  1  0.72730186  0.58337736  0.80970628  1
  O  O404  1  0.72717697  0.91757519  0.05928879  1
  O  O405  1  0.72854887  0.91676286  0.30655389  1
  O  O406  1  0.72736477  0.91874000  0.55922615  1
  O  O407  1  0.72687755  0.91564578  0.81010482  1
  O  O408  1  0.27257684  0.08436160  0.19159497  1
  O  O409  1  0.27309455  0.08334559  0.44012599  1
  O  O410  1  0.27137817  0.08270694  0.69312428  1
  O  O411  1  0.27305731  0.08410740  0.94089994  1
  O  O412  1  0.27333057  0.41704073  0.19067219  1
  O  O413  1  0.27207200  0.41819430  0.44139412  1
  O  O414  1  0.27209996  0.41849580  0.69199813  1
  O  O415  1  0.27256524  0.41841591  0.94197163  1
  O  O416  1  0.27319586  0.75088137  0.19089617  1
  O  O417  1  0.27192899  0.75115671  0.44165885  1
  O  O418  1  0.27153606  0.75180265  0.69168187  1
  O  O419  1  0.27217700  0.75162553  0.94225329  1
  O  O420  1  0.77249654  0.08151051  0.19151060  1
  O  O421  1  0.77143777  0.08379423  0.44381500  1
  O  O422  1  0.77148558  0.08220266  0.69245422  1
  O  O423  1  0.77270957  0.08413579  0.94037747  1
  O  O424  1  0.77225868  0.41876766  0.19076141  1
  O  O425  1  0.77165139  0.41671258  0.44323917  1
  O  O426  1  0.77244595  0.41651531  0.69058504  1
  O  O427  1  0.77298451  0.41586456  0.93992601  1
  O  O428  1  0.77226973  0.75103486  0.19145261  1
  O  O429  1  0.77152924  0.75019812  0.44409032  1
  O  O430  1  0.77083736  0.74969526  0.69419958  1
  O  O431  1  0.77273398  0.75042277  0.94063040  1
  O  O432  1  0.02340431  0.08339446  0.18448792  1
  O  O433  1  0.02265718  0.08345905  0.43400023  1
  O  O434  1  0.02193520  0.08166033  0.68273592  1
  O  O435  1  0.02168460  0.08366400  0.93178322  1
  O  O436  1  0.02267528  0.41837883  0.18327202  1
  O  O437  1  0.02158263  0.41669857  0.43147944  1
  O  O438  1  0.02168083  0.41711288  0.68094380  1
  O  O439  1  0.02276714  0.41541406  0.93272875  1
  O  O440  1  0.02160402  0.75105114  0.18187030  1
  O  O441  1  0.02266900  0.74989303  0.43392135  1
  O  O442  1  0.02108507  0.75127465  0.68112990  1
  O  O443  1  0.02204592  0.75291980  0.93298908  1
  O  O444  1  0.52217057  0.08448118  0.18322282  1
  O  O445  1  0.52206515  0.08507046  0.43294565  1
  O  O446  1  0.52065278  0.08335240  0.68157636  1
  O  O447  1  0.52228759  0.08188393  0.93293665  1
  O  O448  1  0.52239886  0.41489677  0.18340924  1
  O  O449  1  0.52273876  0.41573221  0.43409175  1
  O  O450  1  0.52214954  0.41386921  0.68278667  1
  O  O451  1  0.52216391  0.41764660  0.93292368  1
  O  O452  1  0.52326498  0.74898582  0.18436948  1
  O  O453  1  0.52119160  0.74877305  0.43181789  1
  O  O454  1  0.52051825  0.74880113  0.68206399  1
  O  O455  1  0.52139085  0.74776020  0.93361794  1
  O  O456  1  0.47903151  0.24972796  0.06877419  1
  O  O457  1  0.47761454  0.25059505  0.31543843  1
  O  O458  1  0.47717301  0.24951289  0.56533007  1
  O  O459  1  0.47756926  0.25132499  0.81733889  1
  O  O460  1  0.47713854  0.58351630  0.06636276  1
  O  O461  1  0.47845807  0.58410923  0.31664089  1
  O  O462  1  0.47756409  0.58009676  0.56683507  1
  O  O463  1  0.47786084  0.58161701  0.81883101  1
  O  O464  1  0.47751189  0.91725657  0.06763288  1
  O  O465  1  0.47776198  0.91557518  0.31712787  1
  O  O466  1  0.47800997  0.91642290  0.56823411  1
  O  O467  1  0.47728472  0.91623507  0.81911440  1
  O  O468  1  0.97856718  0.25218696  0.06696446  1
  O  O469  1  0.97857874  0.24873045  0.31713602  1
  O  O470  1  0.97841667  0.24784475  0.56647176  1
  O  O471  1  0.97896655  0.25003822  0.81823794  1
  O  O472  1  0.97900097  0.58386172  0.06815732  1
  O  O473  1  0.97824626  0.58210524  0.31650518  1
  O  O474  1  0.97804190  0.58578364  0.56680134  1
  O  O475  1  0.97836420  0.58417378  0.81837810  1
  O  O476  1  0.97834275  0.91584776  0.06762419  1
  O  O477  1  0.97785638  0.91916479  0.31712767  1
  O  O478  1  0.97693897  0.91818244  0.56530118  1
  O  O479  1  0.97732111  0.91913436  0.81682627  1
  O  O480  1  0.07371383  0.31516020  0.07476622  1
  O  O481  1  0.07431627  0.31179874  0.32513934  1
  O  O482  1  0.07350873  0.31226123  0.57389991  1
  O  O483  1  0.07451526  0.31378136  0.82439320  1
  O  O484  1  0.07411588  0.64767500  0.07585662  1
  O  O485  1  0.07337912  0.64672260  0.32424138  1
  O  O486  1  0.07345544  0.64872667  0.57365209  1
  O  O487  1  0.07367052  0.64819517  0.82501915  1
  O  O488  1  0.07376792  0.98003370  0.07455462  1
  O  O489  1  0.07321915  0.98169785  0.32471215  1
  O  O490  1  0.07289810  0.98074306  0.57251741  1
  O  O491  1  0.07254313  0.98203915  0.82425385  1
  O  O492  1  0.57451536  0.31319402  0.07539844  1
  O  O493  1  0.57282922  0.31380739  0.32413056  1
  O  O494  1  0.57241789  0.31296475  0.57300480  1
  O  O495  1  0.57285011  0.31435821  0.82353094  1
  O  O496  1  0.57274727  0.64660562  0.07322872  1
  O  O497  1  0.57364705  0.64702858  0.32462839  1
  O  O498  1  0.57255166  0.64470018  0.57479122  1
  O  O499  1  0.57279703  0.64600542  0.82584777  1
  O  O500  1  0.57208701  0.98133435  0.07458980  1
  O  O501  1  0.57354048  0.97896784  0.32473223  1
  O  O502  1  0.57362951  0.97946050  0.57541513  1
  O  O503  1  0.57305745  0.97941623  0.82553877  1
  O  O504  1  0.42634407  0.02099129  0.17605486  1
  O  O505  1  0.42705108  0.02094191  0.42416430  1
  O  O506  1  0.42521619  0.01981714  0.67430418  1
  O  O507  1  0.42703814  0.01864457  0.92702344  1
  O  O508  1  0.42715666  0.35205294  0.17588335  1
  O  O509  1  0.42738413  0.35239951  0.42607223  1
  O  O510  1  0.42705756  0.35070169  0.67540865  1
  O  O511  1  0.42670818  0.35343234  0.92646713  1
  O  O512  1  0.42781738  0.68587112  0.17699447  1
  O  O513  1  0.42546366  0.68586373  0.42397949  1
  O  O514  1  0.42528548  0.68475702  0.67513013  1
  O  O515  1  0.42619687  0.68436764  0.92704804  1
  O  O516  1  0.92828931  0.02001206  0.17669970  1
  O  O517  1  0.92724340  0.02025841  0.42604913  1
  O  O518  1  0.92658649  0.01894153  0.67577175  1
  O  O519  1  0.92603299  0.02035328  0.92557577  1
  O  O520  1  0.92719566  0.35444543  0.17526256  1
  O  O521  1  0.92634769  0.35296594  0.42375023  1
  O  O522  1  0.92643893  0.35299956  0.67459951  1
  O  O523  1  0.92760819  0.35217321  0.92615876  1
  O  O524  1  0.92624458  0.68753364  0.17403167  1
  O  O525  1  0.92729787  0.68670240  0.42635837  1
  O  O526  1  0.92570959  0.68763527  0.67488533  1
  O  O527  1  0.92690972  0.68861648  0.92544238  1
  O  O528  1  0.17740329  0.02051977  0.19990334  1
  O  O529  1  0.17858347  0.01911734  0.44723192  1
  O  O530  1  0.17588501  0.01972250  0.70056771  1
  O  O531  1  0.17879864  0.01949854  0.94898745  1
  O  O532  1  0.17893043  0.35265297  0.19821741  1
  O  O533  1  0.17659145  0.35475503  0.44953433  1
  O  O534  1  0.17715290  0.35416311  0.69982516  1
  O  O535  1  0.17737483  0.35464740  0.95060503  1
  O  O536  1  0.17882771  0.68636934  0.19880842  1
  O  O537  1  0.17685970  0.68733830  0.44965677  1
  O  O538  1  0.17647231  0.68786376  0.69992932  1
  O  O539  1  0.17699717  0.68774645  0.95029275  1
  O  O540  1  0.67697800  0.01879472  0.19851439  1
  O  O541  1  0.67566654  0.02051260  0.45014750  1
  O  O542  1  0.67659297  0.01860819  0.70054955  1
  O  O543  1  0.67830009  0.01917783  0.94814805  1
  O  O544  1  0.67717735  0.35440391  0.19823095  1
  O  O545  1  0.67626214  0.35330351  0.44998623  1
  O  O546  1  0.67753062  0.35259510  0.69881034  1
  O  O547  1  0.67758064  0.35296530  0.94841215  1
  O  O548  1  0.67645263  0.68801418  0.19884795  1
  O  O549  1  0.67614103  0.68654272  0.45028264  1
  O  O550  1  0.67537706  0.68626280  0.70190982  1
  O  O551  1  0.67818714  0.68609290  0.94936564  1
  O  O552  1  0.32176219  0.31362587  0.05140541  1
  O  O553  1  0.32305595  0.31244496  0.29962422  1
  O  O554  1  0.32327968  0.31325386  0.54887183  1
  O  O555  1  0.32331703  0.31274218  0.80064739  1
  O  O556  1  0.32166638  0.64757658  0.05231743  1
  O  O557  1  0.32321404  0.64546130  0.29970245  1
  O  O558  1  0.32288509  0.64584072  0.54987367  1
  O  O559  1  0.32271215  0.64602216  0.80024866  1
  O  O560  1  0.32300608  0.97932588  0.05052605  1
  O  O561  1  0.32165138  0.97995340  0.30140533  1
  O  O562  1  0.32256846  0.97891157  0.54995662  1
  O  O563  1  0.32154827  0.97997505  0.80220191  1
  O  O564  1  0.82434329  0.31332096  0.04810775  1
  O  O565  1  0.82390789  0.31389888  0.29925930  1
  O  O566  1  0.82300215  0.31471675  0.55134645  1
  O  O567  1  0.82235741  0.31351186  0.80100196  1
  O  O568  1  0.82348618  0.64575926  0.04894335  1
  O  O569  1  0.82393122  0.64730345  0.29936223  1
  O  O570  1  0.82263643  0.64598454  0.55154520  1
  O  O571  1  0.82258850  0.64649414  0.80138220  1
  O  O572  1  0.82265146  0.98039401  0.05071798  1
  O  O573  1  0.82395177  0.98033146  0.29970541  1
  O  O574  1  0.82259458  0.98186503  0.55200873  1
  O  O575  1  0.82123154  0.98055671  0.80280445  1
  O  O576  1  0.42742058  0.14803608  0.17593792  1
  O  O577  1  0.42687299  0.14821047  0.42542984  1
  O  O578  1  0.42517621  0.14667345  0.67485596  1
  O  O579  1  0.42708308  0.14593742  0.92600956  1
  O  O580  1  0.42728265  0.47912884  0.17602480  1
  O  O581  1  0.42822682  0.47979009  0.42572057  1
  O  O582  1  0.42686557  0.47759804  0.67494445  1
  O  O583  1  0.42697994  0.48041644  0.92676508  1
  O  O584  1  0.42890622  0.81341025  0.17633611  1
  O  O585  1  0.42600980  0.81260108  0.42418957  1
  O  O586  1  0.42498732  0.81189672  0.67561176  1
  O  O587  1  0.42613570  0.81154098  0.92653361  1
  O  O588  1  0.92866225  0.14759546  0.17667484  1
  O  O589  1  0.92781021  0.14731528  0.42635871  1
  O  O590  1  0.92682716  0.14588032  0.67504915  1
  O  O591  1  0.92646579  0.14711514  0.92461305  1
  O  O592  1  0.92776171  0.48161093  0.17495332  1
  O  O593  1  0.92586016  0.47990433  0.42451490  1
  O  O594  1  0.92607052  0.48011884  0.67485364  1
  O  O595  1  0.92749072  0.47941948  0.92535307  1
  O  O596  1  0.92608075  0.81437072  0.17526850  1
  O  O597  1  0.92817681  0.81435047  0.42667158  1
  O  O598  1  0.92555551  0.81431330  0.67361417  1
  O  O599  1  0.92683511  0.81596810  0.92640557  1
  O  O600  1  0.07365771  0.18793713  0.07471001  1
  O  O601  1  0.07336034  0.18476604  0.32337087  1
  O  O602  1  0.07379407  0.18492082  0.57365876  1
  O  O603  1  0.07440042  0.18696526  0.82568602  1
  O  O604  1  0.07476347  0.52081459  0.07496349  1
  O  O605  1  0.07350905  0.51949959  0.32428243  1
  O  O606  1  0.07314092  0.52150598  0.57427705  1
  O  O607  1  0.07394860  0.52101895  0.82480159  1
  O  O608  1  0.07346604  0.85296684  0.07421997  1
  O  O609  1  0.07275465  0.85471089  0.32563394  1
  O  O610  1  0.07108343  0.85348963  0.57283304  1
  O  O611  1  0.07249958  0.85497947  0.82368060  1
  O  O612  1  0.57457487  0.18658877  0.07547366  1
  O  O613  1  0.57226564  0.18649671  0.32367869  1
  O  O614  1  0.57191316  0.18569805  0.57371656  1
  O  O615  1  0.57269107  0.18709899  0.82403741  1
  O  O616  1  0.57148609  0.51912015  0.07375233  1
  O  O617  1  0.57362432  0.51998901  0.32429333  1
  O  O618  1  0.57286093  0.51737759  0.57387811  1
  O  O619  1  0.57379803  0.51934019  0.82586193  1
  O  O620  1  0.57327800  0.85416947  0.07523787  1
  O  O621  1  0.57251370  0.85174382  0.32354510  1
  O  O622  1  0.57323029  0.85240093  0.57551845  1
  O  O623  1  0.57233093  0.85243256  0.82694007  1
  O  O624  1  0.32276915  0.18615716  0.05153856  1
  O  O625  1  0.32313238  0.18552208  0.30032537  1
  O  O626  1  0.32303983  0.18628835  0.54914744  1
  O  O627  1  0.32336536  0.18555561  0.80110894  1
  O  O628  1  0.32320944  0.52027776  0.05168450  1
  O  O629  1  0.32321125  0.51842068  0.30006208  1
  O  O630  1  0.32300643  0.51868952  0.55081264  1
  O  O631  1  0.32283680  0.51888212  0.80149342  1
  O  O632  1  0.32348393  0.85244332  0.05130893  1
  O  O633  1  0.32260836  0.85254491  0.30124604  1
  O  O634  1  0.32265161  0.85193300  0.55068733  1
  O  O635  1  0.32224911  0.85264073  0.80193881  1
  O  O636  1  0.82462324  0.18663035  0.04825303  1
  O  O637  1  0.82396048  0.18680853  0.29969524  1
  O  O638  1  0.82298967  0.18763940  0.55104503  1
  O  O639  1  0.82219447  0.18607748  0.80023656  1
  O  O640  1  0.82296047  0.51874303  0.04961257  1
  O  O641  1  0.82405162  0.52044307  0.29967569  1
  O  O642  1  0.82315906  0.51878689  0.55146590  1
  O  O643  1  0.82207229  0.51911908  0.80182463  1
  O  O644  1  0.82149205  0.85308938  0.05131101  1
  O  O645  1  0.82410280  0.85364879  0.30014510  1
  O  O646  1  0.82239392  0.85452494  0.55167955  1
  O  O647  1  0.82248612  0.85326993  0.80136519  1
  O  O648  1  0.17744117  0.14741243  0.19903782  1
  O  O649  1  0.17792347  0.14669064  0.44806592  1
  O  O650  1  0.17615117  0.14640434  0.70040324  1
  O  O651  1  0.17757213  0.14700892  0.94894759  1
  O  O652  1  0.17779175  0.48002640  0.19845190  1
  O  O653  1  0.17699386  0.48174483  0.44827991  1
  O  O654  1  0.17658151  0.48128859  0.69913018  1
  O  O655  1  0.17756795  0.48167552  0.95020608  1
  O  O656  1  0.17767508  0.81382619  0.19896771  1
  O  O657  1  0.17669707  0.81436213  0.44878677  1
  O  O658  1  0.17630438  0.81503801  0.69914575  1
  O  O659  1  0.17695458  0.81461394  0.94974993  1
  O  O660  1  0.67745984  0.14596727  0.19846355  1
  O  O661  1  0.67621100  0.14735239  0.45028246  1
  O  O662  1  0.67604861  0.14563556  0.70070766  1
  O  O663  1  0.67710987  0.14651441  0.94870117  1
  O  O664  1  0.67694515  0.48169110  0.19763240  1
  O  O665  1  0.67623967  0.47998624  0.45047382  1
  O  O666  1  0.67745166  0.47992853  0.69925064  1
  O  O667  1  0.67829244  0.48026782  0.94734790  1
  O  O668  1  0.67766795  0.81511071  0.19801273  1
  O  O669  1  0.67603399  0.81360962  0.45044777  1
  O  O670  1  0.67549582  0.81303007  0.70216953  1
  O  O671  1  0.67734958  0.81358023  0.94909504  1
