# generated using pymatgen
data_Na2MnFe(PO4)2
_symmetry_space_group_name_H-M   'P 1'
_cell_length_a   22.34693708
_cell_length_b   20.09626098
_cell_length_c   19.44660019
_cell_angle_alpha   89.98724069
_cell_angle_beta   90.03087790
_cell_angle_gamma   89.98842649
_symmetry_Int_Tables_number   1
_chemical_formula_structural   Na2MnFe(PO4)2
_chemical_formula_sum   'Na96 Mn48 Fe48 P96 O384'
_cell_volume   8733.26967732
_cell_formula_units_Z   48
loop_
 _symmetry_equiv_pos_site_id
 _symmetry_equiv_pos_as_xyz
  1  'x, y, z'
loop_
 _atom_site_type_symbol
 _atom_site_label
 _atom_site_symmetry_multiplicity
 _atom_site_fract_x
 _atom_site_fract_y
 _atom_site_fract_z
 _atom_site_occupancy
  Na  Na0  1  0.14074259  0.25165838  0.24445430  1
  Na  Na1  1  0.13990959  0.25200590  0.49420738  1
  Na  Na2  1  0.13972185  0.24959020  0.74385427  1
  Na  Na3  1  0.14064623  0.25085898  0.99394799  1
  Na  Na4  1  0.14004461  0.58310761  0.24154097  1
  Na  Na5  1  0.14089852  0.58335252  0.49321834  1
  Na  Na6  1  0.14141850  0.58402201  0.74470160  1
  Na  Na7  1  0.14005157  0.58438539  0.99397968  1
  Na  Na8  1  0.14041315  0.91676078  0.24341670  1
  Na  Na9  1  0.14017475  0.91580692  0.49479085  1
  Na  Na10  1  0.14030834  0.91519050  0.74384663  1
  Na  Na11  1  0.14064462  0.91658898  0.99281669  1
  Na  Na12  1  0.64004539  0.25011268  0.24484517  1
  Na  Na13  1  0.64014493  0.24801171  0.49315091  1
  Na  Na14  1  0.63998844  0.25051643  0.74335980  1
  Na  Na15  1  0.63992727  0.24991640  0.99351393  1
  Na  Na16  1  0.63974005  0.58382546  0.24338906  1
  Na  Na17  1  0.64042613  0.58219163  0.49364549  1
  Na  Na18  1  0.64022160  0.58479888  0.74378529  1
  Na  Na19  1  0.63953158  0.58344589  0.99282199  1
  Na  Na20  1  0.63981837  0.91628254  0.24525355  1
  Na  Na21  1  0.63990450  0.91542879  0.49280302  1
  Na  Na22  1  0.64039278  0.91763679  0.74367748  1
  Na  Na23  1  0.64004916  0.91636514  0.99381126  1
  Na  Na24  1  0.35884943  0.08380426  0.00593057  1
  Na  Na25  1  0.35917489  0.08414910  0.25722430  1
  Na  Na26  1  0.36001878  0.08383020  0.50729831  1
  Na  Na27  1  0.35984586  0.08300130  0.75626944  1
  Na  Na28  1  0.36020193  0.41781289  0.00796679  1
  Na  Na29  1  0.36006458  0.41748812  0.25585981  1
  Na  Na30  1  0.35921825  0.41773756  0.50477450  1
  Na  Na31  1  0.35936714  0.41644324  0.75687657  1
  Na  Na32  1  0.36010674  0.74935233  0.00735935  1
  Na  Na33  1  0.36025993  0.74904505  0.25603460  1
  Na  Na34  1  0.36011042  0.74976372  0.50661467  1
  Na  Na35  1  0.36042517  0.74944254  0.75600844  1
  Na  Na36  1  0.85990416  0.08248605  0.00502240  1
  Na  Na37  1  0.85947941  0.08341629  0.25646366  1
  Na  Na38  1  0.85914520  0.08186266  0.50643843  1
  Na  Na39  1  0.85961498  0.08372382  0.75717069  1
  Na  Na40  1  0.85989094  0.41654414  0.00564320  1
  Na  Na41  1  0.85967603  0.41699457  0.25699872  1
  Na  Na42  1  0.85949208  0.41440282  0.50600278  1
  Na  Na43  1  0.85974920  0.41687766  0.75538644  1
  Na  Na44  1  0.86015246  0.75042381  0.00536336  1
  Na  Na45  1  0.86025583  0.75022605  0.25634801  1
  Na  Na46  1  0.85986705  0.74905892  0.50597740  1
  Na  Na47  1  0.85991087  0.75166329  0.75594502  1
  Na  Na48  1  0.10946631  0.08311568  0.11890483  1
  Na  Na49  1  0.10934924  0.08361302  0.36986589  1
  Na  Na50  1  0.10905311  0.08325352  0.62015314  1
  Na  Na51  1  0.10919459  0.08317393  0.86787893  1
  Na  Na52  1  0.11015703  0.41829072  0.11874229  1
  Na  Na53  1  0.11008315  0.41741333  0.36775475  1
  Na  Na54  1  0.10999557  0.41579511  0.61838346  1
  Na  Na55  1  0.10958072  0.41637684  0.86945351  1
  Na  Na56  1  0.11007260  0.74955598  0.11725792  1
  Na  Na57  1  0.10944917  0.75053079  0.36828904  1
  Na  Na58  1  0.11063182  0.75045601  0.61939552  1
  Na  Na59  1  0.11067944  0.75001417  0.86831758  1
  Na  Na60  1  0.60908644  0.08305147  0.11956502  1
  Na  Na61  1  0.60944172  0.08285009  0.36901867  1
  Na  Na62  1  0.60914147  0.08313435  0.61764939  1
  Na  Na63  1  0.60914939  0.08300337  0.86845238  1
  Na  Na64  1  0.60927517  0.41767426  0.11879346  1
  Na  Na65  1  0.60933237  0.41669544  0.36789880  1
  Na  Na66  1  0.60928724  0.41673319  0.61846451  1
  Na  Na67  1  0.60927685  0.41676578  0.86847995  1
  Na  Na68  1  0.60940006  0.74903841  0.11916081  1
  Na  Na69  1  0.60918408  0.74870951  0.36908720  1
  Na  Na70  1  0.60965484  0.75054394  0.61820903  1
  Na  Na71  1  0.60962416  0.75039335  0.86904971  1
  Na  Na72  1  0.39047317  0.25212637  0.13148261  1
  Na  Na73  1  0.39015287  0.25065914  0.38169674  1
  Na  Na74  1  0.38975332  0.25019525  0.63111978  1
  Na  Na75  1  0.39022614  0.25032892  0.88160347  1
  Na  Na76  1  0.39044807  0.58333933  0.13224846  1
  Na  Na77  1  0.39003308  0.58358594  0.38040183  1
  Na  Na78  1  0.39027950  0.58455018  0.63071772  1
  Na  Na79  1  0.39107854  0.58413912  0.88263171  1
  Na  Na80  1  0.39003963  0.91462568  0.13131327  1
  Na  Na81  1  0.39086820  0.91574218  0.38214011  1
  Na  Na82  1  0.39058740  0.91602739  0.63115926  1
  Na  Na83  1  0.39041754  0.91496971  0.88172189  1
  Na  Na84  1  0.89050778  0.24997755  0.13148327  1
  Na  Na85  1  0.88999681  0.24989300  0.38174378  1
  Na  Na86  1  0.89015589  0.24930059  0.63163574  1
  Na  Na87  1  0.89026400  0.25025127  0.88086083  1
  Na  Na88  1  0.89064296  0.58365387  0.13055569  1
  Na  Na89  1  0.89076978  0.58338705  0.38114065  1
  Na  Na90  1  0.89078370  0.58274655  0.63084559  1
  Na  Na91  1  0.89102453  0.58336203  0.88032049  1
  Na  Na92  1  0.89060835  0.91653924  0.13009480  1
  Na  Na93  1  0.89047163  0.91722270  0.38144163  1
  Na  Na94  1  0.89022873  0.91649948  0.63219739  1
  Na  Na95  1  0.89014083  0.91601800  0.88080195  1
  Mn  Mn96  1  0.75015070  0.66652931  0.62504214  1
  Mn  Mn97  1  0.00085021  0.66765779  0.50008447  1
  Mn  Mn98  1  0.74972812  0.00005791  0.12513042  1
  Mn  Mn99  1  0.00126159  0.49932604  0.75006002  1
  Mn  Mn100  1  0.49932035  0.33293795  0.74949417  1
  Mn  Mn101  1  0.49901843  -0.00139668  0.24999533  1
  Mn  Mn102  1  0.24944549  0.16829803  0.37605971  1
  Mn  Mn103  1  0.24960968  0.33311038  0.87589950  1
  Mn  Mn104  1  0.75020851  0.83383897  0.12542280  1
  Mn  Mn105  1  0.24892955  0.66615995  0.37448945  1
  Mn  Mn106  1  0.00023232  0.33428018  0.25002428  1
  Mn  Mn107  1  0.75075647  0.66787146  0.87344995  1
  Mn  Mn108  1  0.49967408  0.50127874  0.75000110  1
  Mn  Mn109  1  0.24962299  0.16741345  0.62536851  1
  Mn  Mn110  1  0.75013715  0.33294015  0.12541683  1
  Mn  Mn111  1  0.25042326  -0.00024775  0.37542153  1
  Mn  Mn112  1  0.49943996  0.50103779  0.49952468  1
  Mn  Mn113  1  0.74984279  -0.00018747  0.62500622  1
  Mn  Mn114  1  0.49935759  0.33312901  0.49962481  1
  Mn  Mn115  1  0.24958000  0.16819219  0.12612070  1
  Mn  Mn116  1  0.74989881  0.50004182  0.12491639  1
  Mn  Mn117  1  0.74981216  0.49947920  0.37498906  1
  Mn  Mn118  1  0.00063489  0.83319381  -0.00007893  1
  Mn  Mn119  1  0.00093030  0.66713852  0.74996246  1
  Mn  Mn120  1  0.00024973  0.16558718  0.00028052  1
  Mn  Mn121  1  0.50007823  0.00032085  0.74994910  1
  Mn  Mn122  1  0.75047476  0.49964964  0.87422476  1
  Mn  Mn123  1  0.24951149  -0.00017642  0.12490623  1
  Mn  Mn124  1  0.49904426  0.16718334  0.24939396  1
  Mn  Mn125  1  0.49923425  0.16729933  0.00010889  1
  Mn  Mn126  1  0.25006795  0.50036261  0.62525667  1
  Mn  Mn127  1  0.24998283  0.50087609  0.87540526  1
  Mn  Mn128  1  0.24995088  0.83269333  0.37470560  1
  Mn  Mn129  1  0.00037181  0.83377535  0.24891737  1
  Mn  Mn130  1  0.75017291  0.83246761  0.37489283  1
  Mn  Mn131  1  0.00033224  0.33408120  0.00052787  1
  Mn  Mn132  1  -0.00050896  -0.00058052  0.50058188  1
  Mn  Mn133  1  0.74971785  0.16648113  0.12518009  1
  Mn  Mn134  1  0.24974079  -0.00097513  0.62618573  1
  Mn  Mn135  1  0.25018181  -0.00050490  0.87528217  1
  Mn  Mn136  1  0.00028916  0.16607658  0.25022971  1
  Mn  Mn137  1  0.50045760  0.83257531  0.75024661  1
  Mn  Mn138  1  0.74965807  0.16707671  0.87501676  1
  Mn  Mn139  1  -0.00073899  0.16707205  0.50026004  1
  Mn  Mn140  1  0.74965266  0.33272574  0.62453354  1
  Mn  Mn141  1  0.74988449  0.66707287  0.12415563  1
  Mn  Mn142  1  0.49913056  -0.00098429  0.00010098  1
  Mn  Mn143  1  0.00081680  0.49928864  0.50009841  1
  Fe  Fe144  1  0.25051155  0.83286862  0.12436013  1
  Fe  Fe145  1  0.74999287  -0.00050965  0.37553386  1
  Fe  Fe146  1  0.25006168  0.50028349  0.37438570  1
  Fe  Fe147  1  0.00014209  0.83370444  0.49966644  1
  Fe  Fe148  1  0.49950574  0.83255515  0.50032310  1
  Fe  Fe149  1  0.74981225  0.49929203  0.62422222  1
  Fe  Fe150  1  0.24984233  0.66685573  0.12455393  1
  Fe  Fe151  1  0.50026298  0.33395206  0.00023196  1
  Fe  Fe152  1  -0.00020775  0.83324877  0.75029709  1
  Fe  Fe153  1  -0.00025518  0.50063548  0.24948376  1
  Fe  Fe154  1  0.50031502  0.50066933  0.24943146  1
  Fe  Fe155  1  0.25018094  0.33489537  0.37447557  1
  Fe  Fe156  1  0.25074082  0.83230767  0.87475992  1
  Fe  Fe157  1  0.74958472  0.00035420  0.87469275  1
  Fe  Fe158  1  0.50068313  0.66668841  0.49936496  1
  Fe  Fe159  1  0.25017031  0.50049930  0.12502004  1
  Fe  Fe160  1  0.24990316  0.33403410  0.62497754  1
  Fe  Fe161  1  0.74980591  0.33367995  0.87421423  1
  Fe  Fe162  1  0.00033333  -0.00040339  -0.00076719  1
  Fe  Fe163  1  0.24998514  0.16698010  0.87529902  1
  Fe  Fe164  1  -0.00034790  0.16650655  0.75021862  1
  Fe  Fe165  1  0.00001881  -0.00063130  0.74981760  1
  Fe  Fe166  1  0.49949165  0.16655261  0.74982815  1
  Fe  Fe167  1  0.50032577  0.66706309  0.75061422  1
  Fe  Fe168  1  0.50035004  0.33398825  0.25020600  1
  Fe  Fe169  1  0.49988488  0.50025286  0.00063177  1
  Fe  Fe170  1  0.25052505  0.33438864  0.12507909  1
  Fe  Fe171  1  -0.00029114  0.50060347  -0.00030081  1
  Fe  Fe172  1  0.74931539  0.33241062  0.37579283  1
  Fe  Fe173  1  0.49999151  0.16660566  0.49961385  1
  Fe  Fe174  1  0.50026454  0.66669370  0.00111485  1
  Fe  Fe175  1  0.50015473  0.66649218  0.25004111  1
  Fe  Fe176  1  0.25049574  0.66680552  0.62495876  1
  Fe  Fe177  1  0.74982248  0.16586066  0.37530291  1
  Fe  Fe178  1  0.00005024  0.66671764  0.24924386  1
  Fe  Fe179  1  -0.00009335  -0.00015671  0.25016204  1
  Fe  Fe180  1  0.50063303  0.83232162  0.00078179  1
  Fe  Fe181  1  0.74977887  0.16604058  0.62471145  1
  Fe  Fe182  1  0.25048532  0.83258851  0.62537828  1
  Fe  Fe183  1  0.75005255  0.66569440  0.37555655  1
  Fe  Fe184  1  0.50010901  0.83213954  0.25100786  1
  Fe  Fe185  1  0.74959108  0.83428877  0.87488296  1
  Fe  Fe186  1  0.75007368  0.83358836  0.62484829  1
  Fe  Fe187  1  -0.00036908  0.33320294  0.75027016  1
  Fe  Fe188  1  0.25113654  0.66703990  0.87538191  1
  Fe  Fe189  1  0.49979885  -0.00034116  0.49988271  1
  Fe  Fe190  1  0.00008604  0.33333818  0.50022676  1
  Fe  Fe191  1  0.00013396  0.66657451  -0.00044805  1
  P  P192  1  0.04296544  0.25000036  0.10326064  1
  P  P193  1  0.04265066  0.25050175  0.35363639  1
  P  P194  1  0.04147667  0.25100918  0.60354552  1
  P  P195  1  0.04118747  0.25001807  0.85172763  1
  P  P196  1  0.04116081  0.58361478  0.10197812  1
  P  P197  1  0.04170864  0.58368392  0.35092694  1
  P  P198  1  0.04357306  0.58335138  0.60278284  1
  P  P199  1  0.04339274  0.58339121  0.85383627  1
  P  P200  1  0.04260402  0.91814580  0.10228488  1
  P  P201  1  0.04257379  0.91755802  0.35256016  1
  P  P202  1  0.04184626  0.91519786  0.60353456  1
  P  P203  1  0.04158734  0.91662432  0.85175335  1
  P  P204  1  0.54198487  0.25211130  0.10289354  1
  P  P205  1  0.54139850  0.25053129  0.35260936  1
  P  P206  1  0.54176428  0.24850340  0.60235639  1
  P  P207  1  0.54183027  0.24909744  0.85247520  1
  P  P208  1  0.54138964  0.58328414  0.10242316  1
  P  P209  1  0.54133317  0.58353155  0.35157694  1
  P  P210  1  0.54233215  0.58523298  0.60253117  1
  P  P211  1  0.54221918  0.58495108  0.85362838  1
  P  P212  1  0.54193823  0.91445234  0.10330408  1
  P  P213  1  0.54145078  0.91470057  0.35377537  1
  P  P214  1  0.54133295  0.91630878  0.60133983  1
  P  P215  1  0.54270133  0.91613042  0.85349007  1
  P  P216  1  0.45630233  0.08287753  0.14696183  1
  P  P217  1  0.45825380  0.08310452  0.39844902  1
  P  P218  1  0.45778877  0.08457047  0.64655002  1
  P  P219  1  0.45670006  0.08338477  0.89659176  1
  P  P220  1  0.45915432  0.41735937  0.14786234  1
  P  P221  1  0.45759191  0.41728408  0.39562439  1
  P  P222  1  0.45668598  0.41735898  0.64687129  1
  P  P223  1  0.45851402  0.41708717  0.89877181  1
  P  P224  1  0.45915455  0.74949205  0.14828393  1
  P  P225  1  0.45836194  0.74949594  0.39792889  1
  P  P226  1  0.45853413  0.74864733  0.64697656  1
  P  P227  1  0.45888023  0.74937872  0.89902171  1
  P  P228  1  0.95769145  0.08145253  0.14718336  1
  P  P229  1  0.95701777  0.08287905  0.39695516  1
  P  P230  1  0.95810987  0.08296574  0.64886193  1
  P  P231  1  0.95817856  0.08169920  0.89634212  1
  P  P232  1  0.95778735  0.41877436  0.14714463  1
  P  P233  1  0.95807778  0.41589143  0.39730457  1
  P  P234  1  0.95816007  0.41488748  0.64717594  1
  P  P235  1  0.95793036  0.41757313  0.89722666  1
  P  P236  1  0.95821338  0.74854502  0.14664840  1
  P  P237  1  0.95802489  0.75134697  0.39692076  1
  P  P238  1  0.95817911  0.75156334  0.64721203  1
  P  P239  1  0.95842929  0.74929254  0.89701113  1
  P  P240  1  0.20699608  0.08379799  0.22857866  1
  P  P241  1  0.20717538  0.08345202  0.47882622  1
  P  P242  1  0.20733706  0.08334702  0.72909662  1
  P  P243  1  0.20751958  0.08481819  0.97742932  1
  P  P244  1  0.20890999  0.41725102  0.22701617  1
  P  P245  1  0.20831894  0.41751434  0.47655774  1
  P  P246  1  0.20763523  0.41578932  0.72763995  1
  P  P247  1  0.20767312  0.41765757  0.97928783  1
  P  P248  1  0.20853932  0.75003955  0.22583652  1
  P  P249  1  0.20736743  0.74965007  0.47875503  1
  P  P250  1  0.20933668  0.74957596  0.72748146  1
  P  P251  1  0.20917897  0.74986397  0.97716650  1
  P  P252  1  0.70692530  0.08327397  0.22939563  1
  P  P253  1  0.70837393  0.08259332  0.47704450  1
  P  P254  1  0.70767901  0.08448324  0.72756817  1
  P  P255  1  0.70697002  0.08224179  0.97716888  1
  P  P256  1  0.70715169  0.41634649  0.22878710  1
  P  P257  1  0.70723328  0.41489330  0.47782520  1
  P  P258  1  0.70732204  0.41764631  0.72719101  1
  P  P259  1  0.70763734  0.41540705  0.97706442  1
  P  P260  1  0.70750576  0.74968308  0.22870748  1
  P  P261  1  0.70780030  0.74803281  0.47771666  1
  P  P262  1  0.70797759  0.75223414  0.72745351  1
  P  P263  1  0.70797958  0.75133565  0.97682071  1
  P  P264  1  0.29241495  0.25148124  0.02277793  1
  P  P265  1  0.29225495  0.25250321  0.27257015  1
  P  P266  1  0.29177565  0.25256913  0.52222852  1
  P  P267  1  0.29210932  0.24917878  0.77266212  1
  P  P268  1  0.29159392  0.58394331  0.02341934  1
  P  P269  1  0.29148645  0.58212087  0.27133084  1
  P  P270  1  0.29216373  0.58429214  0.52215510  1
  P  P271  1  0.29287444  0.58504299  0.77263251  1
  P  P272  1  0.29203843  0.91503364  0.02197963  1
  P  P273  1  0.29300216  0.91591356  0.27127717  1
  P  P274  1  0.29245621  0.91523344  0.52313005  1
  P  P275  1  0.29250855  0.91447277  0.77252495  1
  P  P276  1  0.79287602  0.24984038  0.02147080  1
  P  P277  1  0.79148559  0.24972951  0.27408283  1
  P  P278  1  0.79175259  0.24757411  0.52177449  1
  P  P279  1  0.79200657  0.25129781  0.77205674  1
  P  P280  1  0.79282841  0.58334907  0.02112960  1
  P  P281  1  0.79231169  0.58434233  0.27262437  1
  P  P282  1  0.79240573  0.58155747  0.52214178  1
  P  P283  1  0.79319602  0.58326747  0.77055152  1
  P  P284  1  0.79242376  0.91690781  0.02079740  1
  P  P285  1  0.79261310  0.91779966  0.27302165  1
  P  P286  1  0.79200646  0.91529168  0.52219599  1
  P  P287  1  0.79113841  0.91718898  0.77291026  1
  O  O288  1  0.03781386  0.25004213  0.18319762  1
  O  O289  1  0.03723751  0.25099407  0.43361080  1
  O  O290  1  0.03597359  0.25094643  0.68345236  1
  O  O291  1  0.03664463  0.24959525  0.93172909  1
  O  O292  1  0.03577802  0.58371188  0.18191124  1
  O  O293  1  0.03733525  0.58359565  0.43094289  1
  O  O294  1  0.03868330  0.58322086  0.68271579  1
  O  O295  1  0.03771603  0.58354969  0.93373848  1
  O  O296  1  0.03726983  0.91815322  0.18222319  1
  O  O297  1  0.03713170  0.91647321  0.43250304  1
  O  O298  1  0.03638023  0.91531130  0.68344070  1
  O  O299  1  0.03676601  0.91698090  0.93175672  1
  O  O300  1  0.53654856  0.25235037  0.18284572  1
  O  O301  1  0.53617116  0.24967406  0.43256574  1
  O  O302  1  0.53658911  0.24833135  0.68231861  1
  O  O303  1  0.53673613  0.24999274  0.93243247  1
  O  O304  1  0.53658390  0.58269153  0.18232077  1
  O  O305  1  0.53654229  0.58424085  0.43151300  1
  O  O306  1  0.53721449  0.58532797  0.68250261  1
  O  O307  1  0.53690256  0.58460991  0.93350833  1
  O  O308  1  0.53648743  0.91432710  0.18326790  1
  O  O309  1  0.53576190  0.91501580  0.43364784  1
  O  O310  1  0.53681122  0.91676310  0.68137521  1
  O  O311  1  0.53765720  0.91568078  0.93343190  1
  O  O312  1  0.46146595  0.08296476  0.06700763  1
  O  O313  1  0.46251442  0.08254154  0.31841377  1
  O  O314  1  0.46339263  0.08427419  0.56664807  1
  O  O315  1  0.46206440  0.08389794  0.81659511  1
  O  O316  1  0.46433107  0.41709002  0.06792540  1
  O  O317  1  0.46337844  0.41727027  0.31576238  1
  O  O318  1  0.46174349  0.41732225  0.56691782  1
  O  O319  1  0.46303622  0.41746567  0.81875811  1
  O  O320  1  0.46427300  0.74924215  0.06841699  1
  O  O321  1  0.46357028  0.74971906  0.31803463  1
  O  O322  1  0.46395756  0.74906660  0.56712905  1
  O  O323  1  0.46388030  0.74908419  0.81905600  1
  O  O324  1  0.96316069  0.08141755  0.06720012  1
  O  O325  1  0.96230831  0.08238884  0.31703731  1
  O  O326  1  0.96263068  0.08330889  0.56884774  1
  O  O327  1  0.96376217  0.08218147  0.81646473  1
  O  O328  1  0.96285955  0.41900255  0.06717736  1
  O  O329  1  0.96294159  0.41691989  0.31733675  1
  O  O330  1  0.96351241  0.41445900  0.56719961  1
  O  O331  1  0.96339673  0.41667163  0.81729397  1
  O  O332  1  0.96351899  0.74826181  0.06668864  1
  O  O333  1  0.96325804  0.75075683  0.31695995  1
  O  O334  1  0.96333470  0.75197644  0.56724488  1
  O  O335  1  0.96356810  0.75020770  0.81705543  1
  O  O336  1  0.21260987  0.08461453  0.05742542  1
  O  O337  1  0.21228000  0.08370554  0.30855123  1
  O  O338  1  0.21227814  0.08327503  0.55884386  1
  O  O339  1  0.21277804  0.08382062  0.80902892  1
  O  O340  1  0.21317594  0.41765861  0.05918302  1
  O  O341  1  0.21409911  0.41742450  0.30696887  1
  O  O342  1  0.21339358  0.41729434  0.55656112  1
  O  O343  1  0.21267627  0.41607180  0.80759026  1
  O  O344  1  0.21419665  0.75009742  0.05709870  1
  O  O345  1  0.21267643  0.74955564  0.30587965  1
  O  O346  1  0.21275350  0.74963346  0.55865971  1
  O  O347  1  0.21487352  0.74945067  0.80738167  1
  O  O348  1  0.71193416  0.08252821  0.05719126  1
  O  O349  1  0.71237967  0.08323498  0.30934348  1
  O  O350  1  0.71342493  0.08313073  0.55706235  1
  O  O351  1  0.71282100  0.08373888  0.80750176  1
  O  O352  1  0.71270791  0.41574117  0.05708454  1
  O  O353  1  0.71217132  0.41596207  0.30878763  1
  O  O354  1  0.71267607  0.41573755  0.55777302  1
  O  O355  1  0.71267576  0.41706535  0.80715054  1
  O  O356  1  0.71278874  0.75106704  0.05684240  1
  O  O357  1  0.71270850  0.74878731  0.30865647  1
  O  O358  1  0.71304379  0.74856682  0.55761829  1
  O  O359  1  0.71342003  0.75273824  0.80739335  1
  O  O360  1  0.28708750  0.25246924  0.19260117  1
  O  O361  1  0.28647687  0.25287492  0.44226010  1
  O  O362  1  0.28703985  0.24987398  0.69268696  1
  O  O363  1  0.28709353  0.25041309  0.94282596  1
  O  O364  1  0.28626146  0.58228756  0.19143855  1
  O  O365  1  0.28665326  0.58351963  0.44222977  1
  O  O366  1  0.28745867  0.58491066  0.69267824  1
  O  O367  1  0.28709276  0.58472472  0.94342474  1
  O  O368  1  0.28778261  0.91554004  0.19126585  1
  O  O369  1  0.28750427  0.91558946  0.44311552  1
  O  O370  1  0.28715705  0.91429663  0.69257389  1
  O  O371  1  0.28675941  0.91480181  0.94200474  1
  O  O372  1  0.78660288  0.24973400  0.19404145  1
  O  O373  1  0.78618642  0.24767650  0.44188510  1
  O  O374  1  0.78687824  0.25061970  0.69213402  1
  O  O375  1  0.78781337  0.25048455  0.94149495  1
  O  O376  1  0.78721318  0.58411205  0.19262523  1
  O  O377  1  0.78691388  0.58230066  0.44216856  1
  O  O378  1  0.78769734  0.58254768  0.69062215  1
  O  O379  1  0.78814511  0.58338619  0.94112099  1
  O  O380  1  0.78771585  0.91771755  0.19301164  1
  O  O381  1  0.78683029  0.91615417  0.44228150  1
  O  O382  1  0.78609424  0.91648600  0.69288582  1
  O  O383  1  0.78690150  0.91697735  0.94086121  1
  O  O384  1  0.22814284  0.25255031  0.05841762  1
  O  O385  1  0.22799018  0.25253769  0.30820297  1
  O  O386  1  0.22759528  0.25245279  0.55812402  1
  O  O387  1  0.22778120  0.24879206  0.80823265  1
  O  O388  1  0.22734619  0.58316630  0.05896547  1
  O  O389  1  0.22731955  0.58162922  0.30733326  1
  O  O390  1  0.22809922  0.58479223  0.55832039  1
  O  O391  1  0.22865956  0.58548355  0.80846146  1
  O  O392  1  0.22783869  0.91480288  0.05777402  1
  O  O393  1  0.22859964  0.91646039  0.30641530  1
  O  O394  1  0.22814432  0.91459415  0.55859000  1
  O  O395  1  0.22834432  0.91442703  0.80840604  1
  O  O396  1  0.72842345  0.24975223  0.05654570  1
  O  O397  1  0.72727873  0.24971945  0.30987385  1
  O  O398  1  0.72764441  0.24768012  0.55796505  1
  O  O399  1  0.72773841  0.25161538  0.80776668  1
  O  O400  1  0.72827111  0.58332308  0.05586313  1
  O  O401  1  0.72792849  0.58447867  0.30799991  1
  O  O402  1  0.72817361  0.58149739  0.55793715  1
  O  O403  1  0.72895396  0.58366854  0.80601697  1
  O  O404  1  0.72820858  0.91668621  0.05656967  1
  O  O405  1  0.72824220  0.91754681  0.30831474  1
  O  O406  1  0.72773342  0.91524008  0.55787797  1
  O  O407  1  0.72701549  0.91761196  0.80891027  1
  O  O408  1  0.27132802  0.08376596  0.19338552  1
  O  O409  1  0.27158647  0.08397464  0.44379480  1
  O  O410  1  0.27153632  0.08328090  0.69350236  1
  O  O411  1  0.27181989  0.08481459  0.94191680  1
  O  O412  1  0.27293386  0.41727041  0.19055317  1
  O  O413  1  0.27244078  0.41797572  0.44040736  1
  O  O414  1  0.27196611  0.41576629  0.69217401  1
  O  O415  1  0.27183026  0.41720940  0.94350324  1
  O  O416  1  0.27296581  0.75042898  0.19081330  1
  O  O417  1  0.27156273  0.74912506  0.44303598  1
  O  O418  1  0.27321873  0.74959254  0.69065429  1
  O  O419  1  0.27335461  0.74996747  0.94104597  1
  O  O420  1  0.77121410  0.08333240  0.19378775  1
  O  O421  1  0.77249573  0.08249823  0.44107986  1
  O  O422  1  0.77197774  0.08439832  0.69194089  1
  O  O423  1  0.77132242  0.08213035  0.94177326  1
  O  O424  1  0.77156035  0.41673324  0.19366817  1
  O  O425  1  0.77144044  0.41451697  0.44201699  1
  O  O426  1  0.77156230  0.41784681  0.69139631  1
  O  O427  1  0.77201926  0.41492240  0.94169663  1
  O  O428  1  0.77184468  0.74988850  0.19340063  1
  O  O429  1  0.77206075  0.74772125  0.44199114  1
  O  O430  1  0.77218067  0.75193257  0.69162521  1
  O  O431  1  0.77233355  0.75178951  0.94151765  1
  O  O432  1  0.02192032  0.08133311  0.18315000  1
  O  O433  1  0.02123743  0.08309721  0.43252927  1
  O  O434  1  0.02233302  0.08244212  0.68443939  1
  O  O435  1  0.02226238  0.08131366  0.93277669  1
  O  O436  1  0.02212391  0.41868139  0.18269125  1
  O  O437  1  0.02248739  0.41516467  0.43267712  1
  O  O438  1  0.02241454  0.41444812  0.68299924  1
  O  O439  1  0.02209464  0.41843569  0.93324256  1
  O  O440  1  0.02242195  0.74880907  0.18250088  1
  O  O441  1  0.02231175  0.75213427  0.43274842  1
  O  O442  1  0.02246684  0.75175308  0.68290994  1
  O  O443  1  0.02264547  0.74877937  0.93279298  1
  O  O444  1  0.52067648  0.08281784  0.18212198  1
  O  O445  1  0.52258561  0.08346154  0.43381983  1
  O  O446  1  0.52187006  0.08514083  0.68298793  1
  O  O447  1  0.52095180  0.08310058  0.93212013  1
  O  O448  1  0.52308043  0.41769091  0.18449654  1
  O  O449  1  0.52160438  0.41716075  0.43186709  1
  O  O450  1  0.52108273  0.41723771  0.68197925  1
  O  O451  1  0.52274729  0.41657575  0.93437888  1
  O  O452  1  0.52312008  0.74983588  0.18476039  1
  O  O453  1  0.52242210  0.74974361  0.43440873  1
  O  O454  1  0.52262859  0.74806476  0.68335354  1
  O  O455  1  0.52303974  0.74938343  0.93511440  1
  O  O456  1  0.47776167  0.25232069  0.06699097  1
  O  O457  1  0.47724225  0.25138133  0.31678385  1
  O  O458  1  0.47748053  0.24846533  0.56668545  1
  O  O459  1  0.47750777  0.24844443  0.81675533  1
  O  O460  1  0.47726319  0.58395218  0.06634525  1
  O  O461  1  0.47723194  0.58280546  0.31551404  1
  O  O462  1  0.47804349  0.58568314  0.56680184  1
  O  O463  1  0.47804346  0.58562818  0.81742370  1
  O  O464  1  0.47776577  0.91410321  0.06726073  1
  O  O465  1  0.47746320  0.91412982  0.31722252  1
  O  O466  1  0.47709923  0.91591069  0.56577329  1
  O  O467  1  0.47840460  0.91640557  0.81806276  1
  O  O468  1  0.97860163  0.24988481  0.06809798  1
  O  O469  1  0.97839368  0.25030495  0.31810994  1
  O  O470  1  0.97740583  0.25152326  0.56717592  1
  O  O471  1  0.97696466  0.25056311  0.81606598  1
  O  O472  1  0.97726975  0.58363772  0.06516951  1
  O  O473  1  0.97735233  0.58387894  0.31553668  1
  O  O474  1  0.97917666  0.58333233  0.56772641  1
  O  O475  1  0.97928876  0.58326068  0.81783060  1
  O  O476  1  0.97840394  0.91805157  0.06636012  1
  O  O477  1  0.97832882  0.91790820  0.31662559  1
  O  O478  1  0.97770601  0.91470776  0.56728429  1
  O  O479  1  0.97739054  0.91664506  0.81580747  1
  O  O480  1  0.07388297  0.31360591  0.07530490  1
  O  O481  1  0.07399054  0.31364197  0.32507950  1
  O  O482  1  0.07266740  0.31415771  0.57453421  1
  O  O483  1  0.07245611  0.31356561  0.82403418  1
  O  O484  1  0.07218956  0.64724389  0.07370874  1
  O  O485  1  0.07252896  0.64733771  0.32263384  1
  O  O486  1  0.07442081  0.64691822  0.57469139  1
  O  O487  1  0.07462033  0.64673752  0.82540073  1
  O  O488  1  0.07365827  0.98121475  0.07337533  1
  O  O489  1  0.07321201  0.98140804  0.32479675  1
  O  O490  1  0.07266640  0.97913112  0.57576412  1
  O  O491  1  0.07268874  0.97992541  0.82318364  1
  O  O492  1  0.57314974  0.31519321  0.07398766  1
  O  O493  1  0.57248147  0.31411417  0.32463712  1
  O  O494  1  0.57265122  0.31245358  0.57488013  1
  O  O495  1  0.57261527  0.31269515  0.82401660  1
  O  O496  1  0.57285093  0.64668761  0.07441641  1
  O  O497  1  0.57164172  0.64731333  0.32274578  1
  O  O498  1  0.57369736  0.64813543  0.57352951  1
  O  O499  1  0.57350328  0.64811906  0.82492251  1
  O  O500  1  0.57264194  0.97845076  0.07571999  1
  O  O501  1  0.57233105  0.97845072  0.32574916  1
  O  O502  1  0.57161134  0.98023882  0.57281707  1
  O  O503  1  0.57373565  0.97963755  0.82527677  1
  O  O504  1  0.42523146  0.01944291  0.17499499  1
  O  O505  1  0.42802700  0.01925140  0.42728642  1
  O  O506  1  0.42697764  0.02067690  0.67448979  1
  O  O507  1  0.42561330  0.01968511  0.92428707  1
  O  O508  1  0.42847967  0.35369557  0.17647814  1
  O  O509  1  0.42614165  0.35406958  0.42398551  1
  O  O510  1  0.42568223  0.35388092  0.67505658  1
  O  O511  1  0.42741205  0.35356678  0.92676296  1
  O  O512  1  0.42864154  0.68561965  0.17693065  1
  O  O513  1  0.42773962  0.68560262  0.42604395  1
  O  O514  1  0.42727194  0.68556203  0.67576731  1
  O  O515  1  0.42769663  0.68614840  0.92763623  1
  O  O516  1  0.92664619  0.01825238  0.17589264  1
  O  O517  1  0.92583089  0.01971173  0.42570699  1
  O  O518  1  0.92693540  0.01941591  0.67664895  1
  O  O519  1  0.92712500  0.01829595  0.92472453  1
  O  O520  1  0.92674144  0.35496152  0.17474693  1
  O  O521  1  0.92720487  0.35233452  0.42559827  1
  O  O522  1  0.92662741  0.35207136  0.67617547  1
  O  O523  1  0.92707106  0.35400757  0.92554927  1
  O  O524  1  0.92727628  0.68538846  0.17568363  1
  O  O525  1  0.92737010  0.68761912  0.42523976  1
  O  O526  1  0.92749049  0.68746430  0.67454322  1
  O  O527  1  0.92749150  0.68566307  0.92494741  1
  O  O528  1  0.17598393  0.02040961  0.20018151  1
  O  O529  1  0.17647978  0.01979263  0.45067034  1
  O  O530  1  0.17646460  0.01947107  0.70152230  1
  O  O531  1  0.17656853  0.02108196  0.94971545  1
  O  O532  1  0.17801744  0.35359027  0.19879456  1
  O  O533  1  0.17758981  0.35392692  0.44814947  1
  O  O534  1  0.17710877  0.35218665  0.69911738  1
  O  O535  1  0.17601192  0.35446968  0.95106150  1
  O  O536  1  0.17832694  0.68609274  0.19720063  1
  O  O537  1  0.17579263  0.68656945  0.45006811  1
  O  O538  1  0.17824355  0.68607604  0.69910545  1
  O  O539  1  0.17855440  0.68606697  0.94885307  1
  O  O540  1  0.67567443  0.01993451  0.20101053  1
  O  O541  1  0.67778625  0.01850076  0.44946355  1
  O  O542  1  0.67620980  0.02126011  0.69919222  1
  O  O543  1  0.67630885  0.01871559  0.94870776  1
  O  O544  1  0.67617490  0.35299973  0.20035870  1
  O  O545  1  0.67655896  0.35108012  0.44989956  1
  O  O546  1  0.67604325  0.35420177  0.69918336  1
  O  O547  1  0.67681661  0.35197571  0.94854385  1
  O  O548  1  0.67614746  0.68674180  0.19969611  1
  O  O549  1  0.67713901  0.68436607  0.44933674  1
  O  O550  1  0.67693963  0.68831264  0.70029048  1
  O  O551  1  0.67727593  0.68756337  0.94885621  1
  O  O552  1  0.32347094  0.31509207  0.05073431  1
  O  O553  1  0.32319076  0.31586359  0.30105794  1
  O  O554  1  0.32262942  0.31592652  0.55100146  1
  O  O555  1  0.32326430  0.31262485  0.80092055  1
  O  O556  1  0.32184169  0.64765258  0.05261734  1
  O  O557  1  0.32228443  0.64590499  0.29941467  1
  O  O558  1  0.32308152  0.64785339  0.55031235  1
  O  O559  1  0.32420789  0.64803562  0.80138763  1
  O  O560  1  0.32277903  0.97903690  0.04945463  1
  O  O561  1  0.32421199  0.97934374  0.29950609  1
  O  O562  1  0.32310158  0.97907383  0.55100996  1
  O  O563  1  0.32343125  0.97835829  0.80003970  1
  O  O564  1  0.82420495  0.31284477  0.05040338  1
  O  O565  1  0.82215439  0.31355836  0.30209431  1
  O  O566  1  0.82308062  0.31110296  0.54962186  1
  O  O567  1  0.82253590  0.31507490  0.80031631  1
  O  O568  1  0.82372362  0.64688802  0.04927318  1
  O  O569  1  0.82308362  0.64777250  0.30118567  1
  O  O570  1  0.82393040  0.64478794  0.55024342  1
  O  O571  1  0.82424592  0.64709014  0.79804670  1
  O  O572  1  0.82350664  0.98027314  0.04927744  1
  O  O573  1  0.82301766  0.98134730  0.30177822  1
  O  O574  1  0.82337426  0.97850065  0.55070851  1
  O  O575  1  0.82187098  0.98112872  0.80053692  1
  O  O576  1  0.42544367  0.14656544  0.17491992  1
  O  O577  1  0.42723312  0.14679964  0.42616989  1
  O  O578  1  0.42640097  0.14769210  0.67518897  1
  O  O579  1  0.42545934  0.14658969  0.92510754  1
  O  O580  1  0.42789843  0.48093843  0.17584545  1
  O  O581  1  0.42638658  0.48077549  0.42375742  1
  O  O582  1  0.42577101  0.48086658  0.67505871  1
  O  O583  1  0.42831509  0.48106469  0.92735986  1
  O  O584  1  0.42774560  0.81270204  0.17670337  1
  O  O585  1  0.42715486  0.81278642  0.42665070  1
  O  O586  1  0.42778741  0.81244253  0.67524397  1
  O  O587  1  0.42843201  0.81337656  0.92707241  1
  O  O588  1  0.92684277  0.14545770  0.17468796  1
  O  O589  1  0.92597184  0.14650408  0.42480200  1
  O  O590  1  0.92793397  0.14695798  0.67733703  1
  O  O591  1  0.92713276  0.14533891  0.92451128  1
  O  O592  1  0.92695317  0.48203769  0.17617648  1
  O  O593  1  0.92720308  0.47942839  0.42579567  1
  O  O594  1  0.92772659  0.47913354  0.67450623  1
  O  O595  1  0.92684705  0.48115399  0.92509769  1
  O  O596  1  0.92705169  0.81241283  0.17392282  1
  O  O597  1  0.92693313  0.81474732  0.42518165  1
  O  O598  1  0.92693488  0.81449958  0.67647096  1
  O  O599  1  0.92736918  0.81273680  0.92534707  1
  O  O600  1  0.07405536  0.18656515  0.07515756  1
  O  O601  1  0.07372168  0.18681401  0.32595412  1
  O  O602  1  0.07239130  0.18713909  0.57584314  1
  O  O603  1  0.07127313  0.18601201  0.82309336  1
  O  O604  1  0.07212534  0.51999380  0.07378750  1
  O  O605  1  0.07209471  0.51983647  0.32246511  1
  O  O606  1  0.07458741  0.51987574  0.57456234  1
  O  O607  1  0.07479439  0.52004472  0.82567410  1
  O  O608  1  0.07347579  0.85416825  0.07472962  1
  O  O609  1  0.07387520  0.85434651  0.32389011  1
  O  O610  1  0.07311890  0.85218142  0.57453842  1
  O  O611  1  0.07213576  0.85255470  0.82401214  1
  O  O612  1  0.57272667  0.18801223  0.07555407  1
  O  O613  1  0.57229773  0.18696726  0.32432668  1
  O  O614  1  0.57283509  0.18538396  0.57329442  1
  O  O615  1  0.57268726  0.18551222  0.82428468  1
  O  O616  1  0.57171020  0.51959910  0.07313001  1
  O  O617  1  0.57269797  0.52007786  0.32377712  1
  O  O618  1  0.57276135  0.52110347  0.57476247  1
  O  O619  1  0.57292610  0.52117002  0.82530156  1
  O  O620  1  0.57315239  0.85124342  0.07471969  1
  O  O621  1  0.57281369  0.85142497  0.32540943  1
  O  O622  1  0.57242688  0.85273752  0.57355619  1
  O  O623  1  0.57371281  0.85282636  0.82484519  1
  O  O624  1  0.32330011  0.18800777  0.05129435  1
  O  O625  1  0.32313372  0.18868280  0.30050644  1
  O  O626  1  0.32280515  0.18870545  0.54966343  1
  O  O627  1  0.32269914  0.18547748  0.80107928  1
  O  O628  1  0.32282916  0.52040503  0.05128982  1
  O  O629  1  0.32274934  0.51902154  0.30026492  1
  O  O630  1  0.32338831  0.52084210  0.55030247  1
  O  O631  1  0.32335106  0.52093418  0.80049605  1
  O  O632  1  0.32320733  0.85182042  0.05068729  1
  O  O633  1  0.32382214  0.85244280  0.29986939  1
  O  O634  1  0.32350752  0.85180193  0.55137484  1
  O  O635  1  0.32372858  0.85125761  0.80114486  1
  O  O636  1  0.82358617  0.18597992  0.04946769  1
  O  O637  1  0.82234471  0.18598232  0.30195799  1
  O  O638  1  0.82253618  0.18414852  0.55077166  1
  O  O639  1  0.82322162  0.18792200  0.80031126  1
  O  O640  1  0.82359421  0.51982013  0.04960867  1
  O  O641  1  0.82328095  0.52063667  0.30044583  1
  O  O642  1  0.82291063  0.51760309  0.55005734  1
  O  O643  1  0.82455151  0.52019886  0.79923100  1
  O  O644  1  0.82377038  0.85358165  0.04927999  1
  O  O645  1  0.82383161  0.85411719  0.30053218  1
  O  O646  1  0.82245581  0.85142238  0.55036598  1
  O  O647  1  0.82200624  0.85371083  0.80154926  1
  O  O648  1  0.17588611  0.14740814  0.20084529  1
  O  O649  1  0.17588097  0.14696894  0.45106893  1
  O  O650  1  0.17585520  0.14638340  0.70052349  1
  O  O651  1  0.17689936  0.14847792  0.94909083  1
  O  O652  1  0.17788342  0.48076134  0.19848867  1
  O  O653  1  0.17747185  0.48125216  0.44839243  1
  O  O654  1  0.17658563  0.47946487  0.69984364  1
  O  O655  1  0.17680271  0.48116102  0.95073318  1
  O  O656  1  0.17750398  0.81351359  0.19766009  1
  O  O657  1  0.17649862  0.81317437  0.45015057  1
  O  O658  1  0.17831457  0.81327764  0.69939531  1
  O  O659  1  0.17802377  0.81320885  0.94837724  1
  O  O660  1  0.67581107  0.14666349  0.20072232  1
  O  O661  1  0.67725695  0.14587798  0.44838178  1
  O  O662  1  0.67734331  0.14831327  0.69915475  1
  O  O663  1  0.67589714  0.14590619  0.94939879  1
  O  O664  1  0.67619033  0.47996979  0.20053409  1
  O  O665  1  0.67592215  0.47824489  0.44965484  1
  O  O666  1  0.67661461  0.48132618  0.69886959  1
  O  O667  1  0.67684812  0.47920944  0.94924903  1
  O  O668  1  0.67677668  0.81366004  0.20117908  1
  O  O669  1  0.67669148  0.81153573  0.44963041  1
  O  O670  1  0.67708143  0.81545575  0.69835891  1
  O  O671  1  0.67700819  0.81479783  0.94851129  1
