# generated using pymatgen
data_Na2MnFe(PO4)2
_symmetry_space_group_name_H-M   'P 1'
_cell_length_a   22.34482484
_cell_length_b   20.09874428
_cell_length_c   19.44806290
_cell_angle_alpha   90.00354425
_cell_angle_beta   89.92905602
_cell_angle_gamma   89.95709159
_symmetry_Int_Tables_number   1
_chemical_formula_structural   Na2MnFe(PO4)2
_chemical_formula_sum   'Na96 Mn48 Fe48 P96 O384'
_cell_volume   8734.17268317
_cell_formula_units_Z   48
loop_
 _symmetry_equiv_pos_site_id
 _symmetry_equiv_pos_as_xyz
  1  'x, y, z'
loop_
 _atom_site_type_symbol
 _atom_site_label
 _atom_site_symmetry_multiplicity
 _atom_site_fract_x
 _atom_site_fract_y
 _atom_site_fract_z
 _atom_site_occupancy
  Na  Na0  1  0.14062273  0.25092764  0.24364045  1
  Na  Na1  1  0.13964785  0.25160933  0.49362944  1
  Na  Na2  1  0.14034595  0.25199223  0.74226905  1
  Na  Na3  1  0.14048999  0.25004258  0.99415834  1
  Na  Na4  1  0.14047006  0.58360597  0.24431267  1
  Na  Na5  1  0.14028161  0.58371992  0.49248635  1
  Na  Na6  1  0.14009793  0.58308949  0.74197075  1
  Na  Na7  1  0.14043630  0.58217180  0.99290343  1
  Na  Na8  1  0.14068583  0.91729543  0.24304719  1
  Na  Na9  1  0.14034795  0.91588671  0.49284583  1
  Na  Na10  1  0.14031497  0.91596961  0.74319226  1
  Na  Na11  1  0.14049997  0.91613050  0.99405804  1
  Na  Na12  1  0.64059728  0.24847895  0.24363143  1
  Na  Na13  1  0.64027177  0.25113603  0.49340739  1
  Na  Na14  1  0.64101031  0.25174673  0.74334446  1
  Na  Na15  1  0.64068889  0.25067073  0.99485412  1
  Na  Na16  1  0.64079550  0.58153558  0.24477209  1
  Na  Na17  1  0.64093945  0.58280803  0.49352918  1
  Na  Na18  1  0.64066601  0.58382275  0.74409331  1
  Na  Na19  1  0.64068261  0.58304564  0.99388676  1
  Na  Na20  1  0.64109466  0.91526251  0.24463181  1
  Na  Na21  1  0.64109381  0.91538081  0.49369400  1
  Na  Na22  1  0.64078816  0.91815237  0.74384493  1
  Na  Na23  1  0.64083418  0.91647388  0.99427104  1
  Na  Na24  1  0.35861052  0.08340424  0.00763271  1
  Na  Na25  1  0.35931154  0.08378621  0.25627626  1
  Na  Na26  1  0.35896225  0.08464385  0.50588800  1
  Na  Na27  1  0.35870985  0.08508319  0.75565217  1
  Na  Na28  1  0.35854287  0.41560036  0.00666261  1
  Na  Na29  1  0.35942673  0.41728296  0.25679857  1
  Na  Na30  1  0.35902167  0.41651304  0.50590863  1
  Na  Na31  1  0.35881225  0.41746949  0.75478756  1
  Na  Na32  1  0.35902664  0.74864769  0.00678068  1
  Na  Na33  1  0.35885130  0.74934083  0.25682994  1
  Na  Na34  1  0.35988731  0.74905160  0.50609692  1
  Na  Na35  1  0.35965387  0.74936153  0.75526446  1
  Na  Na36  1  0.85968669  0.08301783  0.00647103  1
  Na  Na37  1  0.86007920  0.08228032  0.25626864  1
  Na  Na38  1  0.85942940  0.08445758  0.50679991  1
  Na  Na39  1  0.85906241  0.08499350  0.75606530  1
  Na  Na40  1  0.85959513  0.41763649  0.00465935  1
  Na  Na41  1  0.85948168  0.41576466  0.25714010  1
  Na  Na42  1  0.85974857  0.41632727  0.50812657  1
  Na  Na43  1  0.85985276  0.41785026  0.75615311  1
  Na  Na44  1  0.85992323  0.74948300  0.00560488  1
  Na  Na45  1  0.85974178  0.74826522  0.25656267  1
  Na  Na46  1  0.86053893  0.74894110  0.50772655  1
  Na  Na47  1  0.86029967  0.75074249  0.75710767  1
  Na  Na48  1  0.11025565  0.08290750  0.11836543  1
  Na  Na49  1  0.10934376  0.08418991  0.36898376  1
  Na  Na50  1  0.10932137  0.08389757  0.61802531  1
  Na  Na51  1  0.10962162  0.08267140  0.86898950  1
  Na  Na52  1  0.11027734  0.41752522  0.11839562  1
  Na  Na53  1  0.11022345  0.41723448  0.36901760  1
  Na  Na54  1  0.10975276  0.41672025  0.61683161  1
  Na  Na55  1  0.10971697  0.41683839  0.86691977  1
  Na  Na56  1  0.10988838  0.75106788  0.11843325  1
  Na  Na57  1  0.11030855  0.75095176  0.36868638  1
  Na  Na58  1  0.10970949  0.74847036  0.61788444  1
  Na  Na59  1  0.10968528  0.74812888  0.86784390  1
  Na  Na60  1  0.60987862  0.08340737  0.11954909  1
  Na  Na61  1  0.60982636  0.08393023  0.36884507  1
  Na  Na62  1  0.60954602  0.08426874  0.61827131  1
  Na  Na63  1  0.60997618  0.08328157  0.86924402  1
  Na  Na64  1  0.61006431  0.41676954  0.11954438  1
  Na  Na65  1  0.60972542  0.41550104  0.36881397  1
  Na  Na66  1  0.61043769  0.41742290  0.61817055  1
  Na  Na67  1  0.61034671  0.41715384  0.86860219  1
  Na  Na68  1  0.60991023  0.74908167  0.11943137  1
  Na  Na69  1  0.61029665  0.74789603  0.36960322  1
  Na  Na70  1  0.61023362  0.75004301  0.61846692  1
  Na  Na71  1  0.60984485  0.74948647  0.86964221  1
  Na  Na72  1  0.38985262  0.25097277  0.13264077  1
  Na  Na73  1  0.38969220  0.25059212  0.38021678  1
  Na  Na74  1  0.38917237  0.25096075  0.63090906  1
  Na  Na75  1  0.38938508  0.25063142  0.88105255  1
  Na  Na76  1  0.39007342  0.58247658  0.13183760  1
  Na  Na77  1  0.38978470  0.58246704  0.38220239  1
  Na  Na78  1  0.38948700  0.58383400  0.63031749  1
  Na  Na79  1  0.38946306  0.58347436  0.88081467  1
  Na  Na80  1  0.38972796  0.91678070  0.13204441  1
  Na  Na81  1  0.39027438  0.91552290  0.38127318  1
  Na  Na82  1  0.39056932  0.91615297  0.62989951  1
  Na  Na83  1  0.39017550  0.91568188  0.88169853  1
  Na  Na84  1  0.89020787  0.24968770  0.13141733  1
  Na  Na85  1  0.89041675  0.25030510  0.38291420  1
  Na  Na86  1  0.88976712  0.25120840  0.63172639  1
  Na  Na87  1  0.89021922  0.25054495  0.88060982  1
  Na  Na88  1  0.89006881  0.58445638  0.13073801  1
  Na  Na89  1  0.89029169  0.58363196  0.38372450  1
  Na  Na90  1  0.89075738  0.58285443  0.63202213  1
  Na  Na91  1  0.88999840  0.58323225  0.88045219  1
  Na  Na92  1  0.89023319  0.91723723  0.13096222  1
  Na  Na93  1  0.89116039  0.91716859  0.38174469  1
  Na  Na94  1  0.89059454  0.91511230  0.63171511  1
  Na  Na95  1  0.89060985  0.91574067  0.88107490  1
  Mn  Mn96  1  0.49978686  0.16712922  0.00036140  1
  Mn  Mn97  1  0.49994350  0.83255912  0.25048067  1
  Mn  Mn98  1  0.50001234  0.83279380  0.75011912  1
  Mn  Mn99  1  0.49964939  0.00013932  0.00051332  1
  Mn  Mn100  1  -0.00034807  0.16679527  0.74957238  1
  Mn  Mn101  1  0.24982123  0.00013860  0.87511122  1
  Mn  Mn102  1  0.00049236  0.16639590  0.25049071  1
  Mn  Mn103  1  -0.00029167  0.50085746  0.25043620  1
  Mn  Mn104  1  0.75057023  0.16597191  0.12430469  1
  Mn  Mn105  1  0.49933243  0.50047888  0.00020573  1
  Mn  Mn106  1  0.50027931  0.83242759  0.00088670  1
  Mn  Mn107  1  0.75037836  0.83221460  0.12484063  1
  Mn  Mn108  1  0.49967661  0.33383965  0.74996029  1
  Mn  Mn109  1  0.49974332  0.49940757  0.49985966  1
  Mn  Mn110  1  0.75082224  0.49948080  0.12499206  1
  Mn  Mn111  1  0.25024443  0.00080253  0.62436588  1
  Mn  Mn112  1  0.75001491  0.00091640  0.62467325  1
  Mn  Mn113  1  0.25014636  0.83201417  0.87420454  1
  Mn  Mn114  1  0.74999901  0.83418416  0.87586535  1
  Mn  Mn115  1  0.49985588  0.66668190  0.74994171  1
  Mn  Mn116  1  0.75119657  0.83129016  0.37435091  1
  Mn  Mn117  1  0.25021786  0.83250318  0.62421823  1
  Mn  Mn118  1  0.49950140  -0.00023910  0.74954654  1
  Mn  Mn119  1  0.75059189  0.33262683  0.37578613  1
  Mn  Mn120  1  0.24919559  0.16800849  0.87588598  1
  Mn  Mn121  1  0.00029974  0.16576632  0.00009082  1
  Mn  Mn122  1  0.50093476  0.00029035  0.25097392  1
  Mn  Mn123  1  0.00000236  0.33409400  0.25070230  1
  Mn  Mn124  1  -0.00025673  0.33368534  -0.00018724  1
  Mn  Mn125  1  0.50012348  0.33394211  0.00077464  1
  Mn  Mn126  1  -0.00038224  0.50097592  -0.00122752  1
  Mn  Mn127  1  0.74992192  0.16774967  0.87546689  1
  Mn  Mn128  1  0.24929117  -0.00007418  0.37487429  1
  Mn  Mn129  1  0.00036957  -0.00015937  0.50043828  1
  Mn  Mn130  1  0.75072528  -0.00026743  0.37564014  1
  Mn  Mn131  1  0.49995933  0.50038396  0.74947514  1
  Mn  Mn132  1  -0.00037636  -0.00144796  0.74881575  1
  Mn  Mn133  1  -0.00004033  0.83307447  -0.00030188  1
  Mn  Mn134  1  0.75045777  0.66658027  0.62579838  1
  Mn  Mn135  1  0.00023020  0.66749740  0.25049358  1
  Mn  Mn136  1  -0.00056349  0.83470558  0.24938925  1
  Mn  Mn137  1  0.49927977  0.16789022  0.49920587  1
  Mn  Mn138  1  0.50009926  0.16710872  0.74967517  1
  Mn  Mn139  1  0.24951340  0.66581130  0.12540908  1
  Mn  Mn140  1  0.49952377  -0.00033399  0.49936787  1
  Mn  Mn141  1  0.24918298  0.16796744  0.37493597  1
  Mn  Mn142  1  0.24943989  0.49968192  0.87413308  1
  Mn  Mn143  1  0.49932183  0.66551594  0.25025897  1
  Fe  Fe144  1  0.25002274  0.49963287  0.12517676  1
  Fe  Fe145  1  0.24965034  0.50036641  0.62399544  1
  Fe  Fe146  1  0.74937492  0.16784295  0.62574587  1
  Fe  Fe147  1  0.25003196  0.33432784  0.37461247  1
  Fe  Fe148  1  -0.00008931  0.33386947  0.50041887  1
  Fe  Fe149  1  0.75022170  0.66550112  0.12520605  1
  Fe  Fe150  1  0.24977231  0.66580034  0.87480507  1
  Fe  Fe151  1  0.74981033  0.50016773  0.87507718  1
  Fe  Fe152  1  0.25009541  -0.00077809  0.12554480  1
  Fe  Fe153  1  0.25002223  0.16716911  0.12525159  1
  Fe  Fe154  1  0.25021973  0.66644720  0.37456624  1
  Fe  Fe155  1  0.00004730  0.50007316  0.50075600  1
  Fe  Fe156  1  0.75049693  0.33316635  0.12506301  1
  Fe  Fe157  1  -0.00006506  -0.00057438  -0.00059135  1
  Fe  Fe158  1  0.00016357  0.66697584  0.50057266  1
  Fe  Fe159  1  0.24954601  0.33363198  0.87481355  1
  Fe  Fe160  1  0.24950656  0.33392211  0.12519494  1
  Fe  Fe161  1  0.75021199  0.49901334  0.37517450  1
  Fe  Fe162  1  0.24974041  0.83253570  0.12498101  1
  Fe  Fe163  1  0.74975396  0.33432179  0.62502524  1
  Fe  Fe164  1  0.24984768  0.50018764  0.37504380  1
  Fe  Fe165  1  0.75025980  0.00082952  0.87468161  1
  Fe  Fe166  1  0.24951938  0.33430320  0.62423314  1
  Fe  Fe167  1  0.50011644  0.33347502  0.25015094  1
  Fe  Fe168  1  0.00068028  0.83305916  0.50045705  1
  Fe  Fe169  1  0.00027076  0.66642721  -0.00129765  1
  Fe  Fe170  1  0.74990633  0.66702514  0.87503253  1
  Fe  Fe171  1  0.75025769  -0.00068057  0.12540101  1
  Fe  Fe172  1  0.49968417  0.33332309  0.49900852  1
  Fe  Fe173  1  0.75004673  0.16628200  0.37486855  1
  Fe  Fe174  1  0.50053190  0.49973828  0.25064150  1
  Fe  Fe175  1  0.25060292  0.83307488  0.37449191  1
  Fe  Fe176  1  0.00032204  0.33334859  0.74943986  1
  Fe  Fe177  1  0.00008934  0.66603141  0.74895620  1
  Fe  Fe178  1  0.75014967  0.33433737  0.87428301  1
  Fe  Fe179  1  0.75034561  0.83356853  0.62584807  1
  Fe  Fe180  1  0.00075176  0.83191238  0.75026925  1
  Fe  Fe181  1  0.50082271  0.83251387  0.50016722  1
  Fe  Fe182  1  0.24952153  0.66640980  0.62386984  1
  Fe  Fe183  1  0.00059890  0.50003327  0.74893144  1
  Fe  Fe184  1  0.75022491  0.50045080  0.62560336  1
  Fe  Fe185  1  0.24895687  0.16802578  0.62510706  1
  Fe  Fe186  1  -0.00078343  0.16722241  0.50005233  1
  Fe  Fe187  1  0.75053396  0.66503442  0.37600383  1
  Fe  Fe188  1  0.00040380  0.00059643  0.25051429  1
  Fe  Fe189  1  0.49996737  0.66613603  0.00055901  1
  Fe  Fe190  1  0.49945333  0.16712009  0.25009671  1
  Fe  Fe191  1  0.50032203  0.66607751  0.49994394  1
  P  P192  1  0.04275969  0.25003484  0.10325310  1
  P  P193  1  0.04245039  0.25060734  0.35440065  1
  P  P194  1  0.04073678  0.25070054  0.60180335  1
  P  P195  1  0.04222649  0.25086636  0.85194190  1
  P  P196  1  0.04240551  0.58503105  0.10169099  1
  P  P197  1  0.04238230  0.58392068  0.35459788  1
  P  P198  1  0.04120491  0.58316625  0.60194281  1
  P  P199  1  0.04132808  0.58347536  0.85063557  1
  P  P200  1  0.04203935  0.91828549  0.10239493  1
  P  P201  1  0.04270299  0.91797633  0.35267063  1
  P  P202  1  0.04278133  0.91444685  0.60277397  1
  P  P203  1  0.04234575  0.91491731  0.85225356  1
  P  P204  1  0.54257869  0.25040607  0.10463523  1
  P  P205  1  0.54140609  0.25027751  0.35153581  1
  P  P206  1  0.54216091  0.25192282  0.60187259  1
  P  P207  1  0.54315258  0.25041471  0.85321611  1
  P  P208  1  0.54240163  0.58389037  0.10323053  1
  P  P209  1  0.54198819  0.58179300  0.35329804  1
  P  P210  1  0.54263430  0.58413511  0.60200973  1
  P  P211  1  0.54274950  0.58351361  0.85360349  1
  P  P212  1  0.54311632  0.91666350  0.10377856  1
  P  P213  1  0.54321048  0.91545880  0.35414112  1
  P  P214  1  0.54257133  0.91550170  0.60208106  1
  P  P215  1  0.54288676  0.91641843  0.85332189  1
  P  P216  1  0.45758551  0.08452926  0.14822584  1
  P  P217  1  0.45670720  0.08404656  0.39612930  1
  P  P218  1  0.45663289  0.08373767  0.64628738  1
  P  P219  1  0.45640335  0.08352896  0.89709597  1
  P  P220  1  0.45856072  0.41715245  0.14910797  1
  P  P221  1  0.45767515  0.41503969  0.39637022  1
  P  P222  1  0.45701345  0.41681913  0.64585734  1
  P  P223  1  0.45660477  0.41695648  0.89706927  1
  P  P224  1  0.45679999  0.74915454  0.14689325  1
  P  P225  1  0.45866032  0.74909437  0.39867092  1
  P  P226  1  0.45748588  0.74976316  0.64565264  1
  P  P227  1  0.45733248  0.74829540  0.89820427  1
  P  P228  1  0.95814947  0.08178368  0.14739843  1
  P  P229  1  0.95794119  0.08421800  0.39784971  1
  P  P230  1  0.95701389  0.08350762  0.64616768  1
  P  P231  1  0.95763052  0.08158345  0.89723073  1
  P  P232  1  0.95700901  0.41749372  0.14702620  1
  P  P233  1  0.95846965  0.41714408  0.39932498  1
  P  P234  1  0.95931302  0.41657114  0.64763288  1
  P  P235  1  0.95779255  0.41688896  0.89517512  1
  P  P236  1  0.95719415  0.75021064  0.14637928  1
  P  P237  1  0.95895278  0.75078702  0.39897029  1
  P  P238  1  0.95901898  0.74946905  0.64774748  1
  P  P239  1  0.95811587  0.74837847  0.89633820  1
  P  P240  1  0.20882475  0.08355285  0.22646364  1
  P  P241  1  0.20681410  0.08445370  0.47839566  1
  P  P242  1  0.20709496  0.08530886  0.72717172  1
  P  P243  1  0.20738776  0.08342414  0.97939761  1
  P  P244  1  0.20841748  0.41719215  0.22737601  1
  P  P245  1  0.20867133  0.41704605  0.47686584  1
  P  P246  1  0.20824675  0.41733648  0.72573705  1
  P  P247  1  0.20726288  0.41527996  0.97754857  1
  P  P248  1  0.20774194  0.75091925  0.22806611  1
  P  P249  1  0.20912251  0.74945482  0.47609826  1
  P  P250  1  0.20789970  0.74792934  0.72695527  1
  P  P251  1  0.20773617  0.74823989  0.97745644  1
  P  P252  1  0.70821893  0.08179678  0.22775930  1
  P  P253  1  0.70790575  0.08507178  0.47798782  1
  P  P254  1  0.70750894  0.08520537  0.72771514  1
  P  P255  1  0.70820402  0.08212537  0.97786860  1
  P  P256  1  0.70849634  0.41504739  0.22793060  1
  P  P257  1  0.70823572  0.41781266  0.47834224  1
  P  P258  1  0.70881130  0.41764405  0.72732352  1
  P  P259  1  0.70882222  0.41645909  0.97691661  1
  P  P260  1  0.70836826  0.74703880  0.22799552  1
  P  P261  1  0.70868050  0.74815642  0.47807477  1
  P  P262  1  0.70831031  0.75141280  0.72834710  1
  P  P263  1  0.70811881  0.74846678  0.97814847  1
  P  P264  1  0.29135622  0.25079936  0.02374703  1
  P  P265  1  0.29137172  0.25208885  0.27174758  1
  P  P266  1  0.29068573  0.25089807  0.52292894  1
  P  P267  1  0.29120491  0.25192504  0.77184306  1
  P  P268  1  0.29184699  0.58148299  0.02250062  1
  P  P269  1  0.29121372  0.58280932  0.27327915  1
  P  P270  1  0.29086982  0.58341929  0.52204045  1
  P  P271  1  0.29155382  0.58442406  0.77123276  1
  P  P272  1  0.29118085  0.91576044  0.02355193  1
  P  P273  1  0.29188791  0.91539825  0.27173118  1
  P  P274  1  0.29255135  0.91627279  0.52086585  1
  P  P275  1  0.29264956  0.91664824  0.77162858  1
  P  P276  1  0.79254035  0.25183395  0.02203012  1
  P  P277  1  0.79268615  0.24822857  0.27265615  1
  P  P278  1  0.79094970  0.25013891  0.52375162  1
  P  P279  1  0.79200717  0.25212768  0.77179857  1
  P  P280  1  0.79215248  0.58427618  0.02170652  1
  P  P281  1  0.79217626  0.58230229  0.27385915  1
  P  P282  1  0.79246566  0.58175845  0.52258893  1
  P  P283  1  0.79112515  0.58352967  0.77341795  1
  P  P284  1  0.79233324  0.91785389  0.02230659  1
  P  P285  1  0.79338053  0.91606238  0.27166843  1
  P  P286  1  0.79255262  0.91527144  0.52292048  1
  P  P287  1  0.79226503  0.91839395  0.77240796  1
  O  O288  1  0.03776877  0.24997531  0.18326817  1
  O  O289  1  0.03685662  0.25065032  0.43432385  1
  O  O290  1  0.03584639  0.25094273  0.68178141  1
  O  O291  1  0.03711124  0.25054536  0.93192195  1
  O  O292  1  0.03749850  0.58473627  0.18171232  1
  O  O293  1  0.03732200  0.58384105  0.43451625  1
  O  O294  1  0.03661350  0.58318234  0.68186346  1
  O  O295  1  0.03660296  0.58379166  0.93060146  1
  O  O296  1  0.03677648  0.91866578  0.18235943  1
  O  O297  1  0.03775046  0.91720238  0.43261759  1
  O  O298  1  0.03747400  0.91397619  0.68270177  1
  O  O299  1  0.03695287  0.91565947  0.93220579  1
  O  O300  1  0.53712154  0.25029314  0.18457333  1
  O  O301  1  0.53633018  0.25089825  0.43153397  1
  O  O302  1  0.53734273  0.25148621  0.68185972  1
  O  O303  1  0.53834275  0.25044659  0.93325497  1
  O  O304  1  0.53715999  0.58279491  0.18321769  1
  O  O305  1  0.53667927  0.58257409  0.43321942  1
  O  O306  1  0.53774336  0.58396573  0.68200336  1
  O  O307  1  0.53768846  0.58381504  0.93358627  1
  O  O308  1  0.53828668  0.91670195  0.18380741  1
  O  O309  1  0.53780189  0.91496445  0.43409639  1
  O  O310  1  0.53738299  0.91579875  0.68211458  1
  O  O311  1  0.53791479  0.91639470  0.93334601  1
  O  O312  1  0.46242346  0.08429813  0.06820824  1
  O  O313  1  0.46214096  0.08444464  0.31618070  1
  O  O314  1  0.46166606  0.08392450  0.56626778  1
  O  O315  1  0.46136919  0.08348986  0.81703676  1
  O  O316  1  0.46326111  0.41731230  0.06910599  1
  O  O317  1  0.46333452  0.41542570  0.31650633  1
  O  O318  1  0.46203134  0.41629096  0.56585153  1
  O  O319  1  0.46144383  0.41703610  0.81705157  1
  O  O320  1  0.46199121  0.74859537  0.06695766  1
  O  O321  1  0.46325113  0.74903793  0.31862913  1
  O  O322  1  0.46295889  0.74965242  0.56572356  1
  O  O323  1  0.46240478  0.74888033  0.81817385  1
  O  O324  1  0.96332485  0.08157640  0.06740994  1
  O  O325  1  0.96316329  0.08382129  0.31788659  1
  O  O326  1  0.96221164  0.08413865  0.56623188  1
  O  O327  1  0.96249339  0.08186547  0.81724361  1
  O  O328  1  0.96187105  0.41753776  0.06701706  1
  O  O329  1  0.96282918  0.41755150  0.31928966  1
  O  O330  1  0.96426523  0.41671811  0.56769620  1
  O  O331  1  0.96342548  0.41663950  0.81529479  1
  O  O332  1  0.96226663  0.74968771  0.06644275  1
  O  O333  1  0.96323981  0.75083357  0.31893822  1
  O  O334  1  0.96415657  0.74965695  0.56782542  1
  O  O335  1  0.96351339  0.74873063  0.81644617  1
  O  O336  1  0.21301441  0.08323910  0.05925745  1
  O  O337  1  0.21318549  0.08335816  0.30649269  1
  O  O338  1  0.21215660  0.08505196  0.55830726  1
  O  O339  1  0.21226144  0.08508026  0.80716612  1
  O  O340  1  0.21249432  0.41561732  0.05738450  1
  O  O341  1  0.21385378  0.41713600  0.30722738  1
  O  O342  1  0.21349983  0.41736862  0.55670718  1
  O  O343  1  0.21247302  0.41707255  0.80567867  1
  O  O344  1  0.21286237  0.74894233  0.05740506  1
  O  O345  1  0.21347211  0.75090246  0.30787984  1
  O  O346  1  0.21395377  0.74878033  0.55606427  1
  O  O347  1  0.21302313  0.74764935  0.80689076  1
  O  O348  1  0.71383673  0.08174609  0.05778267  1
  O  O349  1  0.71351747  0.08268304  0.30770207  1
  O  O350  1  0.71300627  0.08557972  0.55794289  1
  O  O351  1  0.71279701  0.08470757  0.80763668  1
  O  O352  1  0.71386271  0.41621817  0.05687941  1
  O  O353  1  0.71367557  0.41549474  0.30785766  1
  O  O354  1  0.71332128  0.41804580  0.55822016  1
  O  O355  1  0.71367676  0.41712172  0.80722301  1
  O  O356  1  0.71359256  0.74810450  0.05806681  1
  O  O357  1  0.71397899  0.74679656  0.30792524  1
  O  O358  1  0.71354943  0.74897154  0.55802246  1
  O  O359  1  0.71350578  0.75096132  0.80827653  1
  O  O360  1  0.28598484  0.25184691  0.19192429  1
  O  O361  1  0.28592470  0.25144144  0.44297060  1
  O  O362  1  0.28574115  0.25141160  0.69200235  1
  O  O363  1  0.28652193  0.25098106  0.94377641  1
  O  O364  1  0.28640594  0.58235712  0.19334892  1
  O  O365  1  0.28615114  0.58318604  0.44216105  1
  O  O366  1  0.28628567  0.58446844  0.69137208  1
  O  O367  1  0.28669455  0.58195701  0.94258238  1
  O  O368  1  0.28642693  0.91525963  0.19183113  1
  O  O369  1  0.28716527  0.91586341  0.44092037  1
  O  O370  1  0.28762932  0.91659842  0.69165064  1
  O  O371  1  0.28635639  0.91615213  0.94356052  1
  O  O372  1  0.78772615  0.24867153  0.19273669  1
  O  O373  1  0.78656704  0.24983043  0.44375618  1
  O  O374  1  0.78631410  0.25162887  0.69196419  1
  O  O375  1  0.78705161  0.25210448  0.94211782  1
  O  O376  1  0.78714950  0.58266697  0.19387747  1
  O  O377  1  0.78724857  0.58178886  0.44271569  1
  O  O378  1  0.78625710  0.58298134  0.69344977  1
  O  O379  1  0.78656171  0.58441525  0.94190615  1
  O  O380  1  0.78787782  0.91635632  0.19174257  1
  O  O381  1  0.78762828  0.91512473  0.44295646  1
  O  O382  1  0.78691711  0.91760007  0.69247979  1
  O  O383  1  0.78690743  0.91831087  0.94236231  1
  O  O384  1  0.22717506  0.25100286  0.05970015  1
  O  O385  1  0.22730641  0.25276581  0.30813248  1
  O  O386  1  0.22650533  0.25032597  0.55891024  1
  O  O387  1  0.22706716  0.25220492  0.80820176  1
  O  O388  1  0.22757119  0.58114191  0.05832734  1
  O  O389  1  0.22708176  0.58337989  0.30922146  1
  O  O390  1  0.22675474  0.58388027  0.55825346  1
  O  O391  1  0.22741191  0.58447131  0.80756899  1
  O  O392  1  0.22703364  0.91535894  0.05951760  1
  O  O393  1  0.22776533  0.91489586  0.30801450  1
  O  O394  1  0.22830653  0.91659499  0.55647084  1
  O  O395  1  0.22822118  0.91625282  0.80675419  1
  O  O396  1  0.72842959  0.25138391  0.05827447  1
  O  O397  1  0.72832916  0.24834330  0.30832422  1
  O  O398  1  0.72672502  0.25019892  0.55945705  1
  O  O399  1  0.72797991  0.25219779  0.80832292  1
  O  O400  1  0.72815413  0.58398665  0.05836079  1
  O  O401  1  0.72797549  0.58225708  0.30999224  1
  O  O402  1  0.72829259  0.58186840  0.55870838  1
  O  O403  1  0.72709336  0.58405052  0.80958657  1
  O  O404  1  0.72821676  0.91753843  0.05851299  1
  O  O405  1  0.72916994  0.91570290  0.30735772  1
  O  O406  1  0.72822553  0.91547568  0.55847808  1
  O  O407  1  0.72807774  0.91865052  0.80845526  1
  O  O408  1  0.27300623  0.08361675  0.19085548  1
  O  O409  1  0.27103127  0.08406500  0.44272804  1
  O  O410  1  0.27139716  0.08590978  0.69147661  1
  O  O411  1  0.27148208  0.08381055  0.94320513  1
  O  O412  1  0.27240961  0.41701202  0.19063446  1
  O  O413  1  0.27271790  0.41648053  0.44052048  1
  O  O414  1  0.27244235  0.41728568  0.69003128  1
  O  O415  1  0.27145208  0.41547234  0.94134601  1
  O  O416  1  0.27179663  0.75079164  0.19161035  1
  O  O417  1  0.27328354  0.74976833  0.44010034  1
  O  O418  1  0.27215079  0.74774778  0.69115177  1
  O  O419  1  0.27201871  0.74771755  0.94165918  1
  O  O420  1  0.77242296  0.08136359  0.19173841  1
  O  O421  1  0.77223332  0.08503472  0.44226235  1
  O  O422  1  0.77176277  0.08542211  0.69185641  1
  O  O423  1  0.77231346  0.08258847  0.94159940  1
  O  O424  1  0.77270804  0.41488222  0.19194392  1
  O  O425  1  0.77246855  0.41774786  0.44235280  1
  O  O426  1  0.77289702  0.41792681  0.69100974  1
  O  O427  1  0.77283183  0.41634487  0.94050765  1
  O  O428  1  0.77250124  0.74726499  0.19184524  1
  O  O429  1  0.77302567  0.74750204  0.44245697  1
  O  O430  1  0.77260195  0.75147679  0.69252418  1
  O  O431  1  0.77223724  0.74880992  0.94198358  1
  O  O432  1  0.02244534  0.08179816  0.18310024  1
  O  O433  1  0.02212024  0.08420894  0.43348374  1
  O  O434  1  0.02133315  0.08304496  0.68137157  1
  O  O435  1  0.02202028  0.08148579  0.93248243  1
  O  O436  1  0.02152818  0.41757370  0.18182536  1
  O  O437  1  0.02282679  0.41622750  0.43450833  1
  O  O438  1  0.02338800  0.41613287  0.68368293  1
  O  O439  1  0.02187214  0.41708242  0.93116126  1
  O  O440  1  0.02153845  0.75081366  0.18162492  1
  O  O441  1  0.02329496  0.75078053  0.43423076  1
  O  O442  1  0.02310743  0.74925517  0.68388101  1
  O  O443  1  0.02221733  0.74842291  0.93249096  1
  O  O444  1  0.52198502  0.08506041  0.18344593  1
  O  O445  1  0.52101250  0.08390649  0.43139392  1
  O  O446  1  0.52115174  0.08352286  0.68110218  1
  O  O447  1  0.52100475  0.08347779  0.93172713  1
  O  O448  1  0.52283938  0.41725016  0.18463930  1
  O  O449  1  0.52179280  0.41494142  0.43252852  1
  O  O450  1  0.52144199  0.41698752  0.68090189  1
  O  O451  1  0.52118039  0.41714592  0.93166995  1
  O  O452  1  0.52120763  0.74884985  0.18194283  1
  O  O453  1  0.52296776  0.74880923  0.43409995  1
  O  O454  1  0.52175175  0.74985071  0.68121075  1
  O  O455  1  0.52174480  0.74784535  0.93350618  1
  O  O456  1  0.47829200  0.25053436  0.06908550  1
  O  O457  1  0.47724781  0.25023209  0.31569321  1
  O  O458  1  0.47766163  0.25235045  0.56680961  1
  O  O459  1  0.47854721  0.25033605  0.81864905  1
  O  O460  1  0.47804055  0.58478457  0.06771345  1
  O  O461  1  0.47772163  0.58102032  0.31768901  1
  O  O462  1  0.47819420  0.58431659  0.56692848  1
  O  O463  1  0.47831069  0.58328648  0.81855921  1
  O  O464  1  0.47858157  0.91627101  0.06911456  1
  O  O465  1  0.47886750  0.91623931  0.31891959  1
  O  O466  1  0.47827345  0.91503975  0.56667422  1
  O  O467  1  0.47835512  0.91628864  0.81855105  1
  O  O468  1  0.97837051  0.24970701  0.06821981  1
  O  O469  1  0.97829091  0.25022575  0.31863080  1
  O  O470  1  0.97658711  0.25138177  0.56594262  1
  O  O471  1  0.97788375  0.25148241  0.81658200  1
  O  O472  1  0.97799915  0.58547746  0.06640345  1
  O  O473  1  0.97808037  0.58409993  0.31909769  1
  O  O474  1  0.97711262  0.58329800  0.56617293  1
  O  O475  1  0.97718940  0.58337231  0.81484345  1
  O  O476  1  0.97783815  0.91797628  0.06660053  1
  O  O477  1  0.97830374  0.91898893  0.31726356  1
  O  O478  1  0.97850769  0.91466652  0.56715350  1
  O  O479  1  0.97813036  0.91428980  0.81644407  1
  O  O480  1  0.07346871  0.31369907  0.07523627  1
  O  O481  1  0.07336991  0.31417564  0.32605068  1
  O  O482  1  0.07248786  0.31376745  0.57359156  1
  O  O483  1  0.07328628  0.31415407  0.82340301  1
  O  O484  1  0.07329241  0.64839109  0.07312708  1
  O  O485  1  0.07360373  0.64718437  0.32599678  1
  O  O486  1  0.07199346  0.64671784  0.57313708  1
  O  O487  1  0.07246259  0.64672192  0.82203576  1
  O  O488  1  0.07288211  0.98142411  0.07325744  1
  O  O489  1  0.07372798  0.98146036  0.32440134  1
  O  O490  1  0.07369635  0.97837033  0.57542202  1
  O  O491  1  0.07338002  0.97834714  0.82387820  1
  O  O492  1  0.57369068  0.31389076  0.07632044  1
  O  O493  1  0.57253517  0.31365826  0.32311190  1
  O  O494  1  0.57291396  0.31536543  0.57331323  1
  O  O495  1  0.57398827  0.31391043  0.82487450  1
  O  O496  1  0.57319561  0.64746844  0.07505633  1
  O  O497  1  0.57293477  0.64523124  0.32496684  1
  O  O498  1  0.57342671  0.64759402  0.57353101  1
  O  O499  1  0.57391120  0.64670545  0.82502133  1
  O  O500  1  0.57373747  0.98027834  0.07549856  1
  O  O501  1  0.57451945  0.97905090  0.32652245  1
  O  O502  1  0.57340220  0.97928968  0.57438325  1
  O  O503  1  0.57365532  0.97989840  0.82483284  1
  O  O504  1  0.42699101  0.02069726  0.17609252  1
  O  O505  1  0.42569178  0.02042860  0.42398355  1
  O  O506  1  0.42565295  0.02016073  0.67416370  1
  O  O507  1  0.42546213  0.02009708  0.92554643  1
  O  O508  1  0.42795340  0.35333583  0.17707777  1
  O  O509  1  0.42689661  0.35155822  0.42502889  1
  O  O510  1  0.42574512  0.35376894  0.67455617  1
  O  O511  1  0.42590033  0.35344523  0.92554958  1
  O  O512  1  0.42521909  0.68620355  0.17560882  1
  O  O513  1  0.42783850  0.68530992  0.42655891  1
  O  O514  1  0.42635509  0.68638114  0.67415285  1
  O  O515  1  0.42660702  0.68473623  0.92644192  1
  O  O516  1  0.92726256  0.01864916  0.17651870  1
  O  O517  1  0.92630989  0.02105049  0.42585343  1
  O  O518  1  0.92599967  0.01977896  0.67379510  1
  O  O519  1  0.92710065  0.01797613  0.92570350  1
  O  O520  1  0.92624503  0.35397200  0.17543419  1
  O  O521  1  0.92696791  0.35382093  0.42720682  1
  O  O522  1  0.92787844  0.35333659  0.67596452  1
  O  O523  1  0.92649037  0.35373124  0.92386870  1
  O  O524  1  0.92633218  0.68696212  0.17537162  1
  O  O525  1  0.92854770  0.68697457  0.42751311  1
  O  O526  1  0.92796480  0.68581944  0.67595424  1
  O  O527  1  0.92747018  0.68479888  0.92498582  1
  O  O528  1  0.17835098  0.01970349  0.19818638  1
  O  O529  1  0.17567019  0.02083151  0.45071416  1
  O  O530  1  0.17646100  0.02141704  0.69946182  1
  O  O531  1  0.17640901  0.02001159  0.95078184  1
  O  O532  1  0.17712909  0.35386299  0.19905849  1
  O  O533  1  0.17734376  0.35376784  0.44854000  1
  O  O534  1  0.17728393  0.35402403  0.69693648  1
  O  O535  1  0.17674106  0.35174423  0.94866697  1
  O  O536  1  0.17644771  0.68728566  0.20037869  1
  O  O537  1  0.17835191  0.68594191  0.44748408  1
  O  O538  1  0.17671755  0.68497573  0.69780644  1
  O  O539  1  0.17713138  0.68453964  0.94920829  1
  O  O540  1  0.67737785  0.01806111  0.19997769  1
  O  O541  1  0.67720982  0.02097116  0.45074555  1
  O  O542  1  0.67630597  0.02186022  0.69944917  1
  O  O543  1  0.67739861  0.01888626  0.94900014  1
  O  O544  1  0.67796821  0.35135919  0.19961329  1
  O  O545  1  0.67719903  0.35415930  0.45036556  1
  O  O546  1  0.67826476  0.35405726  0.69820542  1
  O  O547  1  0.67741462  0.35333506  0.94854258  1
  O  O548  1  0.67738168  0.68373460  0.19949692  1
  O  O549  1  0.67797918  0.68443591  0.44988531  1
  O  O550  1  0.67704721  0.68800524  0.70035724  1
  O  O551  1  0.67721894  0.68532686  0.94915032  1
  O  O552  1  0.32264842  0.31402811  0.05214935  1
  O  O553  1  0.32267166  0.31521872  0.30044555  1
  O  O554  1  0.32104296  0.31470503  0.55152373  1
  O  O555  1  0.32198700  0.31550922  0.80033027  1
  O  O556  1  0.32287771  0.64483878  0.05089597  1
  O  O557  1  0.32223256  0.64651912  0.30117816  1
  O  O558  1  0.32219884  0.64669507  0.55039178  1
  O  O559  1  0.32244166  0.64760390  0.80046538  1
  O  O560  1  0.32152808  0.97962482  0.05210617  1
  O  O561  1  0.32267562  0.97927360  0.29943430  1
  O  O562  1  0.32366956  0.97989481  0.54854258  1
  O  O563  1  0.32330636  0.98028451  0.79974340  1
  O  O564  1  0.82322167  0.31516396  0.05092411  1
  O  O565  1  0.82400016  0.31151870  0.30098288  1
  O  O566  1  0.82118149  0.31429578  0.55190061  1
  O  O567  1  0.82290906  0.31565105  0.80002872  1
  O  O568  1  0.82294700  0.64756676  0.05073063  1
  O  O569  1  0.82321833  0.64566080  0.30242558  1
  O  O570  1  0.82369086  0.64523873  0.55072637  1
  O  O571  1  0.82225175  0.64724523  0.80093779  1
  O  O572  1  0.82321419  0.98102873  0.05119540  1
  O  O573  1  0.82444849  0.97927399  0.30030811  1
  O  O574  1  0.82367313  0.97902734  0.55016663  1
  O  O575  1  0.82282873  0.98228166  0.80020921  1
  O  O576  1  0.42660754  0.14804144  0.17650684  1
  O  O577  1  0.42531572  0.14733073  0.42444243  1
  O  O578  1  0.42584388  0.14733562  0.67458201  1
  O  O579  1  0.42551974  0.14710177  0.92535368  1
  O  O580  1  0.42772911  0.48080699  0.17734113  1
  O  O581  1  0.42629139  0.47844880  0.42455629  1
  O  O582  1  0.42622536  0.48065709  0.67374906  1
  O  O583  1  0.42545826  0.48032689  0.92538444  1
  O  O584  1  0.42624703  0.81302593  0.17498577  1
  O  O585  1  0.42817969  0.81295670  0.42679818  1
  O  O586  1  0.42618596  0.81303782  0.67428050  1
  O  O587  1  0.42644252  0.81202337  0.92612644  1
  O  O588  1  0.92717055  0.14568782  0.17498155  1
  O  O589  1  0.92756778  0.14812391  0.42638157  1
  O  O590  1  0.92593942  0.14674354  0.67498237  1
  O  O591  1  0.92665080  0.14531022  0.92515011  1
  O  O592  1  0.92603221  0.48100546  0.17533285  1
  O  O593  1  0.92857774  0.48116274  0.42818779  1
  O  O594  1  0.92891555  0.48052301  0.67631240  1
  O  O595  1  0.92650976  0.48042563  0.92325703  1
  O  O596  1  0.92599905  0.81377978  0.17434911  1
  O  O597  1  0.92809670  0.81439241  0.42727759  1
  O  O598  1  0.92814663  0.81295978  0.67653425  1
  O  O599  1  0.92663945  0.81172393  0.92458661  1
  O  O600  1  0.07390921  0.18661900  0.07508046  1
  O  O601  1  0.07406169  0.18742910  0.32602857  1
  O  O602  1  0.07058321  0.18638875  0.57353195  1
  O  O603  1  0.07286871  0.18692437  0.82415241  1
  O  O604  1  0.07305579  0.52120582  0.07357574  1
  O  O605  1  0.07332314  0.52041131  0.32595631  1
  O  O606  1  0.07205160  0.51949890  0.57333609  1
  O  O607  1  0.07191940  0.51953849  0.82230839  1
  O  O608  1  0.07313742  0.85441879  0.07494142  1
  O  O609  1  0.07323799  0.85433130  0.32397964  1
  O  O610  1  0.07377590  0.85127933  0.57366570  1
  O  O611  1  0.07327900  0.85117850  0.82431800  1
  O  O612  1  0.57385364  0.18712957  0.07607423  1
  O  O613  1  0.57208402  0.18629560  0.32374964  1
  O  O614  1  0.57295851  0.18819457  0.57380568  1
  O  O615  1  0.57406539  0.18691887  0.82482438  1
  O  O616  1  0.57333945  0.52035521  0.07480775  1
  O  O617  1  0.57301132  0.51820390  0.32511782  1
  O  O618  1  0.57357143  0.52045965  0.57411256  1
  O  O619  1  0.57363595  0.51989202  0.82526488  1
  O  O620  1  0.57432932  0.85319786  0.07572962  1
  O  O621  1  0.57417653  0.85207552  0.32553895  1
  O  O622  1  0.57354462  0.85197777  0.57379357  1
  O  O623  1  0.57397297  0.85287226  0.82528370  1
  O  O624  1  0.32170099  0.18676186  0.05206430  1
  O  O625  1  0.32208026  0.18825724  0.29986770  1
  O  O626  1  0.32182089  0.18737809  0.55100151  1
  O  O627  1  0.32244753  0.18857081  0.80036284  1
  O  O628  1  0.32261064  0.51787203  0.05090566  1
  O  O629  1  0.32189490  0.51930080  0.30209704  1
  O  O630  1  0.32120048  0.51950079  0.55077669  1
  O  O631  1  0.32269545  0.52074988  0.79914712  1
  O  O632  1  0.32228280  0.85208118  0.05116114  1
  O  O633  1  0.32326205  0.85225176  0.30057485  1
  O  O634  1  0.32371389  0.85294403  0.54918522  1
  O  O635  1  0.32386961  0.85319566  0.79971451  1
  O  O636  1  0.82382469  0.18799537  0.04924127  1
  O  O637  1  0.82306311  0.18448079  0.30125215  1
  O  O638  1  0.82216462  0.18693487  0.55236421  1
  O  O639  1  0.82337263  0.18871563  0.80004711  1
  O  O640  1  0.82357384  0.52067578  0.04945176  1
  O  O641  1  0.82273104  0.51831920  0.30179951  1
  O  O642  1  0.82334132  0.51847496  0.55166323  1
  O  O643  1  0.82160785  0.51978080  0.80203734  1
  O  O644  1  0.82341489  0.85382327  0.04930934  1
  O  O645  1  0.82467795  0.85244202  0.29931040  1
  O  O646  1  0.82304373  0.85171278  0.55173634  1
  O  O647  1  0.82359722  0.85509960  0.80074094  1
  O  O648  1  0.17799179  0.14737428  0.19867151  1
  O  O649  1  0.17569958  0.14768388  0.44972431  1
  O  O650  1  0.17597708  0.14871682  0.69888960  1
  O  O651  1  0.17585739  0.14675447  0.95127992  1
  O  O652  1  0.17768922  0.48099708  0.19905241  1
  O  O653  1  0.17829930  0.48089831  0.44805025  1
  O  O654  1  0.17787410  0.48125840  0.69724066  1
  O  O655  1  0.17588561  0.47861200  0.94907032  1
  O  O656  1  0.17675114  0.81417803  0.19911068  1
  O  O657  1  0.17819669  0.81327791  0.44846365  1
  O  O658  1  0.17715536  0.81195126  0.69943819  1
  O  O659  1  0.17664260  0.81168733  0.94913098  1
  O  O660  1  0.67710308  0.14518853  0.19933196  1
  O  O661  1  0.67695745  0.14817889  0.44873680  1
  O  O662  1  0.67675096  0.14888752  0.69947946  1
  O  O663  1  0.67694386  0.14605452  0.95086557  1
  O  O664  1  0.67730021  0.47851022  0.19984176  1
  O  O665  1  0.67728196  0.48097463  0.44909860  1
  O  O666  1  0.67760622  0.48121984  0.69932258  1
  O  O667  1  0.67854895  0.48065859  0.94886803  1
  O  O668  1  0.67718143  0.81084586  0.20057485  1
  O  O669  1  0.67760699  0.81147446  0.44953914  1
  O  O670  1  0.67780139  0.81514681  0.69988327  1
  O  O671  1  0.67690909  0.81237424  0.95105811  1
