# generated using pymatgen
data_Na2MnFe(PO4)2
_symmetry_space_group_name_H-M   'P 1'
_cell_length_a   22.34435541
_cell_length_b   20.09986192
_cell_length_c   19.44947411
_cell_angle_alpha   90.02317020
_cell_angle_beta   89.90860146
_cell_angle_gamma   89.97424999
_symmetry_Int_Tables_number   1
_chemical_formula_structural   Na2MnFe(PO4)2
_chemical_formula_sum   'Na96 Mn48 Fe48 P96 O384'
_cell_volume   8735.10511797
_cell_formula_units_Z   48
loop_
 _symmetry_equiv_pos_site_id
 _symmetry_equiv_pos_as_xyz
  1  'x, y, z'
loop_
 _atom_site_type_symbol
 _atom_site_label
 _atom_site_symmetry_multiplicity
 _atom_site_fract_x
 _atom_site_fract_y
 _atom_site_fract_z
 _atom_site_occupancy
  Na  Na0  1  0.14092299  0.25064669  0.24358054  1
  Na  Na1  1  0.14089341  0.25137956  0.49384739  1
  Na  Na2  1  0.14089303  0.25033870  0.74247290  1
  Na  Na3  1  0.14071947  0.25048117  0.99398043  1
  Na  Na4  1  0.14111382  0.58278984  0.24271120  1
  Na  Na5  1  0.14170036  0.58342302  0.49298341  1
  Na  Na6  1  0.14111429  0.58354862  0.74391951  1
  Na  Na7  1  0.14069595  0.58426275  0.99404296  1
  Na  Na8  1  0.14108313  0.91520588  0.24428211  1
  Na  Na9  1  0.14061874  0.91632132  0.49352429  1
  Na  Na10  1  0.14089353  0.91647684  0.74363955  1
  Na  Na11  1  0.14154266  0.91574802  0.99406670  1
  Na  Na12  1  0.63996038  0.24942923  0.24257058  1
  Na  Na13  1  0.64004198  0.24932715  0.49446949  1
  Na  Na14  1  0.63990606  0.24946012  0.74386830  1
  Na  Na15  1  0.63993830  0.24950396  0.99187251  1
  Na  Na16  1  0.64050330  0.58378755  0.24327127  1
  Na  Na17  1  0.64004159  0.58383337  0.49470079  1
  Na  Na18  1  0.64013362  0.58315196  0.74265788  1
  Na  Na19  1  0.64044558  0.58372073  0.99336702  1
  Na  Na20  1  0.64074469  0.91574796  0.24341141  1
  Na  Na21  1  0.64033520  0.91699499  0.49516468  1
  Na  Na22  1  0.64050831  0.91648152  0.74444630  1
  Na  Na23  1  0.64054751  0.91739069  0.99372234  1
  Na  Na24  1  0.35915549  0.08308316  0.00648465  1
  Na  Na25  1  0.35912220  0.08318669  0.25645831  1
  Na  Na26  1  0.35921727  0.08485784  0.50770704  1
  Na  Na27  1  0.35915663  0.08373882  0.75603824  1
  Na  Na28  1  0.35982401  0.41727860  0.00718716  1
  Na  Na29  1  0.35953140  0.41738184  0.25675007  1
  Na  Na30  1  0.35947905  0.41778677  0.50736601  1
  Na  Na31  1  0.35987077  0.41765523  0.75637183  1
  Na  Na32  1  0.35917900  0.74991877  0.00630596  1
  Na  Na33  1  0.35909883  0.74862517  0.25647919  1
  Na  Na34  1  0.35949595  0.74984999  0.50673409  1
  Na  Na35  1  0.35941076  0.75035241  0.75771019  1
  Na  Na36  1  0.85885804  0.08339084  0.00563247  1
  Na  Na37  1  0.85905000  0.08161491  0.25539346  1
  Na  Na38  1  0.85919072  0.08264200  0.50690037  1
  Na  Na39  1  0.85896738  0.08297394  0.75594209  1
  Na  Na40  1  0.85953566  0.41674944  0.00657854  1
  Na  Na41  1  0.85991349  0.41632572  0.25507098  1
  Na  Na42  1  0.85951486  0.41622557  0.50656610  1
  Na  Na43  1  0.85933572  0.41633209  0.75615071  1
  Na  Na44  1  0.85896513  0.75090117  0.00614206  1
  Na  Na45  1  0.85958948  0.74976383  0.25512391  1
  Na  Na46  1  0.85948218  0.75060288  0.50639004  1
  Na  Na47  1  0.85934393  0.75020656  0.75566193  1
  Na  Na48  1  0.10989315  0.08355133  0.11871609  1
  Na  Na49  1  0.10964760  0.08278590  0.36997540  1
  Na  Na50  1  0.11013304  0.08302922  0.61771515  1
  Na  Na51  1  0.11012868  0.08295806  0.86865729  1
  Na  Na52  1  0.11048165  0.41798595  0.11816140  1
  Na  Na53  1  0.11086731  0.41616475  0.36880397  1
  Na  Na54  1  0.11072950  0.41666851  0.61752127  1
  Na  Na55  1  0.11012859  0.41679047  0.87024478  1
  Na  Na56  1  0.11081472  0.74903349  0.11786301  1
  Na  Na57  1  0.11067559  0.74973719  0.36835598  1
  Na  Na58  1  0.11030202  0.75031518  0.61805124  1
  Na  Na59  1  0.11059443  0.74899848  0.86895301  1
  Na  Na60  1  0.60939342  0.08356133  0.11718762  1
  Na  Na61  1  0.60913334  0.08488309  0.36962438  1
  Na  Na62  1  0.61011586  0.08393157  0.61944011  1
  Na  Na63  1  0.60971575  0.08380882  0.86764033  1
  Na  Na64  1  0.60971188  0.41497207  0.11808719  1
  Na  Na65  1  0.60953548  0.41789036  0.36913315  1
  Na  Na66  1  0.60956543  0.41613542  0.61932815  1
  Na  Na67  1  0.60924958  0.41544115  0.86771377  1
  Na  Na68  1  0.61016840  0.74945715  0.11877278  1
  Na  Na69  1  0.61001367  0.75068856  0.36876811  1
  Na  Na70  1  0.60928837  0.74898396  0.61945682  1
  Na  Na71  1  0.60939636  0.74943413  0.86805163  1
  Na  Na72  1  0.39028612  0.25044385  0.13078331  1
  Na  Na73  1  0.39003398  0.25248171  0.38183740  1
  Na  Na74  1  0.38989095  0.25086807  0.63204431  1
  Na  Na75  1  0.39001755  0.25011777  0.88029209  1
  Na  Na76  1  0.38998295  0.58250010  0.13265328  1
  Na  Na77  1  0.38965205  0.58401520  0.38190726  1
  Na  Na78  1  0.38987129  0.58299134  0.63315917  1
  Na  Na79  1  0.39007488  0.58279025  0.88108630  1
  Na  Na80  1  0.38956073  0.91601541  0.13214552  1
  Na  Na81  1  0.39001604  0.91722553  0.38166927  1
  Na  Na82  1  0.39031068  0.91720229  0.63303747  1
  Na  Na83  1  0.38943910  0.91675984  0.88205205  1
  Na  Na84  1  0.89006785  0.25191791  0.13005618  1
  Na  Na85  1  0.89032136  0.24913251  0.38062522  1
  Na  Na86  1  0.89034375  0.24966449  0.63102093  1
  Na  Na87  1  0.88980954  0.25074423  0.88191684  1
  Na  Na88  1  0.89046360  0.58369452  0.13001964  1
  Na  Na89  1  0.89064790  0.58249506  0.38082195  1
  Na  Na90  1  0.89004735  0.58322796  0.63055328  1
  Na  Na91  1  0.89054264  0.58260858  0.88100358  1
  Na  Na92  1  0.88964305  0.91619543  0.13089384  1
  Na  Na93  1  0.88991425  0.91607993  0.38138883  1
  Na  Na94  1  0.89014901  0.91691263  0.63062189  1
  Na  Na95  1  0.88956032  0.91584213  0.88198703  1
  Mn  Mn96  1  -0.00009388  0.83295234  0.74982466  1
  Mn  Mn97  1  0.24960205  0.50128021  0.87553222  1
  Mn  Mn98  1  -0.00024744  0.16681674  0.25017371  1
  Mn  Mn99  1  0.24985621  0.16661898  0.12521659  1
  Mn  Mn100  1  0.50012714  0.00157337  0.50134139  1
  Mn  Mn101  1  0.00061451  0.49893237  0.50001772  1
  Mn  Mn102  1  0.24983497  -0.00086386  0.37556338  1
  Mn  Mn103  1  0.74987578  0.33249540  0.37564742  1
  Mn  Mn104  1  0.50001413  0.33419272  0.50077216  1
  Mn  Mn105  1  0.74892883  -0.00120025  0.37520868  1
  Mn  Mn106  1  0.00067448  0.66661890  0.49970598  1
  Mn  Mn107  1  0.00007389  0.16648416  0.49971959  1
  Mn  Mn108  1  0.75029111  0.49992702  0.87479256  1
  Mn  Mn109  1  0.00082875  0.83224181  0.00023439  1
  Mn  Mn110  1  0.25008923  0.33412970  0.87468495  1
  Mn  Mn111  1  0.75034195  0.66751140  0.87450265  1
  Mn  Mn112  1  0.00042163  0.49946364  0.75015983  1
  Mn  Mn113  1  0.00020398  -0.00042675  0.74953385  1
  Mn  Mn114  1  0.49917423  0.66608985  0.50102501  1
  Mn  Mn115  1  0.74973314  0.16624905  0.12406351  1
  Mn  Mn116  1  0.49982995  0.83344075  0.50074798  1
  Mn  Mn117  1  0.75039646  0.66729529  0.37440868  1
  Mn  Mn118  1  0.74984569  0.16556318  0.37416649  1
  Mn  Mn119  1  0.49969602  0.66576047  -0.00043439  1
  Mn  Mn120  1  0.00009237  0.66563386  0.24954105  1
  Mn  Mn121  1  0.50034764  0.83297369  0.25097238  1
  Mn  Mn122  1  0.74999237  0.49986206  0.37448215  1
  Mn  Mn123  1  0.50011823  0.50007295  0.25011995  1
  Mn  Mn124  1  0.49936094  0.83275118  0.00056554  1
  Mn  Mn125  1  0.49931479  0.16843936  0.24936380  1
  Mn  Mn126  1  0.00027922  -0.00026682  0.25006004  1
  Mn  Mn127  1  0.74971476  0.83363361  0.62548563  1
  Mn  Mn128  1  0.00007947  -0.00006127  -0.00008857  1
  Mn  Mn129  1  0.24982380  0.16729366  0.37549787  1
  Mn  Mn130  1  0.25044357  0.83316959  0.62525299  1
  Mn  Mn131  1  0.74994860  0.33271704  0.62529518  1
  Mn  Mn132  1  -0.00022119  0.16761649  -0.00043853  1
  Mn  Mn133  1  0.49990500  0.00052798  -0.00013943  1
  Mn  Mn134  1  0.49962739  0.00112757  0.25045053  1
  Mn  Mn135  1  0.00041526  0.16704712  0.74945935  1
  Mn  Mn136  1  0.00083122  0.33444106  0.24996111  1
  Mn  Mn137  1  0.50042664  0.49871269  0.00033034  1
  Mn  Mn138  1  0.25018411  0.16605650  0.87447996  1
  Mn  Mn139  1  0.00032678  0.66631533  0.74966235  1
  Mn  Mn140  1  0.49949945  0.00067185  0.75044319  1
  Mn  Mn141  1  0.00043699  0.83286506  0.24980449  1
  Mn  Mn142  1  0.00020564  0.33372955  0.75049347  1
  Mn  Mn143  1  0.74973455  0.49965698  0.12427374  1
  Fe  Fe144  1  0.74906734  0.83386693  0.87522876  1
  Fe  Fe145  1  0.24966292  -0.00014172  0.87538206  1
  Fe  Fe146  1  0.75005044  0.83374611  0.12467819  1
  Fe  Fe147  1  0.25029078  0.66676794  0.12539690  1
  Fe  Fe148  1  0.49937293  0.16731078  -0.00081307  1
  Fe  Fe149  1  0.75001410  0.83289226  0.37492466  1
  Fe  Fe150  1  0.25046040  0.33405754  0.37498616  1
  Fe  Fe151  1  0.49959338  0.16797105  0.50025088  1
  Fe  Fe152  1  0.49983565  0.66590266  0.75008607  1
  Fe  Fe153  1  0.25008925  0.66704850  0.62497685  1
  Fe  Fe154  1  0.50032116  0.66643989  0.25052886  1
  Fe  Fe155  1  0.25029847  0.50076567  0.62485479  1
  Fe  Fe156  1  0.74959510  0.33321986  0.87425163  1
  Fe  Fe157  1  0.74991582  -0.00021819  0.62552457  1
  Fe  Fe158  1  0.49981690  0.33299046  0.74976298  1
  Fe  Fe159  1  0.25024854  0.83272865  0.12483619  1
  Fe  Fe160  1  0.24996736  0.66641290  0.37471862  1
  Fe  Fe161  1  0.25071558  0.66705764  0.87540795  1
  Fe  Fe162  1  0.25015905  0.50075095  0.12570069  1
  Fe  Fe163  1  0.74952641  -0.00043620  0.12445193  1
  Fe  Fe164  1  0.00023439  0.50009999  0.24923136  1
  Fe  Fe165  1  0.74999937  0.16615752  0.62564696  1
  Fe  Fe166  1  0.49982398  0.83317858  0.75060117  1
  Fe  Fe167  1  0.49944223  0.16710691  0.75002973  1
  Fe  Fe168  1  0.00031288  0.50023518  -0.00011692  1
  Fe  Fe169  1  -0.00002923  0.66613120  -0.00027945  1
  Fe  Fe170  1  -0.00027202  0.83313395  0.49922509  1
  Fe  Fe171  1  0.25038820  -0.00029381  0.62516420  1
  Fe  Fe172  1  0.24993595  -0.00085198  0.12533614  1
  Fe  Fe173  1  0.49920101  0.33265753  -0.00117368  1
  Fe  Fe174  1  0.25038347  0.50023515  0.37516840  1
  Fe  Fe175  1  0.24977891  0.16692807  0.62497545  1
  Fe  Fe176  1  -0.00063557  -0.00057668  0.49950998  1
  Fe  Fe177  1  0.74965120  0.66704184  0.62502308  1
  Fe  Fe178  1  0.25043200  0.33402397  0.12529736  1
  Fe  Fe179  1  0.50035923  0.33371107  0.24993687  1
  Fe  Fe180  1  0.25014637  0.33438319  0.62454141  1
  Fe  Fe181  1  0.74992492  0.16642190  0.87475418  1
  Fe  Fe182  1  0.74961270  0.33276205  0.12433285  1
  Fe  Fe183  1  0.00087635  0.33415255  0.00059163  1
  Fe  Fe184  1  0.74997070  0.66725787  0.12442854  1
  Fe  Fe185  1  -0.00022024  0.33301588  0.49930003  1
  Fe  Fe186  1  0.74957155  0.50008386  0.62519844  1
  Fe  Fe187  1  0.25084343  0.83256988  0.37468476  1
  Fe  Fe188  1  0.74982445  -0.00002157  0.87506469  1
  Fe  Fe189  1  0.49989235  0.49918078  0.75045486  1
  Fe  Fe190  1  0.50006631  0.50037137  0.50061319  1
  Fe  Fe191  1  0.25006588  0.83364700  0.87532267  1
  P  P192  1  0.04284404  0.25176773  0.10253115  1
  P  P193  1  0.04318012  0.25022608  0.35344295  1
  P  P194  1  0.04252639  0.25130781  0.60196564  1
  P  P195  1  0.04329581  0.25046727  0.85359420  1
  P  P196  1  0.04185341  0.58311401  0.10145571  1
  P  P197  1  0.04286919  0.58141418  0.35199338  1
  P  P198  1  0.04361457  0.58303802  0.60274734  1
  P  P199  1  0.04305541  0.58291158  0.85396122  1
  P  P200  1  0.04337856  0.91636841  0.10308358  1
  P  P201  1  0.04260517  0.91626374  0.35410624  1
  P  P202  1  0.04150763  0.91627299  0.60085963  1
  P  P203  1  0.04305860  0.91610527  0.85300400  1
  P  P204  1  0.54144618  0.25048712  0.10084516  1
  P  P205  1  0.54226933  0.25209832  0.35259540  1
  P  P206  1  0.54180181  0.24909636  0.60340826  1
  P  P207  1  0.54068956  0.24978009  0.85186754  1
  P  P208  1  0.54278713  0.58292718  0.10343474  1
  P  P209  1  0.54252889  0.58455975  0.35299866  1
  P  P210  1  0.54145690  0.58162833  0.60404037  1
  P  P211  1  0.54153764  0.58236209  0.85141747  1
  P  P212  1  0.54238893  0.91661124  0.10331193  1
  P  P213  1  0.54290967  0.91772150  0.35375348  1
  P  P214  1  0.54227407  0.91661928  0.60455815  1
  P  P215  1  0.54168598  0.91587299  0.85258193  1
  P  P216  1  0.45691738  0.08439463  0.14629032  1
  P  P217  1  0.45712709  0.08582092  0.39820238  1
  P  P218  1  0.45754895  0.08548116  0.64758574  1
  P  P219  1  0.45743139  0.08509784  0.89710378  1
  P  P220  1  0.45792505  0.41489786  0.14739644  1
  P  P221  1  0.45780371  0.41869301  0.39801565  1
  P  P222  1  0.45853238  0.41682639  0.64849723  1
  P  P223  1  0.45768898  0.41533035  0.89667625  1
  P  P224  1  0.45767527  0.74835724  0.14826149  1
  P  P225  1  0.45744012  0.74966042  0.39721798  1
  P  P226  1  0.45822810  0.74970460  0.64932415  1
  P  P227  1  0.45733227  0.74957897  0.89604690  1
  P  P228  1  0.95709013  0.08363340  0.14668121  1
  P  P229  1  0.95715446  0.08194050  0.39757690  1
  P  P230  1  0.95749965  0.08291731  0.64607440  1
  P  P231  1  0.95696940  0.08341912  0.89657810  1
  P  P232  1  0.95844321  0.41852405  0.14634344  1
  P  P233  1  0.95763096  0.41540102  0.39699545  1
  P  P234  1  0.95725172  0.41612822  0.64642479  1
  P  P235  1  0.95843378  0.41665306  0.89896209  1
  P  P236  1  0.95780079  0.74904819  0.14610212  1
  P  P237  1  0.95787798  0.75031064  0.39715343  1
  P  P238  1  0.95731763  0.75013793  0.64592527  1
  P  P239  1  0.95766203  0.74829313  0.89754878  1
  P  P240  1  0.20779543  0.08173886  0.22755713  1
  P  P241  1  0.20769060  0.08347752  0.47922254  1
  P  P242  1  0.20864662  0.08275301  0.72663011  1
  P  P243  1  0.20789424  0.08172985  0.97804377  1
  P  P244  1  0.20916960  0.41710555  0.22736833  1
  P  P245  1  0.20945307  0.41739169  0.47715923  1
  P  P246  1  0.20882408  0.41740159  0.72620785  1
  P  P247  1  0.20819157  0.41748449  0.97932668  1
  P  P248  1  0.20876447  0.74965731  0.22702207  1
  P  P249  1  0.20930526  0.74983269  0.47660658  1
  P  P250  1  0.20817484  0.74889034  0.72809532  1
  P  P251  1  0.20932901  0.75007535  0.97730744  1
  P  P252  1  0.70710838  0.08153111  0.22658103  1
  P  P253  1  0.70713478  0.08316040  0.47905687  1
  P  P254  1  0.70860536  0.08281051  0.72768482  1
  P  P255  1  0.70807056  0.08309896  0.97634337  1
  P  P256  1  0.70763705  0.41515975  0.22691354  1
  P  P257  1  0.70726531  0.41705050  0.47888391  1
  P  P258  1  0.70801581  0.41717017  0.72771926  1
  P  P259  1  0.70770793  0.41511351  0.97713909  1
  P  P260  1  0.70869535  0.75054519  0.22642954  1
  P  P261  1  0.70770805  0.75100827  0.47776594  1
  P  P262  1  0.70740225  0.74941924  0.72784013  1
  P  P263  1  0.70763329  0.75169483  0.97799121  1
  P  P264  1  0.29199632  0.25120107  0.02275303  1
  P  P265  1  0.29192937  0.25178676  0.27243152  1
  P  P266  1  0.29132805  0.25105039  0.52346741  1
  P  P267  1  0.29209252  0.25038799  0.77066012  1
  P  P268  1  0.29182279  0.58403192  0.02390957  1
  P  P269  1  0.29128821  0.58299209  0.27306904  1
  P  P270  1  0.29147398  0.58392248  0.52300577  1
  P  P271  1  0.29208026  0.58497969  0.77223159  1
  P  P272  1  0.29155736  0.91636168  0.02306144  1
  P  P273  1  0.29230802  0.91477578  0.27204418  1
  P  P274  1  0.29283048  0.91741202  0.52286078  1
  P  P275  1  0.29121596  0.91716919  0.77354497  1
  P  P276  1  0.79147197  0.25095869  0.02113235  1
  P  P277  1  0.79241541  0.24970059  0.27093676  1
  P  P278  1  0.79220765  0.24820626  0.52296837  1
  P  P279  1  0.79107134  0.24938148  0.77302649  1
  P  P280  1  0.79187189  0.58473760  0.02220493  1
  P  P281  1  0.79274885  0.58357631  0.27085164  1
  P  P282  1  0.79110450  0.58365488  0.52340300  1
  P  P283  1  0.79251285  0.58344760  0.77071804  1
  P  P284  1  0.79106080  0.91694301  0.02238684  1
  P  P285  1  0.79195215  0.91453505  0.27192177  1
  P  P286  1  0.79198455  0.91747666  0.52272321  1
  P  P287  1  0.79125984  0.91684958  0.77347155  1
  O  O288  1  0.03776873  0.25153827  0.18251189  1
  O  O289  1  0.03784252  0.25042574  0.43339999  1
  O  O290  1  0.03751142  0.25109239  0.68199223  1
  O  O291  1  0.03828731  0.25110916  0.93360124  1
  O  O292  1  0.03686532  0.58256029  0.18144332  1
  O  O293  1  0.03802826  0.58180520  0.43195717  1
  O  O294  1  0.03871742  0.58318947  0.68273993  1
  O  O295  1  0.03748558  0.58300487  0.93388630  1
  O  O296  1  0.03837187  0.91626105  0.18308256  1
  O  O297  1  0.03691227  0.91623276  0.43404659  1
  O  O298  1  0.03689217  0.91619461  0.68092485  1
  O  O299  1  0.03830464  0.91603275  0.93296417  1
  O  O300  1  0.53673643  0.25106024  0.18087255  1
  O  O301  1  0.53719598  0.25158614  0.43253234  1
  O  O302  1  0.53653294  0.24900105  0.68327071  1
  O  O303  1  0.53547311  0.25003112  0.93174373  1
  O  O304  1  0.53773492  0.58361734  0.18340970  1
  O  O305  1  0.53720715  0.58392941  0.43296186  1
  O  O306  1  0.53607371  0.58168606  0.68392593  1
  O  O307  1  0.53701277  0.58243725  0.93145993  1
  O  O308  1  0.53751351  0.91686329  0.18330463  1
  O  O309  1  0.53773906  0.91776988  0.43376733  1
  O  O310  1  0.53665527  0.91599214  0.68449953  1
  O  O311  1  0.53668439  0.91610862  0.93256100  1
  O  O312  1  0.46216787  0.08460777  0.06631369  1
  O  O313  1  0.46223345  0.08551809  0.31816968  1
  O  O314  1  0.46295311  0.08562104  0.56768754  1
  O  O315  1  0.46258058  0.08502713  0.81712774  1
  O  O316  1  0.46299971  0.41463034  0.06742413  1
  O  O317  1  0.46287087  0.41815969  0.31812559  1
  O  O318  1  0.46341005  0.41720314  0.56854692  1
  O  O319  1  0.46307525  0.41593037  0.81679777  1
  O  O320  1  0.46244149  0.74846140  0.06823167  1
  O  O321  1  0.46288282  0.74906431  0.31731624  1
  O  O322  1  0.46277136  0.74960580  0.56928352  1
  O  O323  1  0.46287973  0.74987779  0.81615882  1
  O  O324  1  0.96221952  0.08379637  0.06669131  1
  O  O325  1  0.96204466  0.08228613  0.31756539  1
  O  O326  1  0.96264559  0.08232914  0.56609770  1
  O  O327  1  0.96213103  0.08346226  0.81657911  1
  O  O328  1  0.96400261  0.41822922  0.06646416  1
  O  O329  1  0.96279300  0.41645314  0.31704496  1
  O  O330  1  0.96198397  0.41542292  0.56642370  1
  O  O331  1  0.96314273  0.41657838  0.81892195  1
  O  O332  1  0.96300012  0.74850367  0.06615834  1
  O  O333  1  0.96286382  0.74989746  0.31714774  1
  O  O334  1  0.96252710  0.75081898  0.56594297  1
  O  O335  1  0.96259464  0.74869147  0.81751294  1
  O  O336  1  0.21319101  0.08171242  0.05796161  1
  O  O337  1  0.21299587  0.08220131  0.30749936  1
  O  O338  1  0.21316387  0.08343766  0.55908352  1
  O  O339  1  0.21369601  0.08252082  0.80663838  1
  O  O340  1  0.21369452  0.41743693  0.05917199  1
  O  O341  1  0.21434135  0.41746253  0.30725380  1
  O  O342  1  0.21441497  0.41714430  0.55702000  1
  O  O343  1  0.21333666  0.41766458  0.80619724  1
  O  O344  1  0.21442481  0.75066597  0.05714648  1
  O  O345  1  0.21357262  0.74948245  0.30688395  1
  O  O346  1  0.21406669  0.74938043  0.55654014  1
  O  O347  1  0.21343271  0.74905462  0.80791596  1
  O  O348  1  0.71263120  0.08315045  0.05627523  1
  O  O349  1  0.71198343  0.08175768  0.30654277  1
  O  O350  1  0.71262359  0.08358942  0.55895795  1
  O  O351  1  0.71396622  0.08283546  0.80756196  1
  O  O352  1  0.71286763  0.41479018  0.05709985  1
  O  O353  1  0.71273568  0.41543745  0.30689635  1
  O  O354  1  0.71251422  0.41761735  0.55884970  1
  O  O355  1  0.71329483  0.41657251  0.80764539  1
  O  O356  1  0.71333714  0.75123846  0.05784508  1
  O  O357  1  0.71357691  0.75054572  0.30641332  1
  O  O358  1  0.71282439  0.75024541  0.55771888  1
  O  O359  1  0.71256712  0.75009928  0.80772463  1
  O  O360  1  0.28662633  0.25176977  0.19251597  1
  O  O361  1  0.28665708  0.25103892  0.44347484  1
  O  O362  1  0.28658150  0.25044315  0.69081166  1
  O  O363  1  0.28683283  0.25079117  0.94279332  1
  O  O364  1  0.28640365  0.58319513  0.19322083  1
  O  O365  1  0.28638407  0.58327183  0.44314801  1
  O  O366  1  0.28686393  0.58479657  0.69241236  1
  O  O367  1  0.28703136  0.58451264  0.94396123  1
  O  O368  1  0.28681154  0.91492432  0.19219193  1
  O  O369  1  0.28796197  0.91666124  0.44298187  1
  O  O370  1  0.28640893  0.91712401  0.69359336  1
  O  O371  1  0.28622936  0.91667152  0.94315919  1
  O  O372  1  0.78704300  0.25027749  0.19096606  1
  O  O373  1  0.78733070  0.24847507  0.44299123  1
  O  O374  1  0.78617371  0.24865925  0.69307058  1
  O  O375  1  0.78627157  0.25100450  0.94124501  1
  O  O376  1  0.78738013  0.58392222  0.19093600  1
  O  O377  1  0.78621467  0.58354214  0.44336694  1
  O  O378  1  0.78695182  0.58331541  0.69083384  1
  O  O379  1  0.78705146  0.58456084  0.94223936  1
  O  O380  1  0.78686130  0.91461701  0.19205499  1
  O  O381  1  0.78673296  0.91659397  0.44287492  1
  O  O382  1  0.78604037  0.91733267  0.69355509  1
  O  O383  1  0.78553388  0.91711800  0.94253061  1
  O  O384  1  0.22780992  0.25144039  0.05861452  1
  O  O385  1  0.22777839  0.25180238  0.30849870  1
  O  O386  1  0.22719168  0.25158752  0.55949191  1
  O  O387  1  0.22802804  0.25013916  0.80686999  1
  O  O388  1  0.22760976  0.58362196  0.05983702  1
  O  O389  1  0.22727578  0.58215185  0.30950277  1
  O  O390  1  0.22743966  0.58453018  0.55943313  1
  O  O391  1  0.22795733  0.58578364  0.80854086  1
  O  O392  1  0.22759843  0.91615458  0.05978605  1
  O  O393  1  0.22823423  0.91430429  0.30851038  1
  O  O394  1  0.22841481  0.91781974  0.55841094  1
  O  O395  1  0.22710840  0.91763861  0.80966757  1
  O  O396  1  0.72730551  0.25073477  0.05729848  1
  O  O397  1  0.72807652  0.24959045  0.30645823  1
  O  O398  1  0.72784808  0.24825995  0.55844639  1
  O  O399  1  0.72688619  0.25011564  0.80895310  1
  O  O400  1  0.72758979  0.58445480  0.05773605  1
  O  O401  1  0.72843820  0.58364168  0.30638875  1
  O  O402  1  0.72696724  0.58388385  0.55951635  1
  O  O403  1  0.72832354  0.58355271  0.80663943  1
  O  O404  1  0.72713491  0.91668463  0.05921006  1
  O  O405  1  0.72769094  0.91417102  0.30801910  1
  O  O406  1  0.72779054  0.91821950  0.55878797  1
  O  O407  1  0.72710140  0.91663563  0.80973946  1
  O  O408  1  0.27203765  0.08178114  0.19177150  1
  O  O409  1  0.27181641  0.08338608  0.44315941  1
  O  O410  1  0.27274592  0.08244892  0.69045428  1
  O  O411  1  0.27208994  0.08152990  0.94193310  1
  O  O412  1  0.27318416  0.41710492  0.19084328  1
  O  O413  1  0.27344742  0.41812335  0.44061492  1
  O  O414  1  0.27310060  0.41672210  0.69054697  1
  O  O415  1  0.27224978  0.41766612  0.94311178  1
  O  O416  1  0.27287846  0.75007420  0.19076420  1
  O  O417  1  0.27338804  0.75006262  0.44046627  1
  O  O418  1  0.27238631  0.74848604  0.69192218  1
  O  O419  1  0.27323221  0.74976472  0.94055850  1
  O  O420  1  0.77151156  0.08155283  0.19114173  1
  O  O421  1  0.77129869  0.08249251  0.44301288  1
  O  O422  1  0.77250252  0.08256648  0.69078673  1
  O  O423  1  0.77231711  0.08285185  0.94061020  1
  O  O424  1  0.77192921  0.41526587  0.19124291  1
  O  O425  1  0.77161202  0.41655525  0.44341632  1
  O  O426  1  0.77214543  0.41730416  0.69174731  1
  O  O427  1  0.77203240  0.41500589  0.94144304  1
  O  O428  1  0.77278842  0.75084155  0.19024526  1
  O  O429  1  0.77203869  0.75150871  0.44198060  1
  O  O430  1  0.77161574  0.74885857  0.69188951  1
  O  O431  1  0.77172425  0.75241886  0.94155477  1
  O  O432  1  0.02156094  0.08362113  0.18156888  1
  O  O433  1  0.02156127  0.08186739  0.43264185  1
  O  O434  1  0.02191062  0.08312620  0.68116456  1
  O  O435  1  0.02144356  0.08358008  0.93141302  1
  O  O436  1  0.02259165  0.41879660  0.18242469  1
  O  O437  1  0.02201987  0.41455194  0.43245784  1
  O  O438  1  0.02183663  0.41634276  0.68104493  1
  O  O439  1  0.02276204  0.41679553  0.93433077  1
  O  O440  1  0.02214149  0.74911168  0.18129043  1
  O  O441  1  0.02231655  0.75071429  0.43219820  1
  O  O442  1  0.02173623  0.74994759  0.68098278  1
  O  O443  1  0.02212967  0.74768333  0.93260861  1
  O  O444  1  0.52125409  0.08446006  0.18152411  1
  O  O445  1  0.52150798  0.08618398  0.43354129  1
  O  O446  1  0.52173683  0.08515331  0.68337218  1
  O  O447  1  0.52172491  0.08530527  0.93262740  1
  O  O448  1  0.52220240  0.41538231  0.18299511  1
  O  O449  1  0.52206964  0.41870762  0.43368141  1
  O  O450  1  0.52264070  0.41704217  0.68438332  1
  O  O451  1  0.52186393  0.41465180  0.93261372  1
  O  O452  1  0.52210468  0.74791321  0.18341390  1
  O  O453  1  0.52164229  0.74954218  0.43274271  1
  O  O454  1  0.52247941  0.75019200  0.68467651  1
  O  O455  1  0.52151648  0.74963646  0.93174732  1
  O  O456  1  0.47713716  0.25015067  0.06517776  1
  O  O457  1  0.47786872  0.25258032  0.31717614  1
  O  O458  1  0.47767510  0.24937697  0.56731269  1
  O  O459  1  0.47674229  0.24961059  0.81552694  1
  O  O460  1  0.47836479  0.58234773  0.06841886  1
  O  O461  1  0.47824989  0.58489232  0.31728505  1
  O  O462  1  0.47731434  0.58134338  0.56799837  1
  O  O463  1  0.47723893  0.58195862  0.81613300  1
  O  O464  1  0.47790531  0.91696863  0.06853443  1
  O  O465  1  0.47847268  0.91721537  0.31881176  1
  O  O466  1  0.47806161  0.91715610  0.56906311  1
  O  O467  1  0.47735123  0.91601986  0.81735441  1
  O  O468  1  0.97847980  0.25219693  0.06721723  1
  O  O469  1  0.97883537  0.25056723  0.31820189  1
  O  O470  1  0.97816980  0.25144509  0.56668400  1
  O  O471  1  0.97878547  0.25016627  0.81878137  1
  O  O472  1  0.97771908  0.58348447  0.06550472  1
  O  O473  1  0.97840285  0.58131492  0.31690899  1
  O  O474  1  0.97911004  0.58301174  0.56806538  1
  O  O475  1  0.97881220  0.58282762  0.81829869  1
  O  O476  1  0.97886750  0.91598653  0.06839038  1
  O  O477  1  0.97840850  0.91622339  0.31843186  1
  O  O478  1  0.97720620  0.91589774  0.56543608  1
  O  O479  1  0.97845679  0.91638228  0.81848632  1
  O  O480  1  0.07368091  0.31530971  0.07428274  1
  O  O481  1  0.07476664  0.31323589  0.32503116  1
  O  O482  1  0.07322939  0.31477073  0.57341744  1
  O  O483  1  0.07449719  0.31365283  0.82493730  1
  O  O484  1  0.07262356  0.64697839  0.07362643  1
  O  O485  1  0.07380711  0.64507633  0.32403120  1
  O  O486  1  0.07457495  0.64640443  0.57425136  1
  O  O487  1  0.07421336  0.64619059  0.82540648  1
  O  O488  1  0.07402857  0.98001636  0.07500787  1
  O  O489  1  0.07386590  0.97966481  0.32588529  1
  O  O490  1  0.07185094  0.98025336  0.57281442  1
  O  O491  1  0.07410857  0.97945245  0.82459898  1
  O  O492  1  0.57218408  0.31382897  0.07188130  1
  O  O493  1  0.57289664  0.31573355  0.32408319  1
  O  O494  1  0.57311991  0.31267483  0.57562697  1
  O  O495  1  0.57131202  0.31344439  0.82302598  1
  O  O496  1  0.57377918  0.64605541  0.07443615  1
  O  O497  1  0.57329299  0.64815763  0.32461710  1
  O  O498  1  0.57241194  0.64536321  0.57607619  1
  O  O499  1  0.57167587  0.64641399  0.82304178  1
  O  O500  1  0.57358243  0.97982724  0.07475003  1
  O  O501  1  0.57351084  0.98139608  0.32558634  1
  O  O502  1  0.57345123  0.98026686  0.57700425  1
  O  O503  1  0.57286639  0.97948962  0.82492391  1
  O  O504  1  0.42597967  0.02087601  0.17460986  1
  O  O505  1  0.42631368  0.02213940  0.42621824  1
  O  O506  1  0.42640203  0.02175050  0.67520320  1
  O  O507  1  0.42665362  0.02122274  0.92487315  1
  O  O508  1  0.42743228  0.35153915  0.17656914  1
  O  O509  1  0.42652172  0.35540149  0.42634693  1
  O  O510  1  0.42846034  0.35257432  0.67648559  1
  O  O511  1  0.42640573  0.35203457  0.92503823  1
  O  O512  1  0.42681879  0.68495353  0.17679851  1
  O  O513  1  0.42590144  0.68665750  0.42583900  1
  O  O514  1  0.42820271  0.68550686  0.67745474  1
  O  O515  1  0.42631016  0.68597540  0.92416011  1
  O  O516  1  0.92618393  0.02005219  0.17467706  1
  O  O517  1  0.92660643  0.01830209  0.42603501  1
  O  O518  1  0.92628285  0.01975920  0.67472187  1
  O  O519  1  0.92609458  0.01986949  0.92471303  1
  O  O520  1  0.92725319  0.35503950  0.17445461  1
  O  O521  1  0.92677521  0.35177061  0.42511069  1
  O  O522  1  0.92600831  0.35313605  0.67549765  1
  O  O523  1  0.92789802  0.35290470  0.92725212  1
  O  O524  1  0.92655002  0.68590132  0.17470697  1
  O  O525  1  0.92708660  0.68651152  0.42497633  1
  O  O526  1  0.92643916  0.68647007  0.67382498  1
  O  O527  1  0.92666543  0.68494707  0.92593074  1
  O  O528  1  0.17719929  0.01805560  0.19945099  1
  O  O529  1  0.17636920  0.02019407  0.45088053  1
  O  O530  1  0.17727161  0.01952989  0.69827572  1
  O  O531  1  0.17677893  0.01855849  0.94938250  1
  O  O532  1  0.17815072  0.35353547  0.19912276  1
  O  O533  1  0.17932346  0.35342546  0.44833960  1
  O  O534  1  0.17740900  0.35411042  0.69821864  1
  O  O535  1  0.17698156  0.35420791  0.95082284  1
  O  O536  1  0.17850965  0.68567081  0.19828766  1
  O  O537  1  0.17853322  0.68630471  0.44782526  1
  O  O538  1  0.17694572  0.68590951  0.69895465  1
  O  O539  1  0.17819714  0.68644342  0.94950024  1
  O  O540  1  0.67667589  0.01786394  0.19816711  1
  O  O541  1  0.67556243  0.01987314  0.45108147  1
  O  O542  1  0.67747459  0.01928908  0.69949912  1
  O  O543  1  0.67677345  0.01983831  0.94802103  1
  O  O544  1  0.67703873  0.35156636  0.19847449  1
  O  O545  1  0.67618839  0.35332858  0.45129066  1
  O  O546  1  0.67659649  0.35376726  0.69989234  1
  O  O547  1  0.67661309  0.35212031  0.94793623  1
  O  O548  1  0.67851318  0.68637648  0.19821526  1
  O  O549  1  0.67666315  0.68760696  0.44934612  1
  O  O550  1  0.67658349  0.68586838  0.69955399  1
  O  O551  1  0.67674361  0.68798646  0.94988391  1
  O  O552  1  0.32288095  0.31469372  0.05098643  1
  O  O553  1  0.32281593  0.31512235  0.30123103  1
  O  O554  1  0.32288548  0.31430603  0.55155771  1
  O  O555  1  0.32322437  0.31383706  0.79890503  1
  O  O556  1  0.32246367  0.64762881  0.05254845  1
  O  O557  1  0.32131868  0.64702592  0.30189234  1
  O  O558  1  0.32284188  0.64728696  0.55116546  1
  O  O559  1  0.32351942  0.64787925  0.80120473  1
  O  O560  1  0.32233709  0.98000402  0.05159463  1
  O  O561  1  0.32327206  0.97847857  0.30004379  1
  O  O562  1  0.32356139  0.98095574  0.55134670  1
  O  O563  1  0.32273657  0.98031865  0.80177288  1
  O  O564  1  0.82212836  0.31440425  0.05016033  1
  O  O565  1  0.82382177  0.31268570  0.29967953  1
  O  O566  1  0.82333146  0.31179560  0.55076555  1
  O  O567  1  0.82227742  0.31305740  0.80065600  1
  O  O568  1  0.82223042  0.64848688  0.05055846  1
  O  O569  1  0.82412121  0.64667734  0.29941846  1
  O  O570  1  0.82195759  0.64745775  0.55111399  1
  O  O571  1  0.82385095  0.64675932  0.79896140  1
  O  O572  1  0.82169482  0.98073359  0.05083292  1
  O  O573  1  0.82277395  0.97826917  0.30005207  1
  O  O574  1  0.82289590  0.98095032  0.55099843  1
  O  O575  1  0.82229650  0.98024921  0.80181854  1
  O  O576  1  0.42562835  0.14769167  0.17470289  1
  O  O577  1  0.42634818  0.14948066  0.42641497  1
  O  O578  1  0.42663076  0.14877849  0.67630606  1
  O  O579  1  0.42633833  0.14835731  0.92575124  1
  O  O580  1  0.42664997  0.47855243  0.17505669  1
  O  O581  1  0.42734246  0.48242601  0.42665642  1
  O  O582  1  0.42696454  0.47984449  0.67713182  1
  O  O583  1  0.42686133  0.47894944  0.92534670  1
  O  O584  1  0.42704590  0.81227938  0.17603858  1
  O  O585  1  0.42659362  0.81347942  0.42507115  1
  O  O586  1  0.42695104  0.81315088  0.67744299  1
  O  O587  1  0.42595866  0.81276236  0.92481577  1
  O  O588  1  0.92610881  0.14719677  0.17479307  1
  O  O589  1  0.92601023  0.14553297  0.42545089  1
  O  O590  1  0.92665191  0.14669105  0.67403576  1
  O  O591  1  0.92587125  0.14687254  0.92473786  1
  O  O592  1  0.92753352  0.48197938  0.17508933  1
  O  O593  1  0.92669659  0.47890009  0.42554725  1
  O  O594  1  0.92656715  0.47990883  0.67464462  1
  O  O595  1  0.92752070  0.48037996  0.92689589  1
  O  O596  1  0.92683412  0.81274215  0.17398745  1
  O  O597  1  0.92694510  0.81374255  0.42560888  1
  O  O598  1  0.92604940  0.81329829  0.67477900  1
  O  O599  1  0.92700743  0.81214459  0.92550934  1
  O  O600  1  0.07370924  0.18802612  0.07466738  1
  O  O601  1  0.07381873  0.18635292  0.32539303  1
  O  O602  1  0.07353173  0.18754607  0.57438959  1
  O  O603  1  0.07420930  0.18683546  0.82529000  1
  O  O604  1  0.07275307  0.51966927  0.07282666  1
  O  O605  1  0.07339687  0.51784399  0.32335753  1
  O  O606  1  0.07455072  0.51949502  0.57466786  1
  O  O607  1  0.07425727  0.51940532  0.82566558  1
  O  O608  1  0.07464889  0.85299523  0.07490749  1
  O  O609  1  0.07392706  0.85291858  0.32567117  1
  O  O610  1  0.07254331  0.85268880  0.57264285  1
  O  O611  1  0.07373947  0.85245772  0.82463249  1
  O  O612  1  0.57209822  0.18654210  0.07281019  1
  O  O613  1  0.57328009  0.18866771  0.32400573  1
  O  O614  1  0.57248906  0.18572247  0.57424839  1
  O  O615  1  0.57198001  0.18628205  0.82373085  1
  O  O616  1  0.57384534  0.51923666  0.07553641  1
  O  O617  1  0.57376866  0.52116051  0.32473874  1
  O  O618  1  0.57250717  0.51841313  0.57500833  1
  O  O619  1  0.57281680  0.51891531  0.82343900  1
  O  O620  1  0.57303474  0.85284032  0.07533236  1
  O  O621  1  0.57419916  0.85430466  0.32568796  1
  O  O622  1  0.57341995  0.85330425  0.57600499  1
  O  O623  1  0.57232207  0.85226104  0.82411008  1
  O  O624  1  0.32293504  0.18744083  0.05036125  1
  O  O625  1  0.32296700  0.18801626  0.30007528  1
  O  O626  1  0.32132064  0.18689896  0.55185063  1
  O  O627  1  0.32341555  0.18705454  0.79902525  1
  O  O628  1  0.32278901  0.52037457  0.05198050  1
  O  O629  1  0.32310385  0.51998449  0.30138559  1
  O  O630  1  0.32180413  0.52012638  0.55208263  1
  O  O631  1  0.32254414  0.52100745  0.80043647  1
  O  O632  1  0.32273642  0.85276417  0.05106958  1
  O  O633  1  0.32341069  0.85147789  0.30074512  1
  O  O634  1  0.32375736  0.85392741  0.55137740  1
  O  O635  1  0.32128229  0.85299588  0.80185358  1
  O  O636  1  0.82290965  0.18745142  0.04889827  1
  O  O637  1  0.82323700  0.18578176  0.29849716  1
  O  O638  1  0.82281273  0.18470801  0.55157039  1
  O  O639  1  0.82150515  0.18569336  0.80182210  1
  O  O640  1  0.82317422  0.52115272  0.04965766  1
  O  O641  1  0.82359368  0.51988579  0.29889364  1
  O  O642  1  0.82173407  0.51980710  0.55138174  1
  O  O643  1  0.82375275  0.52010817  0.79925626  1
  O  O644  1  0.82247963  0.85359559  0.05049552  1
  O  O645  1  0.82290723  0.85128999  0.30099773  1
  O  O646  1  0.82293019  0.85398832  0.55107049  1
  O  O647  1  0.82186914  0.85289759  0.80131837  1
  O  O648  1  0.17661159  0.14537238  0.19986061  1
  O  O649  1  0.17652691  0.14692940  0.45091194  1
  O  O650  1  0.17841717  0.14696121  0.69864668  1
  O  O651  1  0.17714994  0.14565316  0.95028383  1
  O  O652  1  0.17831074  0.48068373  0.19868762  1
  O  O653  1  0.17771001  0.48051931  0.44899890  1
  O  O654  1  0.17884777  0.48152034  0.69779876  1
  O  O655  1  0.17695397  0.48089469  0.95103789  1
  O  O656  1  0.17731714  0.81275837  0.19839354  1
  O  O657  1  0.17851718  0.81361562  0.44872789  1
  O  O658  1  0.17739674  0.81270454  0.69987726  1
  O  O659  1  0.17862760  0.81366635  0.94836888  1
  O  O660  1  0.67596792  0.14504607  0.19861783  1
  O  O661  1  0.67623495  0.14653735  0.45017342  1
  O  O662  1  0.67783452  0.14660807  0.69949974  1
  O  O663  1  0.67791394  0.14709874  0.94772163  1
  O  O664  1  0.67639340  0.47875006  0.19928322  1
  O  O665  1  0.67624634  0.48025812  0.45004756  1
  O  O666  1  0.67736366  0.48086337  0.69948800  1
  O  O667  1  0.67689976  0.47918907  0.94989309  1
  O  O668  1  0.67713513  0.81363877  0.19818565  1
  O  O669  1  0.67700908  0.81470408  0.44962759  1
  O  O670  1  0.67635339  0.81293778  0.69983459  1
  O  O671  1  0.67631203  0.81494508  0.94956029  1
