# generated using pymatgen
data_Na2MnFe(PO4)2
_symmetry_space_group_name_H-M   'P 1'
_cell_length_a   22.33998491
_cell_length_b   20.08885863
_cell_length_c   19.45275533
_cell_angle_alpha   90.02871804
_cell_angle_beta   90.02873266
_cell_angle_gamma   90.00044315
_symmetry_Int_Tables_number   1
_chemical_formula_structural   Na2MnFe(PO4)2
_chemical_formula_sum   'Na96 Mn48 Fe48 P96 O384'
_cell_volume   8730.09868816
_cell_formula_units_Z   48
loop_
 _symmetry_equiv_pos_site_id
 _symmetry_equiv_pos_as_xyz
  1  'x, y, z'
loop_
 _atom_site_type_symbol
 _atom_site_label
 _atom_site_symmetry_multiplicity
 _atom_site_fract_x
 _atom_site_fract_y
 _atom_site_fract_z
 _atom_site_occupancy
  Na  Na0  1  0.14059236  0.24966185  0.24368100  1
  Na  Na1  1  0.13974693  0.24956415  0.49316930  1
  Na  Na2  1  0.13963161  0.25049301  0.74364161  1
  Na  Na3  1  0.14017784  0.24881252  0.99341437  1
  Na  Na4  1  0.13981451  0.58319701  0.24375255  1
  Na  Na5  1  0.14002491  0.58542923  0.49426525  1
  Na  Na6  1  0.13968044  0.58370677  0.74329547  1
  Na  Na7  1  0.14005333  0.58242690  0.99361277  1
  Na  Na8  1  0.14022278  0.91743946  0.24561476  1
  Na  Na9  1  0.14035208  0.91755839  0.49340278  1
  Na  Na10  1  0.14008631  0.91665846  0.74413093  1
  Na  Na11  1  0.14048934  0.91730953  0.99434463  1
  Na  Na12  1  0.64057251  0.25082473  0.24403804  1
  Na  Na13  1  0.64049926  0.25074308  0.49381140  1
  Na  Na14  1  0.64030325  0.24913506  0.74306441  1
  Na  Na15  1  0.64078965  0.24842063  0.99381638  1
  Na  Na16  1  0.63983424  0.58282549  0.24249570  1
  Na  Na17  1  0.64007812  0.58339649  0.49180445  1
  Na  Na18  1  0.64004914  0.58355787  0.74280032  1
  Na  Na19  1  0.63995444  0.58279306  0.99297020  1
  Na  Na20  1  0.64120744  0.91576323  0.24444346  1
  Na  Na21  1  0.64032422  0.91730654  0.49543485  1
  Na  Na22  1  0.63972957  0.91663081  0.74359445  1
  Na  Na23  1  0.64071240  0.91527846  0.99307219  1
  Na  Na24  1  0.35975891  0.08300445  0.00531757  1
  Na  Na25  1  0.35984854  0.08264960  0.25747397  1
  Na  Na26  1  0.36061567  0.08326742  0.50627342  1
  Na  Na27  1  0.36021712  0.08328991  0.75734874  1
  Na  Na28  1  0.35980460  0.41678498  0.00530595  1
  Na  Na29  1  0.35974721  0.41723474  0.25562857  1
  Na  Na30  1  0.36005825  0.41833373  0.50576784  1
  Na  Na31  1  0.35998667  0.41744146  0.75536177  1
  Na  Na32  1  0.35944465  0.75021860  0.00605935  1
  Na  Na33  1  0.35971896  0.75018783  0.25585491  1
  Na  Na34  1  0.35999616  0.75084563  0.50569076  1
  Na  Na35  1  0.35973459  0.75063758  0.75634348  1
  Na  Na36  1  0.85965043  0.08273281  0.00581399  1
  Na  Na37  1  0.85975587  0.08354432  0.25708297  1
  Na  Na38  1  0.85998391  0.08394768  0.50808105  1
  Na  Na39  1  0.85999132  0.08289002  0.75756711  1
  Na  Na40  1  0.85916624  0.41583854  0.00623655  1
  Na  Na41  1  0.85994030  0.41677317  0.25681444  1
  Na  Na42  1  0.85995849  0.41651705  0.50572350  1
  Na  Na43  1  0.85960823  0.41681629  0.75652300  1
  Na  Na44  1  0.85908404  0.74890174  0.00496888  1
  Na  Na45  1  0.85903438  0.74838168  0.25685715  1
  Na  Na46  1  0.85998797  0.75081900  0.50743140  1
  Na  Na47  1  0.85917164  0.75061282  0.75629150  1
  Na  Na48  1  0.10992912  0.08255459  0.11978722  1
  Na  Na49  1  0.10970764  0.08417375  0.36875394  1
  Na  Na50  1  0.10922764  0.08370130  0.61901767  1
  Na  Na51  1  0.10920446  0.08433710  0.86833963  1
  Na  Na52  1  0.10956225  0.41591047  0.11871912  1
  Na  Na53  1  0.10933569  0.41617231  0.36856283  1
  Na  Na54  1  0.10876659  0.41642988  0.61944434  1
  Na  Na55  1  0.10905305  0.41625071  0.86770492  1
  Na  Na56  1  0.10909227  0.75032227  0.11951762  1
  Na  Na57  1  0.10923403  0.75063478  0.36967925  1
  Na  Na58  1  0.10945821  0.74970016  0.61878852  1
  Na  Na59  1  0.10938852  0.75042259  0.86795901  1
  Na  Na60  1  0.61024094  0.08386284  0.11930529  1
  Na  Na61  1  0.61010181  0.08329468  0.37016035  1
  Na  Na62  1  0.60946482  0.08311478  0.61971952  1
  Na  Na63  1  0.60946744  0.08181085  0.86791811  1
  Na  Na64  1  0.60983719  0.41813346  0.11869172  1
  Na  Na65  1  0.61010559  0.41719457  0.36786684  1
  Na  Na66  1  0.60969501  0.41690619  0.61753507  1
  Na  Na67  1  0.60987555  0.41597952  0.86822444  1
  Na  Na68  1  0.60990342  0.74794370  0.11796976  1
  Na  Na69  1  0.60993072  0.74890193  0.36845110  1
  Na  Na70  1  0.60960999  0.75122758  0.61843884  1
  Na  Na71  1  0.60955449  0.74912510  0.86764655  1
  Na  Na72  1  0.39091849  0.25085380  0.13126627  1
  Na  Na73  1  0.39084451  0.24905521  0.38148447  1
  Na  Na74  1  0.39086395  0.24980001  0.63086537  1
  Na  Na75  1  0.39078515  0.25065372  0.88065533  1
  Na  Na76  1  0.39043354  0.58323763  0.13031047  1
  Na  Na77  1  0.39084922  0.58339866  0.38020694  1
  Na  Na78  1  0.39081850  0.58489492  0.63039967  1
  Na  Na79  1  0.39072013  0.58276622  0.88052306  1
  Na  Na80  1  0.39036063  0.91716521  0.13167718  1
  Na  Na81  1  0.39067132  0.91687096  0.38186963  1
  Na  Na82  1  0.39070961  0.91799661  0.63179609  1
  Na  Na83  1  0.38988198  0.91596723  0.88164114  1
  Na  Na84  1  0.89048522  0.24893128  0.13173741  1
  Na  Na85  1  0.89060992  0.25091638  0.38159147  1
  Na  Na86  1  0.89086516  0.25049208  0.63171418  1
  Na  Na87  1  0.88988155  0.25033524  0.88072467  1
  Na  Na88  1  0.88933497  0.58203004  0.13201489  1
  Na  Na89  1  0.89046454  0.58207374  0.38120751  1
  Na  Na90  1  0.89063181  0.58295402  0.63121331  1
  Na  Na91  1  0.88994854  0.58347695  0.88044405  1
  Na  Na92  1  0.89012325  0.91656229  0.13115878  1
  Na  Na93  1  0.89037044  0.91639930  0.38319222  1
  Na  Na94  1  0.89005158  0.91621550  0.63293837  1
  Na  Na95  1  0.88956650  0.91776705  0.88113741  1
  Mn  Mn96  1  0.50060974  0.83201279  0.00050844  1
  Mn  Mn97  1  0.00023034  0.00127871  0.00033038  1
  Mn  Mn98  1  0.50048412  0.66652601  0.74912581  1
  Mn  Mn99  1  0.50009535  -0.00032174  0.00010239  1
  Mn  Mn100  1  0.75082105  -0.00026406  0.12517197  1
  Mn  Mn101  1  -0.00012113  0.66621082  0.00012927  1
  Mn  Mn102  1  -0.00106146  0.83388070  0.25057371  1
  Mn  Mn103  1  0.75007209  0.16772257  0.37651746  1
  Mn  Mn104  1  0.25073089  0.16530836  0.12399288  1
  Mn  Mn105  1  0.24960750  0.83472625  0.12563645  1
  Mn  Mn106  1  0.25010478  0.33380729  0.62399934  1
  Mn  Mn107  1  -0.00023393  0.83325967  0.75009193  1
  Mn  Mn108  1  0.50032760  0.83333515  0.49982840  1
  Mn  Mn109  1  0.25017106  0.66729238  0.87527691  1
  Mn  Mn110  1  -0.00064942  0.49960708  -0.00006513  1
  Mn  Mn111  1  0.25011924  0.00025902  0.62494405  1
  Mn  Mn112  1  0.50002102  0.33374334  0.74929568  1
  Mn  Mn113  1  0.25056435  0.33323545  0.12482768  1
  Mn  Mn114  1  0.50068345  0.83222497  0.25070327  1
  Mn  Mn115  1  0.50025200  0.33377932  0.25040756  1
  Mn  Mn116  1  0.00028958  0.49934692  0.50059831  1
  Mn  Mn117  1  0.75015559  0.33296675  0.12521808  1
  Mn  Mn118  1  0.24925166  0.50141484  0.62545455  1
  Mn  Mn119  1  0.74948943  0.49957755  0.87459322  1
  Mn  Mn120  1  0.24885556  0.66658794  0.12517616  1
  Mn  Mn121  1  -0.00033028  0.83382307  -0.00018448  1
  Mn  Mn122  1  0.75038665  -0.00043638  0.37570785  1
  Mn  Mn123  1  0.50012400  0.33348915  0.49959256  1
  Mn  Mn124  1  0.25012345  0.16691450  0.62532909  1
  Mn  Mn125  1  0.75007926  0.66663115  0.37466968  1
  Mn  Mn126  1  -0.00070983  0.33257105  -0.00067787  1
  Mn  Mn127  1  0.75047515  0.83159995  0.12399563  1
  Mn  Mn128  1  0.24991372  0.33307584  0.37474835  1
  Mn  Mn129  1  0.24984864  0.49949131  0.87403207  1
  Mn  Mn130  1  0.24989741  0.16674372  0.87519888  1
  Mn  Mn131  1  0.75004634  0.49956440  0.62456872  1
  Mn  Mn132  1  -0.00057127  0.66599500  0.25043686  1
  Mn  Mn133  1  0.25050306  0.66803172  0.37416654  1
  Mn  Mn134  1  0.50127010  0.33433021  0.00013189  1
  Mn  Mn135  1  0.50113689  0.00062492  0.25102705  1
  Mn  Mn136  1  0.74981690  0.16587984  0.87456519  1
  Mn  Mn137  1  0.24992829  0.50096431  0.37528256  1
  Mn  Mn138  1  0.25065270  0.83343358  0.62496327  1
  Mn  Mn139  1  0.74980687  0.66772450  0.62379452  1
  Mn  Mn140  1  0.50002571  0.16681598  -0.00002757  1
  Mn  Mn141  1  0.75059759  0.16715137  0.62593764  1
  Mn  Mn142  1  0.00012577  0.16678868  0.25045638  1
  Mn  Mn143  1  -0.00049077  0.00043467  0.50092545  1
  Fe  Fe144  1  0.00011770  0.66617528  0.50059625  1
  Fe  Fe145  1  0.74953495  0.66568020  0.12463020  1
  Fe  Fe146  1  0.25056953  0.00023823  0.37511161  1
  Fe  Fe147  1  0.00044467  0.49912478  0.25099631  1
  Fe  Fe148  1  0.49992428  0.50064618  0.24925222  1
  Fe  Fe149  1  0.74972271  0.83409615  0.62596833  1
  Fe  Fe150  1  0.24935363  0.83376495  0.87560804  1
  Fe  Fe151  1  -0.00011173  0.00051754  0.74993153  1
  Fe  Fe152  1  0.24997618  0.66788455  0.62497402  1
  Fe  Fe153  1  0.74952862  0.33258030  0.87538780  1
  Fe  Fe154  1  -0.00057173  0.33290148  0.74974820  1
  Fe  Fe155  1  0.50003585  0.66574243  0.24904850  1
  Fe  Fe156  1  0.50043165  0.00037769  0.50113887  1
  Fe  Fe157  1  -0.00030141  0.16696357  0.50014930  1
  Fe  Fe158  1  0.75021654  -0.00035268  0.62598658  1
  Fe  Fe159  1  -0.00029191  0.16714662  0.74958250  1
  Fe  Fe160  1  -0.00012874  0.33310870  0.50031605  1
  Fe  Fe161  1  0.24951385  -0.00013146  0.87531260  1
  Fe  Fe162  1  0.25075936  0.16609921  0.37435398  1
  Fe  Fe163  1  0.00066231  0.33282724  0.25024857  1
  Fe  Fe164  1  0.50048862  0.16667216  0.25080066  1
  Fe  Fe165  1  0.74931897  -0.00083686  0.87539939  1
  Fe  Fe166  1  0.50015487  0.16654963  0.74992399  1
  Fe  Fe167  1  0.49973797  0.50028035  -0.00066180  1
  Fe  Fe168  1  -0.00069837  0.66643417  0.74957079  1
  Fe  Fe169  1  0.50042782  0.50068160  0.49888151  1
  Fe  Fe170  1  0.49964956  0.66589093  -0.00106733  1
  Fe  Fe171  1  0.24986532  0.33325587  0.87496754  1
  Fe  Fe172  1  -0.00036549  0.00033443  0.25100733  1
  Fe  Fe173  1  0.24975477  0.49948528  0.12427428  1
  Fe  Fe174  1  0.00007965  0.83314970  0.50097218  1
  Fe  Fe175  1  0.75039382  0.33405642  0.37439824  1
  Fe  Fe176  1  0.74948612  0.83291455  0.87463418  1
  Fe  Fe177  1  0.25042230  -0.00028804  0.12580861  1
  Fe  Fe178  1  0.74964049  0.66625416  0.87466391  1
  Fe  Fe179  1  0.49921959  0.83331318  0.74967163  1
  Fe  Fe180  1  0.50045751  0.16632324  0.50091363  1
  Fe  Fe181  1  0.75048020  0.83345969  0.37550456  1
  Fe  Fe182  1  0.75011215  0.49999998  0.37425980  1
  Fe  Fe183  1  0.74986945  0.49956946  0.12448443  1
  Fe  Fe184  1  -0.00041152  0.49994161  0.74943767  1
  Fe  Fe185  1  0.25003864  0.83417714  0.37528745  1
  Fe  Fe186  1  0.49951496  -0.00002062  0.74985825  1
  Fe  Fe187  1  0.50047791  0.50027373  0.74909064  1
  Fe  Fe188  1  0.75016498  0.16626337  0.12501562  1
  Fe  Fe189  1  0.74976173  0.33388414  0.62465928  1
  Fe  Fe190  1  -0.00029777  0.16699257  -0.00014836  1
  Fe  Fe191  1  0.50009374  0.66647892  0.49935168  1
  P  P192  1  0.04219590  0.24875699  0.10251529  1
  P  P193  1  0.04251141  0.25120396  0.35321251  1
  P  P194  1  0.04123695  0.24980769  0.60220588  1
  P  P195  1  0.04098785  0.24978864  0.85149404  1
  P  P196  1  0.04242594  0.58237790  0.10389247  1
  P  P197  1  0.04211106  0.58216586  0.35332614  1
  P  P198  1  0.04183299  0.58414988  0.60345460  1
  P  P199  1  0.04109256  0.58319149  0.85107433  1
  P  P200  1  0.04254363  0.91723149  0.10383945  1
  P  P201  1  0.04137104  0.91790856  0.35372796  1
  P  P202  1  0.04192369  0.91583366  0.60308616  1
  P  P203  1  0.04162223  0.91848777  0.85230858  1
  P  P204  1  0.54336278  0.25028816  0.10375992  1
  P  P205  1  0.54246657  0.24867003  0.35329610  1
  P  P206  1  0.54218069  0.24878691  0.60281778  1
  P  P207  1  0.54262881  0.24905869  0.85191501  1
  P  P208  1  0.54122638  0.58329994  0.10127000  1
  P  P209  1  0.54177501  0.58318382  0.35144444  1
  P  P210  1  0.54215261  0.58364682  0.60095002  1
  P  P211  1  0.54225105  0.58186085  0.85221017  1
  P  P212  1  0.54342289  0.91636742  0.10337734  1
  P  P213  1  0.54333501  0.91649232  0.35415515  1
  P  P214  1  0.54162441  0.91808310  0.60372656  1
  P  P215  1  0.54084214  0.91603505  0.85128027  1
  P  P216  1  0.45795519  0.08471842  0.14832977  1
  P  P217  1  0.45935819  0.08334994  0.39895063  1
  P  P218  1  0.45854679  0.08361379  0.64809048  1
  P  P219  1  0.45760302  0.08300673  0.89591779  1
  P  P220  1  0.45808063  0.41849400  0.14704714  1
  P  P221  1  0.45819974  0.41827687  0.39678546  1
  P  P222  1  0.45825476  0.41877418  0.64625340  1
  P  P223  1  0.45823784  0.41805450  0.89664921  1
  P  P224  1  0.45799605  0.74820851  0.14708969  1
  P  P225  1  0.45815577  0.74811668  0.39690129  1
  P  P226  1  0.45790302  0.75123000  0.64693629  1
  P  P227  1  0.45780662  0.74866928  0.89689869  1
  P  P228  1  0.95758131  0.08235220  0.14805136  1
  P  P229  1  0.95746349  0.08473187  0.39797500  1
  P  P230  1  0.95827191  0.08389529  0.64836177  1
  P  P231  1  0.95776246  0.08538391  0.89674878  1
  P  P232  1  0.95864378  0.41582620  0.14891573  1
  P  P233  1  0.95841565  0.41520620  0.39722556  1
  P  P234  1  0.95822443  0.41611297  0.64818878  1
  P  P235  1  0.95679239  0.41665673  0.89574081  1
  P  P236  1  0.95641855  0.74977262  0.14726013  1
  P  P237  1  0.95850825  0.74954405  0.39931723  1
  P  P238  1  0.95779884  0.74872877  0.64696857  1
  P  P239  1  0.95727714  0.74965501  0.89618386  1
  P  P240  1  0.20856480  0.08209929  0.22846578  1
  P  P241  1  0.20874812  0.08341708  0.47632506  1
  P  P242  1  0.20733014  0.08310302  0.72884007  1
  P  P243  1  0.20760998  0.08158711  0.97777065  1
  P  P244  1  0.20776881  0.41767320  0.22716133  1
  P  P245  1  0.20692321  0.41723682  0.47799872  1
  P  P246  1  0.20690922  0.41636217  0.72818278  1
  P  P247  1  0.20727328  0.41543996  0.97728252  1
  P  P248  1  0.20682885  0.75124279  0.22873248  1
  P  P249  1  0.20791468  0.75176922  0.47771242  1
  P  P250  1  0.20745986  0.74972506  0.72792005  1
  P  P251  1  0.20703846  0.75148035  0.97767007  1
  P  P252  1  0.70828261  0.08444759  0.22795882  1
  P  P253  1  0.70802103  0.08309097  0.47962526  1
  P  P254  1  0.70827202  0.08163954  0.72813585  1
  P  P255  1  0.70754108  0.08175851  0.97765623  1
  P  P256  1  0.70814831  0.41803490  0.22769636  1
  P  P257  1  0.70861122  0.41662383  0.47619196  1
  P  P258  1  0.70739775  0.41519517  0.72744392  1
  P  P259  1  0.70776233  0.41520226  0.97760126  1
  P  P260  1  0.70773385  0.74813825  0.22723290  1
  P  P261  1  0.70807876  0.75196463  0.47762562  1
  P  P262  1  0.70776811  0.75135421  0.72792799  1
  P  P263  1  0.70817850  0.74905067  0.97619822  1
  P  P264  1  0.29319343  0.24998992  0.02118192  1
  P  P265  1  0.29268678  0.24871462  0.27227268  1
  P  P266  1  0.29302604  0.24939074  0.52091082  1
  P  P267  1  0.29237255  0.25146890  0.77248920  1
  P  P268  1  0.29167085  0.58221348  0.02237876  1
  P  P269  1  0.29253370  0.58329539  0.27091657  1
  P  P270  1  0.29213420  0.58576715  0.52263627  1
  P  P271  1  0.29274609  0.58433569  0.77129083  1
  P  P272  1  0.29233291  0.91818405  0.02219095  1
  P  P273  1  0.29213568  0.91707901  0.27366280  1
  P  P274  1  0.29306982  0.91715928  0.52116385  1
  P  P275  1  0.29133059  0.91656230  0.77390504  1
  P  P276  1  0.79225769  0.24833140  0.02240085  1
  P  P277  1  0.79240514  0.25111302  0.27269421  1
  P  P278  1  0.79235800  0.25205143  0.52268328  1
  P  P279  1  0.79172112  0.25142825  0.77222691  1
  P  P280  1  0.79098120  0.58304022  0.02261420  1
  P  P281  1  0.79200475  0.58178037  0.27157146  1
  P  P282  1  0.79249274  0.58306683  0.52101878  1
  P  P283  1  0.79165120  0.58441038  0.77224482  1
  P  P284  1  0.79260044  0.91589600  0.02085782  1
  P  P285  1  0.79288780  0.91496205  0.27293823  1
  P  P286  1  0.79180927  0.91650510  0.52409449  1
  P  P287  1  0.79084269  0.91659414  0.77313281  1
  O  O288  1  0.03734940  0.24943809  0.18244732  1
  O  O289  1  0.03721991  0.25109471  0.43303513  1
  O  O290  1  0.03577586  0.24948681  0.68205217  1
  O  O291  1  0.03631350  0.24956246  0.93143731  1
  O  O292  1  0.03750349  0.58172484  0.18386705  1
  O  O293  1  0.03696692  0.58271841  0.43327978  1
  O  O294  1  0.03600092  0.58405222  0.68327301  1
  O  O295  1  0.03615852  0.58301197  0.93109388  1
  O  O296  1  0.03715748  0.91752640  0.18377314  1
  O  O297  1  0.03605248  0.91724013  0.43365492  1
  O  O298  1  0.03695348  0.91620108  0.68298958  1
  O  O299  1  0.03684089  0.91854594  0.93224330  1
  O  O300  1  0.53810886  0.25007124  0.18372000  1
  O  O301  1  0.53700805  0.24862249  0.43323176  1
  O  O302  1  0.53666632  0.24906125  0.68270988  1
  O  O303  1  0.53760042  0.24958559  0.93188241  1
  O  O304  1  0.53595828  0.58358549  0.18113625  1
  O  O305  1  0.53658466  0.58318094  0.43132716  1
  O  O306  1  0.53734689  0.58334405  0.68091443  1
  O  O307  1  0.53668892  0.58212525  0.93201761  1
  O  O308  1  0.53863304  0.91643337  0.18335728  1
  O  O309  1  0.53793403  0.91680776  0.43408225  1
  O  O310  1  0.53558872  0.91779825  0.68353832  1
  O  O311  1  0.53644035  0.91578730  0.93130061  1
  O  O312  1  0.46274395  0.08420502  0.06833914  1
  O  O313  1  0.46443170  0.08395668  0.31903618  1
  O  O314  1  0.46395007  0.08337223  0.56819902  1
  O  O315  1  0.46294418  0.08282836  0.81600308  1
  O  O316  1  0.46351405  0.41832689  0.06711455  1
  O  O317  1  0.46358210  0.41843683  0.31687393  1
  O  O318  1  0.46384013  0.41874342  0.56635062  1
  O  O319  1  0.46339797  0.41800072  0.81668503  1
  O  O320  1  0.46315281  0.74814944  0.06711818  1
  O  O321  1  0.46348710  0.74774329  0.31699390  1
  O  O322  1  0.46314388  0.75082579  0.56707434  1
  O  O323  1  0.46294403  0.74948220  0.81696815  1
  O  O324  1  0.96262867  0.08316749  0.06813915  1
  O  O325  1  0.96263836  0.08389105  0.31809021  1
  O  O326  1  0.96299135  0.08388177  0.56841155  1
  O  O327  1  0.96304123  0.08525824  0.81689030  1
  O  O328  1  0.96334258  0.41586914  0.06887854  1
  O  O329  1  0.96403311  0.41553398  0.31740822  1
  O  O330  1  0.96335186  0.41544350  0.56825982  1
  O  O331  1  0.96177245  0.41700239  0.81587263  1
  O  O332  1  0.96158840  0.74981972  0.06730270  1
  O  O333  1  0.96315458  0.74993653  0.31931807  1
  O  O334  1  0.96341460  0.74907692  0.56711648  1
  O  O335  1  0.96250397  0.74917540  0.81622893  1
  O  O336  1  0.21303302  0.08131103  0.05770380  1
  O  O337  1  0.21421141  0.08283430  0.30834974  1
  O  O338  1  0.21334754  0.08366321  0.55637417  1
  O  O339  1  0.21227879  0.08270278  0.80878770  1
  O  O340  1  0.21273281  0.41627566  0.05722273  1
  O  O341  1  0.21280105  0.41741881  0.30710639  1
  O  O342  1  0.21191282  0.41730438  0.55796136  1
  O  O343  1  0.21206205  0.41567930  0.80812986  1
  O  O344  1  0.21191093  0.75127048  0.05763635  1
  O  O345  1  0.21236011  0.75180231  0.30863482  1
  O  O346  1  0.21334158  0.75089381  0.55765137  1
  O  O347  1  0.21243906  0.75045352  0.80787686  1
  O  O348  1  0.71305730  0.08261758  0.05756932  1
  O  O349  1  0.71348671  0.08432119  0.30794434  1
  O  O350  1  0.71352663  0.08258646  0.55951960  1
  O  O351  1  0.71322128  0.08144775  0.80809382  1
  O  O352  1  0.71330973  0.41602959  0.05748257  1
  O  O353  1  0.71342858  0.41826474  0.30756333  1
  O  O354  1  0.71352175  0.41646903  0.55617676  1
  O  O355  1  0.71241012  0.41515811  0.80739071  1
  O  O356  1  0.71322443  0.74833782  0.05615475  1
  O  O357  1  0.71287974  0.74863097  0.30710349  1
  O  O358  1  0.71311198  0.75232103  0.55756652  1
  O  O359  1  0.71323307  0.75067141  0.80777187  1
  O  O360  1  0.28788158  0.24867107  0.19227403  1
  O  O361  1  0.28777139  0.24854585  0.44094457  1
  O  O362  1  0.28727519  0.25116648  0.69249960  1
  O  O363  1  0.28776800  0.25048863  0.94127197  1
  O  O364  1  0.28698548  0.58249181  0.19103271  1
  O  O365  1  0.28709481  0.58546981  0.44267024  1
  O  O366  1  0.28744446  0.58519836  0.69137378  1
  O  O367  1  0.28667202  0.58247643  0.94240415  1
  O  O368  1  0.28700423  0.91774793  0.19370877  1
  O  O369  1  0.28791915  0.91719495  0.44128285  1
  O  O370  1  0.28676727  0.91659960  0.69389081  1
  O  O371  1  0.28674446  0.91776504  0.94233199  1
  O  O372  1  0.78721430  0.25014175  0.19279429  1
  O  O373  1  0.78706401  0.25215296  0.44277364  1
  O  O374  1  0.78649345  0.25173439  0.69231267  1
  O  O375  1  0.78680262  0.24880494  0.94248839  1
  O  O376  1  0.78675681  0.58183638  0.19165929  1
  O  O377  1  0.78718158  0.58255663  0.44108921  1
  O  O378  1  0.78677831  0.58427749  0.69230665  1
  O  O379  1  0.78560902  0.58346602  0.94266346  1
  O  O380  1  0.78797614  0.91507401  0.19299061  1
  O  O381  1  0.78708069  0.91622206  0.44409892  1
  O  O382  1  0.78576388  0.91679142  0.69318924  1
  O  O383  1  0.78687309  0.91602253  0.94099031  1
  O  O384  1  0.22888481  0.24958608  0.05653540  1
  O  O385  1  0.22827997  0.24864642  0.30743216  1
  O  O386  1  0.22858463  0.24976386  0.55605389  1
  O  O387  1  0.22799999  0.25159910  0.80792683  1
  O  O388  1  0.22732849  0.58183349  0.05778629  1
  O  O389  1  0.22825836  0.58397818  0.30638218  1
  O  O390  1  0.22776206  0.58614508  0.55807650  1
  O  O391  1  0.22838601  0.58398981  0.80652175  1
  O  O392  1  0.22814465  0.91890606  0.05833934  1
  O  O393  1  0.22798708  0.91716442  0.30980452  1
  O  O394  1  0.22873486  0.91689243  0.55660062  1
  O  O395  1  0.22702313  0.91627264  0.80944425  1
  O  O396  1  0.72809180  0.24826030  0.05835928  1
  O  O397  1  0.72815209  0.25170475  0.30851309  1
  O  O398  1  0.72810304  0.25159057  0.55843290  1
  O  O399  1  0.72751843  0.25098486  0.80805862  1
  O  O400  1  0.72691547  0.58272619  0.05888497  1
  O  O401  1  0.72783190  0.58193711  0.30754929  1
  O  O402  1  0.72817107  0.58323341  0.55635553  1
  O  O403  1  0.72731789  0.58419244  0.80761740  1
  O  O404  1  0.72857051  0.91605176  0.05699410  1
  O  O405  1  0.72848015  0.91499225  0.30832849  1
  O  O406  1  0.72753779  0.91671438  0.55982536  1
  O  O407  1  0.72678060  0.91645482  0.80949176  1
  O  O408  1  0.27267328  0.08151761  0.19216561  1
  O  O409  1  0.27309548  0.08297334  0.44093526  1
  O  O410  1  0.27180073  0.08341610  0.69385173  1
  O  O411  1  0.27182506  0.08188045  0.94199445  1
  O  O412  1  0.27213921  0.41807556  0.19175043  1
  O  O413  1  0.27143846  0.41703432  0.44320790  1
  O  O414  1  0.27128697  0.41719561  0.69298374  1
  O  O415  1  0.27159921  0.41495206  0.94155874  1
  O  O416  1  0.27104497  0.75062398  0.19316621  1
  O  O417  1  0.27214024  0.75253671  0.44183598  1
  O  O418  1  0.27188429  0.74888344  0.69249579  1
  O  O419  1  0.27150548  0.75196161  0.94248526  1
  O  O420  1  0.77257603  0.08458323  0.19231986  1
  O  O421  1  0.77222767  0.08344311  0.44399405  1
  O  O422  1  0.77257830  0.08198282  0.69264635  1
  O  O423  1  0.77173068  0.08130291  0.94174641  1
  O  O424  1  0.77227678  0.41806581  0.19158644  1
  O  O425  1  0.77279761  0.41651079  0.44021988  1
  O  O426  1  0.77180884  0.41515381  0.69198792  1
  O  O427  1  0.77187612  0.41493088  0.94153891  1
  O  O428  1  0.77200263  0.74730939  0.19149359  1
  O  O429  1  0.77239223  0.75141631  0.44201555  1
  O  O430  1  0.77187824  0.75156523  0.69171492  1
  O  O431  1  0.77226548  0.74969293  0.94011396  1
  O  O432  1  0.02188246  0.08174985  0.18382876  1
  O  O433  1  0.02176277  0.08494319  0.43369940  1
  O  O434  1  0.02249498  0.08434663  0.68411311  1
  O  O435  1  0.02196610  0.08575942  0.93287506  1
  O  O436  1  0.02292525  0.41566012  0.18462711  1
  O  O437  1  0.02242457  0.41497830  0.43371070  1
  O  O438  1  0.02224314  0.41696367  0.68443780  1
  O  O439  1  0.02110962  0.41635748  0.93128627  1
  O  O440  1  0.02080641  0.75000707  0.18244021  1
  O  O441  1  0.02274610  0.74933883  0.43503147  1
  O  O442  1  0.02186128  0.74845676  0.68327098  1
  O  O443  1  0.02158812  0.74991736  0.93167221  1
  O  O444  1  0.52248246  0.08521864  0.18348985  1
  O  O445  1  0.52340187  0.08284161  0.43528075  1
  O  O446  1  0.52253553  0.08354829  0.68465303  1
  O  O447  1  0.52184824  0.08298997  0.93169034  1
  O  O448  1  0.52224101  0.41839581  0.18311155  1
  O  O449  1  0.52242390  0.41796978  0.43268489  1
  O  O450  1  0.52241117  0.41829772  0.68234829  1
  O  O451  1  0.52251674  0.41864089  0.93242754  1
  O  O452  1  0.52228897  0.74796697  0.18284183  1
  O  O453  1  0.52234364  0.74821137  0.43288479  1
  O  O454  1  0.52213314  0.75161445  0.68277524  1
  O  O455  1  0.52213320  0.74785082  0.93259345  1
  O  O456  1  0.47903987  0.25086663  0.06832280  1
  O  O457  1  0.47830875  0.24869790  0.31720116  1
  O  O458  1  0.47805919  0.24902033  0.56673453  1
  O  O459  1  0.47830303  0.24886883  0.81632545  1
  O  O460  1  0.47719962  0.58333888  0.06467126  1
  O  O461  1  0.47768273  0.58319058  0.31501672  1
  O  O462  1  0.47790514  0.58376008  0.56507981  1
  O  O463  1  0.47818540  0.58180696  0.81580825  1
  O  O464  1  0.47888221  0.91599877  0.06854338  1
  O  O465  1  0.47907153  0.91648347  0.31856792  1
  O  O466  1  0.47779262  0.91818927  0.56685545  1
  O  O467  1  0.47654971  0.91646419  0.81573225  1
  O  O468  1  0.97774703  0.24834589  0.06707751  1
  O  O469  1  0.97831312  0.25161305  0.31714535  1
  O  O470  1  0.97723731  0.24975695  0.56555317  1
  O  O471  1  0.97677690  0.24938566  0.81564051  1
  O  O472  1  0.97792297  0.58287175  0.06884555  1
  O  O473  1  0.97785725  0.58149959  0.31753173  1
  O  O474  1  0.97783496  0.58412845  0.56695098  1
  O  O475  1  0.97687112  0.58279650  0.81521564  1
  O  O476  1  0.97824838  0.91730868  0.06827877  1
  O  O477  1  0.97715038  0.91854425  0.31780747  1
  O  O478  1  0.97757468  0.91581753  0.56765248  1
  O  O479  1  0.97729611  0.91796980  0.81695558  1
  O  O480  1  0.07317263  0.31215386  0.07394551  1
  O  O481  1  0.07373023  0.31426959  0.32410864  1
  O  O482  1  0.07217628  0.31355446  0.57424273  1
  O  O483  1  0.07098884  0.31397854  0.82303682  1
  O  O484  1  0.07347296  0.64605794  0.07597387  1
  O  O485  1  0.07309639  0.64578289  0.32532608  1
  O  O486  1  0.07282887  0.64749686  0.57467819  1
  O  O487  1  0.07163217  0.64717987  0.82330905  1
  O  O488  1  0.07400827  0.98032426  0.07538035  1
  O  O489  1  0.07214993  0.98161583  0.32561431  1
  O  O490  1  0.07336000  0.97922674  0.57514439  1
  O  O491  1  0.07171562  0.98232038  0.82349153  1
  O  O492  1  0.57461412  0.31380886  0.07574492  1
  O  O493  1  0.57341750  0.31256212  0.32582032  1
  O  O494  1  0.57342304  0.31236295  0.57493558  1
  O  O495  1  0.57359437  0.31267658  0.82395022  1
  O  O496  1  0.57217302  0.64675972  0.07249801  1
  O  O497  1  0.57268694  0.64677599  0.32298980  1
  O  O498  1  0.57265387  0.64768055  0.57297650  1
  O  O499  1  0.57345813  0.64542473  0.82408967  1
  O  O500  1  0.57410187  0.97995714  0.07499081  1
  O  O501  1  0.57476918  0.97974511  0.32602176  1
  O  O502  1  0.57271979  0.98159570  0.57550149  1
  O  O503  1  0.57187400  0.97962499  0.82327702  1
  O  O504  1  0.42737314  0.02090220  0.17649923  1
  O  O505  1  0.42839001  0.01953743  0.42666805  1
  O  O506  1  0.42736952  0.02013102  0.67652821  1
  O  O507  1  0.42643260  0.01966174  0.92450668  1
  O  O508  1  0.42693595  0.35485220  0.17494703  1
  O  O509  1  0.42699520  0.35451060  0.42422826  1
  O  O510  1  0.42684531  0.35510743  0.67371524  1
  O  O511  1  0.42777169  0.35406576  0.92463315  1
  O  O512  1  0.42679244  0.68498742  0.17552426  1
  O  O513  1  0.42715687  0.68490603  0.42578731  1
  O  O514  1  0.42691304  0.68767803  0.67503481  1
  O  O515  1  0.42686468  0.68502238  0.92492068  1
  O  O516  1  0.92673571  0.01878768  0.17639330  1
  O  O517  1  0.92601626  0.02159032  0.42647588  1
  O  O518  1  0.92835818  0.01964503  0.67690082  1
  O  O519  1  0.92673616  0.02172526  0.92476548  1
  O  O520  1  0.92780109  0.35208212  0.17680230  1
  O  O521  1  0.92738183  0.35187641  0.42595381  1
  O  O522  1  0.92795056  0.35227970  0.67693161  1
  O  O523  1  0.92566266  0.35324206  0.92426052  1
  O  O524  1  0.92560316  0.68617340  0.17544119  1
  O  O525  1  0.92754830  0.68576946  0.42694034  1
  O  O526  1  0.92661319  0.68536090  0.67542314  1
  O  O527  1  0.92611182  0.68634522  0.92460996  1
  O  O528  1  0.17743248  0.01856623  0.20038601  1
  O  O529  1  0.17761558  0.01979848  0.44843759  1
  O  O530  1  0.17631619  0.01983152  0.70002248  1
  O  O531  1  0.17661719  0.01840627  0.94877682  1
  O  O532  1  0.17706040  0.35370906  0.19946472  1
  O  O533  1  0.17596435  0.35372922  0.44972178  1
  O  O534  1  0.17596775  0.35307440  0.69940766  1
  O  O535  1  0.17652792  0.35166002  0.94916314  1
  O  O536  1  0.17543805  0.68770620  0.20097341  1
  O  O537  1  0.17689330  0.68826736  0.44944145  1
  O  O538  1  0.17652526  0.68627288  0.69937016  1
  O  O539  1  0.17626200  0.68765588  0.94979053  1
  O  O540  1  0.67731067  0.02061590  0.20037328  1
  O  O541  1  0.67684407  0.01988390  0.45091854  1
  O  O542  1  0.67741564  0.01831922  0.69930521  1
  O  O543  1  0.67659363  0.01806449  0.94962051  1
  O  O544  1  0.67698990  0.35424015  0.20011356  1
  O  O545  1  0.67753008  0.35310903  0.44789986  1
  O  O546  1  0.67645806  0.35198200  0.69843366  1
  O  O547  1  0.67707292  0.35133909  0.94963015  1
  O  O548  1  0.67675467  0.68468079  0.19858200  1
  O  O549  1  0.67683490  0.68826265  0.45000569  1
  O  O550  1  0.67646573  0.68798945  0.69934998  1
  O  O551  1  0.67758965  0.68536140  0.94748877  1
  O  O552  1  0.32441804  0.31322415  0.04983304  1
  O  O553  1  0.32365794  0.31254933  0.29987124  1
  O  O554  1  0.32408700  0.31325540  0.54832301  1
  O  O555  1  0.32315608  0.31506893  0.80074273  1
  O  O556  1  0.32245921  0.64607274  0.05011719  1
  O  O557  1  0.32378677  0.64698597  0.29849812  1
  O  O558  1  0.32296310  0.64932184  0.55091991  1
  O  O559  1  0.32408393  0.64733146  0.80029140  1
  O  O560  1  0.32368341  0.98129071  0.05103164  1
  O  O561  1  0.32342110  0.98031408  0.30231950  1
  O  O562  1  0.32391748  0.98065345  0.54999061  1
  O  O563  1  0.32181943  0.98048158  0.80198020  1
  O  O564  1  0.82370961  0.31174138  0.05037137  1
  O  O565  1  0.82305655  0.31503819  0.30057229  1
  O  O566  1  0.82300504  0.31553159  0.55145770  1
  O  O567  1  0.82237473  0.31474933  0.80132595  1
  O  O568  1  0.82188117  0.64656393  0.05114310  1
  O  O569  1  0.82339715  0.64524470  0.29972997  1
  O  O570  1  0.82344002  0.64677786  0.54885914  1
  O  O571  1  0.82221834  0.64800576  0.80087046  1
  O  O572  1  0.82413411  0.97911938  0.04933045  1
  O  O573  1  0.82383571  0.97863171  0.30093862  1
  O  O574  1  0.82258231  0.98033199  0.55232030  1
  O  O575  1  0.82176570  0.98020762  0.80159188  1
  O  O576  1  0.42716356  0.14824186  0.17674069  1
  O  O577  1  0.42860292  0.14695955  0.42752994  1
  O  O578  1  0.42764493  0.14736061  0.67623698  1
  O  O579  1  0.42647791  0.14653696  0.92412326  1
  O  O580  1  0.42713697  0.48193864  0.17540738  1
  O  O581  1  0.42731201  0.48164525  0.42553839  1
  O  O582  1  0.42757799  0.48227345  0.67487349  1
  O  O583  1  0.42681164  0.48112640  0.92529870  1
  O  O584  1  0.42726137  0.81214680  0.17500758  1
  O  O585  1  0.42720304  0.81203463  0.42433192  1
  O  O586  1  0.42697846  0.81478295  0.67542285  1
  O  O587  1  0.42694702  0.81212810  0.92553120  1
  O  O588  1  0.92663992  0.14589931  0.17641928  1
  O  O589  1  0.92700591  0.14865189  0.42612497  1
  O  O590  1  0.92664000  0.14706337  0.67644721  1
  O  O591  1  0.92685086  0.14870864  0.92584087  1
  O  O592  1  0.92814203  0.47967775  0.17721064  1
  O  O593  1  0.92715475  0.47872314  0.42540732  1
  O  O594  1  0.92677315  0.47972709  0.67565307  1
  O  O595  1  0.92569848  0.47995757  0.92469483  1
  O  O596  1  0.92519860  0.81313856  0.17545823  1
  O  O597  1  0.92814021  0.81347174  0.42778607  1
  O  O598  1  0.92664801  0.81234186  0.67507692  1
  O  O599  1  0.92632262  0.81341525  0.92393487  1
  O  O600  1  0.07275058  0.18496214  0.07420292  1
  O  O601  1  0.07336238  0.18743290  0.32503579  1
  O  O602  1  0.07218233  0.18621315  0.57358142  1
  O  O603  1  0.07258556  0.18677003  0.82294008  1
  O  O604  1  0.07334432  0.51916388  0.07481310  1
  O  O605  1  0.07294063  0.51852143  0.32501315  1
  O  O606  1  0.07319931  0.52054057  0.57576322  1
  O  O607  1  0.07217288  0.51964925  0.82293401  1
  O  O608  1  0.07330987  0.85346046  0.07567620  1
  O  O609  1  0.07241342  0.85435724  0.32562991  1
  O  O610  1  0.07234710  0.85207344  0.57439037  1
  O  O611  1  0.07315441  0.85504922  0.82474235  1
  O  O612  1  0.57425401  0.18688732  0.07515026  1
  O  O613  1  0.57346816  0.18531999  0.32473475  1
  O  O614  1  0.57306806  0.18520695  0.57463857  1
  O  O615  1  0.57338362  0.18537485  0.82381921  1
  O  O616  1  0.57220090  0.51958800  0.07320609  1
  O  O617  1  0.57266324  0.51957441  0.32291310  1
  O  O618  1  0.57316519  0.52021948  0.57234593  1
  O  O619  1  0.57327806  0.51851241  0.82343824  1
  O  O620  1  0.57454469  0.85289711  0.07517398  1
  O  O621  1  0.57423505  0.85280226  0.32613388  1
  O  O622  1  0.57310247  0.85463266  0.57582893  1
  O  O623  1  0.57122084  0.85209132  0.82295859  1
  O  O624  1  0.32437313  0.18634945  0.04891363  1
  O  O625  1  0.32337100  0.18521249  0.30097202  1
  O  O626  1  0.32413406  0.18634409  0.55012008  1
  O  O627  1  0.32334624  0.18776358  0.80021895  1
  O  O628  1  0.32246813  0.51858259  0.05052127  1
  O  O629  1  0.32365556  0.52017452  0.29988021  1
  O  O630  1  0.32292791  0.52194084  0.55038649  1
  O  O631  1  0.32371174  0.52048517  0.79880246  1
  O  O632  1  0.32312354  0.85438351  0.05043846  1
  O  O633  1  0.32258677  0.85289922  0.30118307  1
  O  O634  1  0.32446665  0.85397668  0.54978472  1
  O  O635  1  0.32210670  0.85284747  0.80204525  1
  O  O636  1  0.82275333  0.18457738  0.05082158  1
  O  O637  1  0.82361808  0.18788896  0.30133897  1
  O  O638  1  0.82360947  0.18840939  0.55043443  1
  O  O639  1  0.82288128  0.18756121  0.79950371  1
  O  O640  1  0.82194956  0.51913793  0.05024621  1
  O  O641  1  0.82290252  0.51842857  0.30052748  1
  O  O642  1  0.82380674  0.51989305  0.54960092  1
  O  O643  1  0.82278919  0.52080152  0.80003734  1
  O  O644  1  0.82377533  0.85232348  0.04886141  1
  O  O645  1  0.82332411  0.85127492  0.30155908  1
  O  O646  1  0.82261450  0.85301342  0.55274306  1
  O  O647  1  0.82184701  0.85291069  0.80125770  1
  O  O648  1  0.17747796  0.14558384  0.19996025  1
  O  O649  1  0.17833536  0.14721883  0.44787264  1
  O  O650  1  0.17637595  0.14674693  0.70075149  1
  O  O651  1  0.17651245  0.14546492  0.95036127  1
  O  O652  1  0.17686788  0.48104365  0.19860920  1
  O  O653  1  0.17600998  0.48090240  0.45017317  1
  O  O654  1  0.17565964  0.48001401  0.70056391  1
  O  O655  1  0.17611161  0.47886455  0.94896644  1
  O  O656  1  0.17572899  0.81462690  0.20042092  1
  O  O657  1  0.17697896  0.81541836  0.44973476  1
  O  O658  1  0.17674807  0.81338306  0.69951340  1
  O  O659  1  0.17625686  0.81498668  0.94916795  1
  O  O660  1  0.67763226  0.14801777  0.19945164  1
  O  O661  1  0.67682014  0.14675861  0.45201555  1
  O  O662  1  0.67724400  0.14546692  0.70058619  1
  O  O663  1  0.67631968  0.14510691  0.94925097  1
  O  O664  1  0.67710071  0.48114309  0.19833988  1
  O  O665  1  0.67805922  0.48053571  0.44803623  1
  O  O666  1  0.67668597  0.47910527  0.69949027  1
  O  O667  1  0.67645301  0.47852080  0.94932286  1
  O  O668  1  0.67691077  0.81180042  0.19904814  1
  O  O669  1  0.67755684  0.81547138  0.44876058  1
  O  O670  1  0.67689278  0.81498380  0.69965677  1
  O  O671  1  0.67697702  0.81274205  0.94847375  1
