# generated using pymatgen
data_Na2MnFe(PO4)2
_symmetry_space_group_name_H-M   'P 1'
_cell_length_a   22.34538665
_cell_length_b   20.09837803
_cell_length_c   19.44659024
_cell_angle_alpha   89.96227192
_cell_angle_beta   89.98881273
_cell_angle_gamma   89.97403870
_symmetry_Int_Tables_number   1
_chemical_formula_structural   Na2MnFe(PO4)2
_chemical_formula_sum   'Na96 Mn48 Fe48 P96 O384'
_cell_volume   8733.57794901
_cell_formula_units_Z   48
loop_
 _symmetry_equiv_pos_site_id
 _symmetry_equiv_pos_as_xyz
  1  'x, y, z'
loop_
 _atom_site_type_symbol
 _atom_site_label
 _atom_site_symmetry_multiplicity
 _atom_site_fract_x
 _atom_site_fract_y
 _atom_site_fract_z
 _atom_site_occupancy
  Na  Na0  1  0.14074895  0.24984388  0.24221289  1
  Na  Na1  1  0.14065894  0.24965421  0.49484444  1
  Na  Na2  1  0.14074232  0.25095899  0.74550454  1
  Na  Na3  1  0.14081549  0.25064207  0.99237888  1
  Na  Na4  1  0.14074270  0.58288761  0.24271292  1
  Na  Na5  1  0.14030684  0.58325894  0.49414477  1
  Na  Na6  1  0.14055933  0.58394773  0.74470130  1
  Na  Na7  1  0.14137063  0.58361409  0.99367669  1
  Na  Na8  1  0.14081743  0.91565576  0.24296194  1
  Na  Na9  1  0.14039149  0.91674379  0.49488601  1
  Na  Na10  1  0.14039229  0.91776090  0.74443598  1
  Na  Na11  1  0.14093344  0.91760238  0.99242749  1
  Na  Na12  1  0.64040405  0.24850005  0.24400039  1
  Na  Na13  1  0.63975010  0.24918973  0.49311827  1
  Na  Na14  1  0.64002317  0.24942418  0.74366361  1
  Na  Na15  1  0.64043803  0.25068215  0.99374304  1
  Na  Na16  1  0.63957973  0.58422345  0.24461564  1
  Na  Na17  1  0.63935404  0.58349849  0.49310224  1
  Na  Na18  1  0.64027125  0.58281412  0.74324395  1
  Na  Na19  1  0.64043227  0.58414408  0.99363326  1
  Na  Na20  1  0.63990240  0.91837525  0.24281957  1
  Na  Na21  1  0.64034969  0.91551894  0.49248137  1
  Na  Na22  1  0.63984268  0.91538578  0.74291272  1
  Na  Na23  1  0.64006298  0.91803318  0.99335489  1
  Na  Na24  1  0.36022081  0.08412909  0.00656596  1
  Na  Na25  1  0.36040788  0.08217021  0.25645921  1
  Na  Na26  1  0.36009103  0.08335136  0.50594550  1
  Na  Na27  1  0.35956626  0.08342327  0.75758588  1
  Na  Na28  1  0.35963574  0.41744144  0.00682762  1
  Na  Na29  1  0.35995166  0.41701061  0.25606649  1
  Na  Na30  1  0.36013030  0.41571707  0.50779633  1
  Na  Na31  1  0.35930252  0.41677209  0.75734548  1
  Na  Na32  1  0.35930887  0.75041142  0.00674775  1
  Na  Na33  1  0.36040752  0.74902642  0.25728094  1
  Na  Na34  1  0.36010813  0.74946621  0.50613968  1
  Na  Na35  1  0.35923719  0.74994279  0.75677442  1
  Na  Na36  1  0.85986317  0.08338996  0.00638170  1
  Na  Na37  1  0.86013348  0.08294793  0.25501633  1
  Na  Na38  1  0.85906568  0.08277796  0.50548438  1
  Na  Na39  1  0.85907504  0.08182737  0.75690621  1
  Na  Na40  1  0.85913276  0.41629694  0.00592979  1
  Na  Na41  1  0.85950551  0.41691852  0.25639408  1
  Na  Na42  1  0.85943403  0.41755346  0.50677749  1
  Na  Na43  1  0.85873436  0.41611519  0.75615884  1
  Na  Na44  1  0.85928843  0.75094689  0.00414695  1
  Na  Na45  1  0.85943562  0.75086364  0.25617229  1
  Na  Na46  1  0.85919395  0.74972051  0.50612885  1
  Na  Na47  1  0.85902480  0.74886179  0.75609801  1
  Na  Na48  1  0.10997769  0.08312853  0.11726440  1
  Na  Na49  1  0.11003408  0.08359118  0.36886095  1
  Na  Na50  1  0.10998129  0.08298035  0.62051646  1
  Na  Na51  1  0.11031001  0.08290745  0.86861445  1
  Na  Na52  1  0.11022208  0.41591776  0.11728812  1
  Na  Na53  1  0.10958037  0.41820744  0.36900801  1
  Na  Na54  1  0.10974308  0.41733024  0.61983073  1
  Na  Na55  1  0.11039737  0.41672668  0.86918312  1
  Na  Na56  1  0.11006494  0.74980041  0.11870804  1
  Na  Na57  1  0.10992481  0.75098618  0.36820113  1
  Na  Na58  1  0.10949860  0.74960805  0.62040417  1
  Na  Na59  1  0.11008541  0.75084171  0.86763681  1
  Na  Na60  1  0.61042925  0.08468838  0.11878214  1
  Na  Na61  1  0.60987069  0.08309156  0.36721365  1
  Na  Na62  1  0.60895448  0.08216576  0.61783946  1
  Na  Na63  1  0.60966536  0.08366651  0.86883941  1
  Na  Na64  1  0.60953406  0.41777784  0.11937030  1
  Na  Na65  1  0.60897226  0.41661364  0.36993274  1
  Na  Na66  1  0.60872562  0.41491419  0.61805053  1
  Na  Na67  1  0.60975945  0.41632109  0.86849498  1
  Na  Na68  1  0.60934948  0.75144539  0.11930948  1
  Na  Na69  1  0.60900540  0.74967165  0.36886421  1
  Na  Na70  1  0.60945409  0.74854302  0.61714978  1
  Na  Na71  1  0.60981132  0.75048140  0.86721176  1
  Na  Na72  1  0.39046283  0.25139278  0.13127420  1
  Na  Na73  1  0.39083294  0.25019199  0.38144257  1
  Na  Na74  1  0.39028609  0.24829630  0.63200367  1
  Na  Na75  1  0.39007324  0.25002687  0.88229822  1
  Na  Na76  1  0.39040101  0.58443752  0.13279389  1
  Na  Na77  1  0.39070163  0.58313044  0.38166638  1
  Na  Na78  1  0.39006675  0.58167022  0.63167643  1
  Na  Na79  1  0.38980608  0.58292937  0.88275199  1
  Na  Na80  1  0.39076544  0.91799718  0.13233437  1
  Na  Na81  1  0.39061279  0.91611420  0.38092642  1
  Na  Na82  1  0.39061559  0.91585831  0.63094399  1
  Na  Na83  1  0.39013510  0.91747287  0.88189981  1
  Na  Na84  1  0.89056449  0.24854225  0.13061703  1
  Na  Na85  1  0.89051114  0.25069705  0.38104471  1
  Na  Na86  1  0.89000804  0.24938348  0.63123150  1
  Na  Na87  1  0.89031575  0.24835862  0.88241977  1
  Na  Na88  1  0.89010135  0.58335340  0.13034375  1
  Na  Na89  1  0.89031086  0.58481767  0.38108638  1
  Na  Na90  1  0.88984347  0.58408138  0.63149187  1
  Na  Na91  1  0.88947329  0.58343771  0.88105916  1
  Na  Na92  1  0.89032371  0.91710701  0.13049660  1
  Na  Na93  1  0.89030207  0.91782756  0.37994802  1
  Na  Na94  1  0.89007943  0.91534398  0.63175767  1
  Na  Na95  1  0.89009731  0.91676356  0.88078022  1
  Mn  Mn96  1  0.74974281  0.83367619  0.37457240  1
  Mn  Mn97  1  0.74916219  0.83476990  0.12506161  1
  Mn  Mn98  1  0.75002274  0.66762722  0.12391342  1
  Mn  Mn99  1  0.25115389  0.00110539  0.62528314  1
  Mn  Mn100  1  0.74924467  0.50008716  0.62505313  1
  Mn  Mn101  1  0.25048787  0.16600005  0.37420541  1
  Mn  Mn102  1  0.00004938  0.83400714  0.24920480  1
  Mn  Mn103  1  0.24991241  0.83365319  0.62599166  1
  Mn  Mn104  1  0.00021723  0.00001549  0.50049461  1
  Mn  Mn105  1  0.24948310  -0.00135612  0.37565440  1
  Mn  Mn106  1  0.74948053  0.50093591  0.37610855  1
  Mn  Mn107  1  0.25058568  0.66656738  0.37509824  1
  Mn  Mn108  1  0.50039054  0.33382194  0.25099464  1
  Mn  Mn109  1  0.49946044  0.66583780  0.74934415  1
  Mn  Mn110  1  0.00049280  0.33450466  0.50044204  1
  Mn  Mn111  1  0.74906429  0.16633788  0.62465354  1
  Mn  Mn112  1  0.75020699  0.50059703  0.12523752  1
  Mn  Mn113  1  0.49909222  0.83350339  0.74933129  1
  Mn  Mn114  1  -0.00041796  0.50106381  0.24892330  1
  Mn  Mn115  1  0.24987680  0.33317450  0.37518478  1
  Mn  Mn116  1  0.50032965  0.16725990  -0.00001078  1
  Mn  Mn117  1  0.00014037  0.16565290  0.75100542  1
  Mn  Mn118  1  0.49990693  0.83479479  -0.00019359  1
  Mn  Mn119  1  0.74940237  0.33246744  0.12553887  1
  Mn  Mn120  1  0.00072431  0.49940366  0.00012643  1
  Mn  Mn121  1  0.25007464  0.49941435  0.37468997  1
  Mn  Mn122  1  0.50013849  0.66743349  0.00100832  1
  Mn  Mn123  1  0.49978197  0.16612625  0.75032083  1
  Mn  Mn124  1  0.00109714  0.16625429  0.24964747  1
  Mn  Mn125  1  0.74937509  -0.00039829  0.87440956  1
  Mn  Mn126  1  0.74948182  0.33254988  0.37513695  1
  Mn  Mn127  1  0.24943579  0.66624382  0.62609754  1
  Mn  Mn128  1  -0.00038110  0.66672933  0.49976350  1
  Mn  Mn129  1  -0.00029897  0.16662602  0.50020482  1
  Mn  Mn130  1  0.49991048  0.49843724  0.75044187  1
  Mn  Mn131  1  0.00004675  0.66677845  -0.00060824  1
  Mn  Mn132  1  0.00026546  0.33370064  0.25004285  1
  Mn  Mn133  1  -0.00035900  0.33301432  0.75014538  1
  Mn  Mn134  1  0.25077602  0.16639742  0.12436280  1
  Mn  Mn135  1  0.50001972  -0.00053723  0.49896169  1
  Mn  Mn136  1  0.74915038  -0.00133065  0.62496295  1
  Mn  Mn137  1  0.75013530  0.33272595  0.87534102  1
  Mn  Mn138  1  0.50081603  0.49989669  0.00073015  1
  Mn  Mn139  1  0.25059881  0.83302227  0.12430790  1
  Mn  Mn140  1  -0.00115298  0.50023557  0.75031661  1
  Mn  Mn141  1  0.00008346  0.83353024  0.50007618  1
  Mn  Mn142  1  0.25009307  0.33351576  0.62628294  1
  Mn  Mn143  1  -0.00012323  0.83378027  -0.00048264  1
  Fe  Fe144  1  0.75020346  0.00092623  0.12403115  1
  Fe  Fe145  1  0.74974076  0.83219235  0.62395243  1
  Fe  Fe146  1  0.00054163  -0.00044111  -0.00038914  1
  Fe  Fe147  1  0.50023380  0.00072799  0.25030839  1
  Fe  Fe148  1  0.49957190  0.16576091  0.49994605  1
  Fe  Fe149  1  0.49954190  0.33216023  0.49953620  1
  Fe  Fe150  1  0.50018357  0.00085667  0.00093638  1
  Fe  Fe151  1  0.25049798  0.16752548  0.87572961  1
  Fe  Fe152  1  0.74956535  0.66645529  0.62526672  1
  Fe  Fe153  1  0.75014688  0.00009695  0.37434331  1
  Fe  Fe154  1  0.75054863  0.16628231  0.12490781  1
  Fe  Fe155  1  -0.00009833  0.50112221  0.49986169  1
  Fe  Fe156  1  0.24970070  0.50022094  0.62631332  1
  Fe  Fe157  1  0.74981647  0.33263999  0.62536277  1
  Fe  Fe158  1  0.24986215  0.16723443  0.62601588  1
  Fe  Fe159  1  0.74966338  0.66723490  0.37509095  1
  Fe  Fe160  1  0.25021246  0.66676499  0.12475247  1
  Fe  Fe161  1  0.75045426  0.16616602  0.37453100  1
  Fe  Fe162  1  0.25025838  0.66663964  0.87572330  1
  Fe  Fe163  1  0.50007298  0.83373068  0.25037436  1
  Fe  Fe164  1  0.25023309  0.83386236  0.87599509  1
  Fe  Fe165  1  -0.00078495  -0.00023421  0.75046576  1
  Fe  Fe166  1  0.25028217  0.83252698  0.37462296  1
  Fe  Fe167  1  0.25049657  0.33357268  0.12387659  1
  Fe  Fe168  1  0.49971144  0.50016981  0.25100093  1
  Fe  Fe169  1  0.49918436  0.49941398  0.50028056  1
  Fe  Fe170  1  0.00038172  0.16569007  0.00016531  1
  Fe  Fe171  1  0.25041741  -0.00018435  0.12417079  1
  Fe  Fe172  1  0.00062737  0.00026837  0.24951802  1
  Fe  Fe173  1  0.74951688  0.83296733  0.87379985  1
  Fe  Fe174  1  0.49953006  0.33239341  0.74940483  1
  Fe  Fe175  1  0.50033702  0.66706657  0.25082551  1
  Fe  Fe176  1  0.25061916  0.49993662  0.12439957  1
  Fe  Fe177  1  0.25034739  0.00087143  0.87487637  1
  Fe  Fe178  1  0.50014948  0.83292243  0.49930974  1
  Fe  Fe179  1  0.25031262  0.33441278  0.87485760  1
  Fe  Fe180  1  0.74935323  0.49968416  0.87442688  1
  Fe  Fe181  1  -0.00061237  0.33263214  -0.00038761  1
  Fe  Fe182  1  0.50045305  0.16735920  0.24999068  1
  Fe  Fe183  1  0.49944735  0.66604838  0.49938741  1
  Fe  Fe184  1  -0.00006365  0.83336704  0.75036122  1
  Fe  Fe185  1  0.00028848  0.66647621  0.74975154  1
  Fe  Fe186  1  0.50010681  0.33372695  0.00068624  1
  Fe  Fe187  1  0.00012755  0.66730086  0.24981340  1
  Fe  Fe188  1  0.25035048  0.50066593  0.87613367  1
  Fe  Fe189  1  0.74918455  0.66685543  0.87427807  1
  Fe  Fe190  1  0.74981702  0.16623508  0.87483901  1
  Fe  Fe191  1  0.49998136  -0.00044841  0.74941492  1
  P  P192  1  0.04190380  0.24961584  0.10088917  1
  P  P193  1  0.04357143  0.25044997  0.35298370  1
  P  P194  1  0.04287625  0.24980940  0.60360348  1
  P  P195  1  0.04235661  0.24957307  0.85453576  1
  P  P196  1  0.04320395  0.58383063  0.10319865  1
  P  P197  1  0.04243018  0.58494604  0.35224240  1
  P  P198  1  0.04197919  0.58289018  0.60294365  1
  P  P199  1  0.04221877  0.58430388  0.85234636  1
  P  P200  1  0.04270407  0.91784267  0.10220623  1
  P  P201  1  0.04294249  0.91816679  0.35191910  1
  P  P202  1  0.04256335  0.91627781  0.60459432  1
  P  P203  1  0.04144374  0.91718997  0.85188029  1
  P  P204  1  0.54241994  0.25159445  0.10302205  1
  P  P205  1  0.54223891  0.24870293  0.35343816  1
  P  P206  1  0.54073077  0.24900112  0.60157779  1
  P  P207  1  0.54192840  0.25138905  0.85263599  1
  P  P208  1  0.54281703  0.58393550  0.10473231  1
  P  P209  1  0.54069679  0.58315070  0.35291845  1
  P  P210  1  0.54080397  0.58244965  0.60124586  1
  P  P211  1  0.54270533  0.58293969  0.85309377  1
  P  P212  1  0.54199300  0.91869052  0.10358165  1
  P  P213  1  0.54151164  0.91642552  0.35158765  1
  P  P214  1  0.54210002  0.91509411  0.60175702  1
  P  P215  1  0.54202079  0.91817998  0.85227060  1
  P  P216  1  0.45925389  0.08428405  0.14835911  1
  P  P217  1  0.45808742  0.08446186  0.39645777  1
  P  P218  1  0.45760412  0.08172496  0.64732286  1
  P  P219  1  0.45820040  0.08205366  0.89763264  1
  P  P220  1  0.45824697  0.41802286  0.14818627  1
  P  P221  1  0.45832080  0.41671050  0.39863523  1
  P  P222  1  0.45751952  0.41444971  0.64688921  1
  P  P223  1  0.45792166  0.41510637  0.89791498  1
  P  P224  1  0.45880794  0.75094247  0.14910326  1
  P  P225  1  0.45885728  0.74990763  0.39745015  1
  P  P226  1  0.45693008  0.74926112  0.64561219  1
  P  P227  1  0.45711592  0.75043398  0.89716284  1
  P  P228  1  0.95869514  0.08194790  0.14635126  1
  P  P229  1  0.95752048  0.08317818  0.39630308  1
  P  P230  1  0.95700921  0.08188265  0.64816966  1
  P  P231  1  0.95882234  0.08226493  0.89834001  1
  P  P232  1  0.95712854  0.41594183  0.14604101  1
  P  P233  1  0.95765611  0.41894400  0.39762416  1
  P  P234  1  0.95658720  0.41716290  0.64657574  1
  P  P235  1  0.95748487  0.41555155  0.89772591  1
  P  P236  1  0.95742201  0.74915908  0.14717631  1
  P  P237  1  0.95720607  0.75060536  0.39620894  1
  P  P238  1  0.95832867  0.74984338  0.64882389  1
  P  P239  1  0.95775219  0.75047348  0.89535623  1
  P  P240  1  0.20820999  0.08149028  0.22666252  1
  P  P241  1  0.20744630  0.08363093  0.47870780  1
  P  P242  1  0.20868395  0.08523738  0.72899353  1
  P  P243  1  0.20934764  0.08382905  0.97673725  1
  P  P244  1  0.20889235  0.41627613  0.22558390  1
  P  P245  1  0.20731472  0.41668927  0.47900313  1
  P  P246  1  0.20790775  0.41843109  0.72921569  1
  P  P247  1  0.20931016  0.41720967  0.97739177  1
  P  P248  1  0.20838700  0.74877779  0.22729584  1
  P  P249  1  0.20779947  0.75091724  0.47758304  1
  P  P250  1  0.20747479  0.75036042  0.73000976  1
  P  P251  1  0.20875919  0.75003923  0.97696284  1
  P  P252  1  0.70910533  0.08335175  0.22691235  1
  P  P253  1  0.70817431  0.08294109  0.47587523  1
  P  P254  1  0.70642735  0.08283701  0.72808353  1
  P  P255  1  0.70793777  0.08459599  0.97780224  1
  P  P256  1  0.70697313  0.41672910  0.22856234  1
  P  P257  1  0.70705379  0.41617552  0.47901035  1
  P  P258  1  0.70740835  0.41514188  0.72768649  1
  P  P259  1  0.70743796  0.41771987  0.97731883  1
  P  P260  1  0.70711739  0.75037420  0.22826777  1
  P  P261  1  0.70763877  0.74887066  0.47785381  1
  P  P262  1  0.70789461  0.74966503  0.72655645  1
  P  P263  1  0.70790795  0.75085981  0.97578214  1
  P  P264  1  0.29235666  0.25142081  0.02144720  1
  P  P265  1  0.29305462  0.25030457  0.27099554  1
  P  P266  1  0.29238519  0.24877862  0.52334153  1
  P  P267  1  0.29159587  0.25028647  0.77385885  1
  P  P268  1  0.29180906  0.58374695  0.02312935  1
  P  P269  1  0.29283052  0.58291606  0.27110409  1
  P  P270  1  0.29204350  0.58198360  0.52340847  1
  P  P271  1  0.29154854  0.58302040  0.77403459  1
  P  P272  1  0.29245895  0.91808114  0.02151686  1
  P  P273  1  0.29242689  0.91483244  0.27220661  1
  P  P274  1  0.29295724  0.91617342  0.52195354  1
  P  P275  1  0.29155801  0.91679731  0.77412111  1
  P  P276  1  0.79203852  0.24844855  0.02222216  1
  P  P277  1  0.79238575  0.24803851  0.27211682  1
  P  P278  1  0.79194315  0.25052844  0.52228055  1
  P  P279  1  0.79225216  0.24842140  0.77243190  1
  P  P280  1  0.79241343  0.58364743  0.02035042  1
  P  P281  1  0.79212353  0.58504445  0.27294738  1
  P  P282  1  0.79163497  0.58506629  0.52258652  1
  P  P283  1  0.79057478  0.58320090  0.77290933  1
  P  P284  1  0.79186930  0.91802239  0.02163757  1
  P  P285  1  0.79192151  0.91861359  0.27162295  1
  P  P286  1  0.79195936  0.91531906  0.52186165  1
  P  P287  1  0.79165481  0.91449046  0.77154236  1
  O  O288  1  0.03762042  0.24963976  0.18096305  1
  O  O289  1  0.03843334  0.25051788  0.43294724  1
  O  O290  1  0.03763343  0.24951902  0.68360612  1
  O  O291  1  0.03695045  0.24964214  0.93446015  1
  O  O292  1  0.03801804  0.58446669  0.18315627  1
  O  O293  1  0.03702556  0.58402104  0.43223688  1
  O  O294  1  0.03660060  0.58359328  0.68288534  1
  O  O295  1  0.03757706  0.58384214  0.93233266  1
  O  O296  1  0.03768900  0.91795622  0.18216409  1
  O  O297  1  0.03786121  0.91766042  0.43191609  1
  O  O298  1  0.03698407  0.91608631  0.68449314  1
  O  O299  1  0.03645919  0.91753359  0.93188577  1
  O  O300  1  0.53732542  0.25079004  0.18297121  1
  O  O301  1  0.53655236  0.24824032  0.43327701  1
  O  O302  1  0.53576055  0.24961166  0.68157674  1
  O  O303  1  0.53690275  0.25165634  0.93260718  1
  O  O304  1  0.53748824  0.58389267  0.18466190  1
  O  O305  1  0.53512296  0.58344792  0.43280978  1
  O  O306  1  0.53601111  0.58223880  0.68126288  1
  O  O307  1  0.53804961  0.58327449  0.93310488  1
  O  O308  1  0.53650239  0.91806163  0.18343884  1
  O  O309  1  0.53682037  0.91613359  0.43157151  1
  O  O310  1  0.53682887  0.91581587  0.68166939  1
  O  O311  1  0.53710546  0.91841835  0.93227906  1
  O  O312  1  0.46404627  0.08375032  0.06833810  1
  O  O313  1  0.46359695  0.08482772  0.31659430  1
  O  O314  1  0.46276302  0.08242149  0.56736141  1
  O  O315  1  0.46317182  0.08172782  0.81767207  1
  O  O316  1  0.46366954  0.41727892  0.06830305  1
  O  O317  1  0.46339426  0.41722302  0.31869404  1
  O  O318  1  0.46277712  0.41493921  0.56701339  1
  O  O319  1  0.46276977  0.41483343  0.81790903  1
  O  O320  1  0.46345471  0.75098739  0.06908114  1
  O  O321  1  0.46446451  0.75027693  0.31756878  1
  O  O322  1  0.46228572  0.74908015  0.56568206  1
  O  O323  1  0.46178689  0.75016599  0.81715995  1
  O  O324  1  0.96427235  0.08212486  0.06647326  1
  O  O325  1  0.96303596  0.08275081  0.31634797  1
  O  O326  1  0.96196073  0.08243362  0.56818545  1
  O  O327  1  0.96326879  0.08221384  0.81832524  1
  O  O328  1  0.96241477  0.41530044  0.06607916  1
  O  O329  1  0.96270032  0.41862635  0.31759586  1
  O  O330  1  0.96189510  0.41799969  0.56662068  1
  O  O331  1  0.96221461  0.41583035  0.81770358  1
  O  O332  1  0.96257549  0.74968988  0.06718614  1
  O  O333  1  0.96230223  0.75021440  0.31625833  1
  O  O334  1  0.96321162  0.74979852  0.56878081  1
  O  O335  1  0.96332854  0.75053258  0.81546145  1
  O  O336  1  0.21415976  0.08291724  0.05669459  1
  O  O337  1  0.21306747  0.08158974  0.30664190  1
  O  O338  1  0.21280866  0.08435966  0.55868116  1
  O  O339  1  0.21431892  0.08518689  0.80888163  1
  O  O340  1  0.21455586  0.41649711  0.05726725  1
  O  O341  1  0.21326088  0.41646032  0.30565781  1
  O  O342  1  0.21225344  0.41702457  0.55899618  1
  O  O343  1  0.21342602  0.41846142  0.80908747  1
  O  O344  1  0.21398175  0.74942930  0.05693153  1
  O  O345  1  0.21343820  0.74958226  0.30724552  1
  O  O346  1  0.21271175  0.75059535  0.55759687  1
  O  O347  1  0.21295131  0.75039662  0.80987299  1
  O  O348  1  0.71367013  0.08425782  0.05768040  1
  O  O349  1  0.71424269  0.08315449  0.30682652  1
  O  O350  1  0.71282779  0.08265947  0.55589421  1
  O  O351  1  0.71164278  0.08323148  0.80802056  1
  O  O352  1  0.71266255  0.41744751  0.05727858  1
  O  O353  1  0.71206264  0.41668755  0.30854537  1
  O  O354  1  0.71234687  0.41561433  0.55896207  1
  O  O355  1  0.71285316  0.41580380  0.80765565  1
  O  O356  1  0.71267572  0.75097831  0.05577972  1
  O  O357  1  0.71231225  0.74999158  0.30821056  1
  O  O358  1  0.71314027  0.74901462  0.55773871  1
  O  O359  1  0.71286446  0.74985523  0.80649706  1
  O  O360  1  0.28795783  0.25095076  0.19099228  1
  O  O361  1  0.28736302  0.24905222  0.44333650  1
  O  O362  1  0.28649736  0.25007962  0.69390482  1
  O  O363  1  0.28684921  0.25131057  0.94158150  1
  O  O364  1  0.28782728  0.58324889  0.19120288  1
  O  O365  1  0.28730482  0.58226815  0.44340332  1
  O  O366  1  0.28629105  0.58287006  0.69408685  1
  O  O367  1  0.28682387  0.58348350  0.94320099  1
  O  O368  1  0.28756114  0.91540514  0.19223230  1
  O  O369  1  0.28764601  0.91547807  0.44200966  1
  O  O370  1  0.28682563  0.91727863  0.69414320  1
  O  O371  1  0.28696717  0.91793032  0.94165314  1
  O  O372  1  0.78708001  0.24813497  0.19213402  1
  O  O373  1  0.78692582  0.24985186  0.44230739  1
  O  O374  1  0.78677030  0.24913837  0.69251466  1
  O  O375  1  0.78676091  0.24841074  0.94226855  1
  O  O376  1  0.78719840  0.58466816  0.19293028  1
  O  O377  1  0.78650616  0.58530900  0.44266015  1
  O  O378  1  0.78559442  0.58371345  0.69292493  1
  O  O379  1  0.78677454  0.58313844  0.94046331  1
  O  O380  1  0.78675490  0.91892570  0.19166770  1
  O  O381  1  0.78667491  0.91633819  0.44190034  1
  O  O382  1  0.78640678  0.91422548  0.69161219  1
  O  O383  1  0.78667443  0.91728115  0.94172843  1
  O  O384  1  0.22828234  0.25113305  0.05768755  1
  O  O385  1  0.22863788  0.25003551  0.30617924  1
  O  O386  1  0.22810043  0.24889013  0.55901560  1
  O  O387  1  0.22755063  0.24979985  0.80997515  1
  O  O388  1  0.22775729  0.58429605  0.05931882  1
  O  O389  1  0.22854571  0.58329344  0.30668900  1
  O  O390  1  0.22764885  0.58162164  0.55881912  1
  O  O391  1  0.22748807  0.58284749  0.81027666  1
  O  O392  1  0.22831336  0.91790178  0.05763983  1
  O  O393  1  0.22808828  0.91429002  0.30782024  1
  O  O394  1  0.22871600  0.91731472  0.55747396  1
  O  O395  1  0.22739823  0.91621784  0.80989578  1
  O  O396  1  0.72784749  0.24810782  0.05812812  1
  O  O397  1  0.72810710  0.24787375  0.30786620  1
  O  O398  1  0.72757194  0.25114872  0.55783433  1
  O  O399  1  0.72802175  0.24818529  0.80836311  1
  O  O400  1  0.72825641  0.58378155  0.05632655  1
  O  O401  1  0.72772322  0.58528028  0.30837914  1
  O  O402  1  0.72732408  0.58498714  0.55823993  1
  O  O403  1  0.72649618  0.58247411  0.80893890  1
  O  O404  1  0.72760894  0.91872375  0.05742451  1
  O  O405  1  0.72770435  0.91845049  0.30745965  1
  O  O406  1  0.72763923  0.91450423  0.55753244  1
  O  O407  1  0.72739840  0.91483232  0.80733450  1
  O  O408  1  0.27264297  0.08167411  0.19136591  1
  O  O409  1  0.27173966  0.08273478  0.44318454  1
  O  O410  1  0.27274770  0.08573347  0.69260718  1
  O  O411  1  0.27350559  0.08451895  0.94094655  1
  O  O412  1  0.27323442  0.41568243  0.19026585  1
  O  O413  1  0.27178038  0.41633040  0.44386514  1
  O  O414  1  0.27198268  0.41843815  0.69288251  1
  O  O415  1  0.27324911  0.41811505  0.94091715  1
  O  O416  1  0.27267064  0.74839757  0.19159589  1
  O  O417  1  0.27222118  0.75121475  0.44218776  1
  O  O418  1  0.27159435  0.74976580  0.69403732  1
  O  O419  1  0.27289612  0.75066184  0.94102200  1
  O  O420  1  0.77308531  0.08334356  0.19030858  1
  O  O421  1  0.77248479  0.08300217  0.44025950  1
  O  O422  1  0.77076954  0.08256834  0.69286062  1
  O  O423  1  0.77194519  0.08453453  0.94126405  1
  O  O424  1  0.77136551  0.41624320  0.19341809  1
  O  O425  1  0.77129526  0.41644853  0.44347315  1
  O  O426  1  0.77157718  0.41522094  0.69178305  1
  O  O427  1  0.77167703  0.41804944  0.94153664  1
  O  O428  1  0.77138653  0.75100784  0.19276204  1
  O  O429  1  0.77173592  0.74873610  0.44159346  1
  O  O430  1  0.77206481  0.74952530  0.69033208  1
  O  O431  1  0.77207209  0.75094582  0.93993533  1
  O  O432  1  0.02283002  0.08138298  0.18258988  1
  O  O433  1  0.02181953  0.08341746  0.43177752  1
  O  O434  1  0.02146349  0.08124514  0.68339817  1
  O  O435  1  0.02311755  0.08213540  0.93383802  1
  O  O436  1  0.02154472  0.41681248  0.18117507  1
  O  O437  1  0.02200576  0.41928836  0.43310339  1
  O  O438  1  0.02093292  0.41706682  0.68188972  1
  O  O439  1  0.02197534  0.41489589  0.93272764  1
  O  O440  1  0.02179736  0.74904042  0.18261119  1
  O  O441  1  0.02156628  0.75040142  0.43149289  1
  O  O442  1  0.02252027  0.74993917  0.68461193  1
  O  O443  1  0.02193127  0.75056535  0.93118015  1
  O  O444  1  0.52337059  0.08471462  0.18428249  1
  O  O445  1  0.52217525  0.08447349  0.43271447  1
  O  O446  1  0.52189394  0.08159493  0.68299823  1
  O  O447  1  0.52242876  0.08226333  0.93338931  1
  O  O448  1  0.52234787  0.41858219  0.18430672  1
  O  O449  1  0.52233644  0.41672971  0.43471586  1
  O  O450  1  0.52173581  0.41415274  0.68292486  1
  O  O451  1  0.52230339  0.41501250  0.93336025  1
  O  O452  1  0.52300180  0.75112568  0.18473867  1
  O  O453  1  0.52267259  0.74933024  0.43432901  1
  O  O454  1  0.52117662  0.74963960  0.68127688  1
  O  O455  1  0.52164487  0.75076932  0.93192120  1
  O  O456  1  0.47817046  0.25183426  0.06724028  1
  O  O457  1  0.47821827  0.24877891  0.31702081  1
  O  O458  1  0.47663895  0.24828943  0.56559265  1
  O  O459  1  0.47763756  0.25115364  0.81694623  1
  O  O460  1  0.47857115  0.58359164  0.06900803  1
  O  O461  1  0.47691835  0.58281636  0.31605591  1
  O  O462  1  0.47657272  0.58278532  0.56559384  1
  O  O463  1  0.47814259  0.58244149  0.81841182  1
  O  O464  1  0.47786505  0.91886006  0.06737139  1
  O  O465  1  0.47736395  0.91635309  0.31579712  1
  O  O466  1  0.47791075  0.91497027  0.56589575  1
  O  O467  1  0.47764742  0.91835076  0.81673152  1
  O  O468  1  0.97752797  0.24956662  0.06566337  1
  O  O469  1  0.97909042  0.24997976  0.31802068  1
  O  O470  1  0.97848715  0.25038217  0.56846261  1
  O  O471  1  0.97812503  0.24946578  0.81885801  1
  O  O472  1  0.97881254  0.58319142  0.06807671  1
  O  O473  1  0.97811829  0.58562790  0.31649851  1
  O  O474  1  0.97772122  0.58236997  0.56714473  1
  O  O475  1  0.97773446  0.58496593  0.81730751  1
  O  O476  1  0.97829047  0.91805821  0.06686520  1
  O  O477  1  0.97857496  0.91852522  0.31641885  1
  O  O478  1  0.97833426  0.91644450  0.56880859  1
  O  O479  1  0.97726923  0.91705976  0.81590051  1
  O  O480  1  0.07255146  0.31326351  0.07245589  1
  O  O481  1  0.07419932  0.31415209  0.32470731  1
  O  O482  1  0.07420173  0.31327136  0.57588264  1
  O  O483  1  0.07354535  0.31290194  0.82604694  1
  O  O484  1  0.07419680  0.64705928  0.07442863  1
  O  O485  1  0.07319736  0.64866679  0.32419422  1
  O  O486  1  0.07310043  0.64639910  0.57478043  1
  O  O487  1  0.07308854  0.64776498  0.82394106  1
  O  O488  1  0.07380415  0.98082667  0.07297175  1
  O  O489  1  0.07378655  0.98164002  0.32361094  1
  O  O490  1  0.07390488  0.97963671  0.57635361  1
  O  O491  1  0.07235278  0.98070325  0.82348717  1
  O  O492  1  0.57305205  0.31536022  0.07496096  1
  O  O493  1  0.57341865  0.31256895  0.32615373  1
  O  O494  1  0.57107319  0.31273008  0.57268000  1
  O  O495  1  0.57284961  0.31444806  0.82342013  1
  O  O496  1  0.57373816  0.64749185  0.07620000  1
  O  O497  1  0.57136521  0.64696296  0.32441998  1
  O  O498  1  0.57176605  0.64601354  0.57311842  1
  O  O499  1  0.57332955  0.64641923  0.82438065  1
  O  O500  1  0.57279653  0.98225433  0.07505611  1
  O  O501  1  0.57172980  0.98057688  0.32333260  1
  O  O502  1  0.57350655  0.97839394  0.57349704  1
  O  O503  1  0.57300754  0.98134570  0.82327767  1
  O  O504  1  0.42876509  0.02055965  0.17717000  1
  O  O505  1  0.42704440  0.02058057  0.42398861  1
  O  O506  1  0.42709713  0.01789759  0.67548161  1
  O  O507  1  0.42733507  0.01899265  0.92693859  1
  O  O508  1  0.42723356  0.35449686  0.17639331  1
  O  O509  1  0.42803700  0.35246197  0.42647673  1
  O  O510  1  0.42662735  0.35101375  0.67557538  1
  O  O511  1  0.42702370  0.35193901  0.92701310  1
  O  O512  1  0.42855622  0.68699039  0.17752966  1
  O  O513  1  0.42730865  0.68645727  0.42526802  1
  O  O514  1  0.42591736  0.68583078  0.67426381  1
  O  O515  1  0.42635851  0.68699371  0.92579362  1
  O  O516  1  0.92741088  0.01879806  0.17505434  1
  O  O517  1  0.92630450  0.01998248  0.42487134  1
  O  O518  1  0.92607191  0.01839236  0.67645508  1
  O  O519  1  0.92757431  0.01891980  0.92659172  1
  O  O520  1  0.92635065  0.35257861  0.17493112  1
  O  O521  1  0.92681140  0.35512276  0.42533041  1
  O  O522  1  0.92575935  0.35339964  0.67443486  1
  O  O523  1  0.92646921  0.35214567  0.92612047  1
  O  O524  1  0.92677623  0.68559760  0.17550812  1
  O  O525  1  0.92579517  0.68759960  0.42500788  1
  O  O526  1  0.92773734  0.68593063  0.67683888  1
  O  O527  1  0.92649649  0.68713672  0.92365650  1
  O  O528  1  0.17782959  0.01790067  0.19799201  1
  O  O529  1  0.17605444  0.02008063  0.45114279  1
  O  O530  1  0.17789425  0.02140504  0.70115897  1
  O  O531  1  0.17890217  0.02021491  0.94767248  1
  O  O532  1  0.17755845  0.35297378  0.19743097  1
  O  O533  1  0.17637500  0.35313427  0.45077730  1
  O  O534  1  0.17668510  0.35478290  0.70153312  1
  O  O535  1  0.17904478  0.35343871  0.94833041  1
  O  O536  1  0.17763065  0.68520935  0.19899333  1
  O  O537  1  0.17705012  0.68712986  0.44975971  1
  O  O538  1  0.17599766  0.68717240  0.70152299  1
  O  O539  1  0.17815810  0.68642313  0.94837643  1
  O  O540  1  0.67809917  0.01993408  0.19824698  1
  O  O541  1  0.67746226  0.01926078  0.44763838  1
  O  O542  1  0.67542138  0.01930231  0.69998820  1
  O  O543  1  0.67650853  0.02119234  0.94983761  1
  O  O544  1  0.67573076  0.35330009  0.20061317  1
  O  O545  1  0.67570354  0.35315106  0.45041363  1
  O  O546  1  0.67709618  0.35123429  0.69950185  1
  O  O547  1  0.67664637  0.35384072  0.94978481  1
  O  O548  1  0.67619940  0.68711159  0.19964932  1
  O  O549  1  0.67660344  0.68554363  0.44924671  1
  O  O550  1  0.67692835  0.68597968  0.69837986  1
  O  O551  1  0.67751688  0.68693157  0.94752109  1
  O  O552  1  0.32315937  0.31484646  0.05012470  1
  O  O553  1  0.32417866  0.31335488  0.30006746  1
  O  O554  1  0.32346038  0.31229874  0.55128062  1
  O  O555  1  0.32157374  0.31463673  0.80180689  1
  O  O556  1  0.32325608  0.64703546  0.05137435  1
  O  O557  1  0.32426823  0.64593691  0.30001080  1
  O  O558  1  0.32268913  0.64583452  0.55119392  1
  O  O559  1  0.32195277  0.64701709  0.80220506  1
  O  O560  1  0.32310854  0.98157993  0.05037365  1
  O  O561  1  0.32340799  0.97829272  0.30044488  1
  O  O562  1  0.32451630  0.97958819  0.54969003  1
  O  O563  1  0.32175872  0.98088487  0.80231906  1
  O  O564  1  0.82266591  0.31241441  0.04985229  1
  O  O565  1  0.82326318  0.31182442  0.29989525  1
  O  O566  1  0.82268027  0.31404369  0.55080415  1
  O  O567  1  0.82362820  0.31171060  0.80057127  1
  O  O568  1  0.82350675  0.64733855  0.04818984  1
  O  O569  1  0.82278505  0.64863920  0.30114414  1
  O  O570  1  0.82267118  0.64817847  0.55156721  1
  O  O571  1  0.82087297  0.64705169  0.80146877  1
  O  O572  1  0.82273625  0.98158545  0.04984292  1
  O  O573  1  0.82284243  0.98177435  0.30058591  1
  O  O574  1  0.82286055  0.97876873  0.55031851  1
  O  O575  1  0.82270685  0.97822141  0.79916341  1
  O  O576  1  0.42810158  0.14797095  0.17599637  1
  O  O577  1  0.42688502  0.14747908  0.42564906  1
  O  O578  1  0.42638437  0.14494044  0.67596447  1
  O  O579  1  0.42731829  0.14602868  0.92511084  1
  O  O580  1  0.42722740  0.48155944  0.17625427  1
  O  O581  1  0.42686261  0.47986692  0.42713874  1
  O  O582  1  0.42654722  0.47799269  0.67539981  1
  O  O583  1  0.42720747  0.47903932  0.92571899  1
  O  O584  1  0.42761657  0.81447305  0.17697225  1
  O  O585  1  0.42835306  0.81377539  0.42588734  1
  O  O586  1  0.42550219  0.81252647  0.67401810  1
  O  O587  1  0.42613646  0.81395761  0.92523354  1
  O  O588  1  0.92790772  0.14579734  0.17431234  1
  O  O589  1  0.92647208  0.14682696  0.42421345  1
  O  O590  1  0.92630536  0.14556883  0.67635061  1
  O  O591  1  0.92857793  0.14619160  0.92700429  1
  O  O592  1  0.92564528  0.47940701  0.17374812  1
  O  O593  1  0.92684579  0.48249196  0.42588425  1
  O  O594  1  0.92513443  0.48020444  0.67532963  1
  O  O595  1  0.92693913  0.47948018  0.92545919  1
  O  O596  1  0.92634850  0.81288055  0.17481682  1
  O  O597  1  0.92648539  0.81440343  0.42424016  1
  O  O598  1  0.92737150  0.81344041  0.67676899  1
  O  O599  1  0.92650746  0.81380462  0.92389349  1
  O  O600  1  0.07249660  0.18572097  0.07280575  1
  O  O601  1  0.07490481  0.18721990  0.32462531  1
  O  O602  1  0.07357186  0.18616675  0.57546014  1
  O  O603  1  0.07355461  0.18612234  0.82630568  1
  O  O604  1  0.07436355  0.52020757  0.07539429  1
  O  O605  1  0.07353067  0.52151694  0.32387161  1
  O  O606  1  0.07277861  0.51932502  0.57460882  1
  O  O607  1  0.07282162  0.52044929  0.82450094  1
  O  O608  1  0.07336489  0.85384771  0.07445625  1
  O  O609  1  0.07376126  0.85447616  0.32384671  1
  O  O610  1  0.07368181  0.85292466  0.57586641  1
  O  O611  1  0.07215774  0.85333973  0.82402575  1
  O  O612  1  0.57352023  0.18825499  0.07450051  1
  O  O613  1  0.57333674  0.18567610  0.32408260  1
  O  O614  1  0.57202558  0.18535175  0.57394320  1
  O  O615  1  0.57277391  0.18742486  0.82504836  1
  O  O616  1  0.57428026  0.52078279  0.07619290  1
  O  O617  1  0.57210448  0.51965195  0.32506099  1
  O  O618  1  0.57146031  0.51857927  0.57332103  1
  O  O619  1  0.57376271  0.51946744  0.82500817  1
  O  O620  1  0.57323713  0.85528176  0.07512454  1
  O  O621  1  0.57287177  0.85317463  0.32332641  1
  O  O622  1  0.57266841  0.85135248  0.57345884  1
  O  O623  1  0.57268060  0.85423767  0.82444509  1
  O  O624  1  0.32389475  0.18793856  0.04932123  1
  O  O625  1  0.32393924  0.18646131  0.29871621  1
  O  O626  1  0.32296195  0.18513708  0.55177823  1
  O  O627  1  0.32342420  0.18731791  0.80221859  1
  O  O628  1  0.32212120  0.51976184  0.05178585  1
  O  O629  1  0.32359798  0.51925045  0.29953344  1
  O  O630  1  0.32283256  0.51856734  0.55207721  1
  O  O631  1  0.32300250  0.51978453  0.80229314  1
  O  O632  1  0.32389702  0.85462562  0.04951820  1
  O  O633  1  0.32303838  0.85113329  0.30069420  1
  O  O634  1  0.32369470  0.85276894  0.55071978  1
  O  O635  1  0.32290752  0.85336091  0.80193950  1
  O  O636  1  0.82330143  0.18526739  0.05081893  1
  O  O637  1  0.82336591  0.18468997  0.30069920  1
  O  O638  1  0.82290577  0.18687915  0.55042464  1
  O  O639  1  0.82285163  0.18459888  0.80063644  1
  O  O640  1  0.82374580  0.52053771  0.04934284  1
  O  O641  1  0.82300967  0.52132580  0.30097363  1
  O  O642  1  0.82253219  0.52121383  0.55028422  1
  O  O643  1  0.82188292  0.51957606  0.80059322  1
  O  O644  1  0.82286482  0.85451935  0.05005215  1
  O  O645  1  0.82298252  0.85480081  0.29920083  1
  O  O646  1  0.82287618  0.85164573  0.54986744  1
  O  O647  1  0.82241872  0.85117918  0.80047643  1
  O  O648  1  0.17706971  0.14511531  0.19880360  1
  O  O649  1  0.17661950  0.14690774  0.44968915  1
  O  O650  1  0.17736060  0.14846141  0.70038415  1
  O  O651  1  0.17807209  0.14749966  0.94925275  1
  O  O652  1  0.17886567  0.48039707  0.19706999  1
  O  O653  1  0.17632001  0.47993846  0.45007550  1
  O  O654  1  0.17700387  0.48177787  0.70029486  1
  O  O655  1  0.17753949  0.48060310  0.94977406  1
  O  O656  1  0.17720458  0.81213496  0.19879383  1
  O  O657  1  0.17706571  0.81440594  0.44898116  1
  O  O658  1  0.17656605  0.81390966  0.70162326  1
  O  O659  1  0.17762092  0.81383658  0.94940762  1
  O  O660  1  0.67815112  0.14701206  0.19858973  1
  O  O661  1  0.67761407  0.14681642  0.44787685  1
  O  O662  1  0.67521085  0.14607393  0.69947125  1
  O  O663  1  0.67701195  0.14812010  0.94931649  1
  O  O664  1  0.67633898  0.48045154  0.20049964  1
  O  O665  1  0.67608691  0.48002498  0.45139613  1
  O  O666  1  0.67577877  0.47841181  0.69968609  1
  O  O667  1  0.67643015  0.48105138  0.94880388  1
  O  O668  1  0.67591123  0.81399863  0.20042007  1
  O  O669  1  0.67649618  0.81245153  0.44971266  1
  O  O670  1  0.67711039  0.81318936  0.69772167  1
  O  O671  1  0.67687551  0.81444360  0.94772149  1
