# generated using pymatgen
data_Na2MnFe(PO4)2
_symmetry_space_group_name_H-M   'P 1'
_cell_length_a   22.34601963
_cell_length_b   20.09711221
_cell_length_c   19.44677485
_cell_angle_alpha   89.98488641
_cell_angle_beta   89.99833188
_cell_angle_gamma   90.04400016
_symmetry_Int_Tables_number   1
_chemical_formula_structural   Na2MnFe(PO4)2
_chemical_formula_sum   'Na96 Mn48 Fe48 P96 O384'
_cell_volume   8733.35825724
_cell_formula_units_Z   48
loop_
 _symmetry_equiv_pos_site_id
 _symmetry_equiv_pos_as_xyz
  1  'x, y, z'
loop_
 _atom_site_type_symbol
 _atom_site_label
 _atom_site_symmetry_multiplicity
 _atom_site_fract_x
 _atom_site_fract_y
 _atom_site_fract_z
 _atom_site_occupancy
  Na  Na0  1  0.13949556  0.24990072  0.24312668  1
  Na  Na1  1  0.13979085  0.25021653  0.49339547  1
  Na  Na2  1  0.14065089  0.24985233  0.74287600  1
  Na  Na3  1  0.14033915  0.25044243  0.99380579  1
  Na  Na4  1  0.14098163  0.58368381  0.24393557  1
  Na  Na5  1  0.14116260  0.58373795  0.49385121  1
  Na  Na6  1  0.14031702  0.58303838  0.74477417  1
  Na  Na7  1  0.14051329  0.58277340  0.99284842  1
  Na  Na8  1  0.14030397  0.91655812  0.24299769  1
  Na  Na9  1  0.14099617  0.91684893  0.49384406  1
  Na  Na10  1  0.14100147  0.91807269  0.74383842  1
  Na  Na11  1  0.14086476  0.91575855  0.99409293  1
  Na  Na12  1  0.63929104  0.24981245  0.24377231  1
  Na  Na13  1  0.63960121  0.24993204  0.49318574  1
  Na  Na14  1  0.63981042  0.24918280  0.74307071  1
  Na  Na15  1  0.63968260  0.25028579  0.99319879  1
  Na  Na16  1  0.64024265  0.58222582  0.24354697  1
  Na  Na17  1  0.64070845  0.58342998  0.49427523  1
  Na  Na18  1  0.64028737  0.58485871  0.74354210  1
  Na  Na19  1  0.63981998  0.58330713  0.99319867  1
  Na  Na20  1  0.64010608  0.91562599  0.24434634  1
  Na  Na21  1  0.64037763  0.91641462  0.49574070  1
  Na  Na22  1  0.64078332  0.91708571  0.74236188  1
  Na  Na23  1  0.64062028  0.91663242  0.99325959  1
  Na  Na24  1  0.35981915  0.08463335  0.00661180  1
  Na  Na25  1  0.35956449  0.08370830  0.25599277  1
  Na  Na26  1  0.35956571  0.08389450  0.50734682  1
  Na  Na27  1  0.36032507  0.08457866  0.75695807  1
  Na  Na28  1  0.35947353  0.41583320  0.00591769  1
  Na  Na29  1  0.35943636  0.41630304  0.25546904  1
  Na  Na30  1  0.35957266  0.41612693  0.50618187  1
  Na  Na31  1  0.35882711  0.41668660  0.75711187  1
  Na  Na32  1  0.36043627  0.74891722  0.00635802  1
  Na  Na33  1  0.35994752  0.74939783  0.25742310  1
  Na  Na34  1  0.35940646  0.74976195  0.50603764  1
  Na  Na35  1  0.35986313  0.74918139  0.75740249  1
  Na  Na36  1  0.85976540  0.08447712  0.00580379  1
  Na  Na37  1  0.85963976  0.08349282  0.25743911  1
  Na  Na38  1  0.85980541  0.08348495  0.50695274  1
  Na  Na39  1  0.86039256  0.08352665  0.75539555  1
  Na  Na40  1  0.85947237  0.41658371  0.00560004  1
  Na  Na41  1  0.85922313  0.41567529  0.25642055  1
  Na  Na42  1  0.85932715  0.41639697  0.50604975  1
  Na  Na43  1  0.85911032  0.41788363  0.75543185  1
  Na  Na44  1  0.86051439  0.74959614  0.00599943  1
  Na  Na45  1  0.86012913  0.74957267  0.25632822  1
  Na  Na46  1  0.85913393  0.75042464  0.50620711  1
  Na  Na47  1  0.85950206  0.75043988  0.75560762  1
  Na  Na48  1  0.10932015  0.08310870  0.11919962  1
  Na  Na49  1  0.10889203  0.08401655  0.36832029  1
  Na  Na50  1  0.11053641  0.08473137  0.61879366  1
  Na  Na51  1  0.11045939  0.08398133  0.86820205  1
  Na  Na52  1  0.10965262  0.41625831  0.11857384  1
  Na  Na53  1  0.10989572  0.41563589  0.36888748  1
  Na  Na54  1  0.10972379  0.41699460  0.61911767  1
  Na  Na55  1  0.10998561  0.41625414  0.86780377  1
  Na  Na56  1  0.11017305  0.75086201  0.11894175  1
  Na  Na57  1  0.11039126  0.75128147  0.36733171  1
  Na  Na58  1  0.10993703  0.75031513  0.61896815  1
  Na  Na59  1  0.10983912  0.74969820  0.86945182  1
  Na  Na60  1  0.60905362  0.08447205  0.11882798  1
  Na  Na61  1  0.60916084  0.08278890  0.37005872  1
  Na  Na62  1  0.60995775  0.08372696  0.61889576  1
  Na  Na63  1  0.60961928  0.08375772  0.86768663  1
  Na  Na64  1  0.60915366  0.41618232  0.11788888  1
  Na  Na65  1  0.60975292  0.41560357  0.36803040  1
  Na  Na66  1  0.60927705  0.41616469  0.61773191  1
  Na  Na67  1  0.60895456  0.41667794  0.86893018  1
  Na  Na68  1  0.60940703  0.74924188  0.11934585  1
  Na  Na69  1  0.60979913  0.74994450  0.36890114  1
  Na  Na70  1  0.60991496  0.75004795  0.61958338  1
  Na  Na71  1  0.60977392  0.74975165  0.86764687  1
  Na  Na72  1  0.38955411  0.25029521  0.13041479  1
  Na  Na73  1  0.39008542  0.24915731  0.38081099  1
  Na  Na74  1  0.39015543  0.24857021  0.63188808  1
  Na  Na75  1  0.38995801  0.24991314  0.88237718  1
  Na  Na76  1  0.39062491  0.58369565  0.13067078  1
  Na  Na77  1  0.38990413  0.58270867  0.38161253  1
  Na  Na78  1  0.38989342  0.58303115  0.63186548  1
  Na  Na79  1  0.39033722  0.58305588  0.88192499  1
  Na  Na80  1  0.39094455  0.91604842  0.13204106  1
  Na  Na81  1  0.39004605  0.91631852  0.38133592  1
  Na  Na82  1  0.39057373  0.91690736  0.63291532  1
  Na  Na83  1  0.39134587  0.91655762  0.88080101  1
  Na  Na84  1  0.88995008  0.24975564  0.13187404  1
  Na  Na85  1  0.88991398  0.25024085  0.38095984  1
  Na  Na86  1  0.89033775  0.24985433  0.63088990  1
  Na  Na87  1  0.89000363  0.24925034  0.88010222  1
  Na  Na88  1  0.89100860  0.58385641  0.13125238  1
  Na  Na89  1  0.89034281  0.58235260  0.38174332  1
  Na  Na90  1  0.88982410  0.58360171  0.63138227  1
  Na  Na91  1  0.89025947  0.58438518  0.88074016  1
  Na  Na92  1  0.89099010  0.91699372  0.13171055  1
  Na  Na93  1  0.89026093  0.91733829  0.38139021  1
  Na  Na94  1  0.89057071  0.91793728  0.63169778  1
  Na  Na95  1  0.89112190  0.91675077  0.88008831  1
  Mn  Mn96  1  0.50058935  0.49904224  0.49992832  1
  Mn  Mn97  1  0.25028131  0.49921030  0.12434066  1
  Mn  Mn98  1  -0.00065222  0.50019746  0.00013965  1
  Mn  Mn99  1  0.00003181  0.16603684  0.00045387  1
  Mn  Mn100  1  0.25090572  0.00080715  0.87545563  1
  Mn  Mn101  1  0.24992587  0.83365747  0.62554919  1
  Mn  Mn102  1  0.25090781  0.83278341  0.87452340  1
  Mn  Mn103  1  0.49927010  0.33242139  0.74973087  1
  Mn  Mn104  1  0.24987394  0.66595740  0.62499949  1
  Mn  Mn105  1  0.74929930  -0.00098492  0.37621561  1
  Mn  Mn106  1  0.00039993  0.83437940  0.49969869  1
  Mn  Mn107  1  0.74937017  0.16775924  0.12584012  1
  Mn  Mn108  1  0.49950158  0.33231764  0.24898129  1
  Mn  Mn109  1  0.74931102  0.33361522  0.62479680  1
  Mn  Mn110  1  0.24962614  0.33377687  0.62537310  1
  Mn  Mn111  1  -0.00032099  -0.00041499  -0.00017342  1
  Mn  Mn112  1  0.74995990  0.00005642  0.12493812  1
  Mn  Mn113  1  -0.00035426  0.33322833  0.74965947  1
  Mn  Mn114  1  0.25075627  0.66684105  0.12506952  1
  Mn  Mn115  1  0.74982952  0.66626249  0.37560677  1
  Mn  Mn116  1  0.49955592  0.83281137  0.50101973  1
  Mn  Mn117  1  0.49948621  0.66657259  0.50044531  1
  Mn  Mn118  1  -0.00019802  0.66640516  0.74980526  1
  Mn  Mn119  1  0.24958401  0.16668739  0.37497133  1
  Mn  Mn120  1  0.49954035  0.00036938  0.25051381  1
  Mn  Mn121  1  0.75077711  0.83285160  0.87406813  1
  Mn  Mn122  1  0.00061196  0.66746701  0.25007110  1
  Mn  Mn123  1  0.75061722  0.00099669  0.87401900  1
  Mn  Mn124  1  0.00035684  0.49926855  0.25023776  1
  Mn  Mn125  1  0.00018503  0.66681242  0.49962352  1
  Mn  Mn126  1  0.74944240  0.50107422  0.87502432  1
  Mn  Mn127  1  0.75040036  0.49879807  0.12446386  1
  Mn  Mn128  1  0.75006430  0.83257365  0.12448656  1
  Mn  Mn129  1  0.25044843  -0.00016523  0.12485480  1
  Mn  Mn130  1  0.24942088  -0.00033123  0.37512729  1
  Mn  Mn131  1  0.25062382  0.33368680  0.37509205  1
  Mn  Mn132  1  0.49942031  0.49990563  0.74982209  1
  Mn  Mn133  1  0.00077409  0.00151714  0.50002207  1
  Mn  Mn134  1  0.75000405  0.66575979  0.12577094  1
  Mn  Mn135  1  0.74882447  0.16693050  0.37536453  1
  Mn  Mn136  1  0.50000827  0.00023454  0.50074828  1
  Mn  Mn137  1  -0.00010420  0.33277316  -0.00066616  1
  Mn  Mn138  1  0.50075963  0.00067311  0.00038327  1
  Mn  Mn139  1  0.49907841  0.50027276  0.24904963  1
  Mn  Mn140  1  0.00031870  0.83407500  0.74990557  1
  Mn  Mn141  1  0.50092379  0.83276185  0.00034115  1
  Mn  Mn142  1  0.74955683  0.33308094  0.87424028  1
  Mn  Mn143  1  0.00073441  0.49908032  0.50009805  1
  Fe  Fe144  1  0.49930305  0.16630592  0.50035392  1
  Fe  Fe145  1  0.50011519  0.66630946  0.75079647  1
  Fe  Fe146  1  0.50003141  0.50038628  -0.00042260  1
  Fe  Fe147  1  0.24965228  0.16723912  0.87532807  1
  Fe  Fe148  1  0.00063714  0.16703615  0.74947301  1
  Fe  Fe149  1  0.25057624  0.83277967  0.12506044  1
  Fe  Fe150  1  0.75035396  0.66707394  0.87408856  1
  Fe  Fe151  1  0.74933222  0.33321439  0.12473221  1
  Fe  Fe152  1  -0.00031434  0.16738582  0.49946313  1
  Fe  Fe153  1  0.75023179  0.16692438  0.62462187  1
  Fe  Fe154  1  0.25075847  0.00067942  0.62487158  1
  Fe  Fe155  1  -0.00007341  0.49997404  0.74996995  1
  Fe  Fe156  1  0.49970073  0.16676483  0.24990805  1
  Fe  Fe157  1  0.49974783  0.33297347  -0.00041336  1
  Fe  Fe158  1  0.75046117  0.00022451  0.62508759  1
  Fe  Fe159  1  0.75010169  0.66695146  0.62411358  1
  Fe  Fe160  1  0.50011792  0.83297979  0.25033379  1
  Fe  Fe161  1  0.49995690  0.66683784  0.00000635  1
  Fe  Fe162  1  0.49957347  0.16674063  -0.00055300  1
  Fe  Fe163  1  0.24989899  0.66613685  0.87536767  1
  Fe  Fe164  1  0.50028236  0.66629086  0.24983005  1
  Fe  Fe165  1  -0.00029749  0.16702574  0.25046157  1
  Fe  Fe166  1  0.25052054  0.83343751  0.37521458  1
  Fe  Fe167  1  0.74950331  0.33330115  0.37540144  1
  Fe  Fe168  1  0.74994775  0.83323024  0.37601093  1
  Fe  Fe169  1  0.24971528  0.49974490  0.37494954  1
  Fe  Fe170  1  0.24941755  0.16721026  0.12491168  1
  Fe  Fe171  1  -0.00024344  0.33278594  0.49975610  1
  Fe  Fe172  1  0.25033825  0.50019416  0.62547158  1
  Fe  Fe173  1  0.74973592  0.49953148  0.37496693  1
  Fe  Fe174  1  0.25020479  0.66643825  0.37525066  1
  Fe  Fe175  1  0.00075308  0.83372724  0.00003269  1
  Fe  Fe176  1  -0.00012388  0.00034126  0.24990770  1
  Fe  Fe177  1  0.50048692  0.16689121  0.74998310  1
  Fe  Fe178  1  0.49924899  0.33226243  0.49948783  1
  Fe  Fe179  1  -0.00032162  0.83387535  0.24938050  1
  Fe  Fe180  1  0.25035070  0.16725558  0.62564420  1
  Fe  Fe181  1  0.00066762  0.66706239  0.00030399  1
  Fe  Fe182  1  0.24992297  0.49965071  0.87505263  1
  Fe  Fe183  1  0.00126113  0.00078888  0.75003252  1
  Fe  Fe184  1  0.50037525  0.00041328  0.75067870  1
  Fe  Fe185  1  0.74988678  0.16690305  0.87453864  1
  Fe  Fe186  1  0.75042004  0.83334645  0.62501777  1
  Fe  Fe187  1  0.24908981  0.33336435  0.12449750  1
  Fe  Fe188  1  -0.00038264  0.33288251  0.25007094  1
  Fe  Fe189  1  0.24970675  0.33304794  0.87514730  1
  Fe  Fe190  1  0.50026901  0.83298242  0.75082981  1
  Fe  Fe191  1  0.74949428  0.50034316  0.62484276  1
  P  P192  1  0.04223106  0.24981088  0.10402897  1
  P  P193  1  0.04117037  0.25006037  0.35232508  1
  P  P194  1  0.04135033  0.24988609  0.60168581  1
  P  P195  1  0.04272876  0.24885662  0.85185578  1
  P  P196  1  0.04270146  0.58466128  0.10236936  1
  P  P197  1  0.04310570  0.58295879  0.35307369  1
  P  P198  1  0.04289690  0.58304392  0.60345008  1
  P  P199  1  0.04197140  0.58236868  0.85292660  1
  P  P200  1  0.04227185  0.91576600  0.10313133  1
  P  P201  1  0.04128058  0.91727672  0.35110059  1
  P  P202  1  0.04332138  0.91806220  0.60349504  1
  P  P203  1  0.04304312  0.91797719  0.85266944  1
  P  P204  1  0.54084715  0.24944348  0.10133451  1
  P  P205  1  0.54152339  0.24844245  0.35302498  1
  P  P206  1  0.54115960  0.24942563  0.60156520  1
  P  P207  1  0.54166070  0.24892945  0.85300356  1
  P  P208  1  0.54134573  0.58379467  0.10153242  1
  P  P209  1  0.54205220  0.58381015  0.35208800  1
  P  P210  1  0.54256456  0.58336283  0.60370337  1
  P  P211  1  0.54186142  0.58406786  0.85329707  1
  P  P212  1  0.54296252  0.91649683  0.10386802  1
  P  P213  1  0.54189569  0.91559346  0.35285313  1
  P  P214  1  0.54214309  0.91657763  0.60493081  1
  P  P215  1  0.54221855  0.91664645  0.85164491  1
  P  P216  1  0.45760448  0.08509385  0.14720273  1
  P  P217  1  0.45728754  0.08447457  0.39761487  1
  P  P218  1  0.45903893  0.08375783  0.64870281  1
  P  P219  1  0.45820329  0.08429956  0.89677685  1
  P  P220  1  0.45729399  0.41651142  0.14524057  1
  P  P221  1  0.45766065  0.41482885  0.39726250  1
  P  P222  1  0.45677824  0.41556195  0.64634797  1
  P  P223  1  0.45852053  0.41677888  0.89840806  1
  P  P224  1  0.45862265  0.74939046  0.14843146  1
  P  P225  1  0.45744784  0.74971762  0.39630416  1
  P  P226  1  0.45827155  0.74965383  0.64956826  1
  P  P227  1  0.45839217  0.74886372  0.89708880  1
  P  P228  1  0.95817355  0.08354706  0.14892803  1
  P  P229  1  0.95750791  0.08525154  0.39690067  1
  P  P230  1  0.95933620  0.08412370  0.64798666  1
  P  P231  1  0.95778710  0.08334370  0.89585635  1
  P  P232  1  0.95758554  0.41539863  0.14770214  1
  P  P233  1  0.95791354  0.41449592  0.39715097  1
  P  P234  1  0.95768385  0.41758236  0.64709244  1
  P  P235  1  0.95703597  0.41675603  0.89607629  1
  P  P236  1  0.95833323  0.75143363  0.14664842  1
  P  P237  1  0.95744970  0.75101010  0.39623602  1
  P  P238  1  0.95719685  0.75048041  0.64678271  1
  P  P239  1  0.95924919  0.75046623  0.89851283  1
  P  P240  1  0.20769581  0.08420335  0.22703682  1
  P  P241  1  0.20725089  0.08334661  0.47912266  1
  P  P242  1  0.20939869  0.08407966  0.72704770  1
  P  P243  1  0.20814838  0.08502688  0.97807517  1
  P  P244  1  0.20766882  0.41580307  0.22751119  1
  P  P245  1  0.20785551  0.41806626  0.47791989  1
  P  P246  1  0.20789013  0.41823155  0.72844013  1
  P  P247  1  0.20828652  0.41613876  0.97652312  1
  P  P248  1  0.20861403  0.75106036  0.22836599  1
  P  P249  1  0.20871584  0.75026321  0.47653665  1
  P  P250  1  0.20738763  0.74911094  0.72868256  1
  P  P251  1  0.20850063  0.74900520  0.97766315  1
  P  P252  1  0.70659883  0.08309940  0.22852654  1
  P  P253  1  0.70728739  0.08316269  0.47969443  1
  P  P254  1  0.70902393  0.08391837  0.72646934  1
  P  P255  1  0.70764141  0.08490467  0.97702699  1
  P  P256  1  0.70720744  0.41483356  0.22786250  1
  P  P257  1  0.70810413  0.41705890  0.47694220  1
  P  P258  1  0.70704014  0.41824790  0.72703624  1
  P  P259  1  0.70681356  0.41620927  0.97788139  1
  P  P260  1  0.70722013  0.74967645  0.22891933  1
  P  P261  1  0.70788803  0.75118932  0.47865194  1
  P  P262  1  0.70891389  0.74979410  0.72631427  1
  P  P263  1  0.70781440  0.74864189  0.97678327  1
  P  P264  1  0.29056904  0.25035456  0.02255970  1
  P  P265  1  0.29206783  0.25005814  0.27079958  1
  P  P266  1  0.29202038  0.24936324  0.52312946  1
  P  P267  1  0.29128206  0.25001971  0.77351493  1
  P  P268  1  0.29249163  0.58290293  0.02096332  1
  P  P269  1  0.29145045  0.58285528  0.27355094  1
  P  P270  1  0.29231104  0.58186018  0.52187720  1
  P  P271  1  0.29149935  0.58279905  0.77349125  1
  P  P272  1  0.29306700  0.91508682  0.02280426  1
  P  P273  1  0.29214137  0.91524852  0.27229420  1
  P  P274  1  0.29247700  0.91754946  0.52274638  1
  P  P275  1  0.29317881  0.91770792  0.77154986  1
  P  P276  1  0.79208984  0.25117463  0.02221764  1
  P  P277  1  0.79129911  0.25156250  0.27273012  1
  P  P278  1  0.79161317  0.24973148  0.52218670  1
  P  P279  1  0.79174838  0.24851169  0.77149111  1
  P  P280  1  0.79308487  0.58354838  0.02148404  1
  P  P281  1  0.79240124  0.58151172  0.27299871  1
  P  P282  1  0.79145858  0.58281622  0.52294186  1
  P  P283  1  0.79196395  0.58497504  0.77125105  1
  P  P284  1  0.79325598  0.91669173  0.02149884  1
  P  P285  1  0.79200886  0.91514561  0.27318661  1
  P  P286  1  0.79182233  0.91650816  0.52363719  1
  P  P287  1  0.79285724  0.91702921  0.77041615  1
  O  O288  1  0.03681294  0.25008966  0.18396026  1
  O  O289  1  0.03602973  0.25012059  0.43229069  1
  O  O290  1  0.03627396  0.24948058  0.68165519  1
  O  O291  1  0.03794026  0.24906800  0.93183123  1
  O  O292  1  0.03778634  0.58440127  0.18235847  1
  O  O293  1  0.03809137  0.58287791  0.43303624  1
  O  O294  1  0.03750248  0.58261087  0.68342316  1
  O  O295  1  0.03659358  0.58329119  0.93287511  1
  O  O296  1  0.03689550  0.91577938  0.18300051  1
  O  O297  1  0.03690656  0.91778391  0.43114948  1
  O  O298  1  0.03828727  0.91837446  0.68344718  1
  O  O299  1  0.03760770  0.91723048  0.93261481  1
  O  O300  1  0.53620018  0.24926067  0.18133979  1
  O  O301  1  0.53592359  0.24891986  0.43289532  1
  O  O302  1  0.53632845  0.24928524  0.68158723  1
  O  O303  1  0.53634315  0.24912786  0.93286836  1
  O  O304  1  0.53601393  0.58406317  0.18148554  1
  O  O305  1  0.53727367  0.58331159  0.43208520  1
  O  O306  1  0.53735824  0.58370587  0.68367217  1
  O  O307  1  0.53639836  0.58381520  0.93319185  1
  O  O308  1  0.53729023  0.91605099  0.18377765  1
  O  O309  1  0.53694627  0.91582158  0.43288864  1
  O  O310  1  0.53680089  0.91657453  0.68483362  1
  O  O311  1  0.53767144  0.91687542  0.93172603  1
  O  O312  1  0.46318041  0.08496351  0.06725306  1
  O  O313  1  0.46240783  0.08457554  0.31763180  1
  O  O314  1  0.46356202  0.08382635  0.56867963  1
  O  O315  1  0.46371233  0.08409018  0.81689526  1
  O  O316  1  0.46276616  0.41683932  0.06537179  1
  O  O317  1  0.46247584  0.41501834  0.31724409  1
  O  O318  1  0.46212536  0.41507272  0.56640093  1
  O  O319  1  0.46306533  0.41650967  0.81837341  1
  O  O320  1  0.46376810  0.74919485  0.06841845  1
  O  O321  1  0.46282299  0.74967075  0.31639877  1
  O  O322  1  0.46299679  0.74963487  0.56952720  1
  O  O323  1  0.46386533  0.74914451  0.81722535  1
  O  O324  1  0.96271337  0.08299751  0.06890570  1
  O  O325  1  0.96251592  0.08510958  0.31703574  1
  O  O326  1  0.96418392  0.08464564  0.56798021  1
  O  O327  1  0.96335088  0.08350700  0.81597028  1
  O  O328  1  0.96240639  0.41584716  0.06767965  1
  O  O329  1  0.96317614  0.41413161  0.31718826  1
  O  O330  1  0.96310416  0.41677411  0.56717244  1
  O  O331  1  0.96229334  0.41718908  0.81611501  1
  O  O332  1  0.96401224  0.75091957  0.06676581  1
  O  O333  1  0.96258688  0.75155031  0.31623955  1
  O  O334  1  0.96213607  0.75051468  0.56682916  1
  O  O335  1  0.96409390  0.75019316  0.81851769  1
  O  O336  1  0.21342869  0.08510435  0.05800517  1
  O  O337  1  0.21234072  0.08379161  0.30705128  1
  O  O338  1  0.21288016  0.08319372  0.55902976  1
  O  O339  1  0.21417319  0.08454740  0.80706675  1
  O  O340  1  0.21303209  0.41547684  0.05652109  1
  O  O341  1  0.21306395  0.41654441  0.30744629  1
  O  O342  1  0.21309102  0.41820548  0.55787323  1
  O  O343  1  0.21343229  0.41779613  0.80829958  1
  O  O344  1  0.21381625  0.74970523  0.05762020  1
  O  O345  1  0.21396722  0.75095675  0.30826628  1
  O  O346  1  0.21336766  0.74998319  0.55658450  1
  O  O347  1  0.21273473  0.74845640  0.80859378  1
  O  O348  1  0.71251559  0.08459137  0.05702912  1
  O  O349  1  0.71134213  0.08294140  0.30854241  1
  O  O350  1  0.71312690  0.08331760  0.55957368  1
  O  O351  1  0.71390368  0.08445239  0.80647658  1
  O  O352  1  0.71194045  0.41554791  0.05783882  1
  O  O353  1  0.71248279  0.41503647  0.30779007  1
  O  O354  1  0.71312133  0.41762148  0.55694246  1
  O  O355  1  0.71228326  0.41789293  0.80694675  1
  O  O356  1  0.71254882  0.74880080  0.05679937  1
  O  O357  1  0.71213006  0.75007290  0.30891340  1
  O  O358  1  0.71364349  0.75092748  0.55852813  1
  O  O359  1  0.71427185  0.74928027  0.80627525  1
  O  O360  1  0.28644793  0.25022478  0.19090420  1
  O  O361  1  0.28726876  0.24942221  0.44316046  1
  O  O362  1  0.28637030  0.24994030  0.69352358  1
  O  O363  1  0.28542122  0.25004002  0.94262206  1
  O  O364  1  0.28687251  0.58335187  0.19353381  1
  O  O365  1  0.28657735  0.58225473  0.44202127  1
  O  O366  1  0.28660052  0.58264091  0.69345339  1
  O  O367  1  0.28702037  0.58304914  0.94108146  1
  O  O368  1  0.28709867  0.91510031  0.19233113  1
  O  O369  1  0.28723081  0.91689370  0.44275793  1
  O  O370  1  0.28776431  0.91838316  0.69162096  1
  O  O371  1  0.28796704  0.91562821  0.94282822  1
  O  O372  1  0.78627482  0.25191640  0.19275776  1
  O  O373  1  0.78617674  0.25042015  0.44227614  1
  O  O374  1  0.78639327  0.24836467  0.69153178  1
  O  O375  1  0.78703769  0.25036916  0.94223530  1
  O  O376  1  0.78750025  0.58161935  0.19300934  1
  O  O377  1  0.78604356  0.58215425  0.44299399  1
  O  O378  1  0.78628765  0.58471535  0.69138395  1
  O  O379  1  0.78813358  0.58434910  0.94148384  1
  O  O380  1  0.78714558  0.91560113  0.19318472  1
  O  O381  1  0.78650822  0.91604012  0.44366567  1
  O  O382  1  0.78743529  0.91696981  0.69051154  1
  O  O383  1  0.78838647  0.91699882  0.94147261  1
  O  O384  1  0.22659863  0.25062165  0.05908674  1
  O  O385  1  0.22795272  0.25061647  0.30679225  1
  O  O386  1  0.22766357  0.24896492  0.55847298  1
  O  O387  1  0.22706217  0.24991116  0.80929103  1
  O  O388  1  0.22838720  0.58327496  0.05686929  1
  O  O389  1  0.22726877  0.58235079  0.30927784  1
  O  O390  1  0.22822625  0.58135864  0.55827834  1
  O  O391  1  0.22735720  0.58245238  0.80949817  1
  O  O392  1  0.22871834  0.91486944  0.05825775  1
  O  O393  1  0.22784120  0.91501865  0.30800226  1
  O  O394  1  0.22820391  0.91794985  0.55832010  1
  O  O395  1  0.22898297  0.91726826  0.80716356  1
  O  O396  1  0.72766888  0.25168912  0.05775295  1
  O  O397  1  0.72699473  0.25153296  0.30829862  1
  O  O398  1  0.72740627  0.24929894  0.55797064  1
  O  O399  1  0.72753976  0.24841789  0.80735196  1
  O  O400  1  0.72862500  0.58278340  0.05653522  1
  O  O401  1  0.72800454  0.58157883  0.30830573  1
  O  O402  1  0.72740165  0.58321573  0.55924445  1
  O  O403  1  0.72788539  0.58554664  0.80768477  1
  O  O404  1  0.72868736  0.91664130  0.05627752  1
  O  O405  1  0.72762557  0.91455287  0.30863995  1
  O  O406  1  0.72779610  0.91682436  0.55992210  1
  O  O407  1  0.72872594  0.91681347  0.80630537  1
  O  O408  1  0.27203216  0.08438081  0.19178564  1
  O  O409  1  0.27144339  0.08307114  0.44332947  1
  O  O410  1  0.27354797  0.08423687  0.69106778  1
  O  O411  1  0.27239644  0.08546569  0.94229327  1
  O  O412  1  0.27184766  0.41478914  0.19155401  1
  O  O413  1  0.27210117  0.41844051  0.44205924  1
  O  O414  1  0.27195250  0.41825864  0.69206261  1
  O  O415  1  0.27247066  0.41657812  0.94066934  1
  O  O416  1  0.27276995  0.75138480  0.19217018  1
  O  O417  1  0.27294728  0.75061778  0.44096048  1
  O  O418  1  0.27167253  0.74954977  0.69325074  1
  O  O419  1  0.27270881  0.74840605  0.94186858  1
  O  O420  1  0.77112733  0.08365837  0.19371537  1
  O  O421  1  0.77130431  0.08328503  0.44356098  1
  O  O422  1  0.77315907  0.08386647  0.69047657  1
  O  O423  1  0.77208647  0.08522172  0.94177888  1
  O  O424  1  0.77148660  0.41423102  0.19188742  1
  O  O425  1  0.77223871  0.41707131  0.44090488  1
  O  O426  1  0.77133543  0.41816630  0.69146794  1
  O  O427  1  0.77112937  0.41674995  0.94256763  1
  O  O428  1  0.77166789  0.74949567  0.19379693  1
  O  O429  1  0.77191584  0.75121101  0.44221651  1
  O  O430  1  0.77292087  0.74992841  0.68999676  1
  O  O431  1  0.77232492  0.74840536  0.94162700  1
  O  O432  1  0.02243985  0.08423232  0.18444107  1
  O  O433  1  0.02182312  0.08580630  0.43264412  1
  O  O434  1  0.02348427  0.08398490  0.68408067  1
  O  O435  1  0.02196888  0.08301058  0.93170697  1
  O  O436  1  0.02200642  0.41514116  0.18286760  1
  O  O437  1  0.02216757  0.41425417  0.43290249  1
  O  O438  1  0.02185175  0.41794866  0.68309038  1
  O  O439  1  0.02136195  0.41679969  0.93144402  1
  O  O440  1  0.02243511  0.75196911  0.18292035  1
  O  O441  1  0.02193198  0.75071623  0.43124475  1
  O  O442  1  0.02164592  0.75026400  0.68168382  1
  O  O443  1  0.02338916  0.75078232  0.93442003  1
  O  O444  1  0.52172402  0.08497528  0.18330405  1
  O  O445  1  0.52154965  0.08476334  0.43335450  1
  O  O446  1  0.52323991  0.08428393  0.68447833  1
  O  O447  1  0.52235014  0.08495177  0.93289888  1
  O  O448  1  0.52135337  0.41657602  0.18131326  1
  O  O449  1  0.52201079  0.41428228  0.43267538  1
  O  O450  1  0.52110677  0.41587959  0.68169294  1
  O  O451  1  0.52265808  0.41718209  0.93408677  1
  O  O452  1  0.52270006  0.74904023  0.18458952  1
  O  O453  1  0.52166826  0.74979422  0.43205352  1
  O  O454  1  0.52256816  0.74982377  0.68513607  1
  O  O455  1  0.52253675  0.74841114  0.93323868  1
  O  O456  1  0.47667631  0.24906174  0.06549590  1
  O  O457  1  0.47744411  0.24797612  0.31664186  1
  O  O458  1  0.47689807  0.24952394  0.56578832  1
  O  O459  1  0.47744458  0.24816778  0.81706722  1
  O  O460  1  0.47729947  0.58386572  0.06521772  1
  O  O461  1  0.47763812  0.58471046  0.31678886  1
  O  O462  1  0.47824686  0.58246742  0.56837036  1
  O  O463  1  0.47770028  0.58437605  0.81713487  1
  O  O464  1  0.47881513  0.91658531  0.06807795  1
  O  O465  1  0.47765178  0.91562735  0.31727547  1
  O  O466  1  0.47798903  0.91675865  0.56901232  1
  O  O467  1  0.47794491  0.91610103  0.81619980  1
  O  O468  1  0.97800846  0.24975576  0.06828735  1
  O  O469  1  0.97711561  0.24975624  0.31598178  1
  O  O470  1  0.97720413  0.25010967  0.56557510  1
  O  O471  1  0.97827532  0.24847341  0.81671114  1
  O  O472  1  0.97827188  0.58496883  0.06719200  1
  O  O473  1  0.97867400  0.58324230  0.31811707  1
  O  O474  1  0.97858187  0.58303071  0.56808866  1
  O  O475  1  0.97781048  0.58167843  0.81690452  1
  O  O476  1  0.97814827  0.91500894  0.06694894  1
  O  O477  1  0.97696393  0.91689086  0.31579137  1
  O  O478  1  0.97894459  0.91794672  0.56828541  1
  O  O479  1  0.97887607  0.91890118  0.81671294  1
  O  O480  1  0.07347887  0.31301464  0.07516183  1
  O  O481  1  0.07194030  0.31375447  0.32382697  1
  O  O482  1  0.07213364  0.31383410  0.57388954  1
  O  O483  1  0.07341883  0.31262882  0.82379473  1
  O  O484  1  0.07353153  0.64817672  0.07386983  1
  O  O485  1  0.07435566  0.64635407  0.32506980  1
  O  O486  1  0.07381065  0.64681606  0.57548889  1
  O  O487  1  0.07308377  0.64592545  0.82484171  1
  O  O488  1  0.07293715  0.97975724  0.07522962  1
  O  O489  1  0.07152461  0.98129124  0.32258377  1
  O  O490  1  0.07453382  0.98123546  0.57484039  1
  O  O491  1  0.07421615  0.98147286  0.82450134  1
  O  O492  1  0.57094953  0.31365098  0.07296389  1
  O  O493  1  0.57251879  0.31202572  0.32457958  1
  O  O494  1  0.57186723  0.31324203  0.57332268  1
  O  O495  1  0.57240111  0.31277167  0.82484185  1
  O  O496  1  0.57262641  0.64721083  0.07337347  1
  O  O497  1  0.57333881  0.64709475  0.32383515  1
  O  O498  1  0.57331141  0.64693039  0.57532326  1
  O  O499  1  0.57285754  0.64748512  0.82458954  1
  O  O500  1  0.57402319  0.98018998  0.07600201  1
  O  O501  1  0.57306888  0.97931707  0.32533558  1
  O  O502  1  0.57344481  0.97988504  0.57641549  1
  O  O503  1  0.57240485  0.98071474  0.82330245  1
  O  O504  1  0.42648642  0.02130983  0.17490167  1
  O  O505  1  0.42667246  0.02044750  0.42542296  1
  O  O506  1  0.42896253  0.01968052  0.67725571  1
  O  O507  1  0.42739553  0.02051044  0.92498184  1
  O  O508  1  0.42609299  0.35307006  0.17347492  1
  O  O509  1  0.42658144  0.35143590  0.42568648  1
  O  O510  1  0.42557227  0.35233098  0.67502952  1
  O  O511  1  0.42825917  0.35264546  0.92653773  1
  O  O512  1  0.42718904  0.68606443  0.17661402  1
  O  O513  1  0.42626639  0.68631472  0.42487338  1
  O  O514  1  0.42764511  0.68573416  0.67755554  1
  O  O515  1  0.42713857  0.68564135  0.92580484  1
  O  O516  1  0.92812265  0.01944933  0.17746547  1
  O  O517  1  0.92682536  0.02145161  0.42532530  1
  O  O518  1  0.92879000  0.02018982  0.67599582  1
  O  O519  1  0.92626363  0.02012409  0.92430113  1
  O  O520  1  0.92679794  0.35191402  0.17619224  1
  O  O521  1  0.92668755  0.35147776  0.42622122  1
  O  O522  1  0.92634910  0.35406814  0.67498647  1
  O  O523  1  0.92623872  0.35283500  0.92383381  1
  O  O524  1  0.92723151  0.68780634  0.17487077  1
  O  O525  1  0.92647450  0.68720806  0.42399030  1
  O  O526  1  0.92602558  0.68708615  0.67497759  1
  O  O527  1  0.92877478  0.68655717  0.92679241  1
  O  O528  1  0.17675004  0.02052446  0.19909052  1
  O  O529  1  0.17573126  0.02023115  0.45039922  1
  O  O530  1  0.17892474  0.02012272  0.69898991  1
  O  O531  1  0.17763798  0.02084877  0.95050640  1
  O  O532  1  0.17636233  0.35249167  0.19929280  1
  O  O533  1  0.17732834  0.35387465  0.45040633  1
  O  O534  1  0.17663999  0.35459532  0.70039301  1
  O  O535  1  0.17756920  0.35259299  0.94770463  1
  O  O536  1  0.17756401  0.68731691  0.20045178  1
  O  O537  1  0.17843014  0.68628921  0.44813113  1
  O  O538  1  0.17616688  0.68598776  0.69988318  1
  O  O539  1  0.17754352  0.68537328  0.94955105  1
  O  O540  1  0.67601578  0.01947737  0.20011247  1
  O  O541  1  0.67601868  0.01959647  0.45175586  1
  O  O542  1  0.67840313  0.01984940  0.69883205  1
  O  O543  1  0.67673656  0.02121868  0.94894967  1
  O  O544  1  0.67591204  0.35172898  0.19891623  1
  O  O545  1  0.67755275  0.35293514  0.44928983  1
  O  O546  1  0.67586971  0.35453569  0.69938997  1
  O  O547  1  0.67571466  0.35303050  0.94904202  1
  O  O548  1  0.67641099  0.68587239  0.20093611  1
  O  O549  1  0.67655475  0.68761752  0.45077112  1
  O  O550  1  0.67770080  0.68651163  0.69778633  1
  O  O551  1  0.67707114  0.68524687  0.94807663  1
  O  O552  1  0.32163323  0.31399862  0.05062537  1
  O  O553  1  0.32385487  0.31308433  0.29931601  1
  O  O554  1  0.32266992  0.31322147  0.55091923  1
  O  O555  1  0.32185362  0.31394866  0.80173456  1
  O  O556  1  0.32419962  0.64589441  0.04957901  1
  O  O557  1  0.32164751  0.64678892  0.30220300  1
  O  O558  1  0.32327118  0.64565629  0.54997381  1
  O  O559  1  0.32179419  0.64688997  0.80161052  1
  O  O560  1  0.32402211  0.97884236  0.05062036  1
  O  O561  1  0.32282114  0.97932111  0.29986673  1
  O  O562  1  0.32322103  0.98127060  0.55105257  1
  O  O563  1  0.32438826  0.98082193  0.80036173  1
  O  O564  1  0.82285412  0.31479290  0.05048726  1
  O  O565  1  0.82236847  0.31462153  0.30189007  1
  O  O566  1  0.82281921  0.31314296  0.55042426  1
  O  O567  1  0.82265635  0.31255551  0.79875369  1
  O  O568  1  0.82401887  0.64671511  0.05057246  1
  O  O569  1  0.82358480  0.64505609  0.30085764  1
  O  O570  1  0.82245590  0.64677647  0.55029113  1
  O  O571  1  0.82323935  0.64827700  0.79981653  1
  O  O572  1  0.82413985  0.98016795  0.05004593  1
  O  O573  1  0.82261007  0.97904282  0.30118588  1
  O  O574  1  0.82280309  0.98041908  0.55126363  1
  O  O575  1  0.82400160  0.98047224  0.79869142  1
  O  O576  1  0.42666142  0.14840616  0.17565288  1
  O  O577  1  0.42609254  0.14750926  0.42654391  1
  O  O578  1  0.42768931  0.14704229  0.67692213  1
  O  O579  1  0.42683959  0.14742162  0.92548981  1
  O  O580  1  0.42598900  0.47980213  0.17381375  1
  O  O581  1  0.42711373  0.47873548  0.42501972  1
  O  O582  1  0.42574299  0.47907673  0.67443877  1
  O  O583  1  0.42738759  0.48025652  0.92628816  1
  O  O584  1  0.42848765  0.81354309  0.17651858  1
  O  O585  1  0.42626050  0.81297399  0.42499310  1
  O  O586  1  0.42740954  0.81327640  0.67757006  1
  O  O587  1  0.42753488  0.81258399  0.92524674  1
  O  O588  1  0.92685107  0.14690137  0.17681728  1
  O  O589  1  0.92637677  0.14835697  0.42598229  1
  O  O590  1  0.92837282  0.14763050  0.67632240  1
  O  O591  1  0.92677324  0.14672365  0.92453922  1
  O  O592  1  0.92681005  0.47918982  0.17560186  1
  O  O593  1  0.92725259  0.47852538  0.42461619  1
  O  O594  1  0.92699992  0.48120332  0.67537681  1
  O  O595  1  0.92558492  0.47975053  0.92466905  1
  O  O596  1  0.92713007  0.81471239  0.17516541  1
  O  O597  1  0.92638478  0.81416975  0.42502433  1
  O  O598  1  0.92645964  0.81399844  0.67512449  1
  O  O599  1  0.92830104  0.81422104  0.92608071  1
  O  O600  1  0.07329597  0.18625845  0.07594794  1
  O  O601  1  0.07237606  0.18662529  0.32399940  1
  O  O602  1  0.07228804  0.18652391  0.57313128  1
  O  O603  1  0.07362522  0.18555436  0.82321860  1
  O  O604  1  0.07349145  0.52087524  0.07460332  1
  O  O605  1  0.07379271  0.51930978  0.32494339  1
  O  O606  1  0.07433422  0.51996475  0.57504748  1
  O  O607  1  0.07275515  0.51872304  0.82481290  1
  O  O608  1  0.07370915  0.85283282  0.07409509  1
  O  O609  1  0.07235801  0.85379826  0.32315536  1
  O  O610  1  0.07418373  0.85436585  0.57543611  1
  O  O611  1  0.07389530  0.85431646  0.82466746  1
  O  O612  1  0.57233294  0.18633116  0.07303294  1
  O  O613  1  0.57266925  0.18509662  0.32457829  1
  O  O614  1  0.57200597  0.18586542  0.57333993  1
  O  O615  1  0.57306054  0.18596008  0.82397864  1
  O  O616  1  0.57192432  0.51983867  0.07359042  1
  O  O617  1  0.57228481  0.51986803  0.32382969  1
  O  O618  1  0.57399740  0.52006420  0.57558918  1
  O  O619  1  0.57288226  0.52048169  0.82517159  1
  O  O620  1  0.57437632  0.85336919  0.07539992  1
  O  O621  1  0.57244424  0.85201674  0.32432164  1
  O  O622  1  0.57317581  0.85311452  0.57658479  1
  O  O623  1  0.57337782  0.85315401  0.82376739  1
  O  O624  1  0.32129964  0.18672434  0.05117456  1
  O  O625  1  0.32285593  0.18642677  0.29912148  1
  O  O626  1  0.32296754  0.18605564  0.55181589  1
  O  O627  1  0.32238615  0.18670416  0.80199513  1
  O  O628  1  0.32325144  0.51922846  0.04924727  1
  O  O629  1  0.32259867  0.51921472  0.30112758  1
  O  O630  1  0.32353659  0.51872975  0.55060540  1
  O  O631  1  0.32283876  0.51950553  0.80172175  1
  O  O632  1  0.32383201  0.85154721  0.05104164  1
  O  O633  1  0.32327807  0.85224317  0.30138542  1
  O  O634  1  0.32372148  0.85416629  0.55099375  1
  O  O635  1  0.32427247  0.85395585  0.79902148  1
  O  O636  1  0.82306021  0.18775958  0.05084197  1
  O  O637  1  0.82210133  0.18757775  0.30016449  1
  O  O638  1  0.82253755  0.18614406  0.55033180  1
  O  O639  1  0.82276893  0.18540538  0.80044939  1
  O  O640  1  0.82418438  0.51988602  0.04926231  1
  O  O641  1  0.82290427  0.51786379  0.30143498  1
  O  O642  1  0.82234579  0.51937102  0.55155882  1
  O  O643  1  0.82280015  0.52126965  0.79935775  1
  O  O644  1  0.82398096  0.85303152  0.04949579  1
  O  O645  1  0.82292259  0.85179594  0.30169074  1
  O  O646  1  0.82281783  0.85303098  0.55189858  1
  O  O647  1  0.82423994  0.85372016  0.79874890  1
  O  O648  1  0.17703850  0.14779478  0.19872550  1
  O  O649  1  0.17627829  0.14689882  0.45087692  1
  O  O650  1  0.17831505  0.14752903  0.69858346  1
  O  O651  1  0.17677415  0.14796092  0.94914892  1
  O  O652  1  0.17704512  0.47953895  0.19921300  1
  O  O653  1  0.17656503  0.48097001  0.44892118  1
  O  O654  1  0.17702858  0.48155771  0.69976068  1
  O  O655  1  0.17735310  0.47989913  0.94879025  1
  O  O656  1  0.17764682  0.81427361  0.19929249  1
  O  O657  1  0.17760000  0.81384436  0.44871353  1
  O  O658  1  0.17631088  0.81282896  0.70102728  1
  O  O659  1  0.17745077  0.81249354  0.94951361  1
  O  O660  1  0.67544123  0.14652082  0.20043835  1
  O  O661  1  0.67575810  0.14629620  0.45130780  1
  O  O662  1  0.67792873  0.14725034  0.69791442  1
  O  O663  1  0.67699115  0.14841753  0.94848805  1
  O  O664  1  0.67658582  0.47868838  0.19961416  1
  O  O665  1  0.67699071  0.48032298  0.44822479  1
  O  O666  1  0.67642800  0.48180128  0.69866132  1
  O  O667  1  0.67568888  0.47982918  0.95015566  1
  O  O668  1  0.67614116  0.81275857  0.19996103  1
  O  O669  1  0.67705602  0.81470278  0.45018084  1
  O  O670  1  0.67813957  0.81382234  0.69891626  1
  O  O671  1  0.67706973  0.81243642  0.94880561  1
