# generated using pymatgen
data_Na2MnFe(PO4)2
_symmetry_space_group_name_H-M   'P 1'
_cell_length_a   22.34174896
_cell_length_b   20.09548694
_cell_length_c   19.45277514
_cell_angle_alpha   89.97231221
_cell_angle_beta   89.97141420
_cell_angle_gamma   90.05943669
_symmetry_Int_Tables_number   1
_chemical_formula_structural   Na2MnFe(PO4)2
_chemical_formula_sum   'Na96 Mn48 Fe48 P96 O384'
_cell_volume   8733.67305335
_cell_formula_units_Z   48
loop_
 _symmetry_equiv_pos_site_id
 _symmetry_equiv_pos_as_xyz
  1  'x, y, z'
loop_
 _atom_site_type_symbol
 _atom_site_label
 _atom_site_symmetry_multiplicity
 _atom_site_fract_x
 _atom_site_fract_y
 _atom_site_fract_z
 _atom_site_occupancy
  Na  Na0  1  0.14032436  0.25034700  0.24278287  1
  Na  Na1  1  0.14081529  0.25010699  0.49286236  1
  Na  Na2  1  0.14050387  0.24929725  0.74142901  1
  Na  Na3  1  0.14036752  0.24906512  0.99193305  1
  Na  Na4  1  0.14020060  0.58272978  0.24400865  1
  Na  Na5  1  0.14035889  0.58172980  0.49280649  1
  Na  Na6  1  0.14085474  0.58262878  0.74253117  1
  Na  Na7  1  0.14054028  0.58432066  0.99452565  1
  Na  Na8  1  0.14038105  0.91696030  0.24238927  1
  Na  Na9  1  0.14015095  0.91684635  0.49331622  1
  Na  Na10  1  0.14001003  0.91723319  0.74265265  1
  Na  Na11  1  0.14021130  0.91810594  0.99159480  1
  Na  Na12  1  0.64042839  0.24940467  0.24398720  1
  Na  Na13  1  0.64118943  0.24960168  0.49441617  1
  Na  Na14  1  0.64017030  0.24997802  0.74452849  1
  Na  Na15  1  0.63984808  0.24995364  0.99527524  1
  Na  Na16  1  0.64060920  0.58222426  0.24439983  1
  Na  Na17  1  0.64024836  0.58353154  0.49381396  1
  Na  Na18  1  0.64085453  0.58362468  0.74383663  1
  Na  Na19  1  0.64089186  0.58306677  0.99530880  1
  Na  Na20  1  0.64047714  0.91819733  0.24471913  1
  Na  Na21  1  0.64039900  0.91742984  0.49452545  1
  Na  Na22  1  0.64007947  0.91750729  0.74390550  1
  Na  Na23  1  0.64001631  0.91683247  0.99465288  1
  Na  Na24  1  0.35921554  0.08362310  0.00648005  1
  Na  Na25  1  0.35895623  0.08453579  0.25600793  1
  Na  Na26  1  0.35853788  0.08277703  0.50644689  1
  Na  Na27  1  0.35864971  0.08237081  0.75630616  1
  Na  Na28  1  0.35880758  0.41672041  0.00690752  1
  Na  Na29  1  0.35882914  0.41623277  0.25669321  1
  Na  Na30  1  0.35895073  0.41536428  0.50601448  1
  Na  Na31  1  0.35893868  0.41533186  0.75609467  1
  Na  Na32  1  0.35846518  0.75076619  0.00629907  1
  Na  Na33  1  0.35859322  0.74932323  0.25656034  1
  Na  Na34  1  0.35923626  0.74952663  0.50770323  1
  Na  Na35  1  0.35920553  0.75099425  0.75695510  1
  Na  Na36  1  0.86067522  0.08356486  0.00718570  1
  Na  Na37  1  0.85971176  0.08380644  0.25511748  1
  Na  Na38  1  0.85966143  0.08348753  0.50624813  1
  Na  Na39  1  0.86076774  0.08410438  0.75631257  1
  Na  Na40  1  0.86023242  0.41588924  0.00685637  1
  Na  Na41  1  0.86037087  0.41514919  0.25762955  1
  Na  Na42  1  0.86065725  0.41609742  0.50643606  1
  Na  Na43  1  0.86023526  0.41589263  0.75490204  1
  Na  Na44  1  0.86017905  0.75083049  0.00617579  1
  Na  Na45  1  0.85990987  0.75098057  0.25676328  1
  Na  Na46  1  0.86031463  0.75032369  0.50633659  1
  Na  Na47  1  0.86022488  0.75135751  0.75529605  1
  Na  Na48  1  0.11017906  0.08290763  0.11608924  1
  Na  Na49  1  0.11043963  0.08314466  0.36700757  1
  Na  Na50  1  0.11033700  0.08339073  0.61744555  1
  Na  Na51  1  0.10982076  0.08355206  0.86687773  1
  Na  Na52  1  0.10986929  0.41683903  0.11886552  1
  Na  Na53  1  0.11021005  0.41688227  0.36809496  1
  Na  Na54  1  0.11027661  0.41675818  0.61673372  1
  Na  Na55  1  0.11010364  0.41642567  0.86733759  1
  Na  Na56  1  0.10960686  0.75124555  0.11803478  1
  Na  Na57  1  0.10964642  0.74876775  0.36917427  1
  Na  Na58  1  0.10965370  0.75021471  0.61808616  1
  Na  Na59  1  0.10979952  0.75216918  0.86826352  1
  Na  Na60  1  0.60928027  0.08521088  0.11924890  1
  Na  Na61  1  0.61007768  0.08275225  0.36934179  1
  Na  Na62  1  0.60989645  0.08351242  0.61875906  1
  Na  Na63  1  0.60933748  0.08269332  0.87053705  1
  Na  Na64  1  0.60948566  0.41602245  0.12000076  1
  Na  Na65  1  0.60988769  0.41599760  0.36902938  1
  Na  Na66  1  0.60976643  0.41692476  0.61871539  1
  Na  Na67  1  0.60959066  0.41579036  0.87028893  1
  Na  Na68  1  0.60941931  0.75094699  0.11947643  1
  Na  Na69  1  0.60912647  0.74911789  0.36974764  1
  Na  Na70  1  0.60925914  0.75172210  0.61905312  1
  Na  Na71  1  0.60947029  0.75026809  0.86964048  1
  Na  Na72  1  0.38946341  0.25046143  0.13146880  1
  Na  Na73  1  0.38914481  0.24826874  0.38160997  1
  Na  Na74  1  0.38929257  0.24942119  0.63119746  1
  Na  Na75  1  0.38970443  0.24852540  0.88186415  1
  Na  Na76  1  0.38942372  0.58310642  0.13175751  1
  Na  Na77  1  0.38995045  0.58192538  0.38085344  1
  Na  Na78  1  0.39013814  0.58391816  0.63142924  1
  Na  Na79  1  0.38981481  0.58234684  0.88172430  1
  Na  Na80  1  0.38960002  0.91908467  0.13094634  1
  Na  Na81  1  0.38944014  0.91635017  0.38189609  1
  Na  Na82  1  0.38916828  0.91705832  0.63172967  1
  Na  Na83  1  0.38920849  0.91676690  0.88169969  1
  Na  Na84  1  0.89078394  0.24998291  0.13178817  1
  Na  Na85  1  0.89050212  0.25057433  0.38171475  1
  Na  Na86  1  0.89077133  0.24989070  0.63188900  1
  Na  Na87  1  0.89111196  0.24930867  0.88040544  1
  Na  Na88  1  0.89103201  0.58335814  0.13245568  1
  Na  Na89  1  0.89116912  0.58225356  0.38236207  1
  Na  Na90  1  0.89122053  0.58338731  0.63022093  1
  Na  Na91  1  0.89116855  0.58422236  0.88067906  1
  Na  Na92  1  0.89075548  0.91679992  0.13066913  1
  Na  Na93  1  0.89080248  0.91585593  0.38111618  1
  Na  Na94  1  0.89098965  0.91695728  0.63136231  1
  Na  Na95  1  0.89108952  0.91782539  0.88075806  1
  Mn  Mn96  1  0.49922577  0.83348664  0.25074709  1
  Mn  Mn97  1  0.50040210  0.49916350  0.00056385  1
  Mn  Mn98  1  0.75082197  0.49953631  0.62506807  1
  Mn  Mn99  1  0.49988400  0.49998072  0.75025310  1
  Mn  Mn100  1  0.49979887  0.33290729  0.75071366  1
  Mn  Mn101  1  0.49933636  0.50033075  0.50009546  1
  Mn  Mn102  1  0.75045132  0.49955496  0.87505162  1
  Mn  Mn103  1  0.24979825  0.66551702  0.37592136  1
  Mn  Mn104  1  0.75053026  0.00074388  0.62500348  1
  Mn  Mn105  1  0.24916061  0.83395955  0.37494709  1
  Mn  Mn106  1  0.50021803  0.66758323  0.75080912  1
  Mn  Mn107  1  0.74959090  0.83432847  0.37535190  1
  Mn  Mn108  1  0.24982940  0.83431982  0.12513186  1
  Mn  Mn109  1  0.75087304  0.66713222  0.12529481  1
  Mn  Mn110  1  0.00087685  0.66783632  0.74995709  1
  Mn  Mn111  1  0.49987321  0.33249408  0.49972580  1
  Mn  Mn112  1  0.49919111  0.66587665  0.24977279  1
  Mn  Mn113  1  0.00061493  0.66827945  0.00075780  1
  Mn  Mn114  1  0.75050092  0.33279846  0.87540764  1
  Mn  Mn115  1  0.24972591  0.66679130  0.87462830  1
  Mn  Mn116  1  0.00025955  -0.00071299  0.49922146  1
  Mn  Mn117  1  0.00006905  0.16726073  0.49927595  1
  Mn  Mn118  1  -0.00007540  0.66693717  0.25040187  1
  Mn  Mn119  1  0.24986173  0.66584685  0.62547116  1
  Mn  Mn120  1  0.00100072  0.49972913  0.74964531  1
  Mn  Mn121  1  0.75040390  0.00052001  0.87538694  1
  Mn  Mn122  1  0.74989754  0.66643921  0.37526256  1
  Mn  Mn123  1  0.24942522  0.33269040  0.87436783  1
  Mn  Mn124  1  0.49908535  -0.00068594  0.75058676  1
  Mn  Mn125  1  0.74961068  0.00024441  0.12571534  1
  Mn  Mn126  1  0.00034725  -0.00092290  0.24853513  1
  Mn  Mn127  1  0.75062470  0.16705688  0.87559383  1
  Mn  Mn128  1  0.00021653  0.50001231  -0.00014120  1
  Mn  Mn129  1  0.75118658  0.49891765  0.12492198  1
  Mn  Mn130  1  0.49913739  0.83344940  0.50010374  1
  Mn  Mn131  1  0.00014357  0.16700771  0.24916249  1
  Mn  Mn132  1  0.49984952  0.00108814  0.25059330  1
  Mn  Mn133  1  0.49952215  0.33271901  0.25030039  1
  Mn  Mn134  1  0.49883226  0.83427258  0.00024820  1
  Mn  Mn135  1  0.75026119  0.66726205  0.87502663  1
  Mn  Mn136  1  0.50007302  0.16547299  0.50083018  1
  Mn  Mn137  1  -0.00014788  0.33259263  -0.00057722  1
  Mn  Mn138  1  0.49952303  0.66657949  0.00040635  1
  Mn  Mn139  1  0.75002261  0.83382018  0.87508157  1
  Mn  Mn140  1  0.49982521  0.16595808  0.75097202  1
  Mn  Mn141  1  0.75069038  0.66744653  0.62437890  1
  Mn  Mn142  1  0.24935899  0.33325360  0.12438135  1
  Mn  Mn143  1  0.75042168  0.33265275  0.37562992  1
  Fe  Fe144  1  0.00037474  0.00016939  -0.00140144  1
  Fe  Fe145  1  0.49959231  0.83381865  0.75029955  1
  Fe  Fe146  1  0.24972245  0.00043431  0.87403546  1
  Fe  Fe147  1  0.00069669  0.33376755  0.25032457  1
  Fe  Fe148  1  0.75011037  0.33259859  0.12640395  1
  Fe  Fe149  1  0.75079499  0.00084433  0.37511677  1
  Fe  Fe150  1  0.24959980  0.83367213  0.62541161  1
  Fe  Fe151  1  0.24931148  0.83410345  0.87511362  1
  Fe  Fe152  1  0.00005326  0.83459909  -0.00113473  1
  Fe  Fe153  1  0.49936395  0.16688321  0.00062127  1
  Fe  Fe154  1  0.25020077  0.49923017  0.37451151  1
  Fe  Fe155  1  0.75034644  0.16658777  0.62496753  1
  Fe  Fe156  1  0.24906417  0.16650607  0.37438362  1
  Fe  Fe157  1  0.00048549  0.33313519  0.74908150  1
  Fe  Fe158  1  0.74991141  0.33309521  0.62469793  1
  Fe  Fe159  1  0.25005014  0.16599961  0.87379738  1
  Fe  Fe160  1  0.75046306  0.83409715  0.62482960  1
  Fe  Fe161  1  0.00044688  0.83296312  0.50013543  1
  Fe  Fe162  1  0.24945685  0.16646612  0.12457321  1
  Fe  Fe163  1  0.24989237  0.16592583  0.62399880  1
  Fe  Fe164  1  0.24972083  0.50009839  0.12523878  1
  Fe  Fe165  1  0.00085424  0.33333340  0.49985624  1
  Fe  Fe166  1  0.49934778  -0.00029316  0.50037493  1
  Fe  Fe167  1  0.50008163  0.00045827  0.00080637  1
  Fe  Fe168  1  0.49939591  0.16698503  0.24987985  1
  Fe  Fe169  1  0.24945821  0.66669198  0.12499649  1
  Fe  Fe170  1  0.00031788  0.00042770  0.74971194  1
  Fe  Fe171  1  0.24991747  0.00050132  0.37471909  1
  Fe  Fe172  1  0.75036455  0.49925421  0.37509222  1
  Fe  Fe173  1  0.24975493  0.33262517  0.62409197  1
  Fe  Fe174  1  0.75052855  0.16677104  0.37531058  1
  Fe  Fe175  1  0.25023726  0.49874480  0.62448791  1
  Fe  Fe176  1  0.49981049  0.49959976  0.25030078  1
  Fe  Fe177  1  0.00046632  0.83300631  0.24983719  1
  Fe  Fe178  1  0.24946204  -0.00017076  0.62487784  1
  Fe  Fe179  1  0.74985439  0.16669881  0.12596469  1
  Fe  Fe180  1  0.00093349  0.16668082  -0.00101187  1
  Fe  Fe181  1  0.74985404  0.83385640  0.12574275  1
  Fe  Fe182  1  0.49884945  0.33307768  0.00078861  1
  Fe  Fe183  1  0.24980494  0.49997084  0.87508081  1
  Fe  Fe184  1  0.00066375  0.16659733  0.74940455  1
  Fe  Fe185  1  0.49965264  0.66664165  0.50016004  1
  Fe  Fe186  1  0.00027463  0.66663906  0.49954390  1
  Fe  Fe187  1  0.00011575  0.49970805  0.25107492  1
  Fe  Fe188  1  0.00046636  0.49943885  0.50010029  1
  Fe  Fe189  1  0.24981987  0.33281826  0.37502018  1
  Fe  Fe190  1  0.00002776  0.83408791  0.74921070  1
  Fe  Fe191  1  0.24952653  0.00096124  0.12394350  1
  P  P192  1  0.04267046  0.24900394  0.10190709  1
  P  P193  1  0.04229399  0.25153998  0.35223158  1
  P  P194  1  0.04249603  0.25105621  0.60247688  1
  P  P195  1  0.04184172  0.24972879  0.85075634  1
  P  P196  1  0.04256791  0.58327637  0.10402235  1
  P  P197  1  0.04189059  0.58216000  0.35349215  1
  P  P198  1  0.04192023  0.58358052  0.60102389  1
  P  P199  1  0.04362805  0.58407122  0.85287525  1
  P  P200  1  0.04193302  0.91682033  0.10050862  1
  P  P201  1  0.04258797  0.91473701  0.35204407  1
  P  P202  1  0.04215819  0.91561138  0.60265133  1
  P  P203  1  0.04132251  0.91727693  0.85126482  1
  P  P204  1  0.54063481  0.25019128  0.10237021  1
  P  P205  1  0.54206156  0.24792214  0.35261632  1
  P  P206  1  0.54294740  0.24966140  0.60353280  1
  P  P207  1  0.54223047  0.24938375  0.85496071  1
  P  P208  1  0.54263717  0.58287855  0.10402776  1
  P  P209  1  0.54208768  0.58204881  0.35289622  1
  P  P210  1  0.54225799  0.58512752  0.60263217  1
  P  P211  1  0.54307478  0.58300966  0.85358917  1
  P  P212  1  0.54196637  0.91860107  0.10306623  1
  P  P213  1  0.54233168  0.91685739  0.35401839  1
  P  P214  1  0.54178408  0.91773425  0.60294129  1
  P  P215  1  0.54199575  0.91569574  0.85322166  1
  P  P216  1  0.45750990  0.08549067  0.14707958  1
  P  P217  1  0.45709112  0.08189286  0.39778924  1
  P  P218  1  0.45670898  0.08266871  0.64712714  1
  P  P219  1  0.45808332  0.08287977  0.89928078  1
  P  P220  1  0.45726920  0.41724777  0.14774797  1
  P  P221  1  0.45706730  0.41623984  0.39649249  1
  P  P222  1  0.45682012  0.41658568  0.64703034  1
  P  P223  1  0.45682326  0.41498057  0.89817418  1
  P  P224  1  0.45614481  0.75065811  0.14716835  1
  P  P225  1  0.45666775  0.74821254  0.39792533  1
  P  P226  1  0.45726098  0.75158716  0.64777192  1
  P  P227  1  0.45647049  0.75035175  0.89684631  1
  P  P228  1  0.95796509  0.08327845  0.14523749  1
  P  P229  1  0.95777382  0.08317016  0.39632799  1
  P  P230  1  0.95949963  0.08329271  0.64805616  1
  P  P231  1  0.95927186  0.08385776  0.89716454  1
  P  P232  1  0.95900731  0.41663040  0.14893081  1
  P  P233  1  0.95952120  0.41630267  0.39803563  1
  P  P234  1  0.95885377  0.41544016  0.64643472  1
  P  P235  1  0.95777304  0.41609753  0.89611369  1
  P  P236  1  0.95804163  0.75186868  0.14732041  1
  P  P237  1  0.95878183  0.75004467  0.39814731  1
  P  P238  1  0.95862398  0.75130880  0.64636314  1
  P  P239  1  0.95820880  0.75233743  0.89694826  1
  P  P240  1  0.20796423  0.08342585  0.22635155  1
  P  P241  1  0.20831285  0.08328484  0.47661467  1
  P  P242  1  0.20862569  0.08330226  0.72629095  1
  P  P243  1  0.20853460  0.08346237  0.97590323  1
  P  P244  1  0.20799970  0.41751618  0.22772560  1
  P  P245  1  0.20899954  0.41618969  0.47675288  1
  P  P246  1  0.20840417  0.41582109  0.72591237  1
  P  P247  1  0.20767806  0.41787633  0.97732138  1
  P  P248  1  0.20755451  0.74892050  0.22730169  1
  P  P249  1  0.20754923  0.75015993  0.47885129  1
  P  P250  1  0.20786536  0.75137916  0.72770244  1
  P  P251  1  0.20759811  0.75137837  0.97744817  1
  P  P252  1  0.70766668  0.08481496  0.22878640  1
  P  P253  1  0.70895146  0.08391346  0.47702750  1
  P  P254  1  0.70781113  0.08480804  0.72751911  1
  P  P255  1  0.70773123  0.08396692  0.97929396  1
  P  P256  1  0.70827847  0.41518986  0.22843923  1
  P  P257  1  0.70816909  0.41707809  0.47788033  1
  P  P258  1  0.70774775  0.41510344  0.72737121  1
  P  P259  1  0.70768075  0.41576383  0.97917205  1
  P  P260  1  0.70776031  0.75138435  0.22790494  1
  P  P261  1  0.70730277  0.75064376  0.47872475  1
  P  P262  1  0.70781940  0.75179287  0.72713483  1
  P  P263  1  0.70718172  0.75051125  0.97904474  1
  P  P264  1  0.29125692  0.24829615  0.02196473  1
  P  P265  1  0.29041886  0.24972243  0.27294309  1
  P  P266  1  0.29093161  0.24922192  0.52231932  1
  P  P267  1  0.29174807  0.24817087  0.77131183  1
  P  P268  1  0.29095980  0.58350069  0.02326038  1
  P  P269  1  0.29163387  0.58191654  0.27196338  1
  P  P270  1  0.29187727  0.58102368  0.52244403  1
  P  P271  1  0.29191954  0.58146112  0.77227668  1
  P  P272  1  0.29144134  0.91856690  0.02162091  1
  P  P273  1  0.29166352  0.91872446  0.27213312  1
  P  P274  1  0.29062036  0.91692537  0.52323130  1
  P  P275  1  0.29040848  0.91664518  0.77271652  1
  P  P276  1  0.79196575  0.24991292  0.02455460  1
  P  P277  1  0.79249735  0.24849477  0.27246506  1
  P  P278  1  0.79212303  0.24958500  0.52337357  1
  P  P279  1  0.79306565  0.24990800  0.77101247  1
  P  P280  1  0.79408729  0.58338764  0.02213559  1
  P  P281  1  0.79274763  0.58184948  0.27300903  1
  P  P282  1  0.79313120  0.58282625  0.52117948  1
  P  P283  1  0.79348992  0.58362421  0.77173093  1
  P  P284  1  0.79231156  0.91590842  0.02318144  1
  P  P285  1  0.79250678  0.91838333  0.27258459  1
  P  P286  1  0.79264876  0.91652822  0.52224041  1
  P  P287  1  0.79309962  0.91728697  0.77139518  1
  O  O288  1  0.03771393  0.24955352  0.18177240  1
  O  O289  1  0.03732609  0.25175366  0.43216254  1
  O  O290  1  0.03738827  0.25072019  0.68234058  1
  O  O291  1  0.03695438  0.24886992  0.93069814  1
  O  O292  1  0.03694373  0.58275793  0.18395893  1
  O  O293  1  0.03636185  0.58249458  0.43334183  1
  O  O294  1  0.03740717  0.58339255  0.68103396  1
  O  O295  1  0.03839585  0.58414640  0.93282799  1
  O  O296  1  0.03754028  0.91676949  0.18045172  1
  O  O297  1  0.03720769  0.91464964  0.43195268  1
  O  O298  1  0.03683900  0.91602829  0.68248784  1
  O  O299  1  0.03637700  0.91759636  0.93114763  1
  O  O300  1  0.53553393  0.24964270  0.18232315  1
  O  O301  1  0.53731454  0.24807433  0.43256120  1
  O  O302  1  0.53807801  0.24975721  0.68350944  1
  O  O303  1  0.53650443  0.24962507  0.93485887  1
  O  O304  1  0.53730696  0.58224333  0.18397126  1
  O  O305  1  0.53670326  0.58301746  0.43283908  1
  O  O306  1  0.53743511  0.58487551  0.68262248  1
  O  O307  1  0.53800442  0.58288505  0.93356218  1
  O  O308  1  0.53691589  0.91848211  0.18300406  1
  O  O309  1  0.53700242  0.91706421  0.43394128  1
  O  O310  1  0.53654970  0.91688924  0.68288289  1
  O  O311  1  0.53698319  0.91649094  0.93313649  1
  O  O312  1  0.46303466  0.08539948  0.06724245  1
  O  O313  1  0.46213559  0.08285197  0.31787582  1
  O  O314  1  0.46165944  0.08205891  0.56720070  1
  O  O315  1  0.46289523  0.08258884  0.81930909  1
  O  O316  1  0.46252431  0.41641512  0.06781370  1
  O  O317  1  0.46229831  0.41666731  0.31655389  1
  O  O318  1  0.46185989  0.41657781  0.56704895  1
  O  O319  1  0.46188910  0.41543062  0.81820027  1
  O  O320  1  0.46118446  0.75077682  0.06719911  1
  O  O321  1  0.46168220  0.74849233  0.31796499  1
  O  O322  1  0.46230773  0.75086888  0.56782058  1
  O  O323  1  0.46186778  0.75108874  0.81689814  1
  O  O324  1  0.96324678  0.08346206  0.06533928  1
  O  O325  1  0.96284394  0.08319985  0.31642643  1
  O  O326  1  0.96374330  0.08341465  0.56808649  1
  O  O327  1  0.96422679  0.08369522  0.81725756  1
  O  O328  1  0.96333863  0.41629526  0.06891437  1
  O  O329  1  0.96428166  0.41678567  0.31811577  1
  O  O330  1  0.96427259  0.41555540  0.56656092  1
  O  O331  1  0.96316875  0.41554758  0.81620861  1
  O  O332  1  0.96321182  0.75205813  0.06740482  1
  O  O333  1  0.96379150  0.75042909  0.31818025  1
  O  O334  1  0.96426369  0.75076040  0.56648594  1
  O  O335  1  0.96364240  0.75226679  0.81702522  1
  O  O336  1  0.21317436  0.08313835  0.05577005  1
  O  O337  1  0.21284333  0.08331883  0.30622093  1
  O  O338  1  0.21335437  0.08373235  0.55644801  1
  O  O339  1  0.21360493  0.08327317  0.80611245  1
  O  O340  1  0.21317549  0.41785250  0.05722399  1
  O  O341  1  0.21337460  0.41701442  0.30755209  1
  O  O342  1  0.21404406  0.41588211  0.55661504  1
  O  O343  1  0.21273700  0.41567824  0.80585629  1
  O  O344  1  0.21296102  0.75092719  0.05733909  1
  O  O345  1  0.21278517  0.74904186  0.30725122  1
  O  O346  1  0.21300972  0.75061745  0.55874253  1
  O  O347  1  0.21316522  0.75157638  0.80763682  1
  O  O348  1  0.71254041  0.08418829  0.05925427  1
  O  O349  1  0.71329677  0.08441902  0.30862016  1
  O  O350  1  0.71420483  0.08444756  0.55696108  1
  O  O351  1  0.71271689  0.08422579  0.80748595  1
  O  O352  1  0.71292683  0.41520209  0.05912651  1
  O  O353  1  0.71356058  0.41592454  0.30839246  1
  O  O354  1  0.71321298  0.41637318  0.55780565  1
  O  O355  1  0.71289773  0.41544010  0.80735072  1
  O  O356  1  0.71240555  0.75099022  0.05900141  1
  O  O357  1  0.71281072  0.75096019  0.30787975  1
  O  O358  1  0.71271829  0.75120708  0.55861966  1
  O  O359  1  0.71292061  0.75133695  0.80713266  1
  O  O360  1  0.28587941  0.24974652  0.19300398  1
  O  O361  1  0.28586954  0.24959121  0.44246510  1
  O  O362  1  0.28661533  0.24823900  0.69146701  1
  O  O363  1  0.28616653  0.24816864  0.94205979  1
  O  O364  1  0.28609316  0.58259575  0.19212504  1
  O  O365  1  0.28647196  0.58114259  0.44254306  1
  O  O366  1  0.28660488  0.58130176  0.69236670  1
  O  O367  1  0.28596504  0.58326563  0.94329933  1
  O  O368  1  0.28619736  0.91893588  0.19223806  1
  O  O369  1  0.28588232  0.91774815  0.44328796  1
  O  O370  1  0.28551752  0.91634184  0.69285089  1
  O  O371  1  0.28614680  0.91798584  0.94177789  1
  O  O372  1  0.78711596  0.24887080  0.19264210  1
  O  O373  1  0.78703560  0.24911925  0.44339535  1
  O  O374  1  0.78790038  0.24993549  0.69112318  1
  O  O375  1  0.78729974  0.24997953  0.94455471  1
  O  O376  1  0.78799101  0.58221190  0.19300581  1
  O  O377  1  0.78774573  0.58216509  0.44125432  1
  O  O378  1  0.78842397  0.58375193  0.69173167  1
  O  O379  1  0.78893304  0.58344474  0.94216535  1
  O  O380  1  0.78698915  0.91745599  0.19270150  1
  O  O381  1  0.78727380  0.91747704  0.44234713  1
  O  O382  1  0.78809431  0.91697001  0.69142936  1
  O  O383  1  0.78737844  0.91633227  0.94320176  1
  O  O384  1  0.22705049  0.24844669  0.05779217  1
  O  O385  1  0.22629251  0.24980585  0.30876493  1
  O  O386  1  0.22696140  0.24857220  0.55880750  1
  O  O387  1  0.22753165  0.24780441  0.80736466  1
  O  O388  1  0.22690003  0.58364504  0.05950738  1
  O  O389  1  0.22758855  0.58142835  0.30839529  1
  O  O390  1  0.22768581  0.58092754  0.55843077  1
  O  O391  1  0.22764018  0.58171371  0.80805690  1
  O  O392  1  0.22730716  0.91875177  0.05779411  1
  O  O393  1  0.22744110  0.91895915  0.30807456  1
  O  O394  1  0.22649949  0.91619552  0.55919952  1
  O  O395  1  0.22637164  0.91657039  0.80902513  1
  O  O396  1  0.72763369  0.25035832  0.06019328  1
  O  O397  1  0.72832771  0.24842594  0.30857227  1
  O  O398  1  0.72794286  0.24947381  0.55942966  1
  O  O399  1  0.72875170  0.24973735  0.80658949  1
  O  O400  1  0.72963832  0.58312053  0.05719382  1
  O  O401  1  0.72829312  0.58173721  0.30817157  1
  O  O402  1  0.72887897  0.58308127  0.55671290  1
  O  O403  1  0.72900208  0.58346689  0.80675647  1
  O  O404  1  0.72792286  0.91556427  0.05858155  1
  O  O405  1  0.72828572  0.91932779  0.30846627  1
  O  O406  1  0.72845282  0.91622951  0.55820067  1
  O  O407  1  0.72865076  0.91750654  0.80651767  1
  O  O408  1  0.27212587  0.08304821  0.19015244  1
  O  O409  1  0.27230412  0.08288119  0.44011136  1
  O  O410  1  0.27262886  0.08382516  0.68990426  1
  O  O411  1  0.27271334  0.08384583  0.93985107  1
  O  O412  1  0.27205054  0.41752940  0.19138390  1
  O  O413  1  0.27292848  0.41655330  0.44019987  1
  O  O414  1  0.27268169  0.41632905  0.69025321  1
  O  O415  1  0.27180340  0.41751578  0.94118466  1
  O  O416  1  0.27173482  0.74893698  0.19146980  1
  O  O417  1  0.27169388  0.75016374  0.44306262  1
  O  O418  1  0.27206192  0.75099123  0.69185134  1
  O  O419  1  0.27172487  0.75162583  0.94136836  1
  O  O420  1  0.77175059  0.08480186  0.19246087  1
  O  O421  1  0.77307490  0.08379605  0.44076575  1
  O  O422  1  0.77228913  0.08502315  0.69226848  1
  O  O423  1  0.77220926  0.08363941  0.94418540  1
  O  O424  1  0.77258328  0.41426055  0.19274356  1
  O  O425  1  0.77247969  0.41722026  0.44225257  1
  O  O426  1  0.77212260  0.41462807  0.69186845  1
  O  O427  1  0.77208468  0.41625460  0.94389317  1
  O  O428  1  0.77218472  0.75197114  0.19258193  1
  O  O429  1  0.77158819  0.75048004  0.44327108  1
  O  O430  1  0.77223446  0.75223780  0.69167672  1
  O  O431  1  0.77161495  0.75046910  0.94380199  1
  O  O432  1  0.02219227  0.08330756  0.18094708  1
  O  O433  1  0.02219271  0.08337593  0.43132871  1
  O  O434  1  0.02377536  0.08297123  0.68336760  1
  O  O435  1  0.02338206  0.08427747  0.93330628  1
  O  O436  1  0.02329187  0.41744891  0.18434776  1
  O  O437  1  0.02362082  0.41575535  0.43409050  1
  O  O438  1  0.02298424  0.41507723  0.68260188  1
  O  O439  1  0.02207601  0.41617805  0.93153132  1
  O  O440  1  0.02236291  0.75139094  0.18292496  1
  O  O441  1  0.02289331  0.74979070  0.43421626  1
  O  O442  1  0.02266545  0.75200132  0.68273102  1
  O  O443  1  0.02242327  0.75275136  0.93285985  1
  O  O444  1  0.52166445  0.08572773  0.18321433  1
  O  O445  1  0.52149343  0.08101721  0.43327677  1
  O  O446  1  0.52113860  0.08261440  0.68213648  1
  O  O447  1  0.52226348  0.08317565  0.93507330  1
  O  O448  1  0.52149777  0.41759390  0.18357902  1
  O  O449  1  0.52140981  0.41644987  0.43178097  1
  O  O450  1  0.52133693  0.41647295  0.68188671  1
  O  O451  1  0.52125513  0.41424393  0.93342812  1
  O  O452  1  0.52063918  0.75037151  0.18203495  1
  O  O453  1  0.52106987  0.74859449  0.43320841  1
  O  O454  1  0.52159184  0.75229004  0.68340076  1
  O  O455  1  0.52079934  0.75047013  0.93216968  1
  O  O456  1  0.47651466  0.25015258  0.06626321  1
  O  O457  1  0.47754990  0.24813372  0.31759449  1
  O  O458  1  0.47838700  0.24934115  0.56882587  1
  O  O459  1  0.47800459  0.24930989  0.81912587  1
  O  O460  1  0.47826215  0.58277001  0.06878214  1
  O  O461  1  0.47779796  0.58108336  0.31715616  1
  O  O462  1  0.47777093  0.58514859  0.56749377  1
  O  O463  1  0.47856675  0.58333061  0.81872698  1
  O  O464  1  0.47757423  0.91912739  0.06770576  1
  O  O465  1  0.47794014  0.91696584  0.31880265  1
  O  O466  1  0.47745101  0.91823497  0.56727917  1
  O  O467  1  0.47754365  0.91488361  0.81785654  1
  O  O468  1  0.97831424  0.24790632  0.06637264  1
  O  O469  1  0.97801620  0.25119666  0.31674569  1
  O  O470  1  0.97824349  0.25156062  0.56665080  1
  O  O471  1  0.97772847  0.25047413  0.81480902  1
  O  O472  1  0.97843803  0.58378939  0.06818252  1
  O  O473  1  0.97787528  0.58206018  0.31711465  1
  O  O474  1  0.97774983  0.58393676  0.56537397  1
  O  O475  1  0.97927591  0.58383404  0.81767493  1
  O  O476  1  0.97764278  0.91650489  0.06493611  1
  O  O477  1  0.97834370  0.91476576  0.31622062  1
  O  O478  1  0.97803014  0.91522450  0.56654019  1
  O  O479  1  0.97730558  0.91704141  0.81500841  1
  O  O480  1  0.07317589  0.31289936  0.07359042  1
  O  O481  1  0.07283489  0.31508828  0.32316053  1
  O  O482  1  0.07377897  0.31421659  0.57359913  1
  O  O483  1  0.07318097  0.31334247  0.82309313  1
  O  O484  1  0.07385471  0.64694835  0.07640032  1
  O  O485  1  0.07325260  0.64570178  0.32546529  1
  O  O486  1  0.07311275  0.64707154  0.57298802  1
  O  O487  1  0.07457842  0.64764250  0.82472309  1
  O  O488  1  0.07205723  0.98083507  0.07160316  1
  O  O489  1  0.07355164  0.97855414  0.32419073  1
  O  O490  1  0.07309966  0.97934078  0.57434617  1
  O  O491  1  0.07200491  0.98106685  0.82252052  1
  O  O492  1  0.57116738  0.31432969  0.07476584  1
  O  O493  1  0.57327092  0.31151401  0.32474089  1
  O  O494  1  0.57375643  0.31312158  0.57493670  1
  O  O495  1  0.57357223  0.31263643  0.82634956  1
  O  O496  1  0.57337569  0.64681745  0.07632066  1
  O  O497  1  0.57299221  0.64568346  0.32459735  1
  O  O498  1  0.57270918  0.64882241  0.57397473  1
  O  O499  1  0.57434546  0.64643162  0.82555353  1
  O  O500  1  0.57290449  0.98212209  0.07463910  1
  O  O501  1  0.57379481  0.97999998  0.32560914  1
  O  O502  1  0.57259061  0.98146199  0.57476466  1
  O  O503  1  0.57287058  0.97937525  0.82493793  1
  O  O504  1  0.42636168  0.02190493  0.17516124  1
  O  O505  1  0.42614146  0.01834903  0.42615719  1
  O  O506  1  0.42525385  0.01962692  0.67598550  1
  O  O507  1  0.42759230  0.01897040  0.92748771  1
  O  O508  1  0.42595972  0.35373005  0.17580238  1
  O  O509  1  0.42640648  0.35222486  0.42426242  1
  O  O510  1  0.42566405  0.35315656  0.67518285  1
  O  O511  1  0.42567202  0.35160463  0.92655988  1
  O  O512  1  0.42498962  0.68716156  0.17515642  1
  O  O513  1  0.42638260  0.68440718  0.42649755  1
  O  O514  1  0.42623207  0.68805637  0.67608988  1
  O  O515  1  0.42572493  0.68639394  0.92459897  1
  O  O516  1  0.92681861  0.01976338  0.17359991  1
  O  O517  1  0.92693646  0.01958507  0.42458034  1
  O  O518  1  0.92839608  0.01978000  0.67633107  1
  O  O519  1  0.92878570  0.01996739  0.92589470  1
  O  O520  1  0.92923426  0.35231558  0.17752356  1
  O  O521  1  0.92808104  0.35287786  0.42624710  1
  O  O522  1  0.92771111  0.35215634  0.67519023  1
  O  O523  1  0.92646003  0.35287507  0.92485386  1
  O  O524  1  0.92673562  0.68830006  0.17527292  1
  O  O525  1  0.92795102  0.68609673  0.42589435  1
  O  O526  1  0.92769281  0.68755463  0.67451296  1
  O  O527  1  0.92750629  0.68842737  0.92492882  1
  O  O528  1  0.17659405  0.02025050  0.19752025  1
  O  O529  1  0.17700525  0.01981272  0.44847316  1
  O  O530  1  0.17831419  0.01924020  0.69775965  1
  O  O531  1  0.17802310  0.01978565  0.94680579  1
  O  O532  1  0.17667151  0.35409903  0.19936233  1
  O  O533  1  0.17844304  0.35234711  0.44808956  1
  O  O534  1  0.17839596  0.35176218  0.69706256  1
  O  O535  1  0.17645674  0.35416565  0.94960856  1
  O  O536  1  0.17676296  0.68537832  0.19900277  1
  O  O537  1  0.17658552  0.68632582  0.45125852  1
  O  O538  1  0.17665011  0.68753933  0.70033022  1
  O  O539  1  0.17626391  0.68796358  0.94943528  1
  O  O540  1  0.67611869  0.02147878  0.20069074  1
  O  O541  1  0.67835608  0.01987260  0.44935076  1
  O  O542  1  0.67675177  0.02125746  0.69937272  1
  O  O543  1  0.67677944  0.02037347  0.95102787  1
  O  O544  1  0.67715728  0.35157294  0.20051399  1
  O  O545  1  0.67675464  0.35367453  0.44981666  1
  O  O546  1  0.67679861  0.35171122  0.69889938  1
  O  O547  1  0.67660388  0.35245265  0.95065416  1
  O  O548  1  0.67699173  0.68754783  0.20016026  1
  O  O549  1  0.67630281  0.68693390  0.45084844  1
  O  O550  1  0.67695605  0.68799808  0.69940362  1
  O  O551  1  0.67635373  0.68676222  0.95097413  1
  O  O552  1  0.32226696  0.31211627  0.04963473  1
  O  O553  1  0.32116826  0.31341195  0.30148676  1
  O  O554  1  0.32129807  0.31311651  0.55113972  1
  O  O555  1  0.32258162  0.31184874  0.79972785  1
  O  O556  1  0.32164797  0.64744907  0.05117355  1
  O  O557  1  0.32281657  0.64540647  0.30033975  1
  O  O558  1  0.32272914  0.64489060  0.55028276  1
  O  O559  1  0.32306224  0.64523771  0.79986693  1
  O  O560  1  0.32238217  0.98207226  0.05010397  1
  O  O561  1  0.32297257  0.98175959  0.30093771  1
  O  O562  1  0.32101726  0.98063986  0.55223762  1
  O  O563  1  0.32109141  0.98060170  0.80093149  1
  O  O564  1  0.82310735  0.31338077  0.05279585  1
  O  O565  1  0.82377250  0.31194022  0.30081256  1
  O  O566  1  0.82245313  0.31378635  0.55101400  1
  O  O567  1  0.82420671  0.31318739  0.79978720  1
  O  O568  1  0.82492922  0.64695695  0.05040623  1
  O  O569  1  0.82378040  0.64560399  0.30066814  1
  O  O570  1  0.82420723  0.64659384  0.54875853  1
  O  O571  1  0.82442710  0.64723484  0.79976706  1
  O  O572  1  0.82326420  0.97962863  0.05090220  1
  O  O573  1  0.82364476  0.98195149  0.30050332  1
  O  O574  1  0.82410351  0.97988353  0.55034093  1
  O  O575  1  0.82397336  0.98100140  0.79957975  1
  O  O576  1  0.42659628  0.14883106  0.17599097  1
  O  O577  1  0.42633671  0.14545153  0.42618848  1
  O  O578  1  0.42606642  0.14641489  0.67520868  1
  O  O579  1  0.42707418  0.14651457  0.92701233  1
  O  O580  1  0.42664210  0.48088089  0.17598307  1
  O  O581  1  0.42552146  0.47916482  0.42503964  1
  O  O582  1  0.42615427  0.48027384  0.67511220  1
  O  O583  1  0.42626807  0.47881507  0.92613132  1
  O  O584  1  0.42538070  0.81425789  0.17534972  1
  O  O585  1  0.42527037  0.81166676  0.42561537  1
  O  O586  1  0.42650731  0.81523991  0.67597769  1
  O  O587  1  0.42488106  0.81328802  0.92540710  1
  O  O588  1  0.92665536  0.14642174  0.17393675  1
  O  O589  1  0.92671253  0.14655942  0.42457623  1
  O  O590  1  0.92918700  0.14715428  0.67658207  1
  O  O591  1  0.92800745  0.14715545  0.92564479  1
  O  O592  1  0.92759347  0.47981059  0.17718748  1
  O  O593  1  0.92917460  0.48003558  0.42708656  1
  O  O594  1  0.92789162  0.47921532  0.67423559  1
  O  O595  1  0.92687425  0.47975765  0.92404959  1
  O  O596  1  0.92756599  0.81531222  0.17629141  1
  O  O597  1  0.92786093  0.81349892  0.42660963  1
  O  O598  1  0.92739941  0.81457323  0.67480478  1
  O  O599  1  0.92698836  0.81557005  0.92532652  1
  O  O600  1  0.07391673  0.18586619  0.07320601  1
  O  O601  1  0.07356067  0.18798609  0.32455483  1
  O  O602  1  0.07316480  0.18730688  0.57408722  1
  O  O603  1  0.07217013  0.18599874  0.82176779  1
  O  O604  1  0.07364444  0.51999377  0.07554820  1
  O  O605  1  0.07279972  0.51873804  0.32491048  1
  O  O606  1  0.07213341  0.51951741  0.57279525  1
  O  O607  1  0.07470738  0.52067261  0.82467435  1
  O  O608  1  0.07316590  0.85358550  0.07207073  1
  O  O609  1  0.07347608  0.85141675  0.32335459  1
  O  O610  1  0.07323976  0.85237395  0.57396533  1
  O  O611  1  0.07247782  0.85387123  0.82297420  1
  O  O612  1  0.57185281  0.18695726  0.07389128  1
  O  O613  1  0.57240009  0.18434041  0.32391631  1
  O  O614  1  0.57398890  0.18620156  0.57546637  1
  O  O615  1  0.57333683  0.18585036  0.82683607  1
  O  O616  1  0.57417731  0.51985568  0.07555451  1
  O  O617  1  0.57308320  0.51850975  0.32485236  1
  O  O618  1  0.57324961  0.52148170  0.57480604  1
  O  O619  1  0.57375994  0.51936356  0.82539411  1
  O  O620  1  0.57260159  0.85481065  0.07527756  1
  O  O621  1  0.57305948  0.85309470  0.32599911  1
  O  O622  1  0.57288748  0.85443544  0.57456090  1
  O  O623  1  0.57283799  0.85230470  0.82460294  1
  O  O624  1  0.32203203  0.18506933  0.05106570  1
  O  O625  1  0.32122904  0.18616745  0.30148095  1
  O  O626  1  0.32247380  0.18594127  0.55042601  1
  O  O627  1  0.32288229  0.18495402  0.80020067  1
  O  O628  1  0.32187260  0.51993244  0.05158831  1
  O  O629  1  0.32269237  0.51847748  0.30032041  1
  O  O630  1  0.32301337  0.51776339  0.55078867  1
  O  O631  1  0.32262181  0.51810727  0.80120845  1
  O  O632  1  0.32263747  0.85521069  0.05015329  1
  O  O633  1  0.32227778  0.85463726  0.29970840  1
  O  O634  1  0.32181594  0.85333221  0.55107173  1
  O  O635  1  0.32158418  0.85346101  0.80163894  1
  O  O636  1  0.82221535  0.18588777  0.05255726  1
  O  O637  1  0.82344313  0.18513943  0.30116024  1
  O  O638  1  0.82332659  0.18626003  0.55177462  1
  O  O639  1  0.82420235  0.18657840  0.79974756  1
  O  O640  1  0.82528692  0.52000151  0.05023194  1
  O  O641  1  0.82323699  0.51814981  0.30142863  1
  O  O642  1  0.82448946  0.51974999  0.54977858  1
  O  O643  1  0.82441271  0.52000190  0.79960780  1
  O  O644  1  0.82297321  0.85239767  0.05166496  1
  O  O645  1  0.82338665  0.85483646  0.30088182  1
  O  O646  1  0.82318053  0.85273219  0.55033539  1
  O  O647  1  0.82425862  0.85412768  0.79994765  1
  O  O648  1  0.17771314  0.14739925  0.19768271  1
  O  O649  1  0.17774940  0.14696838  0.44765271  1
  O  O650  1  0.17708876  0.14632030  0.69761360  1
  O  O651  1  0.17737844  0.14681926  0.94732896  1
  O  O652  1  0.17712374  0.48099885  0.19920895  1
  O  O653  1  0.17773131  0.47959458  0.44855169  1
  O  O654  1  0.17714445  0.47913109  0.69749695  1
  O  O655  1  0.17696184  0.48136051  0.94881981  1
  O  O656  1  0.17657927  0.81268576  0.19971810  1
  O  O657  1  0.17612045  0.81318240  0.45020279  1
  O  O658  1  0.17708595  0.81469951  0.69890431  1
  O  O659  1  0.17686782  0.81503977  0.94913976  1
  O  O660  1  0.67698708  0.14834050  0.20004828  1
  O  O661  1  0.67788613  0.14731969  0.44863214  1
  O  O662  1  0.67714437  0.14830491  0.69906852  1
  O  O663  1  0.67680915  0.14732097  0.95084208  1
  O  O664  1  0.67746575  0.47868587  0.20010059  1
  O  O665  1  0.67767549  0.48079060  0.44940339  1
  O  O666  1  0.67697852  0.47894734  0.69968691  1
  O  O667  1  0.67664842  0.47936012  0.95113300  1
  O  O668  1  0.67691894  0.81502759  0.19991111  1
  O  O669  1  0.67587730  0.81376599  0.45035681  1
  O  O670  1  0.67708972  0.81538122  0.69893393  1
  O  O671  1  0.67588145  0.81363827  0.95041587  1
