# generated using pymatgen
data_Na2MnFe(PO4)2
_symmetry_space_group_name_H-M   'P 1'
_cell_length_a   22.34623286
_cell_length_b   20.09733513
_cell_length_c   19.44786229
_cell_angle_alpha   90.02660228
_cell_angle_beta   90.07298070
_cell_angle_gamma   89.98472632
_symmetry_Int_Tables_number   1
_chemical_formula_structural   Na2MnFe(PO4)2
_chemical_formula_sum   'Na96 Mn48 Fe48 P96 O384'
_cell_volume   8734.02138185
_cell_formula_units_Z   48
loop_
 _symmetry_equiv_pos_site_id
 _symmetry_equiv_pos_as_xyz
  1  'x, y, z'
loop_
 _atom_site_type_symbol
 _atom_site_label
 _atom_site_symmetry_multiplicity
 _atom_site_fract_x
 _atom_site_fract_y
 _atom_site_fract_z
 _atom_site_occupancy
  Na  Na0  1  0.13972151  0.25046094  0.24391758  1
  Na  Na1  1  0.13908479  0.24988218  0.49304029  1
  Na  Na2  1  0.13960989  0.25002972  0.74328401  1
  Na  Na3  1  0.14000041  0.24973008  0.99465883  1
  Na  Na4  1  0.14018217  0.58425048  0.24337065  1
  Na  Na5  1  0.13981665  0.58443913  0.49416544  1
  Na  Na6  1  0.13977292  0.58383451  0.74449217  1
  Na  Na7  1  0.13961322  0.58212351  0.99289098  1
  Na  Na8  1  0.13999350  0.91625039  0.24495564  1
  Na  Na9  1  0.13973289  0.91679433  0.49342268  1
  Na  Na10  1  0.13973458  0.91654353  0.74344364  1
  Na  Na11  1  0.14015977  0.91449753  0.99385901  1
  Na  Na12  1  0.64037814  0.25017795  0.24351098  1
  Na  Na13  1  0.63949981  0.24970949  0.49438700  1
  Na  Na14  1  0.63991124  0.25095009  0.74428243  1
  Na  Na15  1  0.64092448  0.24983848  0.99316367  1
  Na  Na16  1  0.64015121  0.58380934  0.24264054  1
  Na  Na17  1  0.63981250  0.58357629  0.49309439  1
  Na  Na18  1  0.64020286  0.58281367  0.74429463  1
  Na  Na19  1  0.64031736  0.58275153  0.99300204  1
  Na  Na20  1  0.64071054  0.91692271  0.24226723  1
  Na  Na21  1  0.64092366  0.91610947  0.49345030  1
  Na  Na22  1  0.64044524  0.91769367  0.74375465  1
  Na  Na23  1  0.64062817  0.91585575  0.99291240  1
  Na  Na24  1  0.35978096  0.08252943  0.00639492  1
  Na  Na25  1  0.36006747  0.08236928  0.25672046  1
  Na  Na26  1  0.35975444  0.08395213  0.50622588  1
  Na  Na27  1  0.35964499  0.08407256  0.75628647  1
  Na  Na28  1  0.35971348  0.41646089  0.00505638  1
  Na  Na29  1  0.36015587  0.41767241  0.25549354  1
  Na  Na30  1  0.36029383  0.41687559  0.50689119  1
  Na  Na31  1  0.36007387  0.41706435  0.75602614  1
  Na  Na32  1  0.36032969  0.74813152  0.00685554  1
  Na  Na33  1  0.36015910  0.75031109  0.25580743  1
  Na  Na34  1  0.36037649  0.75023041  0.50453855  1
  Na  Na35  1  0.36012849  0.74977204  0.75610658  1
  Na  Na36  1  0.85926745  0.08348377  0.00554353  1
  Na  Na37  1  0.85953573  0.08416433  0.25642295  1
  Na  Na38  1  0.86043399  0.08334238  0.50759277  1
  Na  Na39  1  0.85980256  0.08434389  0.75713534  1
  Na  Na40  1  0.85954159  0.41682285  0.00667597  1
  Na  Na41  1  0.85971049  0.41670497  0.25591513  1
  Na  Na42  1  0.85950954  0.41652582  0.50691067  1
  Na  Na43  1  0.85898290  0.41710343  0.75770463  1
  Na  Na44  1  0.86030555  0.75001218  0.00662616  1
  Na  Na45  1  0.86023556  0.75054897  0.25578536  1
  Na  Na46  1  0.86025729  0.74969607  0.50703589  1
  Na  Na47  1  0.86009837  0.74965804  0.75722945  1
  Na  Na48  1  0.10924609  0.08300694  0.12013847  1
  Na  Na49  1  0.10909310  0.08319200  0.36929514  1
  Na  Na50  1  0.10856909  0.08324337  0.61822096  1
  Na  Na51  1  0.10890366  0.08264044  0.86832142  1
  Na  Na52  1  0.10924760  0.41694039  0.11847271  1
  Na  Na53  1  0.10880530  0.41548381  0.36930500  1
  Na  Na54  1  0.10877390  0.41638868  0.61877085  1
  Na  Na55  1  0.10899030  0.41699783  0.86820138  1
  Na  Na56  1  0.10946337  0.74993975  0.11820206  1
  Na  Na57  1  0.10940347  0.75043617  0.36917691  1
  Na  Na58  1  0.10903877  0.75111196  0.61906480  1
  Na  Na59  1  0.10930494  0.75053097  0.86890681  1
  Na  Na60  1  0.60970688  0.08220999  0.11755802  1
  Na  Na61  1  0.60956472  0.08403458  0.36914933  1
  Na  Na62  1  0.60965744  0.08445907  0.61943169  1
  Na  Na63  1  0.60985136  0.08480083  0.86806020  1
  Na  Na64  1  0.60986551  0.41668380  0.11776671  1
  Na  Na65  1  0.60935661  0.41722822  0.36920772  1
  Na  Na66  1  0.60889120  0.41669638  0.61932759  1
  Na  Na67  1  0.61007860  0.41716678  0.86868019  1
  Na  Na68  1  0.61003431  0.74827994  0.11732474  1
  Na  Na69  1  0.61019443  0.74846555  0.36712903  1
  Na  Na70  1  0.60986326  0.74825159  0.61808827  1
  Na  Na71  1  0.60990371  0.74941301  0.86906564  1
  Na  Na72  1  0.39100444  0.24933829  0.13063103  1
  Na  Na73  1  0.39106232  0.25107083  0.38210857  1
  Na  Na74  1  0.39028287  0.25067297  0.63137895  1
  Na  Na75  1  0.39020041  0.25165169  0.88113473  1
  Na  Na76  1  0.39051920  0.58257115  0.13019535  1
  Na  Na77  1  0.39127668  0.58259916  0.38024515  1
  Na  Na78  1  0.39078636  0.58251658  0.63070029  1
  Na  Na79  1  0.39073169  0.58371101  0.88178255  1
  Na  Na80  1  0.39075154  0.91448635  0.13191711  1
  Na  Na81  1  0.39067451  0.91691527  0.38106358  1
  Na  Na82  1  0.39100370  0.91658283  0.62977895  1
  Na  Na83  1  0.39137319  0.91680365  0.88168725  1
  Na  Na84  1  0.88993591  0.25008784  0.13169014  1
  Na  Na85  1  0.89066621  0.24899566  0.38108611  1
  Na  Na86  1  0.89011787  0.24872716  0.63201659  1
  Na  Na87  1  0.88960702  0.25013728  0.88214434  1
  Na  Na88  1  0.89034570  0.58433925  0.13102634  1
  Na  Na89  1  0.89047803  0.58379014  0.38187279  1
  Na  Na90  1  0.88998257  0.58554828  0.63207983  1
  Na  Na91  1  0.89036070  0.58513250  0.88281770  1
  Na  Na92  1  0.89028458  0.91659603  0.13098250  1
  Na  Na93  1  0.89088527  0.91609828  0.38160255  1
  Na  Na94  1  0.89110442  0.91673618  0.63193182  1
  Na  Na95  1  0.89032464  0.91663660  0.88107189  1
  Mn  Mn96  1  0.75016347  0.50036638  0.12492465  1
  Mn  Mn97  1  0.25099201  0.66778431  0.37377388  1
  Mn  Mn98  1  0.75015186  0.83250767  0.62482235  1
  Mn  Mn99  1  0.24967773  -0.00159055  0.12587702  1
  Mn  Mn100  1  0.50034658  0.33375079  0.00017792  1
  Mn  Mn101  1  0.24983800  0.33400401  0.37451669  1
  Mn  Mn102  1  0.75011951  0.00005526  0.37461981  1
  Mn  Mn103  1  0.24966889  0.66634836  0.12508769  1
  Mn  Mn104  1  0.25012792  0.16629528  0.12513236  1
  Mn  Mn105  1  0.50074386  0.33398023  0.25025135  1
  Mn  Mn106  1  -0.00036449  0.16652913  0.00002442  1
  Mn  Mn107  1  0.75030902  0.00091934  0.62483031  1
  Mn  Mn108  1  0.24893175  0.16776367  0.62544904  1
  Mn  Mn109  1  0.25041322  0.00027968  0.62469891  1
  Mn  Mn110  1  0.75038733  0.00031637  0.12420618  1
  Mn  Mn111  1  0.50041259  -0.00025238  0.00005483  1
  Mn  Mn112  1  0.00050150  0.33394458  0.00003969  1
  Mn  Mn113  1  0.75020764  0.16676916  0.37480396  1
  Mn  Mn114  1  0.74969737  0.50105344  0.37525691  1
  Mn  Mn115  1  0.49982817  0.66586005  0.74968238  1
  Mn  Mn116  1  0.25028480  0.83359241  0.62489230  1
  Mn  Mn117  1  0.24968765  0.50049037  0.37525536  1
  Mn  Mn118  1  0.24925797  0.16707680  0.87523651  1
  Mn  Mn119  1  0.50103138  0.00064209  0.50014705  1
  Mn  Mn120  1  0.50141125  0.83251287  0.49945550  1
  Mn  Mn121  1  0.24989817  -0.00084804  0.87558635  1
  Mn  Mn122  1  -0.00056966  -0.00068608  -0.00018617  1
  Mn  Mn123  1  0.25006787  0.49973807  0.62516948  1
  Mn  Mn124  1  -0.00130172  0.33299479  0.74956043  1
  Mn  Mn125  1  0.75032947  0.33322468  0.37555058  1
  Mn  Mn126  1  0.50017026  0.83354181  0.74935548  1
  Mn  Mn127  1  0.74998862  0.83286745  0.87454961  1
  Mn  Mn128  1  0.24978666  0.66696858  0.62449164  1
  Mn  Mn129  1  0.49974809  0.16752774  0.74984952  1
  Mn  Mn130  1  0.25060917  0.33401575  0.12459061  1
  Mn  Mn131  1  0.25115627  0.83195356  0.87467461  1
  Mn  Mn132  1  0.25094092  0.16663461  0.37491786  1
  Mn  Mn133  1  0.74924059  0.33277529  0.62650152  1
  Mn  Mn134  1  -0.00028448  -0.00038426  0.25057180  1
  Mn  Mn135  1  0.00036139  0.49949292  0.25100734  1
  Mn  Mn136  1  0.50081076  0.83210904  0.24986430  1
  Mn  Mn137  1  0.24956703  0.49921771  0.87422695  1
  Mn  Mn138  1  -0.00043265  0.50009140  0.50041470  1
  Mn  Mn139  1  0.00037507  0.66746560  0.25043134  1
  Mn  Mn140  1  -0.00106734  0.50152313  0.74936777  1
  Mn  Mn141  1  0.75050806  0.83224562  0.37420289  1
  Mn  Mn142  1  0.74987537  0.50072096  0.62594772  1
  Mn  Mn143  1  0.50066971  0.16599302  0.25050925  1
  Fe  Fe144  1  0.24943805  0.49979518  0.12409529  1
  Fe  Fe145  1  0.49951000  0.16712534  0.50030258  1
  Fe  Fe146  1  0.50027782  0.00056286  0.75030521  1
  Fe  Fe147  1  0.74964742  0.16701314  0.62622683  1
  Fe  Fe148  1  0.74960569  0.66667556  0.87539054  1
  Fe  Fe149  1  -0.00046777  0.16635742  0.25072125  1
  Fe  Fe150  1  0.24982309  0.83375680  0.37505799  1
  Fe  Fe151  1  0.74998835  0.33356866  0.12464991  1
  Fe  Fe152  1  0.24976912  -0.00027171  0.37507942  1
  Fe  Fe153  1  0.49995800  0.16644150  -0.00010160  1
  Fe  Fe154  1  0.50053501  0.66604356  -0.00047164  1
  Fe  Fe155  1  -0.00070797  0.50060843  0.00019391  1
  Fe  Fe156  1  0.74978554  0.66644276  0.62546919  1
  Fe  Fe157  1  0.75031046  0.83310673  0.12412020  1
  Fe  Fe158  1  0.50010392  0.66565339  0.49891992  1
  Fe  Fe159  1  0.74982098  0.00026619  0.87480601  1
  Fe  Fe160  1  0.00014448  0.83330791  0.25057264  1
  Fe  Fe161  1  0.74967324  0.16706986  0.12428582  1
  Fe  Fe162  1  -0.00049393  0.16641121  0.50006521  1
  Fe  Fe163  1  -0.00010808  0.83327472  0.50101303  1
  Fe  Fe164  1  -0.00013444  -0.00018245  0.74950611  1
  Fe  Fe165  1  -0.00052799  0.33298578  0.24998486  1
  Fe  Fe166  1  0.50046922  0.83283276  0.00024636  1
  Fe  Fe167  1  0.24951510  0.33315927  0.87517547  1
  Fe  Fe168  1  0.49980924  0.33395405  0.50034556  1
  Fe  Fe169  1  -0.00002290  0.66779359  0.75124499  1
  Fe  Fe170  1  0.50028613  0.66539300  0.24856925  1
  Fe  Fe171  1  0.49996471  0.49991916  -0.00038320  1
  Fe  Fe172  1  0.50014776  0.49999102  0.24982785  1
  Fe  Fe173  1  0.24947585  0.33353540  0.62506255  1
  Fe  Fe174  1  0.49982857  0.33386215  0.75010251  1
  Fe  Fe175  1  0.74995997  0.33321679  0.87562148  1
  Fe  Fe176  1  -0.00005619  0.66738590  0.50114396  1
  Fe  Fe177  1  0.50026021  0.49992186  0.74954752  1
  Fe  Fe178  1  0.50026101  -0.00045715  0.24979997  1
  Fe  Fe179  1  -0.00011331  0.83368017  0.74997358  1
  Fe  Fe180  1  -0.00029783  -0.00001718  0.50048659  1
  Fe  Fe181  1  0.24963546  0.66585983  0.87532136  1
  Fe  Fe182  1  -0.00028149  0.16647548  0.74952976  1
  Fe  Fe183  1  0.75070473  0.66660713  0.12461318  1
  Fe  Fe184  1  0.74989195  0.16708765  0.87558553  1
  Fe  Fe185  1  0.75043595  0.66689993  0.37445570  1
  Fe  Fe186  1  -0.00113408  0.33250368  0.49973005  1
  Fe  Fe187  1  0.25022661  0.83282084  0.12529273  1
  Fe  Fe188  1  0.00029625  0.66755583  0.00034821  1
  Fe  Fe189  1  0.50019758  0.49991332  0.49962038  1
  Fe  Fe190  1  0.75035051  0.50037904  0.87595424  1
  Fe  Fe191  1  0.00025244  0.83374812  -0.00028758  1
  P  P192  1  0.04222477  0.25004218  0.10410255  1
  P  P193  1  0.04102892  0.24969813  0.35232012  1
  P  P194  1  0.04059699  0.24943512  0.60168645  1
  P  P195  1  0.04154817  0.24897557  0.85199541  1
  P  P196  1  0.04117916  0.58348276  0.10167385  1
  P  P197  1  0.04280660  0.58374993  0.35403748  1
  P  P198  1  0.04172149  0.58530184  0.60333089  1
  P  P199  1  0.04151903  0.58499112  0.85354114  1
  P  P200  1  0.04204335  0.91531222  0.10288680  1
  P  P201  1  0.04158325  0.91521851  0.35379486  1
  P  P202  1  0.04111272  0.91683219  0.60240015  1
  P  P203  1  0.04115387  0.91652589  0.85152137  1
  P  P204  1  0.54267634  0.24844934  0.10221297  1
  P  P205  1  0.54270446  0.25054508  0.35413775  1
  P  P206  1  0.54096855  0.25078151  0.60215841  1
  P  P207  1  0.54195365  0.25183753  0.85269618  1
  P  P208  1  0.54150316  0.58261755  0.10146107  1
  P  P209  1  0.54181637  0.58298442  0.35150162  1
  P  P210  1  0.54148753  0.58259352  0.60129507  1
  P  P211  1  0.54188722  0.58186032  0.85285061  1
  P  P212  1  0.54276706  0.91478272  0.10263253  1
  P  P213  1  0.54308309  0.91753860  0.35187505  1
  P  P214  1  0.54360217  0.91677070  0.60327964  1
  P  P215  1  0.54242886  0.91774151  0.85269601  1
  P  P216  1  0.45803221  0.08155888  0.14736600  1
  P  P217  1  0.45782557  0.08453555  0.39759316  1
  P  P218  1  0.45784894  0.08274062  0.64746837  1
  P  P219  1  0.45797886  0.08457834  0.89727273  1
  P  P220  1  0.45838758  0.41803292  0.14710764  1
  P  P221  1  0.45870174  0.41719001  0.39816374  1
  P  P222  1  0.45871121  0.41667495  0.64767554  1
  P  P223  1  0.45818215  0.41814784  0.89676471  1
  P  P224  1  0.45858433  0.74784162  0.14631079  1
  P  P225  1  0.45887441  0.74800243  0.39633443  1
  P  P226  1  0.45767410  0.74908787  0.64588770  1
  P  P227  1  0.45907582  0.75001510  0.89837176  1
  P  P228  1  0.95735016  0.08416168  0.14806282  1
  P  P229  1  0.95849851  0.08330927  0.39851903  1
  P  P230  1  0.95840132  0.08302563  0.64776449  1
  P  P231  1  0.95724677  0.08290046  0.89578969  1
  P  P232  1  0.95791691  0.41626343  0.14739751  1
  P  P233  1  0.95742738  0.41485702  0.39748176  1
  P  P234  1  0.95617087  0.41675316  0.64643841  1
  P  P235  1  0.95733330  0.41844534  0.89771663  1
  P  P236  1  0.95839547  0.75165398  0.14707627  1
  P  P237  1  0.95868743  0.75039699  0.39902833  1
  P  P238  1  0.95871901  0.75033379  0.64848816  1
  P  P239  1  0.95883571  0.75071371  0.89809223  1
  P  P240  1  0.20744578  0.08253764  0.22902946  1
  P  P241  1  0.20772725  0.08266534  0.47721488  1
  P  P242  1  0.20653293  0.08341495  0.72815736  1
  P  P243  1  0.20666680  0.08269204  0.97847995  1
  P  P244  1  0.20731502  0.41827064  0.22701566  1
  P  P245  1  0.20667303  0.41659059  0.47872420  1
  P  P246  1  0.20725245  0.41532773  0.72764284  1
  P  P247  1  0.20692919  0.41550147  0.97732512  1
  P  P248  1  0.20772559  0.75177271  0.22774892  1
  P  P249  1  0.20775007  0.75132741  0.47694325  1
  P  P250  1  0.20721440  0.74959728  0.72851164  1
  P  P251  1  0.20802393  0.74821492  0.97777258  1
  P  P252  1  0.70764301  0.08472098  0.22655858  1
  P  P253  1  0.70739426  0.08363135  0.47858070  1
  P  P254  1  0.70799290  0.08496580  0.72873229  1
  P  P255  1  0.70871679  0.08346691  0.97662098  1
  P  P256  1  0.70778192  0.41601868  0.22709050  1
  P  P257  1  0.70716943  0.41699549  0.47862976  1
  P  P258  1  0.70732698  0.41704588  0.72984304  1
  P  P259  1  0.70900231  0.41626226  0.97711096  1
  P  P260  1  0.70908126  0.74962717  0.22593060  1
  P  P261  1  0.70787014  0.74815731  0.47735148  1
  P  P262  1  0.70777656  0.74840480  0.72794687  1
  P  P263  1  0.70834318  0.74872772  0.97803812  1
  P  P264  1  0.29298863  0.25007223  0.02138946  1
  P  P265  1  0.29352207  0.25047055  0.27167733  1
  P  P266  1  0.29199456  0.25136899  0.52270621  1
  P  P267  1  0.29175992  0.25187813  0.77222362  1
  P  P268  1  0.29164413  0.58180003  0.02183252  1
  P  P269  1  0.29284190  0.58312249  0.27084209  1
  P  P270  1  0.29301748  0.58352075  0.52164099  1
  P  P271  1  0.29247134  0.58425566  0.77266109  1
  P  P272  1  0.29266482  0.91442457  0.02295584  1
  P  P273  1  0.29170167  0.91599672  0.27340356  1
  P  P274  1  0.29284865  0.91687252  0.52060432  1
  P  P275  1  0.29350930  0.91656550  0.77187102  1
  P  P276  1  0.79138761  0.25019864  0.02269789  1
  P  P277  1  0.79255660  0.25045444  0.27086730  1
  P  P278  1  0.79199964  0.24880965  0.52366199  1
  P  P279  1  0.79099421  0.25004882  0.77401967  1
  P  P280  1  0.79201013  0.58450140  0.02188914  1
  P  P281  1  0.79263796  0.58503104  0.27208381  1
  P  P282  1  0.79216384  0.58503139  0.52262678  1
  P  P283  1  0.79129855  0.58385561  0.77401042  1
  P  P284  1  0.79206750  0.91567220  0.02158393  1
  P  P285  1  0.79295256  0.91637488  0.27093751  1
  P  P286  1  0.79324537  0.91627837  0.52197474  1
  P  P287  1  0.79203464  0.91802291  0.77254388  1
  O  O288  1  0.03679050  0.25018541  0.18399300  1
  O  O289  1  0.03557877  0.24984314  0.43224116  1
  O  O290  1  0.03547171  0.24895463  0.68163872  1
  O  O291  1  0.03686594  0.24947310  0.93197990  1
  O  O292  1  0.03680585  0.58373417  0.18170168  1
  O  O293  1  0.03751375  0.58413671  0.43395453  1
  O  O294  1  0.03634937  0.58568315  0.68327924  1
  O  O295  1  0.03602964  0.58426913  0.93341903  1
  O  O296  1  0.03670542  0.91528836  0.18281416  1
  O  O297  1  0.03619173  0.91524599  0.43361628  1
  O  O298  1  0.03608542  0.91754270  0.68227972  1
  O  O299  1  0.03629490  0.91595924  0.93149563  1
  O  O300  1  0.53773509  0.24866300  0.18216165  1
  O  O301  1  0.53704392  0.25076003  0.43401631  1
  O  O302  1  0.53588047  0.25108736  0.68214834  1
  O  O303  1  0.53713120  0.25115448  0.93259543  1
  O  O304  1  0.53677188  0.58290627  0.18136372  1
  O  O305  1  0.53645072  0.58343725  0.43135671  1
  O  O306  1  0.53661073  0.58207716  0.68124722  1
  O  O307  1  0.53663435  0.58212598  0.93268541  1
  O  O308  1  0.53776078  0.91528969  0.18255594  1
  O  O309  1  0.53826986  0.91729341  0.43184897  1
  O  O310  1  0.53808853  0.91719729  0.68320146  1
  O  O311  1  0.53707331  0.91702513  0.93262481  1
  O  O312  1  0.46305618  0.08197388  0.06741617  1
  O  O313  1  0.46295687  0.08387195  0.31768117  1
  O  O314  1  0.46319776  0.08357284  0.56755002  1
  O  O315  1  0.46313682  0.08407415  0.81735437  1
  O  O316  1  0.46368389  0.41779559  0.06720127  1
  O  O317  1  0.46370073  0.41769339  0.31821716  1
  O  O318  1  0.46382462  0.41617437  0.56779509  1
  O  O319  1  0.46341945  0.41791421  0.81690351  1
  O  O320  1  0.46398829  0.74857458  0.06644672  1
  O  O321  1  0.46429069  0.74775827  0.31637688  1
  O  O322  1  0.46317617  0.74850303  0.56596783  1
  O  O323  1  0.46357273  0.74994605  0.81835739  1
  O  O324  1  0.96236875  0.08367841  0.06810381  1
  O  O325  1  0.96339067  0.08354000  0.31857008  1
  O  O326  1  0.96340623  0.08335773  0.56784009  1
  O  O327  1  0.96272131  0.08277366  0.81589458  1
  O  O328  1  0.96326289  0.41728269  0.06743604  1
  O  O329  1  0.96315032  0.41469448  0.31755339  1
  O  O330  1  0.96144753  0.41614154  0.56650513  1
  O  O331  1  0.96192254  0.41837677  0.81771441  1
  O  O332  1  0.96390746  0.75159382  0.06725607  1
  O  O333  1  0.96369788  0.75034124  0.31906922  1
  O  O334  1  0.96381824  0.75039393  0.56860239  1
  O  O335  1  0.96354735  0.75025880  0.81819294  1
  O  O336  1  0.21184213  0.08260001  0.05848825  1
  O  O337  1  0.21297947  0.08214922  0.30896955  1
  O  O338  1  0.21245385  0.08310383  0.55725224  1
  O  O339  1  0.21137932  0.08343563  0.80815896  1
  O  O340  1  0.21223242  0.41657309  0.05725644  1
  O  O341  1  0.21228068  0.41805508  0.30702447  1
  O  O342  1  0.21173211  0.41586058  0.55873491  1
  O  O343  1  0.21229412  0.41504307  0.80762857  1
  O  O344  1  0.21313453  0.74901311  0.05773790  1
  O  O345  1  0.21309678  0.75201039  0.30766468  1
  O  O346  1  0.21261892  0.75112266  0.55692522  1
  O  O347  1  0.21250116  0.74871236  0.80848596  1
  O  O348  1  0.71369858  0.08404027  0.05658419  1
  O  O349  1  0.71275585  0.08417362  0.30654588  1
  O  O350  1  0.71232715  0.08401242  0.55859876  1
  O  O351  1  0.71342051  0.08441473  0.80862225  1
  O  O352  1  0.71406856  0.41601143  0.05709010  1
  O  O353  1  0.71275804  0.41649632  0.30707965  1
  O  O354  1  0.71216757  0.41704920  0.55862798  1
  O  O355  1  0.71284965  0.41703927  0.80972581  1
  O  O356  1  0.71394410  0.74924683  0.05788091  1
  O  O357  1  0.71395084  0.74931426  0.30596539  1
  O  O358  1  0.71294184  0.74805552  0.55734511  1
  O  O359  1  0.71299692  0.74845446  0.80791142  1
  O  O360  1  0.28863004  0.25028480  0.19166814  1
  O  O361  1  0.28757584  0.25095690  0.44266317  1
  O  O362  1  0.28635327  0.25209493  0.69222087  1
  O  O363  1  0.28750141  0.25050312  0.94141909  1
  O  O364  1  0.28731371  0.58250569  0.19089098  1
  O  O365  1  0.28810546  0.58354212  0.44164263  1
  O  O366  1  0.28744951  0.58395180  0.69269050  1
  O  O367  1  0.28630637  0.58253465  0.94189669  1
  O  O368  1  0.28683893  0.91543808  0.19337236  1
  O  O369  1  0.28734307  0.91706876  0.44065851  1
  O  O370  1  0.28850874  0.91668526  0.69186665  1
  O  O371  1  0.28792976  0.91475214  0.94295214  1
  O  O372  1  0.78716596  0.25056773  0.19093184  1
  O  O373  1  0.78725704  0.24908759  0.44365612  1
  O  O374  1  0.78598561  0.24922278  0.69408624  1
  O  O375  1  0.78608936  0.25043300  0.94275656  1
  O  O376  1  0.78756173  0.58496271  0.19210266  1
  O  O377  1  0.78699720  0.58516806  0.44263902  1
  O  O378  1  0.78642911  0.58399737  0.69399550  1
  O  O379  1  0.78656065  0.58417240  0.94205145  1
  O  O380  1  0.78778602  0.91599183  0.19093392  1
  O  O381  1  0.78833411  0.91618895  0.44195051  1
  O  O382  1  0.78690204  0.91783857  0.69260194  1
  O  O383  1  0.78659138  0.91620873  0.94164866  1
  O  O384  1  0.22870207  0.25018587  0.05670090  1
  O  O385  1  0.22896519  0.25007415  0.30627940  1
  O  O386  1  0.22741070  0.25182437  0.55746461  1
  O  O387  1  0.22747376  0.25194978  0.80787683  1
  O  O388  1  0.22743565  0.58169100  0.05765212  1
  O  O389  1  0.22856990  0.58389798  0.30622285  1
  O  O390  1  0.22850595  0.58311250  0.55636837  1
  O  O391  1  0.22804358  0.58447917  0.80788176  1
  O  O392  1  0.22815345  0.91418856  0.05789842  1
  O  O393  1  0.22745645  0.91601997  0.30912740  1
  O  O394  1  0.22856794  0.91678203  0.55616075  1
  O  O395  1  0.22900244  0.91575512  0.80662696  1
  O  O396  1  0.72736377  0.25012643  0.05905097  1
  O  O397  1  0.72834034  0.25028848  0.30653494  1
  O  O398  1  0.72754477  0.24827998  0.55882517  1
  O  O399  1  0.72688531  0.25110955  0.80988793  1
  O  O400  1  0.72793880  0.58475458  0.05804953  1
  O  O401  1  0.72825194  0.58541495  0.30750014  1
  O  O402  1  0.72786222  0.58509561  0.55824835  1
  O  O403  1  0.72715313  0.58409898  0.80980247  1
  O  O404  1  0.72798861  0.91580960  0.05753371  1
  O  O405  1  0.72862025  0.91627341  0.30620310  1
  O  O406  1  0.72880634  0.91647397  0.55681514  1
  O  O407  1  0.72780304  0.91796284  0.80812244  1
  O  O408  1  0.27169368  0.08241547  0.19354841  1
  O  O409  1  0.27215698  0.08220089  0.44222400  1
  O  O410  1  0.27105775  0.08408771  0.69349247  1
  O  O411  1  0.27112356  0.08310480  0.94356751  1
  O  O412  1  0.27174947  0.41893148  0.19179428  1
  O  O413  1  0.27117596  0.41693903  0.44382120  1
  O  O414  1  0.27163792  0.41515481  0.69228427  1
  O  O415  1  0.27124754  0.41493265  0.94174484  1
  O  O416  1  0.27198031  0.75110005  0.19209111  1
  O  O417  1  0.27216428  0.75197049  0.44171022  1
  O  O418  1  0.27161555  0.75001023  0.69342370  1
  O  O419  1  0.27235377  0.74740861  0.94222429  1
  O  O420  1  0.77196115  0.08511419  0.19114728  1
  O  O421  1  0.77185866  0.08331001  0.44362532  1
  O  O422  1  0.77214240  0.08563372  0.69266833  1
  O  O423  1  0.77278728  0.08267020  0.94073781  1
  O  O424  1  0.77209837  0.41587147  0.19169431  1
  O  O425  1  0.77155465  0.41739580  0.44357110  1
  O  O426  1  0.77146353  0.41676674  0.69402854  1
  O  O427  1  0.77301227  0.41568143  0.94103585  1
  O  O428  1  0.77325104  0.74944317  0.19016383  1
  O  O429  1  0.77226286  0.74799473  0.44193035  1
  O  O430  1  0.77207855  0.74801874  0.69236872  1
  O  O431  1  0.77236561  0.74842519  0.94174309  1
  O  O432  1  0.02158151  0.08439493  0.18386480  1
  O  O433  1  0.02256401  0.08364533  0.43466426  1
  O  O434  1  0.02245809  0.08276367  0.68411724  1
  O  O435  1  0.02138168  0.08274602  0.93183191  1
  O  O436  1  0.02206178  0.41533204  0.18345273  1
  O  O437  1  0.02147964  0.41495440  0.43378587  1
  O  O438  1  0.02048629  0.41700431  0.68188788  1
  O  O439  1  0.02177007  0.41874645  0.93293986  1
  O  O440  1  0.02247486  0.75196616  0.18355709  1
  O  O441  1  0.02279668  0.75080489  0.43520544  1
  O  O442  1  0.02272834  0.74989694  0.68491571  1
  O  O443  1  0.02291601  0.75123712  0.93433969  1
  O  O444  1  0.52240976  0.08113897  0.18294521  1
  O  O445  1  0.52212095  0.08549361  0.43332535  1
  O  O446  1  0.52205117  0.08268276  0.68348428  1
  O  O447  1  0.52229089  0.08475987  0.93306639  1
  O  O448  1  0.52262539  0.41847850  0.18302344  1
  O  O449  1  0.52278375  0.41647410  0.43435192  1
  O  O450  1  0.52270212  0.41705042  0.68431119  1
  O  O451  1  0.52232752  0.41837592  0.93301817  1
  O  O452  1  0.52271295  0.74756352  0.18255708  1
  O  O453  1  0.52303216  0.74768148  0.43240206  1
  O  O454  1  0.52189482  0.74928154  0.68162348  1
  O  O455  1  0.52330800  0.75054706  0.93402824  1
  O  O456  1  0.47831070  0.24862870  0.06673104  1
  O  O457  1  0.47861402  0.25032242  0.31803944  1
  O  O458  1  0.47688986  0.25086524  0.56592871  1
  O  O459  1  0.47767242  0.25195301  0.81696861  1
  O  O460  1  0.47741689  0.58216064  0.06526020  1
  O  O461  1  0.47780464  0.58282685  0.31475907  1
  O  O462  1  0.47736694  0.58318675  0.56519436  1
  O  O463  1  0.47778840  0.58130671  0.81654563  1
  O  O464  1  0.47845142  0.91467554  0.06697010  1
  O  O465  1  0.47867739  0.91718923  0.31647665  1
  O  O466  1  0.47941843  0.91636286  0.56754288  1
  O  O467  1  0.47825200  0.91811948  0.81664669  1
  O  O468  1  0.97805238  0.25043378  0.06815955  1
  O  O469  1  0.97706937  0.24957746  0.31556091  1
  O  O470  1  0.97644050  0.24941116  0.56557838  1
  O  O471  1  0.97710453  0.24849104  0.81676162  1
  O  O472  1  0.97694865  0.58365101  0.06606103  1
  O  O473  1  0.97854324  0.58368990  0.31845246  1
  O  O474  1  0.97753296  0.58501580  0.56739967  1
  O  O475  1  0.97736745  0.58562883  0.81729202  1
  O  O476  1  0.97779225  0.91496305  0.06691830  1
  O  O477  1  0.97756354  0.91492442  0.31725796  1
  O  O478  1  0.97710629  0.91626437  0.56598547  1
  O  O479  1  0.97701764  0.91715069  0.81548553  1
  O  O480  1  0.07374314  0.31317391  0.07551142  1
  O  O481  1  0.07195472  0.31324259  0.32385969  1
  O  O482  1  0.07111267  0.31340716  0.57382865  1
  O  O483  1  0.07216428  0.31278175  0.82397755  1
  O  O484  1  0.07180447  0.64724608  0.07335011  1
  O  O485  1  0.07412477  0.64684477  0.32540676  1
  O  O486  1  0.07257211  0.64861773  0.57452738  1
  O  O487  1  0.07265365  0.64843212  0.82535332  1
  O  O488  1  0.07259985  0.97936835  0.07529549  1
  O  O489  1  0.07246517  0.97901266  0.32589893  1
  O  O490  1  0.07153610  0.98046500  0.57316748  1
  O  O491  1  0.07239377  0.97997456  0.82354002  1
  O  O492  1  0.57382999  0.31207720  0.07466553  1
  O  O493  1  0.57377507  0.31397171  0.32559571  1
  O  O494  1  0.57230163  0.31407382  0.57399879  1
  O  O495  1  0.57244306  0.31552227  0.82423546  1
  O  O496  1  0.57177733  0.64644384  0.07243734  1
  O  O497  1  0.57279249  0.64628445  0.32257457  1
  O  O498  1  0.57258853  0.64612085  0.57322498  1
  O  O499  1  0.57263237  0.64568481  0.82474855  1
  O  O500  1  0.57406554  0.97810556  0.07443534  1
  O  O501  1  0.57320749  0.98141399  0.32341452  1
  O  O502  1  0.57485244  0.98004441  0.57503988  1
  O  O503  1  0.57292793  0.98162202  0.82465000  1
  O  O504  1  0.42753888  0.01779216  0.17587433  1
  O  O505  1  0.42710884  0.02083398  0.42562137  1
  O  O506  1  0.42748953  0.01889888  0.67572237  1
  O  O507  1  0.42666789  0.02126219  0.92542972  1
  O  O508  1  0.42776189  0.35408651  0.17491607  1
  O  O509  1  0.42738511  0.35377032  0.42617651  1
  O  O510  1  0.42801717  0.35312990  0.67658368  1
  O  O511  1  0.42719145  0.35459779  0.92504921  1
  O  O512  1  0.42755011  0.68434667  0.17444250  1
  O  O513  1  0.42749666  0.68494284  0.42486923  1
  O  O514  1  0.42640176  0.68598237  0.67461999  1
  O  O515  1  0.42896871  0.68585909  0.92647174  1
  O  O516  1  0.92645499  0.02042147  0.17581569  1
  O  O517  1  0.92833103  0.01918891  0.42672913  1
  O  O518  1  0.92720982  0.01953888  0.67584307  1
  O  O519  1  0.92601892  0.01963407  0.92436110  1
  O  O520  1  0.92675126  0.35275715  0.17521998  1
  O  O521  1  0.92633813  0.35155943  0.42594698  1
  O  O522  1  0.92503520  0.35354454  0.67509702  1
  O  O523  1  0.92667904  0.35456550  0.92543506  1
  O  O524  1  0.92749530  0.68784033  0.17494467  1
  O  O525  1  0.92848825  0.68632532  0.42738990  1
  O  O526  1  0.92730313  0.68721521  0.67712157  1
  O  O527  1  0.92853264  0.68701887  0.92726872  1
  O  O528  1  0.17596160  0.01930370  0.20076510  1
  O  O529  1  0.17693201  0.01913462  0.44876493  1
  O  O530  1  0.17604933  0.01975308  0.69973322  1
  O  O531  1  0.17606336  0.01887893  0.95041924  1
  O  O532  1  0.17684589  0.35427163  0.19927151  1
  O  O533  1  0.17568993  0.35340539  0.44959543  1
  O  O534  1  0.17609757  0.35230312  0.69852302  1
  O  O535  1  0.17610845  0.35182157  0.94927619  1
  O  O536  1  0.17630355  0.68814551  0.20018153  1
  O  O537  1  0.17727732  0.68744575  0.44893097  1
  O  O538  1  0.17603527  0.68649777  0.69959484  1
  O  O539  1  0.17715125  0.68459378  0.94963726  1
  O  O540  1  0.67681810  0.02100601  0.19853552  1
  O  O541  1  0.67652770  0.01997391  0.45027003  1
  O  O542  1  0.67711730  0.02138745  0.70031117  1
  O  O543  1  0.67742518  0.01990923  0.94875703  1
  O  O544  1  0.67697705  0.35256305  0.19855706  1
  O  O545  1  0.67650706  0.35330139  0.45057323  1
  O  O546  1  0.67594761  0.35371747  0.70148452  1
  O  O547  1  0.67718147  0.35326128  0.94887095  1
  O  O548  1  0.67781434  0.68628320  0.19756644  1
  O  O549  1  0.67684481  0.68510581  0.44814986  1
  O  O550  1  0.67657900  0.68521736  0.69928864  1
  O  O551  1  0.67714306  0.68533365  0.94964134  1
  O  O552  1  0.32450689  0.31327826  0.04963113  1
  O  O553  1  0.32406461  0.31430887  0.29970744  1
  O  O554  1  0.32278161  0.31482244  0.55129344  1
  O  O555  1  0.32283435  0.31502507  0.80110500  1
  O  O556  1  0.32306229  0.64501427  0.05016343  1
  O  O557  1  0.32411466  0.64682543  0.29835623  1
  O  O558  1  0.32373169  0.64719405  0.54963400  1
  O  O559  1  0.32327569  0.64762759  0.80137777  1
  O  O560  1  0.32354522  0.97805479  0.05109242  1
  O  O561  1  0.32210959  0.98002027  0.30148072  1
  O  O562  1  0.32401410  0.98022981  0.54923343  1
  O  O563  1  0.32386585  0.98031712  0.80030365  1
  O  O564  1  0.82229299  0.31380165  0.05118167  1
  O  O565  1  0.82358638  0.31379565  0.29968436  1
  O  O566  1  0.82255452  0.31266160  0.55166199  1
  O  O567  1  0.82252531  0.31351281  0.80171324  1
  O  O568  1  0.82314579  0.64781840  0.05050709  1
  O  O569  1  0.82385648  0.64815462  0.30086704  1
  O  O570  1  0.82318765  0.64817242  0.55168080  1
  O  O571  1  0.82263656  0.64714076  0.80235074  1
  O  O572  1  0.82376666  0.97894079  0.04945205  1
  O  O573  1  0.82368547  0.98018277  0.29898398  1
  O  O574  1  0.82436260  0.97963440  0.55021642  1
  O  O575  1  0.82270204  0.98153203  0.80106866  1
  O  O576  1  0.42691092  0.14503313  0.17543152  1
  O  O577  1  0.42681005  0.14800498  0.42610354  1
  O  O578  1  0.42630908  0.14605724  0.67548684  1
  O  O579  1  0.42752081  0.14842439  0.92560685  1
  O  O580  1  0.42715528  0.48118792  0.17564584  1
  O  O581  1  0.42824187  0.48097721  0.42675859  1
  O  O582  1  0.42767588  0.48035994  0.67567956  1
  O  O583  1  0.42708723  0.48141262  0.92559803  1
  O  O584  1  0.42742290  0.81122022  0.17493880  1
  O  O585  1  0.42824481  0.81212560  0.42374193  1
  O  O586  1  0.42663635  0.81277640  0.67365470  1
  O  O587  1  0.42788303  0.81340907  0.92654962  1
  O  O588  1  0.92655864  0.14767192  0.17634382  1
  O  O589  1  0.92698074  0.14648922  0.42690795  1
  O  O590  1  0.92781066  0.14676467  0.67655364  1
  O  O591  1  0.92609594  0.14633738  0.92411300  1
  O  O592  1  0.92703076  0.47987346  0.17573392  1
  O  O593  1  0.92626885  0.47871771  0.42477146  1
  O  O594  1  0.92513149  0.48044126  0.67422181  1
  O  O595  1  0.92652544  0.48184321  0.92640094  1
  O  O596  1  0.92719784  0.81477625  0.17599271  1
  O  O597  1  0.92716006  0.81358134  0.42720715  1
  O  O598  1  0.92832131  0.81432206  0.67696447  1
  O  O599  1  0.92751445  0.81419117  0.92618267  1
  O  O600  1  0.07322822  0.18648560  0.07582052  1
  O  O601  1  0.07201367  0.18595320  0.32427710  1
  O  O602  1  0.07181151  0.18608766  0.57320114  1
  O  O603  1  0.07238909  0.18549367  0.82357408  1
  O  O604  1  0.07183116  0.51971428  0.07357034  1
  O  O605  1  0.07371443  0.52001140  0.32612273  1
  O  O606  1  0.07290408  0.52151560  0.57597453  1
  O  O607  1  0.07250727  0.52151086  0.82490981  1
  O  O608  1  0.07331424  0.85232331  0.07394495  1
  O  O609  1  0.07270786  0.85206094  0.32480825  1
  O  O610  1  0.07248850  0.85327366  0.57466059  1
  O  O611  1  0.07168421  0.85276857  0.82292161  1
  O  O612  1  0.57296958  0.18476379  0.07345177  1
  O  O613  1  0.57425417  0.18731894  0.32590127  1
  O  O614  1  0.57139503  0.18666845  0.57428238  1
  O  O615  1  0.57320037  0.18850824  0.82435324  1
  O  O616  1  0.57299390  0.51933679  0.07315872  1
  O  O617  1  0.57273804  0.51918413  0.32353977  1
  O  O618  1  0.57204334  0.51886516  0.57267435  1
  O  O619  1  0.57314712  0.51874210  0.82403676  1
  O  O620  1  0.57330573  0.85110830  0.07408782  1
  O  O621  1  0.57451007  0.85407160  0.32419354  1
  O  O622  1  0.57480946  0.85318328  0.57534916  1
  O  O623  1  0.57374151  0.85432340  0.82465739  1
  O  O624  1  0.32385434  0.18637874  0.04939595  1
  O  O625  1  0.32482192  0.18725036  0.30004845  1
  O  O626  1  0.32263143  0.18761902  0.55090899  1
  O  O627  1  0.32262125  0.18789155  0.79967564  1
  O  O628  1  0.32218205  0.51792447  0.04985221  1
  O  O629  1  0.32390284  0.51998870  0.29968863  1
  O  O630  1  0.32411669  0.52019171  0.55010754  1
  O  O631  1  0.32327425  0.52040654  0.80034106  1
  O  O632  1  0.32326396  0.85079850  0.05141410  1
  O  O633  1  0.32287153  0.85261951  0.30181285  1
  O  O634  1  0.32417206  0.85349359  0.54881393  1
  O  O635  1  0.32507392  0.85331618  0.79984297  1
  O  O636  1  0.82229174  0.18642083  0.05074636  1
  O  O637  1  0.82381820  0.18709263  0.29933203  1
  O  O638  1  0.82291734  0.18545531  0.55229059  1
  O  O639  1  0.82130714  0.18631269  0.80298460  1
  O  O640  1  0.82309510  0.52091814  0.05010476  1
  O  O641  1  0.82319315  0.52107782  0.30010665  1
  O  O642  1  0.82299878  0.52115476  0.55037525  1
  O  O643  1  0.82153896  0.51977343  0.80237146  1
  O  O644  1  0.82248180  0.85185810  0.04999168  1
  O  O645  1  0.82432306  0.85327685  0.29957644  1
  O  O646  1  0.82394478  0.85266056  0.55033564  1
  O  O647  1  0.82312136  0.85422916  0.79995362  1
  O  O648  1  0.17651453  0.14622094  0.20115465  1
  O  O649  1  0.17690646  0.14641255  0.44930854  1
  O  O650  1  0.17520409  0.14674045  0.69994586  1
  O  O651  1  0.17529178  0.14598173  0.95038378  1
  O  O652  1  0.17623691  0.48155336  0.19842989  1
  O  O653  1  0.17560276  0.48026035  0.45099767  1
  O  O654  1  0.17658643  0.47948170  0.70027850  1
  O  O655  1  0.17588638  0.47886229  0.94872052  1
  O  O656  1  0.17718397  0.81516197  0.19873519  1
  O  O657  1  0.17668931  0.81470256  0.44863309  1
  O  O658  1  0.17624613  0.81333714  0.70076361  1
  O  O659  1  0.17714983  0.81174558  0.94936703  1
  O  O660  1  0.67671721  0.14817180  0.19824469  1
  O  O661  1  0.67627895  0.14685867  0.44998316  1
  O  O662  1  0.67677533  0.14839524  0.70035275  1
  O  O663  1  0.67834064  0.14734710  0.94803998  1
  O  O664  1  0.67685158  0.47970544  0.19906306  1
  O  O665  1  0.67604844  0.48038333  0.45034438  1
  O  O666  1  0.67625719  0.48039480  0.70117611  1
  O  O667  1  0.67908425  0.48068333  0.94917221  1
  O  O668  1  0.67874407  0.81370387  0.19779964  1
  O  O669  1  0.67715488  0.81210240  0.44952779  1
  O  O670  1  0.67714227  0.81238868  0.70017803  1
  O  O671  1  0.67716375  0.81217461  0.94964994  1
