# generated using pymatgen
data_Na2MnFe(PO4)2
_symmetry_space_group_name_H-M   'P 1'
_cell_length_a   22.34238374
_cell_length_b   20.09368886
_cell_length_c   19.45129130
_cell_angle_alpha   89.96205908
_cell_angle_beta   89.97115221
_cell_angle_gamma   89.98497010
_symmetry_Int_Tables_number   1
_chemical_formula_structural   Na2MnFe(PO4)2
_chemical_formula_sum   'Na96 Mn48 Fe48 P96 O384'
_cell_volume   8732.47704436
_cell_formula_units_Z   48
loop_
 _symmetry_equiv_pos_site_id
 _symmetry_equiv_pos_as_xyz
  1  'x, y, z'
loop_
 _atom_site_type_symbol
 _atom_site_label
 _atom_site_symmetry_multiplicity
 _atom_site_fract_x
 _atom_site_fract_y
 _atom_site_fract_z
 _atom_site_occupancy
  Na  Na0  1  0.14049614  0.25012052  0.24304017  1
  Na  Na1  1  0.14048132  0.25032349  0.49407764  1
  Na  Na2  1  0.14066390  0.25071789  0.74423779  1
  Na  Na3  1  0.14023091  0.25099460  0.99269842  1
  Na  Na4  1  0.14024967  0.58550541  0.24341781  1
  Na  Na5  1  0.14052875  0.58522272  0.49411575  1
  Na  Na6  1  0.14054887  0.58368912  0.74468998  1
  Na  Na7  1  0.14095462  0.58401123  0.99430508  1
  Na  Na8  1  0.14010114  0.91542316  0.24237124  1
  Na  Na9  1  0.14010658  0.91593819  0.49250179  1
  Na  Na10  1  0.13994019  0.91571369  0.74338139  1
  Na  Na11  1  0.13994295  0.91564866  0.99388233  1
  Na  Na12  1  0.64098057  0.25125400  0.24262826  1
  Na  Na13  1  0.64048426  0.24997866  0.49359561  1
  Na  Na14  1  0.64048182  0.25040073  0.74386714  1
  Na  Na15  1  0.64032517  0.25096790  0.99368232  1
  Na  Na16  1  0.63992051  0.58227104  0.24308360  1
  Na  Na17  1  0.64066551  0.58182059  0.49353671  1
  Na  Na18  1  0.64076245  0.58243185  0.74504944  1
  Na  Na19  1  0.64011010  0.58358101  0.99424802  1
  Na  Na20  1  0.64074981  0.91757234  0.24358482  1
  Na  Na21  1  0.64038390  0.91571246  0.49484155  1
  Na  Na22  1  0.64006416  0.91587939  0.74351488  1
  Na  Na23  1  0.64064609  0.91822615  0.99314807  1
  Na  Na24  1  0.35971842  0.08327123  0.00618533  1
  Na  Na25  1  0.35927279  0.08258156  0.25561696  1
  Na  Na26  1  0.35954773  0.08363755  0.50657783  1
  Na  Na27  1  0.35939479  0.08243747  0.75650169  1
  Na  Na28  1  0.35960372  0.41854045  0.00653858  1
  Na  Na29  1  0.35994724  0.41857223  0.25615530  1
  Na  Na30  1  0.35959328  0.41789803  0.50616069  1
  Na  Na31  1  0.35918478  0.41786031  0.75720462  1
  Na  Na32  1  0.35917588  0.74954091  0.00633167  1
  Na  Na33  1  0.35959878  0.74980111  0.25522712  1
  Na  Na34  1  0.35912845  0.75010431  0.50606111  1
  Na  Na35  1  0.35902601  0.74907969  0.75704209  1
  Na  Na36  1  0.85976496  0.08421079  0.00711090  1
  Na  Na37  1  0.85992081  0.08368316  0.25514175  1
  Na  Na38  1  0.85990773  0.08242444  0.50608713  1
  Na  Na39  1  0.86008442  0.08229020  0.75681073  1
  Na  Na40  1  0.85946517  0.41593404  0.00710611  1
  Na  Na41  1  0.85934587  0.41716026  0.25627867  1
  Na  Na42  1  0.85915145  0.41583338  0.50610922  1
  Na  Na43  1  0.85939694  0.41566745  0.75578181  1
  Na  Na44  1  0.85962701  0.75121687  0.00704753  1
  Na  Na45  1  0.86014308  0.74916379  0.25757981  1
  Na  Na46  1  0.86002335  0.74805690  0.50617910  1
  Na  Na47  1  0.85940791  0.74846814  0.75580358  1
  Na  Na48  1  0.10929253  0.08200752  0.11746698  1
  Na  Na49  1  0.10966742  0.08159971  0.36853360  1
  Na  Na50  1  0.10966183  0.08205829  0.61815483  1
  Na  Na51  1  0.10953467  0.08296545  0.86954615  1
  Na  Na52  1  0.10982945  0.41670474  0.11789790  1
  Na  Na53  1  0.10950330  0.41747461  0.36928509  1
  Na  Na54  1  0.10989931  0.41814688  0.61914948  1
  Na  Na55  1  0.11018759  0.41642511  0.86896829  1
  Na  Na56  1  0.10984568  0.75083823  0.11835665  1
  Na  Na57  1  0.10995470  0.75102190  0.36761349  1
  Na  Na58  1  0.10969792  0.75042697  0.61746967  1
  Na  Na59  1  0.10986469  0.75163084  0.86866929  1
  Na  Na60  1  0.61018599  0.08397858  0.11790711  1
  Na  Na61  1  0.60953225  0.08476507  0.36887084  1
  Na  Na62  1  0.60968383  0.08320300  0.61992108  1
  Na  Na63  1  0.60963568  0.08464782  0.86872988  1
  Na  Na64  1  0.61022829  0.41708333  0.11846656  1
  Na  Na65  1  0.61013560  0.41726374  0.36714261  1
  Na  Na66  1  0.60981001  0.41570957  0.61855872  1
  Na  Na67  1  0.60988237  0.41759140  0.86953065  1
  Na  Na68  1  0.60966560  0.74863838  0.11904934  1
  Na  Na69  1  0.60980768  0.74847523  0.36878119  1
  Na  Na70  1  0.60971876  0.74957433  0.61968558  1
  Na  Na71  1  0.60966680  0.75062168  0.86890374  1
  Na  Na72  1  0.39059463  0.25085673  0.13038800  1
  Na  Na73  1  0.39064598  0.25090389  0.38015594  1
  Na  Na74  1  0.39055120  0.24908522  0.63118709  1
  Na  Na75  1  0.39033571  0.25178204  0.88131991  1
  Na  Na76  1  0.38999715  0.58278166  0.13157817  1
  Na  Na77  1  0.38973085  0.58397313  0.38038451  1
  Na  Na78  1  0.38953366  0.58338460  0.63286448  1
  Na  Na79  1  0.38970351  0.58365918  0.88248501  1
  Na  Na80  1  0.39016813  0.91596332  0.13160862  1
  Na  Na81  1  0.39020616  0.91705130  0.38088063  1
  Na  Na82  1  0.39003729  0.91683720  0.63180843  1
  Na  Na83  1  0.39020227  0.91641175  0.88142307  1
  Na  Na84  1  0.89011428  0.24885160  0.13117559  1
  Na  Na85  1  0.89048551  0.24894147  0.38118541  1
  Na  Na86  1  0.89051346  0.24891788  0.63113531  1
  Na  Na87  1  0.89040932  0.24861996  0.88248590  1
  Na  Na88  1  0.89007208  0.58328874  0.13247138  1
  Na  Na89  1  0.88987641  0.58370646  0.38248788  1
  Na  Na90  1  0.88952632  0.58354840  0.63069669  1
  Na  Na91  1  0.88997214  0.58287505  0.88188978  1
  Na  Na92  1  0.89045773  0.91627592  0.13105620  1
  Na  Na93  1  0.89094009  0.91543168  0.38028986  1
  Na  Na94  1  0.89069730  0.91614432  0.63036190  1
  Na  Na95  1  0.89031748  0.91770431  0.88203223  1
  Mn  Mn96  1  0.00045549  0.49966625  0.00081180  1
  Mn  Mn97  1  0.74975345  0.00053749  0.87460983  1
  Mn  Mn98  1  0.24971257  0.16669997  0.87509227  1
  Mn  Mn99  1  0.00115717  0.16510523  0.25037523  1
  Mn  Mn100  1  -0.00000023  0.33285010  0.75029604  1
  Mn  Mn101  1  -0.00007548  0.66796923  0.00074894  1
  Mn  Mn102  1  0.75004373  0.33282344  0.62513323  1
  Mn  Mn103  1  0.00034292  0.33243497  0.24999242  1
  Mn  Mn104  1  0.50064922  0.83280925  0.00058364  1
  Mn  Mn105  1  -0.00038788  0.50038753  0.25016122  1
  Mn  Mn106  1  0.75013394  0.66611315  0.12524273  1
  Mn  Mn107  1  0.50054167  0.66706934  0.75099654  1
  Mn  Mn108  1  0.75014231  0.33347668  0.87498671  1
  Mn  Mn109  1  0.24947750  -0.00152182  0.87547062  1
  Mn  Mn110  1  0.25036941  0.33477931  0.62510073  1
  Mn  Mn111  1  0.50086258  0.83237104  0.25053434  1
  Mn  Mn112  1  0.24946735  0.83270222  0.62465587  1
  Mn  Mn113  1  0.49944106  0.49965782  0.49992954  1
  Mn  Mn114  1  0.49987907  0.16720775  0.75015970  1
  Mn  Mn115  1  0.24930680  0.50212453  0.37561053  1
  Mn  Mn116  1  -0.00017741  0.50025919  0.49977683  1
  Mn  Mn117  1  0.75046380  -0.00023017  0.62530311  1
  Mn  Mn118  1  0.50012419  0.00070362  0.25027288  1
  Mn  Mn119  1  0.50037064  0.49953146  0.75076132  1
  Mn  Mn120  1  0.50021952  0.00057459  0.00019598  1
  Mn  Mn121  1  0.50061041  0.00070671  0.50066870  1
  Mn  Mn122  1  -0.00058849  0.50017193  0.75005663  1
  Mn  Mn123  1  0.24948365  -0.00120170  0.37468634  1
  Mn  Mn124  1  0.25044666  0.33482607  0.12429020  1
  Mn  Mn125  1  -0.00012106  0.66748730  0.75026055  1
  Mn  Mn126  1  0.00015469  0.16554021  0.50006114  1
  Mn  Mn127  1  0.00061260  0.16562117  0.75037777  1
  Mn  Mn128  1  0.74965622  0.16732083  0.37455602  1
  Mn  Mn129  1  0.75050152  0.66600589  0.87562093  1
  Mn  Mn130  1  0.50002538  0.33429999  0.00034847  1
  Mn  Mn131  1  -0.00075153  0.83468398  0.74894691  1
  Mn  Mn132  1  0.49954297  0.16771687  0.24952652  1
  Mn  Mn133  1  0.74926082  0.83415730  0.12587803  1
  Mn  Mn134  1  0.74976198  0.00022822  0.37476305  1
  Mn  Mn135  1  0.50005203  0.83339786  0.50023525  1
  Mn  Mn136  1  0.24976445  0.33455543  0.37469252  1
  Mn  Mn137  1  0.25027074  0.16637989  0.12428325  1
  Mn  Mn138  1  0.49965724  0.33284338  0.49906848  1
  Mn  Mn139  1  0.24981705  0.16638497  0.37452724  1
  Mn  Mn140  1  0.49959887  0.66642632  0.50040524  1
  Mn  Mn141  1  0.25010361  0.16651653  0.62504795  1
  Mn  Mn142  1  0.75041446  0.83125222  0.62428778  1
  Mn  Mn143  1  0.75052805  0.83211360  0.37474875  1
  Fe  Fe144  1  0.49993769  0.33346275  0.75018934  1
  Fe  Fe145  1  0.25004558  0.83274147  0.12432729  1
  Fe  Fe146  1  0.49953567  0.66582220  0.24938122  1
  Fe  Fe147  1  0.74982950  0.16769998  0.12514175  1
  Fe  Fe148  1  0.24994636  0.50133623  0.87563976  1
  Fe  Fe149  1  0.00019956  0.33292155  0.50017070  1
  Fe  Fe150  1  0.75046266  0.50024453  0.12538358  1
  Fe  Fe151  1  0.25021605  0.33465365  0.87479336  1
  Fe  Fe152  1  -0.00009418  0.83321805  0.24976420  1
  Fe  Fe153  1  0.75013042  0.16642409  0.62495915  1
  Fe  Fe154  1  0.49918706  0.83347084  0.75061582  1
  Fe  Fe155  1  0.50007065  0.50027202  0.24931438  1
  Fe  Fe156  1  0.25010175  0.83266927  0.87479342  1
  Fe  Fe157  1  -0.00022333  0.33262785  0.00006408  1
  Fe  Fe158  1  0.00015169  -0.00015336  0.74997878  1
  Fe  Fe159  1  -0.00006116  0.66739470  0.25053223  1
  Fe  Fe160  1  0.49964158  0.50032636  0.00040461  1
  Fe  Fe161  1  0.74952999  0.49923652  0.62459345  1
  Fe  Fe162  1  -0.00026391  -0.00039899  0.00009691  1
  Fe  Fe163  1  0.00018189  0.83323271  0.49888105  1
  Fe  Fe164  1  0.74999803  0.83303046  0.87502509  1
  Fe  Fe165  1  0.49984528  0.16746099  -0.00057001  1
  Fe  Fe166  1  0.75036728  0.16705443  0.87572152  1
  Fe  Fe167  1  0.24978551  -0.00058769  0.62491073  1
  Fe  Fe168  1  0.75047866  0.00098387  0.12421761  1
  Fe  Fe169  1  0.00026866  0.66711353  0.49957111  1
  Fe  Fe170  1  0.24956123  0.50106479  0.12491996  1
  Fe  Fe171  1  0.50013091  0.16677898  0.50029368  1
  Fe  Fe172  1  0.24970524  0.50126065  0.62601972  1
  Fe  Fe173  1  0.74951526  0.66489430  0.62560944  1
  Fe  Fe174  1  0.24993988  -0.00119286  0.12498129  1
  Fe  Fe175  1  0.00022728  0.16583594  0.00015531  1
  Fe  Fe176  1  0.74984961  0.49951106  0.37487471  1
  Fe  Fe177  1  0.24991724  0.66771629  0.37413588  1
  Fe  Fe178  1  0.24978641  0.66644169  0.62597752  1
  Fe  Fe179  1  0.75011229  0.33415580  0.12462545  1
  Fe  Fe180  1  -0.00009924  -0.00102712  0.49899622  1
  Fe  Fe181  1  0.24986631  0.66668069  0.87557909  1
  Fe  Fe182  1  0.75061250  0.33360757  0.37435962  1
  Fe  Fe183  1  0.74942194  0.66507271  0.37568929  1
  Fe  Fe184  1  0.49971225  0.00039653  0.75027828  1
  Fe  Fe185  1  -0.00003039  -0.00112738  0.24903111  1
  Fe  Fe186  1  0.24992957  0.66749004  0.12448444  1
  Fe  Fe187  1  0.49966651  0.66638250  0.00022981  1
  Fe  Fe188  1  0.75045419  0.49972678  0.87532187  1
  Fe  Fe189  1  0.50060257  0.33390185  0.24959012  1
  Fe  Fe190  1  -0.00063363  0.83379652  0.00011665  1
  Fe  Fe191  1  0.25063558  0.83310092  0.37418164  1
  P  P192  1  0.04164208  0.24927112  0.10138191  1
  P  P193  1  0.04321352  0.24940329  0.35378938  1
  P  P194  1  0.04234701  0.25043843  0.60247126  1
  P  P195  1  0.04267962  0.24932136  0.85428929  1
  P  P196  1  0.04257215  0.58428053  0.10404039  1
  P  P197  1  0.04172725  0.58533832  0.35296222  1
  P  P198  1  0.04188037  0.58486856  0.60216396  1
  P  P199  1  0.04251062  0.58376743  0.85354741  1
  P  P200  1  0.04109891  0.91633956  0.10189423  1
  P  P201  1  0.04143695  0.91619725  0.35130831  1
  P  P202  1  0.04168061  0.91643347  0.60077485  1
  P  P203  1  0.04175993  0.91818951  0.85289029  1
  P  P204  1  0.54216628  0.24965682  0.10230721  1
  P  P205  1  0.54290124  0.25146368  0.35209004  1
  P  P206  1  0.54227108  0.24909327  0.60264853  1
  P  P207  1  0.54238800  0.25170946  0.85279159  1
  P  P208  1  0.54103777  0.58307875  0.10234176  1
  P  P209  1  0.54118559  0.58319613  0.35119188  1
  P  P210  1  0.54264699  0.58287161  0.60340575  1
  P  P211  1  0.54262886  0.58340535  0.85470962  1
  P  P212  1  0.54338950  0.91657235  0.10334648  1
  P  P213  1  0.54337965  0.91698995  0.35336432  1
  P  P214  1  0.54257429  0.91657139  0.60464129  1
  P  P215  1  0.54127406  0.91708433  0.85176756  1
  P  P216  1  0.45711735  0.08407348  0.14619554  1
  P  P217  1  0.45757668  0.08510753  0.39776231  1
  P  P218  1  0.45749539  0.08259898  0.64765367  1
  P  P219  1  0.45788038  0.08473533  0.89715028  1
  P  P220  1  0.45884786  0.41706256  0.14796612  1
  P  P221  1  0.45733877  0.41697389  0.39542456  1
  P  P222  1  0.45742559  0.41523351  0.64790104  1
  P  P223  1  0.45769701  0.41807381  0.89765856  1
  P  P224  1  0.45810995  0.74815962  0.14711722  1
  P  P225  1  0.45724808  0.74946356  0.39647255  1
  P  P226  1  0.45743167  0.75104171  0.64839778  1
  P  P227  1  0.45779019  0.74931842  0.89781090  1
  P  P228  1  0.95848954  0.08148746  0.14661589  1
  P  P229  1  0.95788931  0.08089349  0.39675317  1
  P  P230  1  0.95808592  0.08125456  0.64722895  1
  P  P231  1  0.95863943  0.08267525  0.89848889  1
  P  P232  1  0.95756169  0.41578147  0.14668677  1
  P  P233  1  0.95785821  0.41532851  0.39774941  1
  P  P234  1  0.95730395  0.41625216  0.64630213  1
  P  P235  1  0.95766350  0.41533412  0.89816059  1
  P  P236  1  0.95837373  0.75044493  0.14845931  1
  P  P237  1  0.95881566  0.75000851  0.39738604  1
  P  P238  1  0.95737697  0.75023055  0.64563984  1
  P  P239  1  0.95733323  0.75196838  0.89774745  1
  P  P240  1  0.20759982  0.08149190  0.22675666  1
  P  P241  1  0.20718884  0.08266530  0.47835645  1
  P  P242  1  0.20772522  0.08175337  0.72743255  1
  P  P243  1  0.20745590  0.08233963  0.97866102  1
  P  P244  1  0.20747502  0.41905125  0.22716718  1
  P  P245  1  0.20709345  0.41829868  0.47882288  1
  P  P246  1  0.20791749  0.41888020  0.72867218  1
  P  P247  1  0.20883271  0.41808744  0.97683964  1
  P  P248  1  0.20865949  0.75045104  0.22650473  1
  P  P249  1  0.20859458  0.75021714  0.47610790  1
  P  P250  1  0.20732806  0.74845115  0.72808495  1
  P  P251  1  0.20855940  0.75013224  0.97707599  1
  P  P252  1  0.70868949  0.08404976  0.22606083  1
  P  P253  1  0.70723736  0.08358323  0.47848585  1
  P  P254  1  0.70827889  0.08482315  0.72802763  1
  P  P255  1  0.70808240  0.08518074  0.97820364  1
  P  P256  1  0.70899697  0.41708546  0.22694263  1
  P  P257  1  0.70846448  0.41621531  0.47633553  1
  P  P258  1  0.70774024  0.41761196  0.72762980  1
  P  P259  1  0.70822236  0.41807915  0.97830132  1
  P  P260  1  0.70741026  0.74886138  0.22893426  1
  P  P261  1  0.70789040  0.74738366  0.47786661  1
  P  P262  1  0.70798918  0.74783676  0.72804162  1
  P  P263  1  0.70775494  0.75127448  0.97763827  1
  P  P264  1  0.29261031  0.25102388  0.02090469  1
  P  P265  1  0.29273677  0.25053030  0.27134301  1
  P  P266  1  0.29290174  0.25058246  0.52180006  1
  P  P267  1  0.29206979  0.25161474  0.77283172  1
  P  P268  1  0.29104172  0.58391707  0.02301578  1
  P  P269  1  0.29164704  0.58546480  0.27164577  1
  P  P270  1  0.29151934  0.58436801  0.52389029  1
  P  P271  1  0.29147802  0.58378628  0.77359336  1
  P  P272  1  0.29162768  0.91554526  0.02292050  1
  P  P273  1  0.29210016  0.91487859  0.27118361  1
  P  P274  1  0.29214104  0.91716830  0.52223510  1
  P  P275  1  0.29188846  0.91487862  0.77222353  1
  P  P276  1  0.79115734  0.25020916  0.02328964  1
  P  P277  1  0.79239611  0.25170056  0.27141692  1
  P  P278  1  0.79250947  0.24880888  0.52232105  1
  P  P279  1  0.79258214  0.24838167  0.77272196  1
  P  P280  1  0.79252295  0.58189281  0.02257493  1
  P  P281  1  0.79143181  0.58247367  0.27351375  1
  P  P282  1  0.79097578  0.58241266  0.52275276  1
  P  P283  1  0.79236572  0.58127941  0.77212745  1
  P  P284  1  0.79183259  0.91800650  0.02221581  1
  P  P285  1  0.79267503  0.91718668  0.27123718  1
  P  P286  1  0.79304509  0.91577312  0.52174581  1
  P  P287  1  0.79213676  0.91493176  0.77264325  1
  O  O288  1  0.03733607  0.24882729  0.18144349  1
  O  O289  1  0.03774752  0.24985382  0.43371279  1
  O  O290  1  0.03731337  0.25004298  0.68249513  1
  O  O291  1  0.03741201  0.24935938  0.93420511  1
  O  O292  1  0.03709491  0.58467384  0.18398686  1
  O  O293  1  0.03644076  0.58558557  0.43292388  1
  O  O294  1  0.03682076  0.58445171  0.68212450  1
  O  O295  1  0.03755697  0.58367170  0.93352141  1
  O  O296  1  0.03606326  0.91630724  0.18173152  1
  O  O297  1  0.03648106  0.91569331  0.43117294  1
  O  O298  1  0.03667362  0.91702798  0.68072425  1
  O  O299  1  0.03647656  0.91782257  0.93270929  1
  O  O300  1  0.53696962  0.25050138  0.18219575  1
  O  O301  1  0.53779617  0.25058574  0.43200446  1
  O  O302  1  0.53700519  0.24989237  0.68257597  1
  O  O303  1  0.53726928  0.25107019  0.93271012  1
  O  O304  1  0.53583272  0.58323007  0.18227365  1
  O  O305  1  0.53666056  0.58283464  0.43117783  1
  O  O306  1  0.53796515  0.58285457  0.68338638  1
  O  O307  1  0.53713941  0.58348346  0.93462202  1
  O  O308  1  0.53847462  0.91657805  0.18329855  1
  O  O309  1  0.53826422  0.91714670  0.43337147  1
  O  O310  1  0.53695893  0.91645861  0.68455193  1
  O  O311  1  0.53652777  0.91686126  0.93180460  1
  O  O312  1  0.46229269  0.08457168  0.06622994  1
  O  O313  1  0.46249544  0.08482644  0.31774378  1
  O  O314  1  0.46282900  0.08339488  0.56773762  1
  O  O315  1  0.46333421  0.08384534  0.81721812  1
  O  O316  1  0.46361347  0.41788658  0.06799420  1
  O  O317  1  0.46272389  0.41699766  0.31552912  1
  O  O318  1  0.46218593  0.41552489  0.56787218  1
  O  O319  1  0.46287343  0.41712717  0.81777846  1
  O  O320  1  0.46355091  0.74800666  0.06719548  1
  O  O321  1  0.46264120  0.74880505  0.31653386  1
  O  O322  1  0.46222622  0.75069159  0.56838799  1
  O  O323  1  0.46295118  0.75028511  0.81787038  1
  O  O324  1  0.96386690  0.08191175  0.06673193  1
  O  O325  1  0.96331417  0.08093446  0.31682356  1
  O  O326  1  0.96319352  0.08131433  0.56727949  1
  O  O327  1  0.96330132  0.08279786  0.81851763  1
  O  O328  1  0.96291493  0.41546087  0.06676165  1
  O  O329  1  0.96290815  0.41573475  0.31777392  1
  O  O330  1  0.96278602  0.41577301  0.56637271  1
  O  O331  1  0.96265699  0.41577227  0.81815105  1
  O  O332  1  0.96299650  0.75118403  0.06846459  1
  O  O333  1  0.96364714  0.74955322  0.31744465  1
  O  O334  1  0.96281889  0.75001273  0.56572974  1
  O  O335  1  0.96228887  0.75173535  0.81780000  1
  O  O336  1  0.21287399  0.08181213  0.05855175  1
  O  O337  1  0.21244601  0.08154165  0.30678463  1
  O  O338  1  0.21249477  0.08227732  0.55830767  1
  O  O339  1  0.21281973  0.08188982  0.80741324  1
  O  O340  1  0.21381511  0.41825033  0.05680839  1
  O  O341  1  0.21240877  0.41871775  0.30714435  1
  O  O342  1  0.21234316  0.41872380  0.55876288  1
  O  O343  1  0.21348648  0.41857940  0.80855409  1
  O  O344  1  0.21392082  0.75058032  0.05691044  1
  O  O345  1  0.21348247  0.75024846  0.30635203  1
  O  O346  1  0.21319580  0.74994497  0.55602779  1
  O  O347  1  0.21265916  0.74862209  0.80790543  1
  O  O348  1  0.71371724  0.08472939  0.05805439  1
  O  O349  1  0.71357784  0.08403876  0.30603532  1
  O  O350  1  0.71259987  0.08383143  0.55841543  1
  O  O351  1  0.71370294  0.08497251  0.80797012  1
  O  O352  1  0.71366703  0.41784161  0.05813881  1
  O  O353  1  0.71388047  0.41650481  0.30680986  1
  O  O354  1  0.71332027  0.41652097  0.55630479  1
  O  O355  1  0.71308943  0.41757080  0.80752946  1
  O  O356  1  0.71256660  0.75114079  0.05762352  1
  O  O357  1  0.71264097  0.74799061  0.30886821  1
  O  O358  1  0.71322885  0.74689746  0.55781466  1
  O  O359  1  0.71351704  0.74867024  0.80794873  1
  O  O360  1  0.28767862  0.25054306  0.19133403  1
  O  O361  1  0.28768589  0.25054558  0.44183594  1
  O  O362  1  0.28711139  0.25142930  0.69284962  1
  O  O363  1  0.28717511  0.25157990  0.94099154  1
  O  O364  1  0.28649170  0.58489064  0.19183167  1
  O  O365  1  0.28644057  0.58496323  0.44398113  1
  O  O366  1  0.28641396  0.58379058  0.69374275  1
  O  O367  1  0.28592200  0.58396752  0.94315472  1
  O  O368  1  0.28672427  0.91535395  0.19130903  1
  O  O369  1  0.28733048  0.91654429  0.44226021  1
  O  O370  1  0.28669073  0.91566584  0.69231557  1
  O  O371  1  0.28660064  0.91516372  0.94295806  1
  O  O372  1  0.78684122  0.25156511  0.19156281  1
  O  O373  1  0.78739089  0.24972071  0.44240553  1
  O  O374  1  0.78725186  0.24823656  0.69280006  1
  O  O375  1  0.78651254  0.25005600  0.94331518  1
  O  O376  1  0.78694374  0.58219454  0.19349517  1
  O  O377  1  0.78560838  0.58287181  0.44285818  1
  O  O378  1  0.78643542  0.58162418  0.69230457  1
  O  O379  1  0.78753718  0.58200121  0.94264713  1
  O  O380  1  0.78718137  0.91785478  0.19128579  1
  O  O381  1  0.78791335  0.91587142  0.44182162  1
  O  O382  1  0.78713552  0.91504544  0.69269833  1
  O  O383  1  0.78646271  0.91733832  0.94229742  1
  O  O384  1  0.22837213  0.25086102  0.05649581  1
  O  O385  1  0.22826980  0.25037066  0.30638170  1
  O  O386  1  0.22855006  0.25065515  0.55708505  1
  O  O387  1  0.22777712  0.25153383  0.80827455  1
  O  O388  1  0.22705788  0.58345621  0.05942963  1
  O  O389  1  0.22747603  0.58598298  0.30777637  1
  O  O390  1  0.22732027  0.58388419  0.56003978  1
  O  O391  1  0.22738311  0.58376134  0.80995481  1
  O  O392  1  0.22743239  0.91525510  0.05891921  1
  O  O393  1  0.22790357  0.91431687  0.30727599  1
  O  O394  1  0.22775399  0.91739597  0.55770969  1
  O  O395  1  0.22757812  0.91420300  0.80792826  1
  O  O396  1  0.72701341  0.25006606  0.05916146  1
  O  O397  1  0.72825520  0.25218796  0.30766379  1
  O  O398  1  0.72822269  0.24822247  0.55817623  1
  O  O399  1  0.72830427  0.24851194  0.80854622  1
  O  O400  1  0.72816203  0.58173274  0.05811907  1
  O  O401  1  0.72707526  0.58241507  0.30899384  1
  O  O402  1  0.72701916  0.58226481  0.55950128  1
  O  O403  1  0.72838350  0.58125667  0.80881784  1
  O  O404  1  0.72766116  0.91876329  0.05817863  1
  O  O405  1  0.72842140  0.91629493  0.30676447  1
  O  O406  1  0.72872177  0.91586778  0.55704965  1
  O  O407  1  0.72780516  0.91515189  0.80819836  1
  O  O408  1  0.27199763  0.08163157  0.19151931  1
  O  O409  1  0.27147203  0.08261171  0.44283361  1
  O  O410  1  0.27206131  0.08173201  0.69198606  1
  O  O411  1  0.27165631  0.08253888  0.94301914  1
  O  O412  1  0.27190436  0.41954227  0.19182561  1
  O  O413  1  0.27139257  0.41833839  0.44335604  1
  O  O414  1  0.27201657  0.41938369  0.69231777  1
  O  O415  1  0.27292482  0.41853530  0.94077579  1
  O  O416  1  0.27274316  0.75106249  0.19026093  1
  O  O417  1  0.27281163  0.75062624  0.44012171  1
  O  O418  1  0.27152401  0.74846271  0.69200983  1
  O  O419  1  0.27255121  0.75003296  0.94045450  1
  O  O420  1  0.77288348  0.08428840  0.19019559  1
  O  O421  1  0.77155379  0.08368529  0.44302865  1
  O  O422  1  0.77247062  0.08486065  0.69201712  1
  O  O423  1  0.77219604  0.08489863  0.94189957  1
  O  O424  1  0.77304887  0.41768658  0.19068455  1
  O  O425  1  0.77264248  0.41602068  0.44028658  1
  O  O426  1  0.77189201  0.41773293  0.69157357  1
  O  O427  1  0.77231353  0.41787324  0.94195444  1
  O  O428  1  0.77172760  0.74959291  0.19356289  1
  O  O429  1  0.77212386  0.74715218  0.44197543  1
  O  O430  1  0.77209172  0.74687139  0.69187737  1
  O  O431  1  0.77215550  0.75131457  0.94232013  1
  O  O432  1  0.02262523  0.08083106  0.18273796  1
  O  O433  1  0.02208259  0.08118347  0.43261227  1
  O  O434  1  0.02239777  0.08116972  0.68291168  1
  O  O435  1  0.02278786  0.08212855  0.93426094  1
  O  O436  1  0.02187370  0.41651671  0.18200707  1
  O  O437  1  0.02217831  0.41569317  0.43308201  1
  O  O438  1  0.02155601  0.41661125  0.68186456  1
  O  O439  1  0.02206143  0.41463731  0.93347565  1
  O  O440  1  0.02263922  0.74990434  0.18405697  1
  O  O441  1  0.02294423  0.75062527  0.43351926  1
  O  O442  1  0.02155493  0.75082461  0.68144393  1
  O  O443  1  0.02173498  0.75221958  0.93308165  1
  O  O444  1  0.52151349  0.08406240  0.18137463  1
  O  O445  1  0.52203308  0.08524676  0.43298571  1
  O  O446  1  0.52169946  0.08220072  0.68350893  1
  O  O447  1  0.52208666  0.08522092  0.93303292  1
  O  O448  1  0.52304736  0.41640563  0.18373232  1
  O  O449  1  0.52159103  0.41678768  0.43109929  1
  O  O450  1  0.52194933  0.41496870  0.68293686  1
  O  O451  1  0.52194252  0.41879240  0.93336339  1
  O  O452  1  0.52227744  0.74771249  0.18303896  1
  O  O453  1  0.52157825  0.74957222  0.43187550  1
  O  O454  1  0.52185444  0.75146419  0.68351491  1
  O  O455  1  0.52209619  0.74854078  0.93333168  1
  O  O456  1  0.47795793  0.24922525  0.06645142  1
  O  O457  1  0.47852411  0.25254320  0.31660745  1
  O  O458  1  0.47801507  0.24869780  0.56686145  1
  O  O459  1  0.47805037  0.25192473  0.81727929  1
  O  O460  1  0.47699791  0.58309511  0.06590964  1
  O  O461  1  0.47691592  0.58357497  0.31569170  1
  O  O462  1  0.47799003  0.58294395  0.56890634  1
  O  O463  1  0.47845098  0.58333769  0.81896333  1
  O  O464  1  0.47889839  0.91653203  0.06852560  1
  O  O465  1  0.47893434  0.91671554  0.31838265  1
  O  O466  1  0.47843405  0.91688230  0.56868246  1
  O  O467  1  0.47700471  0.91759213  0.81618686  1
  O  O468  1  0.97730321  0.25007733  0.06610261  1
  O  O469  1  0.97891974  0.24870005  0.31836075  1
  O  O470  1  0.97805855  0.25018705  0.56700075  1
  O  O471  1  0.97843410  0.24905998  0.81865504  1
  O  O472  1  0.97830869  0.58393135  0.06861025  1
  O  O473  1  0.97747921  0.58515995  0.31724224  1
  O  O474  1  0.97761645  0.58475171  0.56667384  1
  O  O475  1  0.97803359  0.58379405  0.81863456  1
  O  O476  1  0.97700009  0.91646939  0.06562884  1
  O  O477  1  0.97736152  0.91664918  0.31508941  1
  O  O478  1  0.97755160  0.91547632  0.56469456  1
  O  O479  1  0.97755292  0.91868000  0.81682288  1
  O  O480  1  0.07296148  0.31273230  0.07341441  1
  O  O481  1  0.07418425  0.31278715  0.32517254  1
  O  O482  1  0.07273691  0.31431459  0.57425235  1
  O  O483  1  0.07377993  0.31274451  0.82580186  1
  O  O484  1  0.07369501  0.64759692  0.07555089  1
  O  O485  1  0.07266828  0.64865068  0.32414168  1
  O  O486  1  0.07250630  0.64855369  0.57378145  1
  O  O487  1  0.07338562  0.64743124  0.82558804  1
  O  O488  1  0.07225332  0.97966897  0.07327516  1
  O  O489  1  0.07268885  0.97956632  0.32288947  1
  O  O490  1  0.07194534  0.98021250  0.57196250  1
  O  O491  1  0.07281140  0.98146630  0.82392068  1
  O  O492  1  0.57331922  0.31321612  0.07430335  1
  O  O493  1  0.57389949  0.31491630  0.32359066  1
  O  O494  1  0.57352716  0.31243099  0.57428292  1
  O  O495  1  0.57287345  0.31552081  0.82440286  1
  O  O496  1  0.57200033  0.64665420  0.07385114  1
  O  O497  1  0.57227188  0.64666879  0.32305262  1
  O  O498  1  0.57346807  0.64639738  0.57504775  1
  O  O499  1  0.57388780  0.64677385  0.82629504  1
  O  O500  1  0.57423739  0.98004510  0.07487447  1
  O  O501  1  0.57417906  0.98064168  0.32518460  1
  O  O502  1  0.57407469  0.97988853  0.57643691  1
  O  O503  1  0.57237891  0.98073270  0.82398062  1
  O  O504  1  0.42636494  0.02027370  0.17425872  1
  O  O505  1  0.42657732  0.02143588  0.42561935  1
  O  O506  1  0.42671209  0.01897299  0.67597297  1
  O  O507  1  0.42660199  0.02131645  0.92534994  1
  O  O508  1  0.42778831  0.35335205  0.17563402  1
  O  O509  1  0.42596605  0.35377450  0.42399759  1
  O  O510  1  0.42686428  0.35161172  0.67644330  1
  O  O511  1  0.42671673  0.35464923  0.92616170  1
  O  O512  1  0.42678930  0.68497430  0.17563754  1
  O  O513  1  0.42601007  0.68627063  0.42519708  1
  O  O514  1  0.42663803  0.68732132  0.67647372  1
  O  O515  1  0.42687307  0.68570059  0.92603159  1
  O  O516  1  0.92717620  0.01825020  0.17512132  1
  O  O517  1  0.92713884  0.01742288  0.42542612  1
  O  O518  1  0.92720672  0.01791281  0.67605542  1
  O  O519  1  0.92703644  0.01955101  0.92676569  1
  O  O520  1  0.92668770  0.35230279  0.17504515  1
  O  O521  1  0.92756290  0.35151530  0.42621090  1
  O  O522  1  0.92605502  0.35300750  0.67482773  1
  O  O523  1  0.92660246  0.35185304  0.92639265  1
  O  O524  1  0.92736322  0.68672998  0.17646271  1
  O  O525  1  0.92833923  0.68627256  0.42633643  1
  O  O526  1  0.92646201  0.68679876  0.67442156  1
  O  O527  1  0.92639730  0.68829397  0.92574682  1
  O  O528  1  0.17722413  0.01773170  0.19831767  1
  O  O529  1  0.17579557  0.01953926  0.44985131  1
  O  O530  1  0.17722498  0.01809062  0.69893241  1
  O  O531  1  0.17613419  0.01911948  0.95032383  1
  O  O532  1  0.17674993  0.35527912  0.19917635  1
  O  O533  1  0.17624619  0.35464706  0.45072892  1
  O  O534  1  0.17682476  0.35524743  0.70068508  1
  O  O535  1  0.17877983  0.35389919  0.94859374  1
  O  O536  1  0.17847336  0.68658510  0.19756031  1
  O  O537  1  0.17801671  0.68657019  0.44755615  1
  O  O538  1  0.17654645  0.68508585  0.69912829  1
  O  O539  1  0.17753543  0.68642499  0.94926321  1
  O  O540  1  0.67804140  0.02029219  0.19801937  1
  O  O541  1  0.67630331  0.01990183  0.45054188  1
  O  O542  1  0.67744643  0.02076662  0.70079837  1
  O  O543  1  0.67646725  0.02195234  0.94993663  1
  O  O544  1  0.67859066  0.35343161  0.19776548  1
  O  O545  1  0.67778990  0.35248089  0.44820162  1
  O  O546  1  0.67703493  0.35361807  0.69992766  1
  O  O547  1  0.67689425  0.35458775  0.95022551  1
  O  O548  1  0.67658555  0.68559330  0.19988968  1
  O  O549  1  0.67661245  0.68428835  0.44912700  1
  O  O550  1  0.67676854  0.68431052  0.70024497  1
  O  O551  1  0.67687493  0.68749293  0.95005700  1
  O  O552  1  0.32399885  0.31422570  0.04929367  1
  O  O553  1  0.32349544  0.31420285  0.29930564  1
  O  O554  1  0.32401464  0.31403523  0.54977677  1
  O  O555  1  0.32250545  0.31538059  0.80119998  1
  O  O556  1  0.32147615  0.64781898  0.05141196  1
  O  O557  1  0.32260574  0.64885704  0.30030215  1
  O  O558  1  0.32215455  0.64795166  0.55259757  1
  O  O559  1  0.32227928  0.64740059  0.80214307  1
  O  O560  1  0.32188206  0.97965558  0.05098761  1
  O  O561  1  0.32314612  0.97840567  0.29950749  1
  O  O562  1  0.32253734  0.98089808  0.55085212  1
  O  O563  1  0.32290837  0.97829584  0.80061881  1
  O  O564  1  0.82143131  0.31425219  0.05148269  1
  O  O565  1  0.82354040  0.31485269  0.30034549  1
  O  O566  1  0.82330285  0.31234366  0.55082018  1
  O  O567  1  0.82342450  0.31234431  0.80024403  1
  O  O568  1  0.82320643  0.64588030  0.05037195  1
  O  O569  1  0.82201771  0.64627659  0.30176235  1
  O  O570  1  0.82195657  0.64582486  0.55145189  1
  O  O571  1  0.82374064  0.64474039  0.80021376  1
  O  O572  1  0.82282916  0.98165070  0.05014217  1
  O  O573  1  0.82355496  0.98059534  0.29961098  1
  O  O574  1  0.82414400  0.97915182  0.54997671  1
  O  O575  1  0.82328256  0.97858880  0.80024356  1
  O  O576  1  0.42565354  0.14715712  0.17466604  1
  O  O577  1  0.42711377  0.14884119  0.42612461  1
  O  O578  1  0.42624953  0.14601804  0.67579898  1
  O  O579  1  0.42722245  0.14859957  0.92502482  1
  O  O580  1  0.42831686  0.48075864  0.17671854  1
  O  O581  1  0.42619454  0.48041757  0.42397135  1
  O  O582  1  0.42661142  0.47893082  0.67594358  1
  O  O583  1  0.42675844  0.48161497  0.92590804  1
  O  O584  1  0.42745571  0.81217118  0.17466245  1
  O  O585  1  0.42632527  0.81318285  0.42427594  1
  O  O586  1  0.42658960  0.81455048  0.67683141  1
  O  O587  1  0.42681264  0.81280856  0.92616860  1
  O  O588  1  0.92776404  0.14524566  0.17492439  1
  O  O589  1  0.92659891  0.14448075  0.42454111  1
  O  O590  1  0.92723368  0.14502066  0.67519680  1
  O  O591  1  0.92857199  0.14675747  0.92721555  1
  O  O592  1  0.92620145  0.47924289  0.17468148  1
  O  O593  1  0.92643545  0.47888399  0.42526470  1
  O  O594  1  0.92625806  0.47995614  0.67412116  1
  O  O595  1  0.92703754  0.47917852  0.92604027  1
  O  O596  1  0.92776169  0.81403528  0.17724929  1
  O  O597  1  0.92751436  0.81348454  0.42541483  1
  O  O598  1  0.92581912  0.81348933  0.67385846  1
  O  O599  1  0.92661780  0.81548168  0.92624748  1
  O  O600  1  0.07161559  0.18515115  0.07291860  1
  O  O601  1  0.07453654  0.18591705  0.32582805  1
  O  O602  1  0.07369624  0.18688172  0.57490793  1
  O  O603  1  0.07401557  0.18600344  0.82580587  1
  O  O604  1  0.07383243  0.52074831  0.07624062  1
  O  O605  1  0.07281131  0.52148442  0.32556470  1
  O  O606  1  0.07321044  0.52143594  0.57429856  1
  O  O607  1  0.07338576  0.52027318  0.82522251  1
  O  O608  1  0.07172570  0.85253186  0.07337151  1
  O  O609  1  0.07187297  0.85243413  0.32233029  1
  O  O610  1  0.07306474  0.85294742  0.57285957  1
  O  O611  1  0.07265119  0.85459477  0.82441750  1
  O  O612  1  0.57280140  0.18602627  0.07392060  1
  O  O613  1  0.57367183  0.18786501  0.32369204  1
  O  O614  1  0.57277895  0.18522724  0.57452104  1
  O  O615  1  0.57367646  0.18841125  0.82449029  1
  O  O616  1  0.57199058  0.51938399  0.07424124  1
  O  O617  1  0.57153117  0.51934547  0.32248625  1
  O  O618  1  0.57340921  0.51935858  0.57490869  1
  O  O619  1  0.57394990  0.52010243  0.82634921  1
  O  O620  1  0.57445875  0.85307374  0.07529809  1
  O  O621  1  0.57453312  0.85346286  0.32557620  1
  O  O622  1  0.57373219  0.85316084  0.57612903  1
  O  O623  1  0.57153139  0.85304895  0.82361036  1
  O  O624  1  0.32363765  0.18729884  0.04861434  1
  O  O625  1  0.32377195  0.18694004  0.29931881  1
  O  O626  1  0.32382807  0.18702222  0.55002413  1
  O  O627  1  0.32333855  0.18794804  0.80036137  1
  O  O628  1  0.32236737  0.52056772  0.05147586  1
  O  O629  1  0.32261521  0.52198431  0.30030767  1
  O  O630  1  0.32243722  0.52063601  0.55195485  1
  O  O631  1  0.32262282  0.52036107  0.80213618  1
  O  O632  1  0.32305811  0.85231278  0.05124358  1
  O  O633  1  0.32317223  0.85152708  0.29987035  1
  O  O634  1  0.32333392  0.85375837  0.55052896  1
  O  O635  1  0.32267647  0.85125715  0.80057757  1
  O  O636  1  0.82248937  0.18691718  0.05170149  1
  O  O637  1  0.82334999  0.18788565  0.29933020  1
  O  O638  1  0.82344448  0.18520229  0.55042636  1
  O  O639  1  0.82366537  0.18526615  0.80177615  1
  O  O640  1  0.82359805  0.51876092  0.05141564  1
  O  O641  1  0.82239324  0.51905440  0.30224545  1
  O  O642  1  0.82191505  0.51855427  0.55055220  1
  O  O643  1  0.82338391  0.51783712  0.80063420  1
  O  O644  1  0.82280697  0.85448990  0.05056576  1
  O  O645  1  0.82401968  0.85358277  0.29887763  1
  O  O646  1  0.82397379  0.85210444  0.54954623  1
  O  O647  1  0.82262867  0.85123614  0.80110790  1
  O  O648  1  0.17639221  0.14514539  0.19913113  1
  O  O649  1  0.17632319  0.14643021  0.45040042  1
  O  O650  1  0.17658673  0.14551888  0.69995153  1
  O  O651  1  0.17643845  0.14604066  0.95084707  1
  O  O652  1  0.17655180  0.48253182  0.19885689  1
  O  O653  1  0.17573248  0.48153252  0.45036500  1
  O  O654  1  0.17684680  0.48226089  0.70002293  1
  O  O655  1  0.17712405  0.48126793  0.94879661  1
  O  O656  1  0.17709809  0.81357835  0.19789373  1
  O  O657  1  0.17781878  0.81388601  0.44764007  1
  O  O658  1  0.17606621  0.81191164  0.69972953  1
  O  O659  1  0.17763476  0.81364691  0.94833957  1
  O  O660  1  0.67769475  0.14784204  0.19834901  1
  O  O661  1  0.67594963  0.14675839  0.44980586  1
  O  O662  1  0.67712368  0.14801356  0.69934714  1
  O  O663  1  0.67742485  0.14884173  0.94972082  1
  O  O664  1  0.67766536  0.48057455  0.19878354  1
  O  O665  1  0.67764757  0.47983674  0.44777632  1
  O  O666  1  0.67648628  0.48067607  0.69884240  1
  O  O667  1  0.67748378  0.48158201  0.94961462  1
  O  O668  1  0.67596829  0.81242796  0.20145542  1
  O  O669  1  0.67717017  0.81150085  0.45055597  1
  O  O670  1  0.67712968  0.81146408  0.69978985  1
  O  O671  1  0.67707152  0.81480191  0.94893715  1
