# generated using pymatgen
data_Na2MnFe(PO4)2
_symmetry_space_group_name_H-M   'P 1'
_cell_length_a   22.34244089
_cell_length_b   20.09347795
_cell_length_c   19.44914012
_cell_angle_alpha   90.05064698
_cell_angle_beta   90.02928598
_cell_angle_gamma   89.99854206
_symmetry_Int_Tables_number   1
_chemical_formula_structural   Na2MnFe(PO4)2
_chemical_formula_sum   'Na96 Mn48 Fe48 P96 O384'
_cell_volume   8731.44073970
_cell_formula_units_Z   48
loop_
 _symmetry_equiv_pos_site_id
 _symmetry_equiv_pos_as_xyz
  1  'x, y, z'
loop_
 _atom_site_type_symbol
 _atom_site_label
 _atom_site_symmetry_multiplicity
 _atom_site_fract_x
 _atom_site_fract_y
 _atom_site_fract_z
 _atom_site_occupancy
  Na  Na0  1  0.14097796  0.25138998  0.24365375  1
  Na  Na1  1  0.14079927  0.25016566  0.49293223  1
  Na  Na2  1  0.14063319  0.24975176  0.74515813  1
  Na  Na3  1  0.14041107  0.24962374  0.99378624  1
  Na  Na4  1  0.14025235  0.58345797  0.24279610  1
  Na  Na5  1  0.14008423  0.58322405  0.49169053  1
  Na  Na6  1  0.14007067  0.58402819  0.74459562  1
  Na  Na7  1  0.13988717  0.58338261  0.99497468  1
  Na  Na8  1  0.14052234  0.91576258  0.24335248  1
  Na  Na9  1  0.14049251  0.91595772  0.49299619  1
  Na  Na10  1  0.14057470  0.91697196  0.74421650  1
  Na  Na11  1  0.14032571  0.91559831  0.99343686  1
  Na  Na12  1  0.64011428  0.24977185  0.24293692  1
  Na  Na13  1  0.64040564  0.24811339  0.49401647  1
  Na  Na14  1  0.64015692  0.24893492  0.74309402  1
  Na  Na15  1  0.63975289  0.24921429  0.99355490  1
  Na  Na16  1  0.63990004  0.58504624  0.24416617  1
  Na  Na17  1  0.63940070  0.58291216  0.49424385  1
  Na  Na18  1  0.63971986  0.58377185  0.74416231  1
  Na  Na19  1  0.64018026  0.58449856  0.99390604  1
  Na  Na20  1  0.64017176  0.91677649  0.24246864  1
  Na  Na21  1  0.64026316  0.91566005  0.49378822  1
  Na  Na22  1  0.64039303  0.91619982  0.74414435  1
  Na  Na23  1  0.63971002  0.91668858  0.99403175  1
  Na  Na24  1  0.35998056  0.08352343  0.00614391  1
  Na  Na25  1  0.35951864  0.08449599  0.25591395  1
  Na  Na26  1  0.36002141  0.08364229  0.50559903  1
  Na  Na27  1  0.36039364  0.08390293  0.75699497  1
  Na  Na28  1  0.35975996  0.41756633  0.00808598  1
  Na  Na29  1  0.35972790  0.41797161  0.25633463  1
  Na  Na30  1  0.35935122  0.41854867  0.50579422  1
  Na  Na31  1  0.35919582  0.41722835  0.75700467  1
  Na  Na32  1  0.35959603  0.74966329  0.00693862  1
  Na  Na33  1  0.35991422  0.75058075  0.25684021  1
  Na  Na34  1  0.36028890  0.74983664  0.50664423  1
  Na  Na35  1  0.35994360  0.75040171  0.75650972  1
  Na  Na36  1  0.85976742  0.08246988  0.00695878  1
  Na  Na37  1  0.85962927  0.08227623  0.25521600  1
  Na  Na38  1  0.85973197  0.08156402  0.50586028  1
  Na  Na39  1  0.86006683  0.08180424  0.75563672  1
  Na  Na40  1  0.85923437  0.41714819  0.00722738  1
  Na  Na41  1  0.85961801  0.41769493  0.25599380  1
  Na  Na42  1  0.85986667  0.41615860  0.50587270  1
  Na  Na43  1  0.85950875  0.41690794  0.75497739  1
  Na  Na44  1  0.85985646  0.75134803  0.00777853  1
  Na  Na45  1  0.86022677  0.75072353  0.25576901  1
  Na  Na46  1  0.85994601  0.74853440  0.50527380  1
  Na  Na47  1  0.85998740  0.74982828  0.75603337  1
  Na  Na48  1  0.10947519  0.08153006  0.11838821  1
  Na  Na49  1  0.10976946  0.08151896  0.36852919  1
  Na  Na50  1  0.11018738  0.08254360  0.61966562  1
  Na  Na51  1  0.11011924  0.08361267  0.86874528  1
  Na  Na52  1  0.10979353  0.41707436  0.11862056  1
  Na  Na53  1  0.11028502  0.41799358  0.36737666  1
  Na  Na54  1  0.10954462  0.41761106  0.61778312  1
  Na  Na55  1  0.10931300  0.41771665  0.87093358  1
  Na  Na56  1  0.11012880  0.74875771  0.11841759  1
  Na  Na57  1  0.10957213  0.74857677  0.36705339  1
  Na  Na58  1  0.10965861  0.74933364  0.61770781  1
  Na  Na59  1  0.10969442  0.75008904  0.86972017  1
  Na  Na60  1  0.60931624  0.08309775  0.11721392  1
  Na  Na61  1  0.60987013  0.08344641  0.36817495  1
  Na  Na62  1  0.61015203  0.08251875  0.61796748  1
  Na  Na63  1  0.60956653  0.08245861  0.86913336  1
  Na  Na64  1  0.60886981  0.41587801  0.11812650  1
  Na  Na65  1  0.60911734  0.41733252  0.36972072  1
  Na  Na66  1  0.60885705  0.41726107  0.61866165  1
  Na  Na67  1  0.60886999  0.41671785  0.86920486  1
  Na  Na68  1  0.60987220  0.75081474  0.11814206  1
  Na  Na69  1  0.60959022  0.74997912  0.36887541  1
  Na  Na70  1  0.60898896  0.74933276  0.61955806  1
  Na  Na71  1  0.60953345  0.75080176  0.86972730  1
  Na  Na72  1  0.39009376  0.25051612  0.13048155  1
  Na  Na73  1  0.39041038  0.25210191  0.38106744  1
  Na  Na74  1  0.39049850  0.24974349  0.63061867  1
  Na  Na75  1  0.39081314  0.24939049  0.88251426  1
  Na  Na76  1  0.39003080  0.58307178  0.13252074  1
  Na  Na77  1  0.38989045  0.58463727  0.38266891  1
  Na  Na78  1  0.38960610  0.58511270  0.63120942  1
  Na  Na79  1  0.39013170  0.58466926  0.88218644  1
  Na  Na80  1  0.39003466  0.91663689  0.13073481  1
  Na  Na81  1  0.39061722  0.91671396  0.38150944  1
  Na  Na82  1  0.39097761  0.91639497  0.63124958  1
  Na  Na83  1  0.39083020  0.91716541  0.88204066  1
  Na  Na84  1  0.89075124  0.24862802  0.13123677  1
  Na  Na85  1  0.89088869  0.24911808  0.38116130  1
  Na  Na86  1  0.89084618  0.24872587  0.63125033  1
  Na  Na87  1  0.89044400  0.25025611  0.88123564  1
  Na  Na88  1  0.89043400  0.58436965  0.13169349  1
  Na  Na89  1  0.89005509  0.58344566  0.38055030  1
  Na  Na90  1  0.89033286  0.58303860  0.62965923  1
  Na  Na91  1  0.89055134  0.58445971  0.88214700  1
  Na  Na92  1  0.89030974  0.91514986  0.13207426  1
  Na  Na93  1  0.89022816  0.91580981  0.38009046  1
  Na  Na94  1  0.89044120  0.91674786  0.63037589  1
  Na  Na95  1  0.89057772  0.91653207  0.88189578  1
  Mn  Mn96  1  0.75004599  0.33240694  0.37522102  1
  Mn  Mn97  1  0.49950513  0.66719747  0.00071489  1
  Mn  Mn98  1  0.50045072  0.49978883  0.25073321  1
  Mn  Mn99  1  0.00080476  0.33387345  0.49996675  1
  Mn  Mn100  1  0.00054690  0.16490722  0.50083559  1
  Mn  Mn101  1  0.74942983  0.66561478  0.62598302  1
  Mn  Mn102  1  0.00019193  -0.00078325  0.00033559  1
  Mn  Mn103  1  0.25021808  0.83320838  0.37477202  1
  Mn  Mn104  1  0.74978183  0.33263522  0.62479771  1
  Mn  Mn105  1  0.00009008  0.50076305  0.74970063  1
  Mn  Mn106  1  0.74996571  0.50048223  0.87560203  1
  Mn  Mn107  1  0.50015459  -0.00011983  0.74971611  1
  Mn  Mn108  1  0.74989831  0.83336064  0.37481976  1
  Mn  Mn109  1  0.50010306  0.33364405  0.50041716  1
  Mn  Mn110  1  0.00086340  0.16495043  0.25090817  1
  Mn  Mn111  1  0.75052663  0.16477276  0.37421847  1
  Mn  Mn112  1  0.24910323  0.16748754  0.12567081  1
  Mn  Mn113  1  0.75010367  0.16568539  0.87452309  1
  Mn  Mn114  1  0.49927649  0.33255929  0.74969454  1
  Mn  Mn115  1  0.74961381  0.33271523  0.12536579  1
  Mn  Mn116  1  0.49951694  -0.00024522  0.24944864  1
  Mn  Mn117  1  0.74960256  -0.00108985  0.87549319  1
  Mn  Mn118  1  0.50009454  0.66763491  0.25073658  1
  Mn  Mn119  1  0.24976809  0.83253326  0.87470534  1
  Mn  Mn120  1  0.00020268  0.66713460  0.74986452  1
  Mn  Mn121  1  0.74978662  0.33318587  0.87429159  1
  Mn  Mn122  1  0.25057728  0.83254875  0.62464879  1
  Mn  Mn123  1  0.24954232  -0.00022342  0.12466899  1
  Mn  Mn124  1  0.25043564  -0.00008157  0.62518698  1
  Mn  Mn125  1  0.75053832  0.66790759  0.87476761  1
  Mn  Mn126  1  -0.00028403  0.33339157  0.00058290  1
  Mn  Mn127  1  0.24915713  0.50150619  0.62522115  1
  Mn  Mn128  1  0.25013545  0.16658750  0.62451233  1
  Mn  Mn129  1  0.50030455  0.00009772  0.50001819  1
  Mn  Mn130  1  0.25000906  0.50094159  0.87600678  1
  Mn  Mn131  1  -0.00004631  0.33393629  0.75060604  1
  Mn  Mn132  1  0.25028064  0.33382685  0.62536832  1
  Mn  Mn133  1  0.49880239  0.50107592  0.75025103  1
  Mn  Mn134  1  0.74979503  0.83310264  0.62449634  1
  Mn  Mn135  1  -0.00026880  0.83420608  0.74912379  1
  Mn  Mn136  1  0.74899824  0.50127720  0.12570279  1
  Mn  Mn137  1  0.49964402  0.16778808  0.24871422  1
  Mn  Mn138  1  0.74912572  0.50055209  0.37506214  1
  Mn  Mn139  1  0.25029238  0.16721611  0.37461761  1
  Mn  Mn140  1  0.00025985  0.33356098  0.25007862  1
  Mn  Mn141  1  0.00073161  0.16607372  0.75012979  1
  Mn  Mn142  1  0.00015287  0.83294220  0.49934923  1
  Mn  Mn143  1  0.24932617  0.33336530  0.87566977  1
  Fe  Fe144  1  0.75037687  0.16534516  0.62420232  1
  Fe  Fe145  1  -0.00012078  -0.00161229  0.24951347  1
  Fe  Fe146  1  0.25031768  0.33459172  0.37436669  1
  Fe  Fe147  1  0.75015832  0.16609809  0.12485548  1
  Fe  Fe148  1  -0.00065978  0.50055557  0.00023184  1
  Fe  Fe149  1  0.75051520  -0.00096787  0.62470168  1
  Fe  Fe150  1  0.50005375  0.83363092  0.25018639  1
  Fe  Fe151  1  0.75026261  0.83380402  0.87582851  1
  Fe  Fe152  1  0.49943901  0.83358275  -0.00030797  1
  Fe  Fe153  1  0.00009950  0.66612707  0.24906764  1
  Fe  Fe154  1  0.49910421  0.50085512  0.50049432  1
  Fe  Fe155  1  0.50040976  0.83303739  0.50080945  1
  Fe  Fe156  1  0.49977215  0.33317137  -0.00059800  1
  Fe  Fe157  1  0.74937175  -0.00033572  0.37412704  1
  Fe  Fe158  1  -0.00008814  0.66629627  0.49807279  1
  Fe  Fe159  1  0.50024147  0.16611133  0.75053733  1
  Fe  Fe160  1  0.49973681  0.50016043  0.00054518  1
  Fe  Fe161  1  0.00023239  0.16602920  0.00034086  1
  Fe  Fe162  1  0.25009782  0.50070685  0.12586203  1
  Fe  Fe163  1  0.25031597  -0.00019865  0.37474418  1
  Fe  Fe164  1  0.00054028  0.83292838  0.00073103  1
  Fe  Fe165  1  0.50006042  0.66720848  0.75059211  1
  Fe  Fe166  1  0.25041092  0.66641061  0.12581851  1
  Fe  Fe167  1  0.49985219  -0.00039942  -0.00062008  1
  Fe  Fe168  1  0.50014299  0.83317842  0.75053466  1
  Fe  Fe169  1  0.25075711  0.16666922  0.87532616  1
  Fe  Fe170  1  0.74978194  0.49962386  0.62481501  1
  Fe  Fe171  1  0.74977171  0.83400612  0.12567475  1
  Fe  Fe172  1  0.00048687  -0.00126314  0.49946211  1
  Fe  Fe173  1  0.25030451  0.33413364  0.12513585  1
  Fe  Fe174  1  0.25040089  0.83305571  0.12475330  1
  Fe  Fe175  1  0.25006591  0.50081226  0.37454771  1
  Fe  Fe176  1  0.49979472  0.66757055  0.50084953  1
  Fe  Fe177  1  -0.00021566  0.66692091  0.00069361  1
  Fe  Fe178  1  0.24951874  0.66693655  0.62476975  1
  Fe  Fe179  1  0.25057033  -0.00037243  0.87515758  1
  Fe  Fe180  1  0.00049980  0.83228157  0.24992830  1
  Fe  Fe181  1  -0.00034764  0.50036813  0.24913576  1
  Fe  Fe182  1  0.24987325  0.66672925  0.87596919  1
  Fe  Fe183  1  -0.00030332  0.50045509  0.49860326  1
  Fe  Fe184  1  0.74982960  0.66802039  0.12470078  1
  Fe  Fe185  1  0.00040401  -0.00002873  0.75083965  1
  Fe  Fe186  1  0.50001340  0.16653286  0.00001039  1
  Fe  Fe187  1  0.50015985  0.16701097  0.49943680  1
  Fe  Fe188  1  0.74965044  -0.00000150  0.12464810  1
  Fe  Fe189  1  0.74981431  0.66694862  0.37488069  1
  Fe  Fe190  1  0.24973870  0.66704603  0.37445049  1
  Fe  Fe191  1  0.49986014  0.33357672  0.24969064  1
  P  P192  1  0.04242270  0.24822365  0.10273761  1
  P  P193  1  0.04350154  0.24974494  0.35332031  1
  P  P194  1  0.04347887  0.24963990  0.60323907  1
  P  P195  1  0.04281573  0.24999560  0.85409218  1
  P  P196  1  0.04103601  0.58325524  0.10232295  1
  P  P197  1  0.04101018  0.58323289  0.35104929  1
  P  P198  1  0.04147357  0.58349317  0.60015768  1
  P  P199  1  0.04237242  0.58405612  0.85423565  1
  P  P200  1  0.04243749  0.91456292  0.10349213  1
  P  P201  1  0.04171104  0.91574604  0.35146763  1
  P  P202  1  0.04290006  0.91754348  0.60239821  1
  P  P203  1  0.04237514  0.91737820  0.85303485  1
  P  P204  1  0.54110719  0.25033178  0.10123745  1
  P  P205  1  0.54219226  0.25151953  0.35221716  1
  P  P206  1  0.54219233  0.24826135  0.60276841  1
  P  P207  1  0.54202579  0.24861803  0.85311841  1
  P  P208  1  0.54207662  0.58240524  0.10282484  1
  P  P209  1  0.54211693  0.58416452  0.35460009  1
  P  P210  1  0.54070166  0.58434125  0.60237895  1
  P  P211  1  0.54165748  0.58476471  0.85336379  1
  P  P212  1  0.54079764  0.91633632  0.10147517  1
  P  P213  1  0.54228953  0.91543057  0.35260002  1
  P  P214  1  0.54228678  0.91513367  0.60299026  1
  P  P215  1  0.54197395  0.91567902  0.85311114  1
  P  P216  1  0.45721866  0.08335736  0.14544438  1
  P  P217  1  0.45802852  0.08480860  0.39715436  1
  P  P218  1  0.45815813  0.08473538  0.64713431  1
  P  P219  1  0.45895194  0.08353044  0.89812527  1
  P  P220  1  0.45794944  0.41562724  0.14696987  1
  P  P221  1  0.45774508  0.41826619  0.39780642  1
  P  P222  1  0.45673584  0.41731447  0.64676247  1
  P  P223  1  0.45805605  0.41727567  0.89873229  1
  P  P224  1  0.45796140  0.75185639  0.14763130  1
  P  P225  1  0.45859196  0.75075094  0.39877176  1
  P  P226  1  0.45863530  0.75008202  0.64833458  1
  P  P227  1  0.45767232  0.75135582  0.89726383  1
  P  P228  1  0.95824262  0.08125925  0.14744872  1
  P  P229  1  0.95807533  0.08065423  0.39716886  1
  P  P230  1  0.95840503  0.08087952  0.64742782  1
  P  P231  1  0.95790028  0.08399055  0.89777106  1
  P  P232  1  0.95770133  0.41802780  0.14696657  1
  P  P233  1  0.95807606  0.41812573  0.39649413  1
  P  P234  1  0.95749414  0.41717811  0.64610150  1
  P  P235  1  0.95708981  0.41821965  0.89808976  1
  P  P236  1  0.95928953  0.74969140  0.14763207  1
  P  P237  1  0.95817672  0.74871470  0.39579648  1
  P  P238  1  0.95716734  0.74973436  0.64583846  1
  P  P239  1  0.95854230  0.75048594  0.89904445  1
  P  P240  1  0.20707718  0.08314519  0.22857417  1
  P  P241  1  0.20796819  0.08205171  0.47695409  1
  P  P242  1  0.20822892  0.08344835  0.72926198  1
  P  P243  1  0.20877191  0.08295522  0.97652428  1
  P  P244  1  0.20906811  0.41723493  0.22719318  1
  P  P245  1  0.20861533  0.41751301  0.47599803  1
  P  P246  1  0.20672962  0.41736345  0.72831394  1
  P  P247  1  0.20755856  0.41727627  0.97971201  1
  P  P248  1  0.20908189  0.74979097  0.22673367  1
  P  P249  1  0.20768932  0.74856464  0.47713653  1
  P  P250  1  0.20746275  0.74873481  0.72763657  1
  P  P251  1  0.20817836  0.74855752  0.97880211  1
  P  P252  1  0.70792234  0.08267317  0.22617983  1
  P  P253  1  0.70790138  0.08106336  0.47777185  1
  P  P254  1  0.70864744  0.08216232  0.72598002  1
  P  P255  1  0.70734293  0.08282080  0.97889107  1
  P  P256  1  0.70642074  0.41698868  0.22834322  1
  P  P257  1  0.70708183  0.41629337  0.47866478  1
  P  P258  1  0.70704768  0.41765884  0.72721323  1
  P  P259  1  0.70680354  0.41654741  0.97827244  1
  P  P260  1  0.70854167  0.75030551  0.22689974  1
  P  P261  1  0.70762367  0.74859773  0.47739221  1
  P  P262  1  0.70720092  0.75066671  0.72876895  1
  P  P263  1  0.70804675  0.75193918  0.97854361  1
  P  P264  1  0.29168925  0.25091992  0.02258537  1
  P  P265  1  0.29228241  0.25252697  0.27201115  1
  P  P266  1  0.29265384  0.25100688  0.52109899  1
  P  P267  1  0.29270340  0.24927024  0.77311287  1
  P  P268  1  0.29158069  0.58384672  0.02411729  1
  P  P269  1  0.29130415  0.58409210  0.27289146  1
  P  P270  1  0.29153887  0.58525047  0.52157555  1
  P  P271  1  0.29202675  0.58548041  0.77288974  1
  P  P272  1  0.29178868  0.91546148  0.02194292  1
  P  P273  1  0.29251567  0.91748104  0.27206375  1
  P  P274  1  0.29317131  0.91659202  0.52132535  1
  P  P275  1  0.29285035  0.91739178  0.77286083  1
  P  P276  1  0.79226499  0.24843775  0.02264576  1
  P  P277  1  0.79299204  0.24889886  0.27130126  1
  P  P278  1  0.79259278  0.24769056  0.52239074  1
  P  P279  1  0.79278292  0.24892448  0.77088906  1
  P  P280  1  0.79218733  0.58534932  0.02309858  1
  P  P281  1  0.79162128  0.58558318  0.27205024  1
  P  P282  1  0.79162233  0.58212935  0.52220663  1
  P  P283  1  0.79299597  0.58297037  0.77179188  1
  P  P284  1  0.79136398  0.91644730  0.02368978  1
  P  P285  1  0.79153430  0.91786507  0.27140909  1
  P  P286  1  0.79216261  0.91734136  0.52162496  1
  P  P287  1  0.79259462  0.91527904  0.77256410  1
  O  O288  1  0.03725411  0.24848703  0.18269906  1
  O  O289  1  0.03844705  0.24990274  0.43327499  1
  O  O290  1  0.03822917  0.24985474  0.68324316  1
  O  O291  1  0.03737106  0.24947062  0.93404624  1
  O  O292  1  0.03590252  0.58311201  0.18222293  1
  O  O293  1  0.03624889  0.58354696  0.43094214  1
  O  O294  1  0.03685838  0.58389152  0.68018477  1
  O  O295  1  0.03684673  0.58411530  0.93409632  1
  O  O296  1  0.03710166  0.91477388  0.18336690  1
  O  O297  1  0.03666165  0.91622649  0.43143517  1
  O  O298  1  0.03767370  0.91766792  0.68236254  1
  O  O299  1  0.03720907  0.91652873  0.93296647  1
  O  O300  1  0.53633005  0.25125884  0.18118515  1
  O  O301  1  0.53714998  0.25069467  0.43216364  1
  O  O302  1  0.53677044  0.24803260  0.68269698  1
  O  O303  1  0.53652797  0.24886387  0.93299663  1
  O  O304  1  0.53722835  0.58263998  0.18280742  1
  O  O305  1  0.53657884  0.58450264  0.43448015  1
  O  O306  1  0.53583119  0.58464101  0.68236865  1
  O  O307  1  0.53633924  0.58398140  0.93330770  1
  O  O308  1  0.53617676  0.91655594  0.18144701  1
  O  O309  1  0.53728105  0.91542863  0.43256747  1
  O  O310  1  0.53686715  0.91531250  0.68289919  1
  O  O311  1  0.53637658  0.91606398  0.93295337  1
  O  O312  1  0.46254203  0.08321576  0.06555563  1
  O  O313  1  0.46305998  0.08443110  0.31716951  1
  O  O314  1  0.46349796  0.08473743  0.56718403  1
  O  O315  1  0.46399446  0.08364664  0.81815292  1
  O  O316  1  0.46329878  0.41609523  0.06709196  1
  O  O317  1  0.46295503  0.41779215  0.31790796  1
  O  O318  1  0.46223750  0.41779556  0.56685489  1
  O  O319  1  0.46248728  0.41702405  0.81870310  1
  O  O320  1  0.46285020  0.75178113  0.06769289  1
  O  O321  1  0.46365774  0.75102142  0.31882012  1
  O  O322  1  0.46420142  0.74998266  0.56843791  1
  O  O323  1  0.46315125  0.75082288  0.81743308  1
  O  O324  1  0.96362637  0.08208371  0.06753946  1
  O  O325  1  0.96335313  0.08054384  0.31722351  1
  O  O326  1  0.96363549  0.08048923  0.56748602  1
  O  O327  1  0.96315288  0.08344052  0.81784105  1
  O  O328  1  0.96301797  0.41811959  0.06704154  1
  O  O329  1  0.96324571  0.41805449  0.31651639  1
  O  O330  1  0.96267912  0.41738113  0.56611966  1
  O  O331  1  0.96232443  0.41797457  0.81809482  1
  O  O332  1  0.96426028  0.74964144  0.06774884  1
  O  O333  1  0.96357115  0.74899448  0.31592887  1
  O  O334  1  0.96216539  0.74933909  0.56588620  1
  O  O335  1  0.96320983  0.75081661  0.81901416  1
  O  O336  1  0.21330568  0.08312270  0.05658735  1
  O  O337  1  0.21256562  0.08268424  0.30845165  1
  O  O338  1  0.21318865  0.08230949  0.55694731  1
  O  O339  1  0.21389759  0.08355803  0.80916357  1
  O  O340  1  0.21297162  0.41714668  0.05960664  1
  O  O341  1  0.21397042  0.41735760  0.30711870  1
  O  O342  1  0.21297600  0.41807232  0.55601219  1
  O  O343  1  0.21182688  0.41744513  0.80828622  1
  O  O344  1  0.21386863  0.74921548  0.05863585  1
  O  O345  1  0.21371372  0.74982577  0.30673365  1
  O  O346  1  0.21267834  0.74847097  0.55709775  1
  O  O347  1  0.21254107  0.74878838  0.80762490  1
  O  O348  1  0.71253115  0.08312579  0.05878177  1
  O  O349  1  0.71283726  0.08205459  0.30618943  1
  O  O350  1  0.71362049  0.08148911  0.55761469  1
  O  O351  1  0.71326747  0.08240914  0.80601483  1
  O  O352  1  0.71174699  0.41655526  0.05826820  1
  O  O353  1  0.71169229  0.41677791  0.30830639  1
  O  O354  1  0.71236025  0.41666039  0.55862369  1
  O  O355  1  0.71230806  0.41739951  0.80722123  1
  O  O356  1  0.71333901  0.75155955  0.05846434  1
  O  O357  1  0.71318271  0.75010629  0.30689114  1
  O  O358  1  0.71250343  0.74883981  0.55732559  1
  O  O359  1  0.71256027  0.75145383  0.80869067  1
  O  O360  1  0.28659590  0.25260018  0.19209237  1
  O  O361  1  0.28735636  0.25158930  0.44113789  1
  O  O362  1  0.28784030  0.24945029  0.69307452  1
  O  O363  1  0.28639218  0.24998912  0.94264668  1
  O  O364  1  0.28646572  0.58380651  0.19297869  1
  O  O365  1  0.28636788  0.58502670  0.44168680  1
  O  O366  1  0.28657320  0.58552996  0.69295436  1
  O  O367  1  0.28699692  0.58372604  0.94416787  1
  O  O368  1  0.28704369  0.91655096  0.19212753  1
  O  O369  1  0.28791778  0.91696696  0.44135359  1
  O  O370  1  0.28802975  0.91694538  0.69286500  1
  O  O371  1  0.28651132  0.91587010  0.94200841  1
  O  O372  1  0.78763500  0.24859704  0.19135029  1
  O  O373  1  0.78763568  0.24779073  0.44236254  1
  O  O374  1  0.78742759  0.24832348  0.69093227  1
  O  O375  1  0.78738066  0.24879402  0.94262190  1
  O  O376  1  0.78626831  0.58590366  0.19213863  1
  O  O377  1  0.78619039  0.58314840  0.44227804  1
  O  O378  1  0.78768669  0.58216934  0.69184537  1
  O  O379  1  0.78737919  0.58508348  0.94312123  1
  O  O380  1  0.78610624  0.91768458  0.19154329  1
  O  O381  1  0.78669950  0.91772016  0.44170665  1
  O  O382  1  0.78753266  0.91586903  0.69261665  1
  O  O383  1  0.78684578  0.91557369  0.94369153  1
  O  O384  1  0.22751635  0.25190214  0.05845509  1
  O  O385  1  0.22816908  0.25219553  0.30803993  1
  O  O386  1  0.22836795  0.25067082  0.55656778  1
  O  O387  1  0.22829016  0.24876568  0.80829250  1
  O  O388  1  0.22738714  0.58444390  0.05989745  1
  O  O389  1  0.22713283  0.58450147  0.30881446  1
  O  O390  1  0.22730888  0.58577747  0.55759620  1
  O  O391  1  0.22780012  0.58523621  0.80876145  1
  O  O392  1  0.22763823  0.91503262  0.05781190  1
  O  O393  1  0.22829613  0.91808655  0.30798013  1
  O  O394  1  0.22885240  0.91622969  0.55662641  1
  O  O395  1  0.22844336  0.91776223  0.80811029  1
  O  O396  1  0.72783426  0.24821925  0.05782670  1
  O  O397  1  0.72863963  0.24885390  0.30657690  1
  O  O398  1  0.72822912  0.24779106  0.55763975  1
  O  O399  1  0.72841119  0.24926019  0.80621830  1
  O  O400  1  0.72769345  0.58571425  0.05815181  1
  O  O401  1  0.72739753  0.58563933  0.30784346  1
  O  O402  1  0.72745207  0.58132865  0.55825956  1
  O  O403  1  0.72859012  0.58383612  0.80696269  1
  O  O404  1  0.72707044  0.91749463  0.05917510  1
  O  O405  1  0.72744017  0.91778859  0.30762335  1
  O  O406  1  0.72798480  0.91766453  0.55758797  1
  O  O407  1  0.72820022  0.91461389  0.80816121  1
  O  O408  1  0.27131805  0.08350731  0.19307251  1
  O  O409  1  0.27227066  0.08209148  0.44136724  1
  O  O410  1  0.27238946  0.08364412  0.69335233  1
  O  O411  1  0.27306674  0.08257696  0.94100511  1
  O  O412  1  0.27310724  0.41679730  0.19100887  1
  O  O413  1  0.27289123  0.41721868  0.44051439  1
  O  O414  1  0.27120844  0.41790240  0.69334077  1
  O  O415  1  0.27172598  0.41705576  0.94387824  1
  O  O416  1  0.27325238  0.74936982  0.19096883  1
  O  O417  1  0.27205468  0.74851654  0.44171436  1
  O  O418  1  0.27184292  0.74823655  0.69205976  1
  O  O419  1  0.27218625  0.74845518  0.94234395  1
  O  O420  1  0.77219765  0.08255522  0.19041947  1
  O  O421  1  0.77202789  0.08030409  0.44147803  1
  O  O422  1  0.77293072  0.08171975  0.69042384  1
  O  O423  1  0.77161918  0.08229186  0.94334016  1
  O  O424  1  0.77085202  0.41712596  0.19336153  1
  O  O425  1  0.77136353  0.41647319  0.44317483  1
  O  O426  1  0.77138457  0.41782707  0.69168343  1
  O  O427  1  0.77134226  0.41649283  0.94349586  1
  O  O428  1  0.77276805  0.74985430  0.19126042  1
  O  O429  1  0.77195983  0.74869054  0.44194846  1
  O  O430  1  0.77147242  0.74997023  0.69335936  1
  O  O431  1  0.77225833  0.75234547  0.94250254  1
  O  O432  1  0.02244663  0.08056749  0.18331481  1
  O  O433  1  0.02236265  0.08068552  0.43295400  1
  O  O434  1  0.02264171  0.08099478  0.68333922  1
  O  O435  1  0.02220905  0.08416834  0.93350827  1
  O  O436  1  0.02196342  0.41814575  0.18279187  1
  O  O437  1  0.02237100  0.41879374  0.43219292  1
  O  O438  1  0.02183696  0.41701927  0.68152939  1
  O  O439  1  0.02139879  0.41839027  0.93371870  1
  O  O440  1  0.02329929  0.75022124  0.18397327  1
  O  O441  1  0.02226717  0.74874089  0.43202150  1
  O  O442  1  0.02154969  0.75034923  0.68116045  1
  O  O443  1  0.02283332  0.74995078  0.93469462  1
  O  O444  1  0.52144883  0.08343849  0.18117777  1
  O  O445  1  0.52231520  0.08479066  0.43279444  1
  O  O446  1  0.52238529  0.08459469  0.68310522  1
  O  O447  1  0.52297010  0.08394342  0.93432056  1
  O  O448  1  0.52208372  0.41523187  0.18322597  1
  O  O449  1  0.52186604  0.41849635  0.43379614  1
  O  O450  1  0.52091944  0.41705129  0.68246558  1
  O  O451  1  0.52233025  0.41773443  0.93425952  1
  O  O452  1  0.52230571  0.75198058  0.18319944  1
  O  O453  1  0.52273739  0.75045882  0.43491473  1
  O  O454  1  0.52254587  0.74988545  0.68518942  1
  O  O455  1  0.52177547  0.75151217  0.93357292  1
  O  O456  1  0.47697570  0.24937525  0.06529766  1
  O  O457  1  0.47784019  0.25193310  0.31654242  1
  O  O458  1  0.47803015  0.24854191  0.56670927  1
  O  O459  1  0.47782763  0.24786185  0.81695878  1
  O  O460  1  0.47766761  0.58236345  0.06748041  1
  O  O461  1  0.47801393  0.58391631  0.31854598  1
  O  O462  1  0.47659606  0.58489326  0.56628147  1
  O  O463  1  0.47741862  0.58586799  0.81748036  1
  O  O464  1  0.47666150  0.91614814  0.06551226  1
  O  O465  1  0.47791870  0.91527248  0.31700320  1
  O  O466  1  0.47816648  0.91520535  0.56684575  1
  O  O467  1  0.47795694  0.91570856  0.81665799  1
  O  O468  1  0.97811952  0.24802398  0.06712834  1
  O  O469  1  0.97906001  0.24949788  0.31827728  1
  O  O470  1  0.97908269  0.24949728  0.56806335  1
  O  O471  1  0.97857612  0.24989200  0.81843783  1
  O  O472  1  0.97703763  0.58347751  0.06585068  1
  O  O473  1  0.97686231  0.58266533  0.31506877  1
  O  O474  1  0.97721429  0.58280887  0.56438690  1
  O  O475  1  0.97819675  0.58405949  0.81828077  1
  O  O476  1  0.97823700  0.91466779  0.06749821  1
  O  O477  1  0.97756487  0.91511316  0.31531637  1
  O  O478  1  0.97857147  0.91741547  0.56666300  1
  O  O479  1  0.97808873  0.91799066  0.81724590  1
  O  O480  1  0.07334309  0.31202779  0.07525809  1
  O  O481  1  0.07427822  0.31328745  0.32496058  1
  O  O482  1  0.07457598  0.31302452  0.57504240  1
  O  O483  1  0.07363719  0.31388510  0.82649076  1
  O  O484  1  0.07203553  0.64694429  0.07430088  1
  O  O485  1  0.07134330  0.64706839  0.32208592  1
  O  O486  1  0.07155727  0.64743620  0.57154581  1
  O  O487  1  0.07352283  0.64740549  0.82560136  1
  O  O488  1  0.07382030  0.97791506  0.07527289  1
  O  O489  1  0.07236151  0.97930599  0.32291920  1
  O  O490  1  0.07392136  0.98067650  0.57354020  1
  O  O491  1  0.07308662  0.98111488  0.82502500  1
  O  O492  1  0.57133720  0.31400186  0.07205619  1
  O  O493  1  0.57269812  0.31530962  0.32401997  1
  O  O494  1  0.57332479  0.31215085  0.57556544  1
  O  O495  1  0.57251047  0.31258702  0.82496637  1
  O  O496  1  0.57304128  0.64615747  0.07523459  1
  O  O497  1  0.57317549  0.64753513  0.32586684  1
  O  O498  1  0.57237387  0.64744126  0.57417074  1
  O  O499  1  0.57296139  0.64814968  0.82535997  1
  O  O500  1  0.57112804  0.98024798  0.07286109  1
  O  O501  1  0.57298853  0.97925005  0.32457651  1
  O  O502  1  0.57325432  0.97884458  0.57514567  1
  O  O503  1  0.57338142  0.97913854  0.82507090  1
  O  O504  1  0.42598244  0.02012156  0.17410908  1
  O  O505  1  0.42699463  0.02119862  0.42503832  1
  O  O506  1  0.42723364  0.02079558  0.67465106  1
  O  O507  1  0.42883228  0.01921619  0.92599481  1
  O  O508  1  0.42713682  0.35213051  0.17558788  1
  O  O509  1  0.42640669  0.35490158  0.42573139  1
  O  O510  1  0.42573376  0.35358627  0.67452353  1
  O  O511  1  0.42786219  0.35319710  0.92695621  1
  O  O512  1  0.42726212  0.68794430  0.17549346  1
  O  O513  1  0.42764076  0.68707166  0.42678333  1
  O  O514  1  0.42748981  0.68666786  0.67674609  1
  O  O515  1  0.42643832  0.68801281  0.92578031  1
  O  O516  1  0.92737235  0.01748714  0.17524858  1
  O  O517  1  0.92718374  0.01731451  0.42574004  1
  O  O518  1  0.92757356  0.01770027  0.67657397  1
  O  O519  1  0.92668982  0.02049618  0.92577385  1
  O  O520  1  0.92681068  0.35413870  0.17450878  1
  O  O521  1  0.92749018  0.35415298  0.42430490  1
  O  O522  1  0.92646093  0.35362499  0.67426643  1
  O  O523  1  0.92610441  0.35448751  0.92573588  1
  O  O524  1  0.92888127  0.68576030  0.17608124  1
  O  O525  1  0.92737972  0.68517951  0.42440624  1
  O  O526  1  0.92629446  0.68642527  0.67461780  1
  O  O527  1  0.92744435  0.68696313  0.92703719  1
  O  O528  1  0.17588606  0.01998029  0.19978569  1
  O  O529  1  0.17742504  0.01831808  0.44863160  1
  O  O530  1  0.17715124  0.01984944  0.70106965  1
  O  O531  1  0.17784601  0.01921701  0.94859436  1
  O  O532  1  0.17759655  0.35399589  0.19871596  1
  O  O533  1  0.17761813  0.35389324  0.44802118  1
  O  O534  1  0.17621608  0.35359971  0.70008469  1
  O  O535  1  0.17602715  0.35409039  0.95123720  1
  O  O536  1  0.17764336  0.68645326  0.19859398  1
  O  O537  1  0.17660060  0.68553991  0.44784794  1
  O  O538  1  0.17613258  0.68571737  0.69876927  1
  O  O539  1  0.17738466  0.68488623  0.95052385  1
  O  O540  1  0.67665005  0.01943074  0.19756050  1
  O  O541  1  0.67641986  0.01796105  0.44909572  1
  O  O542  1  0.67762247  0.01843813  0.69819257  1
  O  O543  1  0.67605053  0.01941127  0.95048070  1
  O  O544  1  0.67547001  0.35349950  0.20003292  1
  O  O545  1  0.67641239  0.35236137  0.45077501  1
  O  O546  1  0.67602342  0.35390509  0.69953876  1
  O  O547  1  0.67594029  0.35305715  0.94981808  1
  O  O548  1  0.67691353  0.68730954  0.19825751  1
  O  O549  1  0.67706666  0.68498163  0.44889215  1
  O  O550  1  0.67593872  0.68696157  0.70120551  1
  O  O551  1  0.67705211  0.68828416  0.95030478  1
  O  O552  1  0.32290766  0.31442497  0.05058537  1
  O  O553  1  0.32314347  0.31588458  0.30072686  1
  O  O554  1  0.32376377  0.31426392  0.54986898  1
  O  O555  1  0.32342332  0.31313808  0.80099372  1
  O  O556  1  0.32325978  0.64696189  0.05239274  1
  O  O557  1  0.32262317  0.64751116  0.30121971  1
  O  O558  1  0.32275470  0.64840711  0.55051649  1
  O  O559  1  0.32274523  0.64883975  0.80186165  1
  O  O560  1  0.32299666  0.97902336  0.04978454  1
  O  O561  1  0.32343304  0.98113474  0.30013483  1
  O  O562  1  0.32453097  0.97975242  0.54981305  1
  O  O563  1  0.32372788  0.98088473  0.80132300  1
  O  O564  1  0.82329300  0.31208417  0.05062679  1
  O  O565  1  0.82394766  0.31255456  0.29943789  1
  O  O566  1  0.82384925  0.31125962  0.55008236  1
  O  O567  1  0.82368793  0.31274602  0.79874562  1
  O  O568  1  0.82297011  0.64891697  0.05149177  1
  O  O569  1  0.82263106  0.64882585  0.30097934  1
  O  O570  1  0.82259766  0.64569189  0.55047995  1
  O  O571  1  0.82426807  0.64663408  0.79952273  1
  O  O572  1  0.82276362  0.97996559  0.05142876  1
  O  O573  1  0.82241747  0.98125664  0.30012611  1
  O  O574  1  0.82341444  0.98023323  0.55091866  1
  O  O575  1  0.82326991  0.97894793  0.80106253  1
  O  O576  1  0.42601323  0.14682280  0.17376732  1
  O  O577  1  0.42737246  0.14854637  0.42522044  1
  O  O578  1  0.42709320  0.14785698  0.67606980  1
  O  O579  1  0.42727842  0.14654117  0.92654256  1
  O  O580  1  0.42684463  0.47919626  0.17525195  1
  O  O581  1  0.42706465  0.48203065  0.42619582  1
  O  O582  1  0.42536512  0.48053175  0.67519492  1
  O  O583  1  0.42700590  0.48085587  0.92690596  1
  O  O584  1  0.42702609  0.81506806  0.17659544  1
  O  O585  1  0.42773461  0.81430438  0.42723997  1
  O  O586  1  0.42779663  0.81389716  0.67643708  1
  O  O587  1  0.42671437  0.81486681  0.92570609  1
  O  O588  1  0.92714127  0.14465899  0.17579469  1
  O  O589  1  0.92719656  0.14455017  0.42495594  1
  O  O590  1  0.92742041  0.14483016  0.67477516  1
  O  O591  1  0.92720815  0.14760859  0.92628111  1
  O  O592  1  0.92660788  0.48133220  0.17553609  1
  O  O593  1  0.92673807  0.48131790  0.42498667  1
  O  O594  1  0.92639904  0.48056209  0.67449540  1
  O  O595  1  0.92628010  0.48172409  0.92653072  1
  O  O596  1  0.92775518  0.81286468  0.17614991  1
  O  O597  1  0.92675126  0.81209904  0.42397095  1
  O  O598  1  0.92598548  0.81327396  0.67393419  1
  O  O599  1  0.92815656  0.81433828  0.92758458  1
  O  O600  1  0.07319816  0.18461192  0.07444695  1
  O  O601  1  0.07467627  0.18621789  0.32553502  1
  O  O602  1  0.07445647  0.18595414  0.57543234  1
  O  O603  1  0.07434077  0.18692898  0.82557410  1
  O  O604  1  0.07192799  0.51963968  0.07389369  1
  O  O605  1  0.07250574  0.52001631  0.32252036  1
  O  O606  1  0.07270568  0.51996688  0.57222654  1
  O  O607  1  0.07362321  0.52068479  0.82577385  1
  O  O608  1  0.07319641  0.85106920  0.07466185  1
  O  O609  1  0.07283704  0.85196011  0.32382685  1
  O  O610  1  0.07374961  0.85368390  0.57447150  1
  O  O611  1  0.07340176  0.85394097  0.82454953  1
  O  O612  1  0.57250815  0.18667567  0.07380141  1
  O  O613  1  0.57330976  0.18812953  0.32362540  1
  O  O614  1  0.57303416  0.18502914  0.57364918  1
  O  O615  1  0.57355983  0.18549986  0.82452834  1
  O  O616  1  0.57270163  0.51888646  0.07422471  1
  O  O617  1  0.57364974  0.52087847  0.32651657  1
  O  O618  1  0.57070788  0.52005865  0.57420696  1
  O  O619  1  0.57227845  0.52106950  0.82487868  1
  O  O620  1  0.57199398  0.85287828  0.07335621  1
  O  O621  1  0.57318087  0.85211953  0.32366168  1
  O  O622  1  0.57329734  0.85171544  0.57460460  1
  O  O623  1  0.57283464  0.85215918  0.82460866  1
  O  O624  1  0.32244768  0.18723916  0.05077829  1
  O  O625  1  0.32359444  0.18873922  0.29925004  1
  O  O626  1  0.32368126  0.18725860  0.54876344  1
  O  O627  1  0.32360442  0.18591545  0.80179405  1
  O  O628  1  0.32155732  0.51977805  0.05288675  1
  O  O629  1  0.32173675  0.52029691  0.30172965  1
  O  O630  1  0.32226790  0.52150420  0.54987150  1
  O  O631  1  0.32329513  0.52179823  0.80054809  1
  O  O632  1  0.32255413  0.85188813  0.05047039  1
  O  O633  1  0.32351702  0.85395784  0.30030918  1
  O  O634  1  0.32409041  0.85287305  0.54931782  1
  O  O635  1  0.32356936  0.85361866  0.80075257  1
  O  O636  1  0.82295274  0.18483314  0.05107439  1
  O  O637  1  0.82433039  0.18560877  0.29954584  1
  O  O638  1  0.82311356  0.18396455  0.55075763  1
  O  O639  1  0.82399666  0.18573182  0.79949102  1
  O  O640  1  0.82289605  0.52161417  0.05110756  1
  O  O641  1  0.82250014  0.52164086  0.29948750  1
  O  O642  1  0.82255954  0.51845797  0.55003880  1
  O  O643  1  0.82390867  0.51973871  0.80063964  1
  O  O644  1  0.82152450  0.85274730  0.05294192  1
  O  O645  1  0.82281685  0.85429944  0.29938109  1
  O  O646  1  0.82287907  0.85318674  0.54877901  1
  O  O647  1  0.82354728  0.85190411  0.80112849  1
  O  O648  1  0.17596987  0.14684802  0.20086624  1
  O  O649  1  0.17678842  0.14568174  0.44944932  1
  O  O650  1  0.17676234  0.14658340  0.70060968  1
  O  O651  1  0.17846915  0.14695542  0.94848830  1
  O  O652  1  0.17870742  0.48126400  0.19870776  1
  O  O653  1  0.17835557  0.48134668  0.44712125  1
  O  O654  1  0.17543620  0.48067606  0.70007020  1
  O  O655  1  0.17653751  0.48081378  0.95146010  1
  O  O656  1  0.17900670  0.81387680  0.19832147  1
  O  O657  1  0.17685340  0.81244438  0.44941577  1
  O  O658  1  0.17708458  0.81286319  0.69982052  1
  O  O659  1  0.17678519  0.81181857  0.95028458  1
  O  O660  1  0.67758492  0.14682153  0.19839126  1
  O  O661  1  0.67716001  0.14481874  0.44944922  1
  O  O662  1  0.67830855  0.14601679  0.69749308  1
  O  O663  1  0.67636662  0.14607447  0.95001640  1
  O  O664  1  0.67532806  0.48058664  0.20062076  1
  O  O665  1  0.67552360  0.47938230  0.45036934  1
  O  O666  1  0.67626788  0.48123237  0.69895215  1
  O  O667  1  0.67590187  0.48019301  0.95035909  1
  O  O668  1  0.67848289  0.81452872  0.19859727  1
  O  O669  1  0.67662909  0.81223626  0.44948572  1
  O  O670  1  0.67612979  0.81374196  0.69979495  1
  O  O671  1  0.67702735  0.81531373  0.95000445  1
