# generated using pymatgen
data_Na2MnFe(PO4)2
_symmetry_space_group_name_H-M   'P 1'
_cell_length_a   22.34245219
_cell_length_b   20.09375274
_cell_length_c   19.44975909
_cell_angle_alpha   90.04327626
_cell_angle_beta   89.95614165
_cell_angle_gamma   89.99866638
_symmetry_Int_Tables_number   1
_chemical_formula_structural   Na2MnFe(PO4)2
_chemical_formula_sum   'Na96 Mn48 Fe48 P96 O384'
_cell_volume   8731.84195579
_cell_formula_units_Z   48
loop_
 _symmetry_equiv_pos_site_id
 _symmetry_equiv_pos_as_xyz
  1  'x, y, z'
loop_
 _atom_site_type_symbol
 _atom_site_label
 _atom_site_symmetry_multiplicity
 _atom_site_fract_x
 _atom_site_fract_y
 _atom_site_fract_z
 _atom_site_occupancy
  Na  Na0  1  0.14053793  0.25071695  0.24435974  1
  Na  Na1  1  0.14043470  0.25096895  0.49220182  1
  Na  Na2  1  0.14059649  0.25135387  0.74376531  1
  Na  Na3  1  0.14111686  0.25114039  0.99431538  1
  Na  Na4  1  0.13988504  0.58217138  0.24403876  1
  Na  Na5  1  0.14004000  0.58286623  0.49216297  1
  Na  Na6  1  0.14062245  0.58447415  0.74399028  1
  Na  Na7  1  0.14074520  0.58179848  0.99407742  1
  Na  Na8  1  0.14028878  0.91657088  0.24374749  1
  Na  Na9  1  0.14074635  0.91667874  0.49339173  1
  Na  Na10  1  0.14048614  0.91772854  0.74381207  1
  Na  Na11  1  0.13973380  0.91659994  0.99292792  1
  Na  Na12  1  0.64098117  0.25084417  0.24397176  1
  Na  Na13  1  0.64052975  0.25001499  0.49354364  1
  Na  Na14  1  0.64092331  0.24822195  0.74272689  1
  Na  Na15  1  0.64120530  0.25021375  0.99275465  1
  Na  Na16  1  0.64008069  0.58270970  0.24510867  1
  Na  Na17  1  0.63986233  0.58253057  0.49389791  1
  Na  Na18  1  0.64024253  0.58127603  0.74406955  1
  Na  Na19  1  0.64049113  0.58282902  0.99368536  1
  Na  Na20  1  0.64027150  0.91638949  0.24414907  1
  Na  Na21  1  0.64023505  0.91643161  0.49399945  1
  Na  Na22  1  0.64083930  0.91624554  0.74416965  1
  Na  Na23  1  0.64050556  0.91738086  0.99328275  1
  Na  Na24  1  0.35918303  0.08400903  0.00537957  1
  Na  Na25  1  0.35916628  0.08373330  0.25543377  1
  Na  Na26  1  0.35930586  0.08391546  0.50636661  1
  Na  Na27  1  0.35929582  0.08535329  0.75551943  1
  Na  Na28  1  0.36033920  0.41689739  0.00647748  1
  Na  Na29  1  0.35950175  0.41673880  0.25682843  1
  Na  Na30  1  0.35973230  0.41708029  0.50703559  1
  Na  Na31  1  0.35938644  0.41843248  0.75696627  1
  Na  Na32  1  0.35919564  0.75007876  0.00663593  1
  Na  Na33  1  0.35954930  0.74978565  0.25674000  1
  Na  Na34  1  0.35939104  0.74972106  0.50682239  1
  Na  Na35  1  0.35884649  0.75045108  0.75581956  1
  Na  Na36  1  0.85966557  0.08292157  0.00544242  1
  Na  Na37  1  0.85971257  0.08337933  0.25615714  1
  Na  Na38  1  0.85950465  0.08359774  0.50726842  1
  Na  Na39  1  0.85938240  0.08187679  0.75548827  1
  Na  Na40  1  0.86021492  0.41708215  0.00672707  1
  Na  Na41  1  0.86030494  0.41681143  0.25740828  1
  Na  Na42  1  0.86031749  0.41614157  0.50630898  1
  Na  Na43  1  0.85956244  0.41507806  0.75554934  1
  Na  Na44  1  0.85920800  0.75064210  0.00680735  1
  Na  Na45  1  0.85944628  0.74933310  0.25647893  1
  Na  Na46  1  0.85961992  0.74953874  0.50659153  1
  Na  Na47  1  0.85909271  0.74923432  0.75629379  1
  Na  Na48  1  0.10972707  0.08198633  0.11843718  1
  Na  Na49  1  0.10973038  0.08457057  0.36914769  1
  Na  Na50  1  0.10976001  0.08502634  0.61736610  1
  Na  Na51  1  0.10997843  0.08272367  0.86892834  1
  Na  Na52  1  0.11100364  0.41691777  0.11918874  1
  Na  Na53  1  0.11010105  0.41739892  0.36751165  1
  Na  Na54  1  0.10936308  0.41712272  0.61725016  1
  Na  Na55  1  0.11057486  0.41753881  0.86954419  1
  Na  Na56  1  0.10895897  0.74881086  0.11874474  1
  Na  Na57  1  0.10945177  0.74809407  0.36919593  1
  Na  Na58  1  0.11006394  0.74991086  0.61732697  1
  Na  Na59  1  0.10965266  0.75019028  0.86888072  1
  Na  Na60  1  0.61000062  0.08257916  0.11809511  1
  Na  Na61  1  0.60973922  0.08202071  0.36913016  1
  Na  Na62  1  0.61014192  0.08379457  0.61783343  1
  Na  Na63  1  0.61032121  0.08331592  0.86770886  1
  Na  Na64  1  0.61036291  0.41731145  0.11873632  1
  Na  Na65  1  0.61045274  0.41686337  0.36958041  1
  Na  Na66  1  0.60948414  0.41719601  0.61812080  1
  Na  Na67  1  0.60997373  0.41605463  0.86889864  1
  Na  Na68  1  0.60918930  0.74989853  0.11902879  1
  Na  Na69  1  0.60930499  0.74955269  0.37050013  1
  Na  Na70  1  0.60938059  0.74846823  0.61862478  1
  Na  Na71  1  0.60947543  0.74971374  0.86913361  1
  Na  Na72  1  0.39049229  0.25112456  0.13068913  1
  Na  Na73  1  0.38980022  0.25062257  0.38200280  1
  Na  Na74  1  0.39010830  0.25164797  0.63083195  1
  Na  Na75  1  0.39063191  0.25125730  0.88096910  1
  Na  Na76  1  0.39005192  0.58309384  0.13114622  1
  Na  Na77  1  0.38997400  0.58353743  0.38325248  1
  Na  Na78  1  0.38947059  0.58398569  0.63110481  1
  Na  Na79  1  0.38971684  0.58271110  0.88234417  1
  Na  Na80  1  0.38998723  0.91675369  0.13022802  1
  Na  Na81  1  0.39043331  0.91524917  0.38093357  1
  Na  Na82  1  0.39009557  0.91684676  0.63134581  1
  Na  Na83  1  0.38977563  0.91772561  0.88088281  1
  Na  Na84  1  0.89092140  0.25069670  0.13121385  1
  Na  Na85  1  0.89070587  0.25081160  0.38291194  1
  Na  Na86  1  0.88979260  0.25015492  0.63046758  1
  Na  Na87  1  0.89036582  0.24928140  0.88109441  1
  Na  Na88  1  0.89070148  0.58148636  0.13206684  1
  Na  Na89  1  0.89036908  0.58191601  0.38150922  1
  Na  Na90  1  0.89012778  0.58314919  0.63023252  1
  Na  Na91  1  0.89025210  0.58343316  0.88194022  1
  Na  Na92  1  0.89003617  0.91610861  0.13071610  1
  Na  Na93  1  0.89038040  0.91688730  0.38189031  1
  Na  Na94  1  0.89019433  0.91744863  0.63099426  1
  Na  Na95  1  0.88974974  0.91663575  0.88225416  1
  Mn  Mn96  1  0.24924194  0.33355894  0.62489060  1
  Mn  Mn97  1  0.75061951  0.33261899  0.87467506  1
  Mn  Mn98  1  0.25057554  0.00045922  0.37526528  1
  Mn  Mn99  1  0.49955483  0.16756843  0.49929239  1
  Mn  Mn100  1  0.50016861  0.33382137  0.25002323  1
  Mn  Mn101  1  0.00128518  0.16608298  0.00098554  1
  Mn  Mn102  1  0.50015598  0.16750324  -0.00062046  1
  Mn  Mn103  1  0.50066518  0.00079779  0.74987616  1
  Mn  Mn104  1  0.74975181  0.66591653  0.12543785  1
  Mn  Mn105  1  0.49946281  -0.00042055  -0.00060136  1
  Mn  Mn106  1  0.50041285  0.16702480  0.24959836  1
  Mn  Mn107  1  0.49913936  -0.00065892  0.49944163  1
  Mn  Mn108  1  -0.00008766  0.83361787  0.74922905  1
  Mn  Mn109  1  0.74993673  0.16626706  0.37481725  1
  Mn  Mn110  1  0.49962242  -0.00134423  0.24908242  1
  Mn  Mn111  1  0.24981721  0.16729580  0.12495781  1
  Mn  Mn112  1  0.75087973  0.33433352  0.12419997  1
  Mn  Mn113  1  0.00097213  0.33424066  0.00082769  1
  Mn  Mn114  1  0.49968041  0.83316725  0.74969310  1
  Mn  Mn115  1  0.00001835  0.66621955  0.00012085  1
  Mn  Mn116  1  0.24974835  0.66528993  0.12555800  1
  Mn  Mn117  1  -0.00056792  0.16734010  0.25012877  1
  Mn  Mn118  1  0.49962452  0.66670967  0.00023850  1
  Mn  Mn119  1  0.00009499  0.33376909  0.74974304  1
  Mn  Mn120  1  0.24986749  0.83381450  0.87502610  1
  Mn  Mn121  1  0.50007778  0.33426982  0.74997583  1
  Mn  Mn122  1  0.75059519  0.16622472  0.12467455  1
  Mn  Mn123  1  0.74998868  0.66570027  0.87578149  1
  Mn  Mn124  1  0.00009332  0.50044200  0.74919596  1
  Mn  Mn125  1  0.24917848  0.50118998  0.62530325  1
  Mn  Mn126  1  0.49987331  0.66713376  0.25075105  1
  Mn  Mn127  1  0.74944754  0.66605671  0.37531367  1
  Mn  Mn128  1  0.24975916  0.16792321  0.87553194  1
  Mn  Mn129  1  0.74996657  0.83297611  0.62557628  1
  Mn  Mn130  1  0.49907336  0.66573720  0.75003747  1
  Mn  Mn131  1  0.00026420  0.16688782  0.74967857  1
  Mn  Mn132  1  0.00004023  -0.00022675  0.25031154  1
  Mn  Mn133  1  -0.00007649  0.66691164  0.74977990  1
  Mn  Mn134  1  0.00019995  0.00011148  0.74995770  1
  Mn  Mn135  1  0.24957531  0.00100797  0.62445557  1
  Mn  Mn136  1  0.00031633  0.83203670  0.25074175  1
  Mn  Mn137  1  0.74959493  0.83456067  0.12598074  1
  Mn  Mn138  1  0.74976720  0.83416163  0.37604222  1
  Mn  Mn139  1  0.24905784  0.83353278  0.12508884  1
  Mn  Mn140  1  0.25006865  0.83247513  0.37460115  1
  Mn  Mn141  1  0.49977101  0.50009064  0.25068490  1
  Mn  Mn142  1  0.75010843  0.49884282  0.62491610  1
  Mn  Mn143  1  -0.00033085  0.83311361  0.49939170  1
  Fe  Fe144  1  0.00032910  0.49939646  0.25056858  1
  Fe  Fe145  1  0.25050469  0.49990053  0.37473174  1
  Fe  Fe146  1  0.74996118  0.00046952  0.12422486  1
  Fe  Fe147  1  0.00008859  0.50026041  0.49877125  1
  Fe  Fe148  1  0.25010629  0.16783129  0.62512340  1
  Fe  Fe149  1  0.49980103  0.50005116  0.75013689  1
  Fe  Fe150  1  0.75021910  0.49991135  0.12552107  1
  Fe  Fe151  1  0.75059471  0.16587350  0.87383388  1
  Fe  Fe152  1  0.49952608  0.66646223  0.50058204  1
  Fe  Fe153  1  0.74969381  0.83313037  0.87520239  1
  Fe  Fe154  1  -0.00060213  0.66609552  0.49897523  1
  Fe  Fe155  1  0.24980211  0.16691255  0.37440746  1
  Fe  Fe156  1  -0.00011721  -0.00082442  0.00002306  1
  Fe  Fe157  1  0.24972337  0.66694976  0.62499058  1
  Fe  Fe158  1  0.50008512  0.16761828  0.74945060  1
  Fe  Fe159  1  0.00017951  0.49964323  0.00098134  1
  Fe  Fe160  1  0.75045819  0.49907917  0.87437747  1
  Fe  Fe161  1  0.49987267  0.83280167  0.50042597  1
  Fe  Fe162  1  0.00068944  0.33381995  0.25086649  1
  Fe  Fe163  1  0.24981915  0.00025752  0.12504566  1
  Fe  Fe164  1  0.24978556  0.83338225  0.62494557  1
  Fe  Fe165  1  0.25040150  0.33353727  0.37475629  1
  Fe  Fe166  1  0.74959927  0.66553235  0.62576442  1
  Fe  Fe167  1  0.75026487  0.00028773  0.37536090  1
  Fe  Fe168  1  0.25002433  0.50043177  0.87527901  1
  Fe  Fe169  1  0.25066808  0.33400154  0.12517115  1
  Fe  Fe170  1  0.49963895  0.50021307  0.50048602  1
  Fe  Fe171  1  0.25094001  0.49958782  0.12511694  1
  Fe  Fe172  1  0.75001248  0.00004365  0.87453267  1
  Fe  Fe173  1  0.50093769  0.33358809  -0.00047465  1
  Fe  Fe174  1  0.75058671  0.49955453  0.37568287  1
  Fe  Fe175  1  0.74980529  0.16580954  0.62441098  1
  Fe  Fe176  1  -0.00068869  0.66539280  0.24933009  1
  Fe  Fe177  1  0.00022572  0.33384555  0.49957831  1
  Fe  Fe178  1  0.00031637  0.00037323  0.50009979  1
  Fe  Fe179  1  0.50047265  0.33426010  0.50090289  1
  Fe  Fe180  1  0.25052110  0.33440948  0.87497435  1
  Fe  Fe181  1  -0.00038642  0.83266559  0.00020354  1
  Fe  Fe182  1  0.24969048  0.00092863  0.87434721  1
  Fe  Fe183  1  0.49962435  0.83254702  0.25041788  1
  Fe  Fe184  1  0.74951634  0.33244519  0.62485470  1
  Fe  Fe185  1  0.75003190  -0.00048915  0.62553305  1
  Fe  Fe186  1  0.49988389  0.83314964  -0.00020533  1
  Fe  Fe187  1  0.50042973  0.49977794  0.00042449  1
  Fe  Fe188  1  0.24959187  0.66712730  0.87488181  1
  Fe  Fe189  1  0.24932997  0.66615683  0.37524289  1
  Fe  Fe190  1  0.75056135  0.33319003  0.37494365  1
  Fe  Fe191  1  0.00001682  0.16738492  0.49965436  1
  P  P192  1  0.04348124  0.25066507  0.10432859  1
  P  P193  1  0.04195450  0.25160957  0.35348920  1
  P  P194  1  0.04158994  0.25079383  0.60092993  1
  P  P195  1  0.04320417  0.25039473  0.85324269  1
  P  P196  1  0.04230776  0.58173609  0.10337514  1
  P  P197  1  0.04077573  0.58321748  0.35190036  1
  P  P198  1  0.04143805  0.58350824  0.60041742  1
  P  P199  1  0.04272275  0.58341164  0.85332643  1
  P  P200  1  0.04140029  0.91562818  0.10172146  1
  P  P201  1  0.04281035  0.91675458  0.35383528  1
  P  P202  1  0.04253411  0.91775530  0.60180611  1
  P  P203  1  0.04235476  0.91630627  0.85390598  1
  P  P204  1  0.54318779  0.25155799  0.10199056  1
  P  P205  1  0.54296243  0.25073689  0.35357830  1
  P  P206  1  0.54226806  0.25153996  0.60276123  1
  P  P207  1  0.54266598  0.24963557  0.85212680  1
  P  P208  1  0.54233931  0.58257737  0.10255000  1
  P  P209  1  0.54197423  0.58342462  0.35483594  1
  P  P210  1  0.54110141  0.58289576  0.60214844  1
  P  P211  1  0.54172262  0.58159203  0.85311515  1
  P  P212  1  0.54205522  0.91481414  0.10246570  1
  P  P213  1  0.54201442  0.91452300  0.35279591  1
  P  P214  1  0.54216312  0.91565997  0.60223101  1
  P  P215  1  0.54260108  0.91625294  0.85332718  1
  P  P216  1  0.45717571  0.08348567  0.14639369  1
  P  P217  1  0.45667701  0.08305039  0.39633814  1
  P  P218  1  0.45791004  0.08523600  0.64727035  1
  P  P219  1  0.45729422  0.08419765  0.89594797  1
  P  P220  1  0.45765498  0.41710871  0.14622429  1
  P  P221  1  0.45846059  0.41674771  0.39919767  1
  P  P222  1  0.45758877  0.41861561  0.64702413  1
  P  P223  1  0.45896613  0.41692239  0.89818301  1
  P  P224  1  0.45730798  0.75110323  0.14738170  1
  P  P225  1  0.45819205  0.74990001  0.39868289  1
  P  P226  1  0.45706124  0.74943803  0.64602767  1
  P  P227  1  0.45693816  0.75089745  0.89773915  1
  P  P228  1  0.95746154  0.08265084  0.14662016  1
  P  P229  1  0.95848575  0.08360510  0.39874548  1
  P  P230  1  0.95782521  0.08363632  0.64567518  1
  P  P231  1  0.95829732  0.08219147  0.89801446  1
  P  P232  1  0.95929167  0.41646541  0.14893040  1
  P  P233  1  0.95920602  0.41653219  0.39759936  1
  P  P234  1  0.95739898  0.41679564  0.64541250  1
  P  P235  1  0.95797288  0.41807584  0.89796982  1
  P  P236  1  0.95755983  0.74838213  0.14733340  1
  P  P237  1  0.95724406  0.74787547  0.39677132  1
  P  P238  1  0.95708791  0.74960920  0.64579611  1
  P  P239  1  0.95718030  0.75091281  0.89776219  1
  P  P240  1  0.20749411  0.08285095  0.22761765  1
  P  P241  1  0.20794080  0.08538054  0.47757433  1
  P  P242  1  0.20748913  0.08557903  0.72736941  1
  P  P243  1  0.20777880  0.08249687  0.97775004  1
  P  P244  1  0.20936478  0.41687586  0.22743395  1
  P  P245  1  0.20894811  0.41705400  0.47602416  1
  P  P246  1  0.20702092  0.41757380  0.72864410  1
  P  P247  1  0.20957190  0.41676700  0.97747483  1
  P  P248  1  0.20690046  0.74891827  0.22853734  1
  P  P249  1  0.20779450  0.74853041  0.47806359  1
  P  P250  1  0.20819406  0.75023921  0.72680615  1
  P  P251  1  0.20746539  0.74869902  0.97749775  1
  P  P252  1  0.70790446  0.08192385  0.22754226  1
  P  P253  1  0.70788851  0.08205269  0.47827434  1
  P  P254  1  0.70873013  0.08270532  0.72690935  1
  P  P255  1  0.70867358  0.08342470  0.97610035  1
  P  P256  1  0.70853549  0.41782101  0.22832679  1
  P  P257  1  0.70915965  0.41588767  0.47707203  1
  P  P258  1  0.70765938  0.41448828  0.72741913  1
  P  P259  1  0.70837355  0.41787934  0.97734371  1
  P  P260  1  0.70690860  0.74980436  0.22860579  1
  P  P261  1  0.70734870  0.74954947  0.47922424  1
  P  P262  1  0.70765452  0.74814301  0.72816845  1
  P  P263  1  0.70764637  0.75107974  0.97771883  1
  P  P264  1  0.29239942  0.25210698  0.02236184  1
  P  P265  1  0.29143614  0.25031775  0.27293533  1
  P  P266  1  0.29186248  0.24925173  0.52171407  1
  P  P267  1  0.29231311  0.25201416  0.77249473  1
  P  P268  1  0.29225222  0.58171279  0.02199751  1
  P  P269  1  0.29164756  0.58299801  0.27356917  1
  P  P270  1  0.29141052  0.58472897  0.52195553  1
  P  P271  1  0.29112380  0.58438434  0.77343244  1
  P  P272  1  0.29134969  0.91828938  0.02203370  1
  P  P273  1  0.29258558  0.91695988  0.27143380  1
  P  P274  1  0.29215827  0.91565136  0.52263927  1
  P  P275  1  0.29175705  0.91832750  0.77188790  1
  P  P276  1  0.79343102  0.24957794  0.02119082  1
  P  P277  1  0.79274450  0.25104202  0.27277101  1
  P  P278  1  0.79094840  0.24990689  0.52288525  1
  P  P279  1  0.79243771  0.24787235  0.77120061  1
  P  P280  1  0.79230482  0.58159587  0.02249473  1
  P  P281  1  0.79215633  0.58139329  0.27274551  1
  P  P282  1  0.79171470  0.58350328  0.52250260  1
  P  P283  1  0.79230258  0.58157872  0.77233680  1
  P  P284  1  0.79170296  0.91797173  0.02172032  1
  P  P285  1  0.79229187  0.91842884  0.27268066  1
  P  P286  1  0.79221523  0.91795704  0.52279905  1
  P  P287  1  0.79129901  0.91620064  0.77335667  1
  O  O288  1  0.03788188  0.25125463  0.18425352  1
  O  O289  1  0.03649073  0.25149170  0.43339237  1
  O  O290  1  0.03703046  0.25043536  0.68096054  1
  O  O291  1  0.03854802  0.25034675  0.93325341  1
  O  O292  1  0.03693259  0.58199186  0.18323840  1
  O  O293  1  0.03593273  0.58322904  0.43179351  1
  O  O294  1  0.03688827  0.58341265  0.68042772  1
  O  O295  1  0.03782619  0.58322489  0.93325816  1
  O  O296  1  0.03665037  0.91565346  0.18176223  1
  O  O297  1  0.03742927  0.91737710  0.43375306  1
  O  O298  1  0.03753511  0.91749494  0.68182630  1
  O  O299  1  0.03706533  0.91602449  0.93385233  1
  O  O300  1  0.53806589  0.25114091  0.18198526  1
  O  O301  1  0.53783351  0.25125573  0.43355796  1
  O  O302  1  0.53689850  0.25095161  0.68269361  1
  O  O303  1  0.53769102  0.25029987  0.93209822  1
  O  O304  1  0.53746692  0.58305858  0.18255733  1
  O  O305  1  0.53641058  0.58350524  0.43473720  1
  O  O306  1  0.53615679  0.58239117  0.68215043  1
  O  O307  1  0.53654762  0.58163558  0.93307263  1
  O  O308  1  0.53659426  0.91467316  0.18243323  1
  O  O309  1  0.53655358  0.91471253  0.43273572  1
  O  O310  1  0.53717433  0.91639100  0.68219630  1
  O  O311  1  0.53727297  0.91590995  0.93327117  1
  O  O312  1  0.46222124  0.08350786  0.06639713  1
  O  O313  1  0.46193503  0.08295667  0.31640296  1
  O  O314  1  0.46272107  0.08477256  0.56725230  1
  O  O315  1  0.46278278  0.08481907  0.81599891  1
  O  O316  1  0.46300192  0.41691835  0.06632331  1
  O  O317  1  0.46306823  0.41670723  0.31919772  1
  O  O318  1  0.46309458  0.41816378  0.56714146  1
  O  O319  1  0.46383390  0.41746640  0.81817054  1
  O  O320  1  0.46256432  0.75100716  0.06743667  1
  O  O321  1  0.46323893  0.75022006  0.31866481  1
  O  O322  1  0.46256722  0.74924435  0.56612163  1
  O  O323  1  0.46192013  0.75015422  0.81776878  1
  O  O324  1  0.96309861  0.08197383  0.06673778  1
  O  O325  1  0.96291420  0.08385475  0.31869265  1
  O  O326  1  0.96311855  0.08352403  0.56576003  1
  O  O327  1  0.96319987  0.08257071  0.81799314  1
  O  O328  1  0.96394386  0.41726673  0.06896310  1
  O  O329  1  0.96425522  0.41642470  0.31772070  1
  O  O330  1  0.96263947  0.41662863  0.56549997  1
  O  O331  1  0.96278431  0.41774921  0.81796533  1
  O  O332  1  0.96293640  0.74929094  0.06738588  1
  O  O333  1  0.96263263  0.74758989  0.31683861  1
  O  O334  1  0.96203815  0.74910599  0.56580586  1
  O  O335  1  0.96207717  0.75074865  0.81773759  1
  O  O336  1  0.21314450  0.08230856  0.05766752  1
  O  O337  1  0.21305815  0.08357902  0.30752816  1
  O  O338  1  0.21322487  0.08569709  0.55751200  1
  O  O339  1  0.21287851  0.08505963  0.80729312  1
  O  O340  1  0.21483115  0.41691004  0.05735323  1
  O  O341  1  0.21454075  0.41695138  0.30729787  1
  O  O342  1  0.21285476  0.41700245  0.55602764  1
  O  O343  1  0.21239477  0.41760608  0.80849331  1
  O  O344  1  0.21254034  0.74885668  0.05742900  1
  O  O345  1  0.21210065  0.74858809  0.30847626  1
  O  O346  1  0.21325546  0.74887497  0.55795415  1
  O  O347  1  0.21336108  0.74996505  0.80678312  1
  O  O348  1  0.71354314  0.08316543  0.05608050  1
  O  O349  1  0.71313349  0.08191839  0.30750084  1
  O  O350  1  0.71318876  0.08228860  0.55814421  1
  O  O351  1  0.71370571  0.08323133  0.80680296  1
  O  O352  1  0.71353330  0.41826727  0.05730156  1
  O  O353  1  0.71402531  0.41732024  0.30820433  1
  O  O354  1  0.71386338  0.41519522  0.55703719  1
  O  O355  1  0.71311530  0.41511664  0.80727826  1
  O  O356  1  0.71281534  0.75101071  0.05765436  1
  O  O357  1  0.71201602  0.74987088  0.30855677  1
  O  O358  1  0.71271063  0.74909728  0.55914861  1
  O  O359  1  0.71306820  0.74873437  0.80810604  1
  O  O360  1  0.28652384  0.25100696  0.19297824  1
  O  O361  1  0.28667960  0.24912191  0.44183655  1
  O  O362  1  0.28688387  0.25125721  0.69258427  1
  O  O363  1  0.28714227  0.25210612  0.94244614  1
  O  O364  1  0.28702047  0.58213148  0.19359006  1
  O  O365  1  0.28637248  0.58443915  0.44209704  1
  O  O366  1  0.28605806  0.58472883  0.69346671  1
  O  O367  1  0.28676741  0.58215546  0.94219952  1
  O  O368  1  0.28707229  0.91732578  0.19152001  1
  O  O369  1  0.28720891  0.91566684  0.44268775  1
  O  O370  1  0.28626978  0.91752462  0.69198449  1
  O  O371  1  0.28590594  0.91836246  0.94207046  1
  O  O372  1  0.78799311  0.25100082  0.19280346  1
  O  O373  1  0.78634367  0.24993724  0.44289111  1
  O  O374  1  0.78665583  0.24824017  0.69137509  1
  O  O375  1  0.78835639  0.24907497  0.94124412  1
  O  O376  1  0.78703704  0.58117568  0.19278568  1
  O  O377  1  0.78642613  0.58295926  0.44259453  1
  O  O378  1  0.78679623  0.58238324  0.69242250  1
  O  O379  1  0.78719143  0.58141046  0.94252769  1
  O  O380  1  0.78691490  0.91853926  0.19272250  1
  O  O381  1  0.78703179  0.91808820  0.44286168  1
  O  O382  1  0.78625349  0.91667269  0.69339676  1
  O  O383  1  0.78621770  0.91714053  0.94188430  1
  O  O384  1  0.22822011  0.25212260  0.05834820  1
  O  O385  1  0.22733080  0.24995048  0.30903783  1
  O  O386  1  0.22761898  0.24884030  0.55776246  1
  O  O387  1  0.22812220  0.25267306  0.80847962  1
  O  O388  1  0.22817795  0.58088376  0.05843230  1
  O  O389  1  0.22731599  0.58302048  0.30922432  1
  O  O390  1  0.22717582  0.58530519  0.55790984  1
  O  O391  1  0.22703671  0.58451810  0.80955444  1
  O  O392  1  0.22719672  0.91856529  0.05820022  1
  O  O393  1  0.22835143  0.91680692  0.30705088  1
  O  O394  1  0.22782614  0.91585258  0.55811325  1
  O  O395  1  0.22764977  0.91839750  0.80807419  1
  O  O396  1  0.72910964  0.25004335  0.05658964  1
  O  O397  1  0.72834156  0.25094785  0.30808676  1
  O  O398  1  0.72683876  0.25023044  0.55891724  1
  O  O399  1  0.72842364  0.24784698  0.80779523  1
  O  O400  1  0.72797062  0.58146360  0.05819824  1
  O  O401  1  0.72788899  0.58100144  0.30846009  1
  O  O402  1  0.72755098  0.58345525  0.55851805  1
  O  O403  1  0.72808454  0.58122443  0.80833046  1
  O  O404  1  0.72759405  0.91854817  0.05809185  1
  O  O405  1  0.72802153  0.91861237  0.30856125  1
  O  O406  1  0.72797225  0.91770367  0.55864044  1
  O  O407  1  0.72720897  0.91592868  0.80947131  1
  O  O408  1  0.27165791  0.08235515  0.19147523  1
  O  O409  1  0.27218075  0.08563224  0.44172299  1
  O  O410  1  0.27173396  0.08565100  0.69143418  1
  O  O411  1  0.27189620  0.08280063  0.94158999  1
  O  O412  1  0.27337808  0.41706534  0.19086195  1
  O  O413  1  0.27335598  0.41736011  0.44094867  1
  O  O414  1  0.27123156  0.41746044  0.69282715  1
  O  O415  1  0.27345792  0.41646728  0.94066934  1
  O  O416  1  0.27120617  0.74957382  0.19315533  1
  O  O417  1  0.27191853  0.74793675  0.44181114  1
  O  O418  1  0.27230969  0.75019018  0.69059277  1
  O  O419  1  0.27176115  0.74880252  0.94184867  1
  O  O420  1  0.77218762  0.08168346  0.19167680  1
  O  O421  1  0.77209134  0.08193869  0.44214338  1
  O  O422  1  0.77275948  0.08215352  0.69057786  1
  O  O423  1  0.77283294  0.08369197  0.94002005  1
  O  O424  1  0.77274293  0.41836412  0.19212549  1
  O  O425  1  0.77335901  0.41648235  0.44119486  1
  O  O426  1  0.77188465  0.41419227  0.69149563  1
  O  O427  1  0.77265328  0.41760776  0.94157846  1
  O  O428  1  0.77128657  0.74986343  0.19340766  1
  O  O429  1  0.77155610  0.74974049  0.44354632  1
  O  O430  1  0.77183499  0.74785937  0.69215942  1
  O  O431  1  0.77191404  0.75099358  0.94203025  1
  O  O432  1  0.02166430  0.08340805  0.18224153  1
  O  O433  1  0.02281786  0.08330453  0.43399251  1
  O  O434  1  0.02207997  0.08357095  0.68131093  1
  O  O435  1  0.02261102  0.08152415  0.93341621  1
  O  O436  1  0.02355467  0.41574671  0.18448476  1
  O  O437  1  0.02327151  0.41621898  0.43376799  1
  O  O438  1  0.02172624  0.41688288  0.68091251  1
  O  O439  1  0.02242496  0.41859026  0.93326342  1
  O  O440  1  0.02177795  0.74758249  0.18312030  1
  O  O441  1  0.02148509  0.74813514  0.43250977  1
  O  O442  1  0.02156163  0.74994086  0.68079235  1
  O  O443  1  0.02158906  0.75109683  0.93302058  1
  O  O444  1  0.52162418  0.08307894  0.18131630  1
  O  O445  1  0.52106013  0.08307040  0.43143876  1
  O  O446  1  0.52233698  0.08536041  0.68243723  1
  O  O447  1  0.52158906  0.08360542  0.93133337  1
  O  O448  1  0.52194731  0.41717210  0.18174972  1
  O  O449  1  0.52276632  0.41680960  0.43473069  1
  O  O450  1  0.52178835  0.41889022  0.68301950  1
  O  O451  1  0.52311483  0.41656911  0.93418195  1
  O  O452  1  0.52159427  0.75123551  0.18312853  1
  O  O453  1  0.52225539  0.75001574  0.43484254  1
  O  O454  1  0.52123404  0.74908016  0.68181942  1
  O  O455  1  0.52137007  0.75124834  0.93303102  1
  O  O456  1  0.47877700  0.25221292  0.06671859  1
  O  O457  1  0.47852203  0.25034502  0.31851126  1
  O  O458  1  0.47803025  0.25228995  0.56698922  1
  O  O459  1  0.47833560  0.24940610  0.81660192  1
  O  O460  1  0.47797714  0.58236781  0.06730360  1
  O  O461  1  0.47785265  0.58373319  0.31890106  1
  O  O462  1  0.47695935  0.58287270  0.56624040  1
  O  O463  1  0.47740526  0.58134203  0.81744994  1
  O  O464  1  0.47779870  0.91474466  0.06663937  1
  O  O465  1  0.47780306  0.91433153  0.31687912  1
  O  O466  1  0.47774517  0.91488018  0.56698680  1
  O  O467  1  0.47830108  0.91706006  0.81800156  1
  O  O468  1  0.97928207  0.25035810  0.06874777  1
  O  O469  1  0.97783517  0.25215477  0.31736491  1
  O  O470  1  0.97728366  0.25149314  0.56557775  1
  O  O471  1  0.97867483  0.25025522  0.81842092  1
  O  O472  1  0.97814413  0.58150790  0.06728469  1
  O  O473  1  0.97677847  0.58333786  0.31568280  1
  O  O474  1  0.97711468  0.58345701  0.56503988  1
  O  O475  1  0.97828880  0.58352006  0.81821273  1
  O  O476  1  0.97717722  0.91546263  0.06599229  1
  O  O477  1  0.97847450  0.91621207  0.31856677  1
  O  O478  1  0.97812628  0.91791747  0.56660630  1
  O  O479  1  0.97807142  0.91654067  0.81832413  1
  O  O480  1  0.07477355  0.31382335  0.07575526  1
  O  O481  1  0.07332897  0.31479574  0.32489892  1
  O  O482  1  0.07310427  0.31412132  0.57307874  1
  O  O483  1  0.07385919  0.31403317  0.82492585  1
  O  O484  1  0.07348385  0.64520036  0.07511423  1
  O  O485  1  0.07199603  0.64643065  0.32322317  1
  O  O486  1  0.07222048  0.64713612  0.57223927  1
  O  O487  1  0.07344920  0.64713166  0.82496902  1
  O  O488  1  0.07191500  0.97951695  0.07360465  1
  O  O489  1  0.07390969  0.98001054  0.32518885  1
  O  O490  1  0.07333170  0.98133601  0.57359198  1
  O  O491  1  0.07370047  0.97966547  0.82567090  1
  O  O492  1  0.57418459  0.31495148  0.07362481  1
  O  O493  1  0.57401832  0.31403215  0.32498493  1
  O  O494  1  0.57320231  0.31518767  0.57470034  1
  O  O495  1  0.57387346  0.31306702  0.82405154  1
  O  O496  1  0.57337224  0.64617942  0.07455965  1
  O  O497  1  0.57349168  0.64658025  0.32640027  1
  O  O498  1  0.57164493  0.64684358  0.57419712  1
  O  O499  1  0.57237374  0.64557345  0.82533550  1
  O  O500  1  0.57290854  0.97875812  0.07488790  1
  O  O501  1  0.57288189  0.97833722  0.32489548  1
  O  O502  1  0.57270041  0.97945175  0.57403068  1
  O  O503  1  0.57406044  0.97963707  0.82539280  1
  O  O504  1  0.42588725  0.02013506  0.17438973  1
  O  O505  1  0.42563810  0.01953588  0.42443468  1
  O  O506  1  0.42686719  0.02158884  0.67508458  1
  O  O507  1  0.42598245  0.02067084  0.92369199  1
  O  O508  1  0.42647535  0.35380440  0.17491202  1
  O  O509  1  0.42778349  0.35305985  0.42744380  1
  O  O510  1  0.42649161  0.35508011  0.67527120  1
  O  O511  1  0.42842230  0.35287075  0.92589023  1
  O  O512  1  0.42655741  0.68716656  0.17526965  1
  O  O513  1  0.42764363  0.68590798  0.42658299  1
  O  O514  1  0.42565337  0.68625717  0.67460832  1
  O  O515  1  0.42615738  0.68723933  0.92593347  1
  O  O516  1  0.92643134  0.01936004  0.17523446  1
  O  O517  1  0.92748394  0.02008688  0.42683049  1
  O  O518  1  0.92654192  0.02039498  0.67432911  1
  O  O519  1  0.92727015  0.01871121  0.92623132  1
  O  O520  1  0.92805573  0.35291800  0.17679137  1
  O  O521  1  0.92760349  0.35349442  0.42619391  1
  O  O522  1  0.92637291  0.35347305  0.67427694  1
  O  O523  1  0.92730558  0.35424794  0.92591187  1
  O  O524  1  0.92653324  0.68469925  0.17511642  1
  O  O525  1  0.92636400  0.68460843  0.42565325  1
  O  O526  1  0.92607761  0.68638026  0.67463300  1
  O  O527  1  0.92626097  0.68721950  0.92561707  1
  O  O528  1  0.17652029  0.01924166  0.19956531  1
  O  O529  1  0.17731147  0.02118464  0.45033775  1
  O  O530  1  0.17610501  0.02219623  0.69930559  1
  O  O531  1  0.17701542  0.01924327  0.94864749  1
  O  O532  1  0.17861111  0.35313079  0.19905458  1
  O  O533  1  0.17879637  0.35312660  0.44734595  1
  O  O534  1  0.17570803  0.35433744  0.69996991  1
  O  O535  1  0.17815223  0.35341291  0.94920579  1
  O  O536  1  0.17606231  0.68542206  0.20012673  1
  O  O537  1  0.17656716  0.68528810  0.44927368  1
  O  O538  1  0.17704173  0.68683142  0.69838812  1
  O  O539  1  0.17686144  0.68502292  0.94918865  1
  O  O540  1  0.67674942  0.01883471  0.19863549  1
  O  O541  1  0.67688285  0.01870526  0.44957037  1
  O  O542  1  0.67731326  0.01917982  0.69900440  1
  O  O543  1  0.67788552  0.01977326  0.94766424  1
  O  O544  1  0.67768385  0.35417074  0.19983025  1
  O  O545  1  0.67867324  0.35231020  0.44804875  1
  O  O546  1  0.67690089  0.35088664  0.69912751  1
  O  O547  1  0.67738725  0.35398646  0.94985196  1
  O  O548  1  0.67597788  0.68618972  0.20056012  1
  O  O549  1  0.67593743  0.68640703  0.45081707  1
  O  O550  1  0.67699027  0.68433468  0.69996724  1
  O  O551  1  0.67649868  0.68730193  0.95024650  1
  O  O552  1  0.32343438  0.31528880  0.05119295  1
  O  O553  1  0.32207756  0.31394420  0.30186777  1
  O  O554  1  0.32255959  0.31320296  0.54967151  1
  O  O555  1  0.32337368  0.31562062  0.80046359  1
  O  O556  1  0.32296129  0.64553868  0.05026226  1
  O  O557  1  0.32212864  0.64701073  0.30144304  1
  O  O558  1  0.32267215  0.64779181  0.55098390  1
  O  O559  1  0.32241195  0.64769097  0.80181727  1
  O  O560  1  0.32267665  0.98143799  0.05057689  1
  O  O561  1  0.32396716  0.98012415  0.29987591  1
  O  O562  1  0.32338612  0.97934531  0.55012166  1
  O  O563  1  0.32225679  0.98226218  0.79989453  1
  O  O564  1  0.82456049  0.31323952  0.04906537  1
  O  O565  1  0.82329514  0.31457469  0.30158852  1
  O  O566  1  0.82226859  0.31321147  0.55118307  1
  O  O567  1  0.82385882  0.31132552  0.79931327  1
  O  O568  1  0.82291858  0.64570990  0.05007594  1
  O  O569  1  0.82280109  0.64549139  0.30015783  1
  O  O570  1  0.82213635  0.64725527  0.55098449  1
  O  O571  1  0.82361146  0.64484420  0.80076860  1
  O  O572  1  0.82266939  0.98154858  0.04994625  1
  O  O573  1  0.82351633  0.98154092  0.30146805  1
  O  O574  1  0.82300145  0.98127529  0.55168241  1
  O  O575  1  0.82212358  0.97983370  0.80183741  1
  O  O576  1  0.42648117  0.14726539  0.17442009  1
  O  O577  1  0.42561491  0.14651926  0.42452260  1
  O  O578  1  0.42735709  0.14899809  0.67555633  1
  O  O579  1  0.42613748  0.14747891  0.92455858  1
  O  O580  1  0.42650258  0.48046280  0.17491187  1
  O  O581  1  0.42764328  0.48050477  0.42723334  1
  O  O582  1  0.42646127  0.48192150  0.67572794  1
  O  O583  1  0.42806817  0.48036267  0.92684600  1
  O  O584  1  0.42620418  0.81426799  0.17617877  1
  O  O585  1  0.42702495  0.81330542  0.42701621  1
  O  O586  1  0.42608014  0.81303373  0.67425506  1
  O  O587  1  0.42619178  0.81455117  0.92584483  1
  O  O588  1  0.92611659  0.14627305  0.17430896  1
  O  O589  1  0.92825711  0.14772236  0.42709244  1
  O  O590  1  0.92682422  0.14718708  0.67407508  1
  O  O591  1  0.92765668  0.14604918  0.92589952  1
  O  O592  1  0.92889149  0.48014666  0.17802934  1
  O  O593  1  0.92885360  0.48059455  0.42600797  1
  O  O594  1  0.92623460  0.48021542  0.67384355  1
  O  O595  1  0.92721484  0.48149615  0.92670158  1
  O  O596  1  0.92657295  0.81184337  0.17588882  1
  O  O597  1  0.92611673  0.81170741  0.42425605  1
  O  O598  1  0.92612049  0.81330364  0.67380268  1
  O  O599  1  0.92639319  0.81432588  0.92647026  1
  O  O600  1  0.07462300  0.18695692  0.07669093  1
  O  O601  1  0.07273996  0.18779389  0.32543833  1
  O  O602  1  0.07157968  0.18674395  0.57221457  1
  O  O603  1  0.07416206  0.18691420  0.82486409  1
  O  O604  1  0.07314986  0.51821797  0.07465551  1
  O  O605  1  0.07142184  0.51925358  0.32350073  1
  O  O606  1  0.07202868  0.51970807  0.57187597  1
  O  O607  1  0.07393463  0.52024975  0.82464279  1
  O  O608  1  0.07226546  0.85189431  0.07372128  1
  O  O609  1  0.07392195  0.85305745  0.32605242  1
  O  O610  1  0.07347895  0.85404818  0.57398377  1
  O  O611  1  0.07341427  0.85297598  0.82495547  1
  O  O612  1  0.57394911  0.18773524  0.07408295  1
  O  O613  1  0.57402446  0.18709809  0.32550691  1
  O  O614  1  0.57320131  0.18798920  0.57453946  1
  O  O615  1  0.57315805  0.18590252  0.82352990  1
  O  O616  1  0.57308330  0.51902272  0.07408618  1
  O  O617  1  0.57298711  0.51982258  0.32661067  1
  O  O618  1  0.57235593  0.51960415  0.57348927  1
  O  O619  1  0.57288670  0.51846466  0.82423708  1
  O  O620  1  0.57309128  0.85156768  0.07371623  1
  O  O621  1  0.57305447  0.85113492  0.32440327  1
  O  O622  1  0.57319799  0.85207100  0.57436132  1
  O  O623  1  0.57343454  0.85276197  0.82484771  1
  O  O624  1  0.32331434  0.18822298  0.04993913  1
  O  O625  1  0.32237783  0.18653510  0.30056859  1
  O  O626  1  0.32309551  0.18627381  0.55096587  1
  O  O627  1  0.32331420  0.18854604  0.80072709  1
  O  O628  1  0.32365140  0.51862125  0.05069069  1
  O  O629  1  0.32265197  0.51964733  0.30241656  1
  O  O630  1  0.32203949  0.52090308  0.55024732  1
  O  O631  1  0.32148402  0.52030358  0.80149266  1
  O  O632  1  0.32203453  0.85418897  0.04941140  1
  O  O633  1  0.32359632  0.85326881  0.29926200  1
  O  O634  1  0.32258295  0.85203393  0.55121679  1
  O  O635  1  0.32328779  0.85505932  0.79998708  1
  O  O636  1  0.82447353  0.18637953  0.04993416  1
  O  O637  1  0.82379157  0.18738166  0.30053978  1
  O  O638  1  0.82109719  0.18576927  0.55113854  1
  O  O639  1  0.82335313  0.18438079  0.79966670  1
  O  O640  1  0.82345903  0.51856736  0.05144459  1
  O  O641  1  0.82343083  0.51843407  0.30186268  1
  O  O642  1  0.82324867  0.52010598  0.55016595  1
  O  O643  1  0.82295058  0.51765459  0.80002361  1
  O  O644  1  0.82276066  0.85455227  0.05035726  1
  O  O645  1  0.82303174  0.85441444  0.30026528  1
  O  O646  1  0.82338895  0.85423734  0.55036916  1
  O  O647  1  0.82211315  0.85234683  0.80112074  1
  O  O648  1  0.17642974  0.14640173  0.19958857  1
  O  O649  1  0.17671755  0.14833279  0.44853485  1
  O  O650  1  0.17696448  0.14934225  0.69910226  1
  O  O651  1  0.17660951  0.14642080  0.95063260  1
  O  O652  1  0.17829010  0.48034014  0.19899189  1
  O  O653  1  0.17792869  0.48050454  0.44768670  1
  O  O654  1  0.17591048  0.48098474  0.70008165  1
  O  O655  1  0.17894914  0.48053780  0.94889600  1
  O  O656  1  0.17547827  0.81232425  0.20062339  1
  O  O657  1  0.17683994  0.81225306  0.45013470  1
  O  O658  1  0.17765862  0.81424406  0.69887286  1
  O  O659  1  0.17636833  0.81227844  0.94969728  1
  O  O660  1  0.67724666  0.14599130  0.19997473  1
  O  O661  1  0.67678743  0.14561695  0.45004259  1
  O  O662  1  0.67833077  0.14640476  0.69781978  1
  O  O663  1  0.67787392  0.14711461  0.94790356  1
  O  O664  1  0.67717768  0.48106837  0.19991191  1
  O  O665  1  0.67813312  0.47970576  0.44952623  1
  O  O666  1  0.67645592  0.47793763  0.69930263  1
  O  O667  1  0.67752054  0.48105829  0.94829436  1
  O  O668  1  0.67585120  0.81325231  0.20057942  1
  O  O669  1  0.67642039  0.81329644  0.45144999  1
  O  O670  1  0.67635552  0.81156363  0.70020594  1
  O  O671  1  0.67695037  0.81452462  0.94913066  1
