# generated using pymatgen
data_Na2MnFe(PO4)2
_symmetry_space_group_name_H-M   'P 1'
_cell_length_a   22.34111482
_cell_length_b   20.09551490
_cell_length_c   19.45148984
_cell_angle_alpha   89.96237146
_cell_angle_beta   90.04423465
_cell_angle_gamma   89.96818920
_symmetry_Int_Tables_number   1
_chemical_formula_structural   Na2MnFe(PO4)2
_chemical_formula_sum   'Na96 Mn48 Fe48 P96 O384'
_cell_volume   8732.86123945
_cell_formula_units_Z   48
loop_
 _symmetry_equiv_pos_site_id
 _symmetry_equiv_pos_as_xyz
  1  'x, y, z'
loop_
 _atom_site_type_symbol
 _atom_site_label
 _atom_site_symmetry_multiplicity
 _atom_site_fract_x
 _atom_site_fract_y
 _atom_site_fract_z
 _atom_site_occupancy
  Na  Na0  1  0.14063607  0.25005361  0.24462461  1
  Na  Na1  1  0.14079932  0.25034785  0.49442063  1
  Na  Na2  1  0.14074962  0.24939363  0.74478800  1
  Na  Na3  1  0.14058567  0.24962532  0.99329036  1
  Na  Na4  1  0.14021404  0.58379014  0.24386878  1
  Na  Na5  1  0.14031845  0.58274972  0.49325424  1
  Na  Na6  1  0.14078619  0.58223537  0.74505134  1
  Na  Na7  1  0.14016453  0.58380085  0.99330449  1
  Na  Na8  1  0.14060661  0.91596545  0.24193930  1
  Na  Na9  1  0.14125150  0.91681765  0.49437917  1
  Na  Na10  1  0.14103249  0.91755935  0.74542751  1
  Na  Na11  1  0.14010131  0.91638239  0.99363474  1
  Na  Na12  1  0.63979526  0.25159685  0.24367064  1
  Na  Na13  1  0.63962046  0.24914230  0.49281108  1
  Na  Na14  1  0.63960553  0.25100187  0.74266871  1
  Na  Na15  1  0.63953392  0.24943782  0.99268656  1
  Na  Na16  1  0.63958181  0.58525945  0.24264168  1
  Na  Na17  1  0.64013206  0.58249714  0.49368379  1
  Na  Na18  1  0.63972910  0.58346200  0.74449634  1
  Na  Na19  1  0.63938193  0.58221066  0.99311633  1
  Na  Na20  1  0.64013073  0.91908360  0.24320704  1
  Na  Na21  1  0.64003436  0.91679687  0.49295767  1
  Na  Na22  1  0.63964485  0.91762139  0.74297661  1
  Na  Na23  1  0.63933331  0.91641929  0.99305239  1
  Na  Na24  1  0.36065743  0.08238477  0.00664567  1
  Na  Na25  1  0.35987390  0.08291829  0.25577766  1
  Na  Na26  1  0.36010917  0.08462411  0.50745485  1
  Na  Na27  1  0.36063444  0.08367004  0.75766295  1
  Na  Na28  1  0.36034271  0.41768410  0.00675061  1
  Na  Na29  1  0.36002085  0.41654746  0.25651158  1
  Na  Na30  1  0.35975624  0.41532917  0.50647536  1
  Na  Na31  1  0.35978289  0.41540990  0.75735150  1
  Na  Na32  1  0.36000986  0.75033945  0.00782807  1
  Na  Na33  1  0.35997373  0.74911376  0.25583674  1
  Na  Na34  1  0.36036247  0.75010198  0.50719213  1
  Na  Na35  1  0.36039877  0.74974183  0.75876031  1
  Na  Na36  1  0.85936685  0.08206886  0.00688730  1
  Na  Na37  1  0.85942629  0.08457033  0.25642627  1
  Na  Na38  1  0.85959786  0.08366955  0.50462434  1
  Na  Na39  1  0.85939272  0.08466106  0.75557288  1
  Na  Na40  1  0.85954452  0.41507429  0.00670154  1
  Na  Na41  1  0.85890687  0.41774573  0.25576764  1
  Na  Na42  1  0.85897526  0.41574888  0.50555809  1
  Na  Na43  1  0.85967949  0.41699881  0.75541928  1
  Na  Na44  1  0.85971918  0.74903301  0.00746045  1
  Na  Na45  1  0.85942686  0.75092850  0.25525986  1
  Na  Na46  1  0.85970570  0.74812617  0.50488716  1
  Na  Na47  1  0.85985106  0.74984521  0.75557207  1
  Na  Na48  1  0.10977806  0.08189857  0.11773693  1
  Na  Na49  1  0.10991724  0.08399785  0.36947523  1
  Na  Na50  1  0.11030785  0.08360003  0.61992166  1
  Na  Na51  1  0.11031378  0.08231464  0.86946419  1
  Na  Na52  1  0.10942214  0.41736312  0.11891102  1
  Na  Na53  1  0.10995802  0.41807839  0.36917641  1
  Na  Na54  1  0.11017779  0.41598518  0.61785564  1
  Na  Na55  1  0.10968646  0.41675081  0.86972789  1
  Na  Na56  1  0.10959543  0.74933725  0.11739238  1
  Na  Na57  1  0.10983303  0.75030565  0.36836238  1
  Na  Na58  1  0.11017839  0.74890414  0.61939670  1
  Na  Na59  1  0.10985097  0.74910854  0.87072757  1
  Na  Na60  1  0.60913224  0.08347126  0.11787131  1
  Na  Na61  1  0.60931443  0.08544523  0.36806655  1
  Na  Na62  1  0.60940969  0.08388671  0.61785264  1
  Na  Na63  1  0.60899981  0.08356813  0.86784308  1
  Na  Na64  1  0.60890514  0.41631921  0.11700286  1
  Na  Na65  1  0.60922332  0.41696323  0.36814541  1
  Na  Na66  1  0.60941784  0.41570201  0.61843353  1
  Na  Na67  1  0.60931777  0.41603599  0.86830457  1
  Na  Na68  1  0.60887406  0.75011315  0.11753463  1
  Na  Na69  1  0.60922797  0.75158116  0.36818294  1
  Na  Na70  1  0.60904799  0.74994313  0.61938096  1
  Na  Na71  1  0.60893769  0.75077455  0.86917642  1
  Na  Na72  1  0.39075415  0.24924085  0.13050824  1
  Na  Na73  1  0.39040577  0.25118254  0.38219371  1
  Na  Na74  1  0.39035815  0.24923681  0.63246500  1
  Na  Na75  1  0.39105091  0.24948014  0.88129453  1
  Na  Na76  1  0.39028357  0.58292665  0.13103169  1
  Na  Na77  1  0.39062276  0.58382430  0.38156767  1
  Na  Na78  1  0.39079988  0.58329360  0.63279901  1
  Na  Na79  1  0.39055451  0.58395925  0.88341743  1
  Na  Na80  1  0.39019527  0.91604779  0.13135228  1
  Na  Na81  1  0.39070758  0.91807573  0.38061018  1
  Na  Na82  1  0.39158024  0.91660736  0.63294338  1
  Na  Na83  1  0.39123420  0.91730780  0.88271533  1
  Na  Na84  1  0.89027434  0.24939753  0.13121667  1
  Na  Na85  1  0.88987383  0.25047938  0.38145115  1
  Na  Na86  1  0.88989255  0.24917018  0.62988712  1
  Na  Na87  1  0.89008776  0.25016591  0.88190532  1
  Na  Na88  1  0.89009346  0.58310409  0.13059099  1
  Na  Na89  1  0.88997442  0.58437425  0.38087936  1
  Na  Na90  1  0.89027596  0.58264658  0.62977008  1
  Na  Na91  1  0.89056549  0.58257090  0.88209021  1
  Na  Na92  1  0.89018107  0.91557056  0.13123316  1
  Na  Na93  1  0.89073112  0.91781034  0.38045200  1
  Na  Na94  1  0.89068116  0.91656229  0.62964148  1
  Na  Na95  1  0.89073030  0.91547390  0.88194253  1
  Mn  Mn96  1  0.49965971  0.49988205  0.75067169  1
  Mn  Mn97  1  -0.00003038  0.16597988  0.00081915  1
  Mn  Mn98  1  0.50016968  0.00077443  0.50041519  1
  Mn  Mn99  1  0.50027985  0.49953649  0.50073613  1
  Mn  Mn100  1  0.00095743  0.16625559  0.24958800  1
  Mn  Mn101  1  0.75044521  0.00101233  0.62378687  1
  Mn  Mn102  1  0.49982555  0.50000527  0.24969184  1
  Mn  Mn103  1  0.74928910  0.66722437  0.12453403  1
  Mn  Mn104  1  0.74947068  0.50015619  0.37451145  1
  Mn  Mn105  1  0.75013289  0.83313380  0.62366433  1
  Mn  Mn106  1  0.74951736  0.33323416  0.12516868  1
  Mn  Mn107  1  0.75003431  0.00027661  0.87463227  1
  Mn  Mn108  1  0.50028430  0.83386782  0.24954249  1
  Mn  Mn109  1  0.00017942  -0.00068802  0.75017789  1
  Mn  Mn110  1  0.25010676  0.16737969  0.37553522  1
  Mn  Mn111  1  0.25085668  0.49879740  0.62515575  1
  Mn  Mn112  1  0.00075065  0.83300271  0.49946634  1
  Mn  Mn113  1  -0.00011448  0.33304061  0.74980546  1
  Mn  Mn114  1  0.49989251  0.16716453  0.24923131  1
  Mn  Mn115  1  0.00115400  0.00085141  0.50051697  1
  Mn  Mn116  1  0.74993665  0.83378202  0.37466608  1
  Mn  Mn117  1  0.25079676  0.83276974  0.37460698  1
  Mn  Mn118  1  0.25050762  0.83335022  0.87604010  1
  Mn  Mn119  1  -0.00031050  0.33397722  0.25045287  1
  Mn  Mn120  1  0.24957528  0.66585125  0.37531692  1
  Mn  Mn121  1  0.50024179  0.66780537  0.50097579  1
  Mn  Mn122  1  0.00008389  0.16615658  0.75118094  1
  Mn  Mn123  1  0.74962974  0.66545668  0.62523876  1
  Mn  Mn124  1  0.74986319  0.33296705  0.62426994  1
  Mn  Mn125  1  0.25050253  0.33324559  0.87532434  1
  Mn  Mn126  1  0.25031927  -0.00016226  0.37529242  1
  Mn  Mn127  1  0.00025400  0.83242129  0.75037316  1
  Mn  Mn128  1  0.00007464  0.33356230  0.49966588  1
  Mn  Mn129  1  0.74950544  0.00070539  0.12498529  1
  Mn  Mn130  1  0.75002415  0.83341483  0.87451541  1
  Mn  Mn131  1  0.24912197  0.50082434  0.12578970  1
  Mn  Mn132  1  0.75036045  0.49874104  0.87443639  1
  Mn  Mn133  1  0.25070494  0.66592302  0.62584244  1
  Mn  Mn134  1  0.24998868  0.33367927  0.12495315  1
  Mn  Mn135  1  0.00021165  0.83304524  0.24974073  1
  Mn  Mn136  1  0.74990879  0.66616352  0.87517785  1
  Mn  Mn137  1  -0.00069420  0.50127145  0.24899384  1
  Mn  Mn138  1  0.00001012  0.66596760  0.75007928  1
  Mn  Mn139  1  0.25068214  0.16603540  0.12483577  1
  Mn  Mn140  1  0.74939465  0.16744341  0.87477730  1
  Mn  Mn141  1  0.25049625  0.83356354  0.62641325  1
  Mn  Mn142  1  0.25134263  0.00104332  0.62535399  1
  Mn  Mn143  1  0.00033925  0.49968167  0.74997347  1
  Fe  Fe144  1  0.25002859  0.16708799  0.62614226  1
  Fe  Fe145  1  0.74980013  0.16714478  0.37442371  1
  Fe  Fe146  1  0.74949738  0.16739699  0.12537762  1
  Fe  Fe147  1  0.50046439  0.16682585  0.75001625  1
  Fe  Fe148  1  0.00060583  0.33332577  0.00051375  1
  Fe  Fe149  1  0.74979608  0.49930459  0.62432486  1
  Fe  Fe150  1  0.25071907  0.16617743  0.87522829  1
  Fe  Fe151  1  0.74984750  0.33317280  0.87452615  1
  Fe  Fe152  1  0.49994452  0.16632146  -0.00039509  1
  Fe  Fe153  1  0.74988061  0.00097693  0.37392974  1
  Fe  Fe154  1  0.74906871  0.50028411  0.12527841  1
  Fe  Fe155  1  0.74928272  0.66683416  0.37416898  1
  Fe  Fe156  1  0.25064366  0.66632192  0.12517423  1
  Fe  Fe157  1  -0.00013114  0.16686042  0.49995128  1
  Fe  Fe158  1  0.74888888  0.33334962  0.37460305  1
  Fe  Fe159  1  -0.00026353  -0.00107733  -0.00001521  1
  Fe  Fe160  1  0.49931978  0.16719802  0.50015569  1
  Fe  Fe161  1  0.49993529  0.33281403  -0.00088525  1
  Fe  Fe162  1  0.00025952  -0.00023930  0.24988798  1
  Fe  Fe163  1  0.49973207  0.66695334  0.24960832  1
  Fe  Fe164  1  -0.00044115  0.50051666  0.49921836  1
  Fe  Fe165  1  0.74909639  0.83423639  0.12534506  1
  Fe  Fe166  1  0.25025463  0.49983981  0.87565424  1
  Fe  Fe167  1  0.50005412  0.83336770  0.75103648  1
  Fe  Fe168  1  0.25087910  0.49943431  0.37509879  1
  Fe  Fe169  1  0.49983181  0.49979518  0.00003118  1
  Fe  Fe170  1  0.24986049  0.83308248  0.12455425  1
  Fe  Fe171  1  0.25032664  0.33313740  0.37559905  1
  Fe  Fe172  1  0.49970063  0.33317291  0.49982598  1
  Fe  Fe173  1  0.49981334  0.33286773  0.74993969  1
  Fe  Fe174  1  0.25084844  -0.00001842  0.87561489  1
  Fe  Fe175  1  0.24972212  -0.00015901  0.12510834  1
  Fe  Fe176  1  0.49971431  0.83347838  0.00005422  1
  Fe  Fe177  1  -0.00024783  0.49982900  0.00047166  1
  Fe  Fe178  1  -0.00008413  0.66617367  -0.00016910  1
  Fe  Fe179  1  0.24984611  0.33305070  0.62574716  1
  Fe  Fe180  1  0.50011026  -0.00019994  -0.00069946  1
  Fe  Fe181  1  0.00013178  0.66663659  0.24924271  1
  Fe  Fe182  1  0.49993539  0.66714817  0.75156917  1
  Fe  Fe183  1  0.49984670  0.66668614  -0.00004023  1
  Fe  Fe184  1  -0.00010437  0.66650149  0.49928894  1
  Fe  Fe185  1  0.49965556  0.00054297  0.24953893  1
  Fe  Fe186  1  0.50025674  -0.00000684  0.75011666  1
  Fe  Fe187  1  0.25027294  0.66638282  0.87602691  1
  Fe  Fe188  1  0.49977010  0.83388395  0.50074934  1
  Fe  Fe189  1  -0.00016885  0.83246657  0.00069264  1
  Fe  Fe190  1  0.74962591  0.16675589  0.62364747  1
  Fe  Fe191  1  0.49949884  0.33333799  0.24907394  1
  P  P192  1  0.04273512  0.25083232  0.10265014  1
  P  P193  1  0.04270629  0.25014453  0.35367287  1
  P  P194  1  0.04235691  0.24871222  0.60251761  1
  P  P195  1  0.04279739  0.25029195  0.85439708  1
  P  P196  1  0.04144350  0.58362125  0.10150338  1
  P  P197  1  0.04188441  0.58485656  0.35258180  1
  P  P198  1  0.04178739  0.58303636  0.60101129  1
  P  P199  1  0.04251191  0.58287257  0.85434543  1
  P  P200  1  0.04110289  0.91625345  0.10196863  1
  P  P201  1  0.04301620  0.91793999  0.35204695  1
  P  P202  1  0.04383461  0.91622382  0.60329807  1
  P  P203  1  0.04270651  0.91567115  0.85463592  1
  P  P204  1  0.54107704  0.24998479  0.10095624  1
  P  P205  1  0.54133457  0.25193091  0.35236755  1
  P  P206  1  0.54111382  0.24992281  0.60193288  1
  P  P207  1  0.54116914  0.25007743  0.85193264  1
  P  P208  1  0.54094557  0.58345879  0.10158448  1
  P  P209  1  0.54196739  0.58508224  0.35215099  1
  P  P210  1  0.54265951  0.58341068  0.60410873  1
  P  P211  1  0.54156262  0.58450970  0.85390945  1
  P  P212  1  0.54095715  0.91708048  0.10142335  1
  P  P213  1  0.54214495  0.91893063  0.35221657  1
  P  P214  1  0.54235016  0.91579995  0.60326158  1
  P  P215  1  0.54106879  0.91716084  0.85229477  1
  P  P216  1  0.45800155  0.08202241  0.14634264  1
  P  P217  1  0.45755000  0.08528382  0.39753876  1
  P  P218  1  0.45902195  0.08338876  0.64870739  1
  P  P219  1  0.45933203  0.08321005  0.89753804  1
  P  P220  1  0.45783959  0.41536180  0.14631902  1
  P  P221  1  0.45796998  0.41589773  0.39741441  1
  P  P222  1  0.45798619  0.41486467  0.64772248  1
  P  P223  1  0.45868355  0.41629643  0.89811850  1
  P  P224  1  0.45813664  0.74881828  0.14667607  1
  P  P225  1  0.45794031  0.75197252  0.39775756  1
  P  P226  1  0.45855790  0.75020433  0.64951928  1
  P  P227  1  0.45858387  0.75021050  0.89848365  1
  P  P228  1  0.95802919  0.08117027  0.14716228  1
  P  P229  1  0.95811868  0.08448345  0.39710867  1
  P  P230  1  0.95734600  0.08358914  0.64670621  1
  P  P231  1  0.95757860  0.08170652  0.89822908  1
  P  P232  1  0.95711782  0.41677693  0.14581359  1
  P  P233  1  0.95713252  0.41850687  0.39718397  1
  P  P234  1  0.95749751  0.41687843  0.64595091  1
  P  P235  1  0.95842844  0.41644564  0.89895958  1
  P  P236  1  0.95800866  0.74863151  0.14643140  1
  P  P237  1  0.95812173  0.74886564  0.39654773  1
  P  P238  1  0.95747644  0.74908688  0.64611238  1
  P  P239  1  0.95808872  0.74938529  0.89889807  1
  P  P240  1  0.20760798  0.08238731  0.22739971  1
  P  P241  1  0.20778552  0.08401662  0.47895063  1
  P  P242  1  0.20867052  0.08460848  0.72890705  1
  P  P243  1  0.20939047  0.08267231  0.97712648  1
  P  P244  1  0.20723939  0.41656407  0.22939170  1
  P  P245  1  0.20886349  0.41610564  0.47709624  1
  P  P246  1  0.20792360  0.41532802  0.72809669  1
  P  P247  1  0.20789292  0.41800488  0.97770889  1
  P  P248  1  0.20869886  0.74939999  0.22599129  1
  P  P249  1  0.20744214  0.74984067  0.47840339  1
  P  P250  1  0.20796264  0.74930169  0.72965273  1
  P  P251  1  0.20868612  0.74872636  0.97884049  1
  P  P252  1  0.70751865  0.08565853  0.22800714  1
  P  P253  1  0.70816506  0.08379346  0.47583464  1
  P  P254  1  0.70745952  0.08529861  0.72651921  1
  P  P255  1  0.70661180  0.08358782  0.97813251  1
  P  P256  1  0.70687807  0.41809247  0.22739894  1
  P  P257  1  0.70706400  0.41531360  0.47719404  1
  P  P258  1  0.70753294  0.41735649  0.72707010  1
  P  P259  1  0.70742429  0.41480925  0.97729896  1
  P  P260  1  0.70701429  0.75189947  0.22738616  1
  P  P261  1  0.70740519  0.74845931  0.47683854  1
  P  P262  1  0.70701674  0.75016016  0.72776324  1
  P  P263  1  0.70710565  0.75023088  0.97852535  1
  P  P264  1  0.29290357  0.24972024  0.02139845  1
  P  P265  1  0.29275571  0.25119470  0.27289472  1
  P  P266  1  0.29156781  0.25042875  0.52405375  1
  P  P267  1  0.29234673  0.24845937  0.77254054  1
  P  P268  1  0.29194162  0.58454052  0.02215023  1
  P  P269  1  0.29239036  0.58227455  0.27255181  1
  P  P270  1  0.29337603  0.58230522  0.52193589  1
  P  P271  1  0.29211608  0.58260470  0.77446597  1
  P  P272  1  0.29113916  0.91716108  0.02340208  1
  P  P273  1  0.29251054  0.91647270  0.27067815  1
  P  P274  1  0.29400124  0.91659249  0.52258894  1
  P  P275  1  0.29314787  0.91794792  0.77367800  1
  P  P276  1  0.79187362  0.24878567  0.02253324  1
  P  P277  1  0.79115843  0.25056435  0.27299199  1
  P  P278  1  0.79154660  0.24857664  0.52092983  1
  P  P279  1  0.79224752  0.25147346  0.77191625  1
  P  P280  1  0.79155510  0.58141363  0.02267364  1
  P  P281  1  0.79151841  0.58493107  0.27179079  1
  P  P282  1  0.79166116  0.58151326  0.52171974  1
  P  P283  1  0.79297609  0.58267371  0.77147820  1
  P  P284  1  0.79177741  0.91564552  0.02274769  1
  P  P285  1  0.79197983  0.91839504  0.27183185  1
  P  P286  1  0.79276385  0.91719893  0.52022501  1
  P  P287  1  0.79314771  0.91723925  0.77119760  1
  O  O288  1  0.03777204  0.25056264  0.18262706  1
  O  O289  1  0.03728824  0.24957283  0.43360240  1
  O  O290  1  0.03728217  0.24906872  0.68252209  1
  O  O291  1  0.03780079  0.25090567  0.93437761  1
  O  O292  1  0.03635927  0.58436318  0.18144442  1
  O  O293  1  0.03649235  0.58446852  0.43244728  1
  O  O294  1  0.03690349  0.58284610  0.68105907  1
  O  O295  1  0.03720434  0.58273467  0.93421909  1
  O  O296  1  0.03649665  0.91659872  0.18195878  1
  O  O297  1  0.03818869  0.91750433  0.43200816  1
  O  O298  1  0.03858915  0.91600561  0.68327374  1
  O  O299  1  0.03711411  0.91556457  0.93456816  1
  O  O300  1  0.53611863  0.25004910  0.18086386  1
  O  O301  1  0.53598519  0.25183813  0.43217558  1
  O  O302  1  0.53628093  0.24976843  0.68180716  1
  O  O303  1  0.53620305  0.25009625  0.93176842  1
  O  O304  1  0.53615549  0.58335989  0.18155033  1
  O  O305  1  0.53705825  0.58487694  0.43209458  1
  O  O306  1  0.53737997  0.58345868  0.68402398  1
  O  O307  1  0.53600230  0.58414158  0.93378096  1
  O  O308  1  0.53615017  0.91712245  0.18132146  1
  O  O309  1  0.53723460  0.91850899  0.43207794  1
  O  O310  1  0.53714252  0.91609829  0.68312182  1
  O  O311  1  0.53596376  0.91707560  0.93217592  1
  O  O312  1  0.46337459  0.08201798  0.06650986  1
  O  O313  1  0.46257888  0.08494388  0.31764009  1
  O  O314  1  0.46362509  0.08388991  0.56875055  1
  O  O315  1  0.46445989  0.08339489  0.81770198  1
  O  O316  1  0.46334548  0.41564103  0.06646164  1
  O  O317  1  0.46295059  0.41596415  0.31744433  1
  O  O318  1  0.46338222  0.41474557  0.56781278  1
  O  O319  1  0.46336180  0.41649664  0.81817889  1
  O  O320  1  0.46343906  0.74892786  0.06684396  1
  O  O321  1  0.46324397  0.75151043  0.31787256  1
  O  O322  1  0.46340455  0.75100517  0.56956578  1
  O  O323  1  0.46360433  0.75026032  0.81861409  1
  O  O324  1  0.96315602  0.08091517  0.06721660  1
  O  O325  1  0.96343713  0.08377086  0.31719084  1
  O  O326  1  0.96270121  0.08440875  0.56676464  1
  O  O327  1  0.96259788  0.08212128  0.81826601  1
  O  O328  1  0.96267100  0.41632250  0.06593911  1
  O  O329  1  0.96204677  0.41838802  0.31721056  1
  O  O330  1  0.96256550  0.41750746  0.56601048  1
  O  O331  1  0.96342425  0.41640974  0.81892795  1
  O  O332  1  0.96342980  0.74897089  0.06656046  1
  O  O333  1  0.96333670  0.74877026  0.31657899  1
  O  O334  1  0.96268981  0.74883646  0.56615954  1
  O  O335  1  0.96280513  0.74958679  0.81888828  1
  O  O336  1  0.21411409  0.08222811  0.05712595  1
  O  O337  1  0.21249330  0.08272525  0.30737273  1
  O  O338  1  0.21317008  0.08464452  0.55889199  1
  O  O339  1  0.21411101  0.08415936  0.80881296  1
  O  O340  1  0.21256885  0.41789708  0.05768049  1
  O  O341  1  0.21283713  0.41645874  0.30928407  1
  O  O342  1  0.21375436  0.41571351  0.55710587  1
  O  O343  1  0.21318281  0.41609380  0.80796923  1
  O  O344  1  0.21410464  0.74875524  0.05870619  1
  O  O345  1  0.21305795  0.74971909  0.30601400  1
  O  O346  1  0.21242643  0.74981914  0.55839296  1
  O  O347  1  0.21329559  0.74881669  0.80961681  1
  O  O348  1  0.71147168  0.08394225  0.05809349  1
  O  O349  1  0.71318684  0.08541028  0.30786448  1
  O  O350  1  0.71342496  0.08421471  0.55578645  1
  O  O351  1  0.71231728  0.08497804  0.80649398  1
  O  O352  1  0.71206464  0.41520709  0.05722110  1
  O  O353  1  0.71205826  0.41747933  0.30729013  1
  O  O354  1  0.71250302  0.41586069  0.55708482  1
  O  O355  1  0.71282873  0.41638034  0.80698301  1
  O  O356  1  0.71213863  0.75095617  0.05852109  1
  O  O357  1  0.71232644  0.75125881  0.30729165  1
  O  O358  1  0.71267975  0.74841172  0.55676956  1
  O  O359  1  0.71218877  0.75025561  0.80774598  1
  O  O360  1  0.28775567  0.25074137  0.19293241  1
  O  O361  1  0.28659653  0.25102628  0.44406968  1
  O  O362  1  0.28693900  0.24858247  0.69266825  1
  O  O363  1  0.28763952  0.24918919  0.94147282  1
  O  O364  1  0.28723634  0.58301381  0.19259590  1
  O  O365  1  0.28820765  0.58199265  0.44197565  1
  O  O366  1  0.28742954  0.58235722  0.69442087  1
  O  O367  1  0.28670717  0.58442469  0.94224474  1
  O  O368  1  0.28672148  0.91644758  0.19079349  1
  O  O369  1  0.28888848  0.91644330  0.44257580  1
  O  O370  1  0.28823212  0.91776727  0.69373423  1
  O  O371  1  0.28662234  0.91728669  0.94340999  1
  O  O372  1  0.78595049  0.25011772  0.19303913  1
  O  O373  1  0.78598474  0.24897643  0.44109092  1
  O  O374  1  0.78735093  0.25099416  0.69198772  1
  O  O375  1  0.78702471  0.24959560  0.94260074  1
  O  O376  1  0.78617220  0.58435355  0.19190294  1
  O  O377  1  0.78635684  0.58237806  0.44181358  1
  O  O378  1  0.78776465  0.58201212  0.69154009  1
  O  O379  1  0.78689295  0.58159847  0.94271037  1
  O  O380  1  0.78624444  0.91771572  0.19192312  1
  O  O381  1  0.78728719  0.91787306  0.44029161  1
  O  O382  1  0.78830227  0.91725745  0.69116279  1
  O  O383  1  0.78705453  0.91598215  0.94275311  1
  O  O384  1  0.22860320  0.24960757  0.05676256  1
  O  O385  1  0.22838485  0.25179777  0.30830236  1
  O  O386  1  0.22741696  0.25031151  0.56008303  1
  O  O387  1  0.22828632  0.24834307  0.80870448  1
  O  O388  1  0.22774551  0.58518236  0.05809843  1
  O  O389  1  0.22812164  0.58143998  0.30813935  1
  O  O390  1  0.22899359  0.58256439  0.55712525  1
  O  O391  1  0.22779649  0.58252086  0.80992767  1
  O  O392  1  0.22694130  0.91740180  0.05904920  1
  O  O393  1  0.22839465  0.91637463  0.30669504  1
  O  O394  1  0.22953585  0.91711423  0.55752444  1
  O  O395  1  0.22877433  0.91783116  0.80894773  1
  O  O396  1  0.72745311  0.24855833  0.05785327  1
  O  O397  1  0.72699704  0.25060754  0.30898816  1
  O  O398  1  0.72746531  0.24862297  0.55719478  1
  O  O399  1  0.72777863  0.25189932  0.80723057  1
  O  O400  1  0.72711346  0.58187145  0.05781079  1
  O  O401  1  0.72726004  0.58496581  0.30751723  1
  O  O402  1  0.72746935  0.58113274  0.55761501  1
  O  O403  1  0.72854145  0.58276971  0.80659666  1
  O  O404  1  0.72733371  0.91580875  0.05792705  1
  O  O405  1  0.72784826  0.91875122  0.30781576  1
  O  O406  1  0.72848553  0.91729773  0.55570948  1
  O  O407  1  0.72852249  0.91714161  0.80582359  1
  O  O408  1  0.27207735  0.08180792  0.19224769  1
  O  O409  1  0.27207779  0.08364639  0.44352197  1
  O  O410  1  0.27283902  0.08527301  0.69286017  1
  O  O411  1  0.27362903  0.08293930  0.94142258  1
  O  O412  1  0.27144841  0.41699400  0.19363126  1
  O  O413  1  0.27301438  0.41592640  0.44104500  1
  O  O414  1  0.27228269  0.41456188  0.69254435  1
  O  O415  1  0.27233207  0.41801038  0.94256703  1
  O  O416  1  0.27303323  0.74939536  0.19071127  1
  O  O417  1  0.27192489  0.74929897  0.44349890  1
  O  O418  1  0.27235778  0.74948385  0.69440549  1
  O  O419  1  0.27274867  0.74875908  0.94264987  1
  O  O420  1  0.77162182  0.08553145  0.19178212  1
  O  O421  1  0.77228650  0.08354720  0.43971641  1
  O  O422  1  0.77187901  0.08557343  0.69126137  1
  O  O423  1  0.77109869  0.08376604  0.94317042  1
  O  O424  1  0.77119339  0.41835071  0.19181280  1
  O  O425  1  0.77122893  0.41499132  0.44125854  1
  O  O426  1  0.77175873  0.41774882  0.69124117  1
  O  O427  1  0.77189793  0.41421008  0.94207988  1
  O  O428  1  0.77127944  0.75213305  0.19167256  1
  O  O429  1  0.77167641  0.74837910  0.44119419  1
  O  O430  1  0.77143123  0.74979335  0.69269605  1
  O  O431  1  0.77154508  0.74986145  0.94348151  1
  O  O432  1  0.02242314  0.08116280  0.18268477  1
  O  O433  1  0.02234256  0.08548017  0.43309646  1
  O  O434  1  0.02171897  0.08318651  0.68213670  1
  O  O435  1  0.02198435  0.08166050  0.93356786  1
  O  O436  1  0.02131581  0.41715062  0.18163427  1
  O  O437  1  0.02151826  0.41868697  0.43259252  1
  O  O438  1  0.02189733  0.41640726  0.68126819  1
  O  O439  1  0.02264452  0.41695270  0.93485277  1
  O  O440  1  0.02215110  0.74835895  0.18270436  1
  O  O441  1  0.02237403  0.74860859  0.43234706  1
  O  O442  1  0.02183372  0.74923023  0.68157876  1
  O  O443  1  0.02236438  0.74917253  0.93454496  1
  O  O444  1  0.52207588  0.08212857  0.18270573  1
  O  O445  1  0.52182907  0.08565304  0.43334799  1
  O  O446  1  0.52322065  0.08280130  0.68453337  1
  O  O447  1  0.52326155  0.08262099  0.93410061  1
  O  O448  1  0.52190894  0.41527687  0.18271741  1
  O  O449  1  0.52224976  0.41544769  0.43313151  1
  O  O450  1  0.52214348  0.41535114  0.68370340  1
  O  O451  1  0.52283026  0.41567953  0.93405871  1
  O  O452  1  0.52222813  0.74872661  0.18297954  1
  O  O453  1  0.52217579  0.75229934  0.43378207  1
  O  O454  1  0.52270861  0.74922744  0.68554118  1
  O  O455  1  0.52260781  0.74987469  0.93478030  1
  O  O456  1  0.47698597  0.25045837  0.06483071  1
  O  O457  1  0.47725158  0.25187434  0.31601568  1
  O  O458  1  0.47694014  0.24984392  0.56575999  1
  O  O459  1  0.47713729  0.24997996  0.81561184  1
  O  O460  1  0.47682664  0.58394848  0.06562254  1
  O  O461  1  0.47765106  0.58492244  0.31651171  1
  O  O462  1  0.47837905  0.58350255  0.56857537  1
  O  O463  1  0.47751544  0.58483287  0.81748732  1
  O  O464  1  0.47682093  0.91765769  0.06537113  1
  O  O465  1  0.47788092  0.91867772  0.31637612  1
  O  O466  1  0.47814320  0.91601797  0.56714393  1
  O  O467  1  0.47706893  0.91765980  0.81592091  1
  O  O468  1  0.97830585  0.25078167  0.06745341  1
  O  O469  1  0.97841404  0.24964404  0.31814450  1
  O  O470  1  0.97803974  0.24877125  0.56688045  1
  O  O471  1  0.97838309  0.25006910  0.81915629  1
  O  O472  1  0.97725382  0.58319347  0.06548509  1
  O  O473  1  0.97768161  0.58571400  0.31638624  1
  O  O474  1  0.97752305  0.58288673  0.56517732  1
  O  O475  1  0.97824945  0.58275068  0.81863427  1
  O  O476  1  0.97691388  0.91653059  0.06615825  1
  O  O477  1  0.97855775  0.91783992  0.31673410  1
  O  O478  1  0.97946363  0.91650335  0.56802579  1
  O  O479  1  0.97850921  0.91583014  0.81873335  1
  O  O480  1  0.07338156  0.31442175  0.07425825  1
  O  O481  1  0.07309211  0.31426925  0.32607104  1
  O  O482  1  0.07341606  0.31236947  0.57470433  1
  O  O483  1  0.07396964  0.31334124  0.82535867  1
  O  O484  1  0.07225405  0.64706548  0.07283126  1
  O  O485  1  0.07336494  0.64790847  0.32385549  1
  O  O486  1  0.07235685  0.64690674  0.57306044  1
  O  O487  1  0.07349048  0.64636313  0.82589356  1
  O  O488  1  0.07251588  0.97932871  0.07328311  1
  O  O489  1  0.07345820  0.98163906  0.32370704  1
  O  O490  1  0.07494082  0.97983656  0.57561610  1
  O  O491  1  0.07397408  0.97907013  0.82637114  1
  O  O492  1  0.57267637  0.31306166  0.07262776  1
  O  O493  1  0.57222142  0.31521502  0.32328717  1
  O  O494  1  0.57199068  0.31351657  0.57348525  1
  O  O495  1  0.57197606  0.31364307  0.82318181  1
  O  O496  1  0.57257521  0.64658650  0.07344604  1
  O  O497  1  0.57232641  0.64877365  0.32352257  1
  O  O498  1  0.57399677  0.64661620  0.57576279  1
  O  O499  1  0.57260350  0.64794411  0.82550104  1
  O  O500  1  0.57270497  0.98006893  0.07312268  1
  O  O501  1  0.57229538  0.98279768  0.32347995  1
  O  O502  1  0.57376608  0.97915894  0.57499558  1
  O  O503  1  0.57259696  0.98034140  0.82377134  1
  O  O504  1  0.42727682  0.01864124  0.17542916  1
  O  O505  1  0.42653005  0.02181707  0.42579795  1
  O  O506  1  0.42789042  0.01979769  0.67669258  1
  O  O507  1  0.42774480  0.01999648  0.92583159  1
  O  O508  1  0.42693409  0.35189097  0.17487671  1
  O  O509  1  0.42676620  0.35281226  0.42628106  1
  O  O510  1  0.42739396  0.35136758  0.67653881  1
  O  O511  1  0.42709544  0.35302316  0.92598549  1
  O  O512  1  0.42735758  0.68537361  0.17560776  1
  O  O513  1  0.42678211  0.68847525  0.42586757  1
  O  O514  1  0.42722911  0.68664790  0.67731853  1
  O  O515  1  0.42715965  0.68697464  0.92685911  1
  O  O516  1  0.92712607  0.01802231  0.17625428  1
  O  O517  1  0.92745537  0.02075804  0.42529543  1
  O  O518  1  0.92636674  0.01980491  0.67428828  1
  O  O519  1  0.92688279  0.01806283  0.92642074  1
  O  O520  1  0.92595824  0.35353957  0.17463631  1
  O  O521  1  0.92631089  0.35470225  0.42487421  1
  O  O522  1  0.92643892  0.35319547  0.67383036  1
  O  O523  1  0.92809997  0.35245027  0.92701351  1
  O  O524  1  0.92686705  0.68530891  0.17486347  1
  O  O525  1  0.92701865  0.68572789  0.42544972  1
  O  O526  1  0.92638301  0.68574612  0.67464117  1
  O  O527  1  0.92717532  0.68565263  0.92675605  1
  O  O528  1  0.17668509  0.01907794  0.19875142  1
  O  O529  1  0.17665775  0.02041793  0.45114859  1
  O  O530  1  0.17776556  0.02093439  0.70075933  1
  O  O531  1  0.17860901  0.01912536  0.94855229  1
  O  O532  1  0.17624439  0.35322765  0.20061117  1
  O  O533  1  0.17764284  0.35274982  0.44884979  1
  O  O534  1  0.17704949  0.35178383  0.69976871  1
  O  O535  1  0.17694080  0.35439700  0.94986831  1
  O  O536  1  0.17792451  0.68565998  0.19810400  1
  O  O537  1  0.17618495  0.68652966  0.45017054  1
  O  O538  1  0.17679098  0.68606625  0.70104695  1
  O  O539  1  0.17773223  0.68545985  0.94993579  1
  O  O540  1  0.67614037  0.02221185  0.20007315  1
  O  O541  1  0.67737391  0.01997516  0.44792302  1
  O  O542  1  0.67661317  0.02165347  0.69851988  1
  O  O543  1  0.67612366  0.01977913  0.94985409  1
  O  O544  1  0.67574080  0.35469274  0.19921964  1
  O  O545  1  0.67639173  0.35163809  0.44890353  1
  O  O546  1  0.67630094  0.35404175  0.69871912  1
  O  O547  1  0.67682275  0.35130972  0.94839934  1
  O  O548  1  0.67580882  0.68853834  0.19915628  1
  O  O549  1  0.67666435  0.68498446  0.44827452  1
  O  O550  1  0.67578424  0.68666662  0.70012140  1
  O  O551  1  0.67630111  0.68638801  0.95085238  1
  O  O552  1  0.32357504  0.31354349  0.04920271  1
  O  O553  1  0.32372327  0.31447039  0.30140638  1
  O  O554  1  0.32238182  0.31390772  0.55268619  1
  O  O555  1  0.32351819  0.31213105  0.80030880  1
  O  O556  1  0.32322971  0.64763529  0.05105418  1
  O  O557  1  0.32322398  0.64591769  0.30064816  1
  O  O558  1  0.32445499  0.64578486  0.55022579  1
  O  O559  1  0.32268204  0.64641389  0.80251257  1
  O  O560  1  0.32251284  0.98029615  0.05184798  1
  O  O561  1  0.32372673  0.97981878  0.29908500  1
  O  O562  1  0.32530288  0.98001117  0.55045922  1
  O  O563  1  0.32365948  0.98160447  0.80204721  1
  O  O564  1  0.82305301  0.31201566  0.05114941  1
  O  O565  1  0.82158574  0.31463470  0.30084286  1
  O  O566  1  0.82304827  0.31190368  0.54900087  1
  O  O567  1  0.82282665  0.31507577  0.80063467  1
  O  O568  1  0.82287600  0.64487558  0.05041054  1
  O  O569  1  0.82192184  0.64877183  0.30009160  1
  O  O570  1  0.82295217  0.64482599  0.54992250  1
  O  O571  1  0.82374958  0.64639134  0.79957142  1
  O  O572  1  0.82289594  0.97918062  0.05062835  1
  O  O573  1  0.82280752  0.98206687  0.29980787  1
  O  O574  1  0.82427632  0.98019874  0.54878190  1
  O  O575  1  0.82378993  0.98085157  0.79959112  1
  O  O576  1  0.42669022  0.14559996  0.17419400  1
  O  O577  1  0.42678664  0.14883697  0.42615592  1
  O  O578  1  0.42858623  0.14710513  0.67745568  1
  O  O579  1  0.42894147  0.14710999  0.92624243  1
  O  O580  1  0.42657206  0.47886070  0.17449475  1
  O  O581  1  0.42740693  0.47988078  0.42527277  1
  O  O582  1  0.42650506  0.47840034  0.67533014  1
  O  O583  1  0.42863889  0.48042060  0.92671341  1
  O  O584  1  0.42693219  0.81238327  0.17458023  1
  O  O585  1  0.42731959  0.81566182  0.42619855  1
  O  O586  1  0.42833310  0.81400857  0.67845916  1
  O  O587  1  0.42811035  0.81417904  0.92699201  1
  O  O588  1  0.92723063  0.14520912  0.17456962  1
  O  O589  1  0.92693247  0.14794701  0.42518322  1
  O  O590  1  0.92616988  0.14671632  0.67556780  1
  O  O591  1  0.92641335  0.14525983  0.92614424  1
  O  O592  1  0.92581091  0.48029294  0.17373704  1
  O  O593  1  0.92631301  0.48200175  0.42545315  1
  O  O594  1  0.92648309  0.48006590  0.67483138  1
  O  O595  1  0.92719032  0.47994342  0.92688515  1
  O  O596  1  0.92692989  0.81223495  0.17459468  1
  O  O597  1  0.92730668  0.81288040  0.42394096  1
  O  O598  1  0.92643435  0.81264737  0.67421478  1
  O  O599  1  0.92746880  0.81305739  0.92736083  1
  O  O600  1  0.07386890  0.18713777  0.07501707  1
  O  O601  1  0.07464690  0.18737883  0.32510141  1
  O  O602  1  0.07301557  0.18513271  0.57429111  1
  O  O603  1  0.07366234  0.18641577  0.82682124  1
  O  O604  1  0.07238995  0.51973249  0.07404985  1
  O  O605  1  0.07248428  0.52101608  0.32432054  1
  O  O606  1  0.07266121  0.51935522  0.57292673  1
  O  O607  1  0.07383015  0.51965280  0.82567358  1
  O  O608  1  0.07127153  0.85197807  0.07404677  1
  O  O609  1  0.07407404  0.85438522  0.32392116  1
  O  O610  1  0.07480925  0.85282324  0.57496965  1
  O  O611  1  0.07392495  0.85225922  0.82637382  1
  O  O612  1  0.57114401  0.18572014  0.07282814  1
  O  O613  1  0.57255837  0.18836661  0.32429895  1
  O  O614  1  0.57189965  0.18633585  0.57311953  1
  O  O615  1  0.57204298  0.18647084  0.82331472  1
  O  O616  1  0.57106040  0.51925356  0.07323597  1
  O  O617  1  0.57316331  0.52150836  0.32436055  1
  O  O618  1  0.57352372  0.51978391  0.57583522  1
  O  O619  1  0.57274248  0.52090407  0.82597819  1
  O  O620  1  0.57088480  0.85277285  0.07312528  1
  O  O621  1  0.57366885  0.85569711  0.32402993  1
  O  O622  1  0.57279137  0.85215682  0.57434785  1
  O  O623  1  0.57148234  0.85316395  0.82393035  1
  O  O624  1  0.32435694  0.18657069  0.04990676  1
  O  O625  1  0.32336356  0.18722928  0.30079859  1
  O  O626  1  0.32234889  0.18655544  0.55199874  1
  O  O627  1  0.32346536  0.18522082  0.80154166  1
  O  O628  1  0.32270638  0.52072643  0.05024621  1
  O  O629  1  0.32344613  0.51877042  0.30088944  1
  O  O630  1  0.32452242  0.51897862  0.55049712  1
  O  O631  1  0.32291780  0.51884258  0.80270089  1
  O  O632  1  0.32130938  0.85291668  0.05161196  1
  O  O633  1  0.32395672  0.85304378  0.29880866  1
  O  O634  1  0.32460541  0.85300708  0.55119638  1
  O  O635  1  0.32429117  0.85440778  0.80168024  1
  O  O636  1  0.82248573  0.18507439  0.05103639  1
  O  O637  1  0.82244629  0.18721550  0.30131855  1
  O  O638  1  0.82224011  0.18501115  0.54973167  1
  O  O639  1  0.82329713  0.18801830  0.80034702  1
  O  O640  1  0.82170760  0.51757833  0.05131819  1
  O  O641  1  0.82300429  0.52161544  0.29990244  1
  O  O642  1  0.82218670  0.51761147  0.54984331  1
  O  O643  1  0.82432343  0.51952993  0.80018862  1
  O  O644  1  0.82223154  0.85196340  0.05131328  1
  O  O645  1  0.82335131  0.85490459  0.29966688  1
  O  O646  1  0.82353740  0.85319508  0.54777037  1
  O  O647  1  0.82422867  0.85381084  0.79953554  1
  O  O648  1  0.17699112  0.14627658  0.19938831  1
  O  O649  1  0.17670423  0.14731179  0.45025400  1
  O  O650  1  0.17738637  0.14787867  0.70023321  1
  O  O651  1  0.17853862  0.14649958  0.94917950  1
  O  O652  1  0.17568572  0.47989778  0.20112434  1
  O  O653  1  0.17856383  0.48021568  0.44892896  1
  O  O654  1  0.17700227  0.47884285  0.69954377  1
  O  O655  1  0.17737498  0.48165010  0.94917935  1
  O  O656  1  0.17813719  0.81312791  0.19719517  1
  O  O657  1  0.17678363  0.81343313  0.44987806  1
  O  O658  1  0.17702329  0.81311433  0.70188840  1
  O  O659  1  0.17736253  0.81238826  0.95111813  1
  O  O660  1  0.67671476  0.14919430  0.19929833  1
  O  O661  1  0.67713647  0.14732249  0.44753882  1
  O  O662  1  0.67678854  0.14889079  0.69796236  1
  O  O663  1  0.67521005  0.14663162  0.94936320  1
  O  O664  1  0.67632131  0.48188536  0.19896747  1
  O  O665  1  0.67572961  0.47872652  0.44912414  1
  O  O666  1  0.67678973  0.48111730  0.69899069  1
  O  O667  1  0.67651781  0.47839512  0.94899803  1
  O  O668  1  0.67630838  0.81569076  0.19919671  1
  O  O669  1  0.67640035  0.81231162  0.44940659  1
  O  O670  1  0.67624865  0.81372647  0.69933547  1
  O  O671  1  0.67587146  0.81337321  0.94972242  1
