# generated using pymatgen
data_Na2MnFe(PO4)2
_symmetry_space_group_name_H-M   'P 1'
_cell_length_a   22.34186692
_cell_length_b   20.09447262
_cell_length_c   19.45288437
_cell_angle_alpha   89.99770629
_cell_angle_beta   90.02187229
_cell_angle_gamma   90.04205452
_symmetry_Int_Tables_number   1
_chemical_formula_structural   Na2MnFe(PO4)2
_chemical_formula_sum   'Na96 Mn48 Fe48 P96 O384'
_cell_volume   8733.33118219
_cell_formula_units_Z   48
loop_
 _symmetry_equiv_pos_site_id
 _symmetry_equiv_pos_as_xyz
  1  'x, y, z'
loop_
 _atom_site_type_symbol
 _atom_site_label
 _atom_site_symmetry_multiplicity
 _atom_site_fract_x
 _atom_site_fract_y
 _atom_site_fract_z
 _atom_site_occupancy
  Na  Na0  1  0.13971901  0.24938712  0.24271890  1
  Na  Na1  1  0.14020641  0.25065189  0.49343844  1
  Na  Na2  1  0.13994662  0.25023905  0.74313665  1
  Na  Na3  1  0.13957325  0.25069413  0.99253116  1
  Na  Na4  1  0.14012918  0.58250134  0.24277049  1
  Na  Na5  1  0.13947109  0.58367159  0.49219684  1
  Na  Na6  1  0.14000691  0.58352249  0.74377284  1
  Na  Na7  1  0.14027911  0.58450648  0.99418630  1
  Na  Na8  1  0.13925316  0.91506262  0.24345500  1
  Na  Na9  1  0.13900596  0.91775805  0.49285810  1
  Na  Na10  1  0.13911440  0.91648479  0.74312024  1
  Na  Na11  1  0.13974732  0.91639200  0.99374133  1
  Na  Na12  1  0.64081302  0.25026442  0.24428149  1
  Na  Na13  1  0.64124239  0.24866622  0.49462436  1
  Na  Na14  1  0.64118211  0.24934051  0.74430291  1
  Na  Na15  1  0.64108807  0.24888599  0.99387440  1
  Na  Na16  1  0.64131252  0.58404675  0.24409559  1
  Na  Na17  1  0.64099363  0.58364740  0.49415774  1
  Na  Na18  1  0.64074900  0.58369523  0.74513228  1
  Na  Na19  1  0.64124903  0.58178049  0.99262726  1
  Na  Na20  1  0.64011290  0.91775648  0.24471703  1
  Na  Na21  1  0.63981248  0.91695577  0.49367199  1
  Na  Na22  1  0.64079456  0.91800636  0.74325616  1
  Na  Na23  1  0.64085545  0.91501885  0.99454912  1
  Na  Na24  1  0.35883599  0.08201490  0.00582339  1
  Na  Na25  1  0.35903713  0.08197836  0.25613624  1
  Na  Na26  1  0.35928840  0.08364796  0.50522871  1
  Na  Na27  1  0.35940817  0.08226308  0.75576163  1
  Na  Na28  1  0.35987881  0.41796346  0.00591025  1
  Na  Na29  1  0.35974249  0.41500789  0.25551881  1
  Na  Na30  1  0.35931387  0.41711810  0.50507521  1
  Na  Na31  1  0.35947137  0.41772318  0.75592994  1
  Na  Na32  1  0.35896890  0.75058122  0.00569398  1
  Na  Na33  1  0.35938889  0.74881812  0.25525208  1
  Na  Na34  1  0.35908211  0.75102897  0.50575309  1
  Na  Na35  1  0.35860733  0.75042863  0.75590816  1
  Na  Na36  1  0.86029048  0.08259774  0.00678625  1
  Na  Na37  1  0.86008074  0.08362653  0.25789614  1
  Na  Na38  1  0.85974066  0.08179118  0.50729707  1
  Na  Na39  1  0.86036188  0.08418342  0.75684778  1
  Na  Na40  1  0.86067127  0.41582555  0.00682741  1
  Na  Na41  1  0.86089413  0.41674754  0.25716289  1
  Na  Na42  1  0.86045832  0.41575576  0.50651820  1
  Na  Na43  1  0.86012512  0.41722423  0.75828911  1
  Na  Na44  1  0.85963122  0.74966906  0.00643887  1
  Na  Na45  1  0.86028106  0.75173353  0.25816379  1
  Na  Na46  1  0.86035346  0.75183618  0.50731850  1
  Na  Na47  1  0.85946842  0.75139627  0.75620423  1
  Na  Na48  1  0.10868595  0.08390352  0.11904709  1
  Na  Na49  1  0.10853982  0.08322772  0.36791186  1
  Na  Na50  1  0.10949705  0.08249795  0.61872045  1
  Na  Na51  1  0.10883875  0.08354153  0.86734897  1
  Na  Na52  1  0.10945001  0.41540847  0.11804121  1
  Na  Na53  1  0.10911460  0.41741156  0.36733735  1
  Na  Na54  1  0.10927041  0.41781804  0.61832233  1
  Na  Na55  1  0.10959798  0.41694891  0.86877893  1
  Na  Na56  1  0.10995104  0.74940254  0.11904173  1
  Na  Na57  1  0.10883157  0.75037964  0.36766169  1
  Na  Na58  1  0.10827753  0.75098054  0.61755959  1
  Na  Na59  1  0.10924098  0.75145855  0.86842895  1
  Na  Na60  1  0.60986750  0.08192495  0.11958438  1
  Na  Na61  1  0.60982052  0.08298336  0.36914320  1
  Na  Na62  1  0.61012762  0.08323430  0.61865802  1
  Na  Na63  1  0.61012394  0.08244463  0.86890531  1
  Na  Na64  1  0.61009579  0.41543462  0.11929946  1
  Na  Na65  1  0.61030071  0.41613942  0.36921198  1
  Na  Na66  1  0.61020239  0.41704366  0.62055713  1
  Na  Na67  1  0.61053981  0.41642669  0.86844447  1
  Na  Na68  1  0.61040487  0.74935604  0.11870589  1
  Na  Na69  1  0.60980165  0.75226052  0.36916203  1
  Na  Na70  1  0.60951097  0.75152583  0.61887935  1
  Na  Na71  1  0.60977184  0.74926668  0.86931562  1
  Na  Na72  1  0.39016905  0.24926942  0.13096898  1
  Na  Na73  1  0.39035135  0.24927907  0.37995596  1
  Na  Na74  1  0.39063750  0.25048973  0.63055931  1
  Na  Na75  1  0.39080882  0.25036210  0.88053934  1
  Na  Na76  1  0.39089091  0.58196508  0.13051156  1
  Na  Na77  1  0.39038230  0.58335278  0.38076475  1
  Na  Na78  1  0.38984672  0.58339073  0.63063771  1
  Na  Na79  1  0.39018771  0.58308905  0.88103692  1
  Na  Na80  1  0.38972703  0.91481173  0.13030819  1
  Na  Na81  1  0.38973939  0.91683622  0.38102857  1
  Na  Na82  1  0.38944630  0.91795114  0.63067853  1
  Na  Na83  1  0.38942804  0.91645034  0.88114274  1
  Na  Na84  1  0.89108420  0.24965931  0.13207349  1
  Na  Na85  1  0.89071140  0.25015315  0.38155777  1
  Na  Na86  1  0.89102661  0.24928131  0.63234332  1
  Na  Na87  1  0.89134210  0.25096563  0.88205375  1
  Na  Na88  1  0.89136651  0.58281878  0.13159812  1
  Na  Na89  1  0.89158417  0.58423820  0.38127533  1
  Na  Na90  1  0.89076524  0.58376858  0.63145292  1
  Na  Na91  1  0.89031361  0.58271039  0.88259895  1
  Na  Na92  1  0.89053034  0.91629580  0.13348734  1
  Na  Na93  1  0.89012319  0.91626835  0.38268045  1
  Na  Na94  1  0.89003587  0.91787616  0.63185153  1
  Na  Na95  1  0.88993652  0.91811933  0.88079107  1
  Mn  Mn96  1  0.49939997  -0.00131309  -0.00083297  1
  Mn  Mn97  1  0.50062646  0.66631277  0.24942098  1
  Mn  Mn98  1  0.49975224  0.83383110  0.74943975  1
  Mn  Mn99  1  0.24905893  -0.00029085  0.37420657  1
  Mn  Mn100  1  0.24990619  0.49988896  0.12456842  1
  Mn  Mn101  1  0.24879436  0.66619161  0.62486241  1
  Mn  Mn102  1  0.00005835  0.66763397  0.74999578  1
  Mn  Mn103  1  0.75100049  -0.00023765  0.12590476  1
  Mn  Mn104  1  0.24924263  0.66713381  0.87465911  1
  Mn  Mn105  1  0.00036335  0.49970573  0.75026623  1
  Mn  Mn106  1  0.50018145  0.33346671  0.75044225  1
  Mn  Mn107  1  0.50064534  0.66786918  0.50046256  1
  Mn  Mn108  1  0.75107115  0.49949600  0.37513979  1
  Mn  Mn109  1  0.50032726  0.33364281  0.50072002  1
  Mn  Mn110  1  0.75031294  0.33250423  0.62597551  1
  Mn  Mn111  1  0.00061540  0.33402498  0.50018947  1
  Mn  Mn112  1  0.75050853  0.66793488  0.62501602  1
  Mn  Mn113  1  0.75029388  0.83376556  0.87520448  1
  Mn  Mn114  1  0.50034789  0.66568600  -0.00053042  1
  Mn  Mn115  1  0.50101250  0.33303237  -0.00042687  1
  Mn  Mn116  1  0.24981150  0.66615332  0.37477010  1
  Mn  Mn117  1  0.75128920  0.66752614  0.12521226  1
  Mn  Mn118  1  0.75064719  0.49999983  0.62590501  1
  Mn  Mn119  1  0.50043085  0.00064066  0.75033298  1
  Mn  Mn120  1  0.50000059  0.16583064  0.25009503  1
  Mn  Mn121  1  0.75040590  0.16590548  0.87512636  1
  Mn  Mn122  1  0.75031947  0.16624413  0.37588717  1
  Mn  Mn123  1  0.24996277  0.33464379  0.62365023  1
  Mn  Mn124  1  0.24887971  0.16662800  0.12397974  1
  Mn  Mn125  1  0.75069983  0.49973084  0.12489509  1
  Mn  Mn126  1  0.50025729  0.50051554  0.49949014  1
  Mn  Mn127  1  0.24877033  0.83440999  0.62530300  1
  Mn  Mn128  1  -0.00043503  0.83372389  0.00058961  1
  Mn  Mn129  1  0.25005133  0.16619320  0.62456492  1
  Mn  Mn130  1  0.24896192  -0.00140561  0.12559831  1
  Mn  Mn131  1  0.50082867  0.49887833  0.25059749  1
  Mn  Mn132  1  0.00033628  0.00108974  0.00062252  1
  Mn  Mn133  1  0.00045196  0.16613527  0.50034719  1
  Mn  Mn134  1  0.75031097  0.33261448  0.12530559  1
  Mn  Mn135  1  -0.00063974  0.66634136  0.00022539  1
  Mn  Mn136  1  0.75059403  0.66822021  0.37506722  1
  Mn  Mn137  1  0.50073582  0.16632484  0.49967013  1
  Mn  Mn138  1  0.25014184  0.33465133  0.87362813  1
  Mn  Mn139  1  0.49988661  0.16559762  0.00080120  1
  Mn  Mn140  1  0.49907919  0.66646132  0.74967857  1
  Mn  Mn141  1  0.49943883  0.83372058  0.24952454  1
  Mn  Mn142  1  0.24950553  0.33290566  0.37482087  1
  Mn  Mn143  1  0.25003465  0.16605444  0.87412404  1
  Fe  Fe144  1  0.75135708  0.16610903  0.62554207  1
  Fe  Fe145  1  0.50028050  0.50011402  0.74995092  1
  Fe  Fe146  1  0.24907983  -0.00072567  0.87514792  1
  Fe  Fe147  1  -0.00031052  0.50085227  0.49886362  1
  Fe  Fe148  1  0.75096511  0.49996492  0.87536138  1
  Fe  Fe149  1  0.24881575  0.83365719  0.87483706  1
  Fe  Fe150  1  0.75012734  0.83442720  0.37616971  1
  Fe  Fe151  1  -0.00065654  -0.00018672  0.49995335  1
  Fe  Fe152  1  0.00010215  0.33319371  0.24949562  1
  Fe  Fe153  1  0.75114353  0.33265966  0.87540443  1
  Fe  Fe154  1  0.50057855  0.49908329  0.00027924  1
  Fe  Fe155  1  0.24946765  0.83272226  0.37435886  1
  Fe  Fe156  1  0.24973501  0.49958747  0.37379380  1
  Fe  Fe157  1  0.00002415  0.66725715  0.49948414  1
  Fe  Fe158  1  -0.00048616  -0.00019026  0.25048545  1
  Fe  Fe159  1  0.49893578  0.83427146  0.49927006  1
  Fe  Fe160  1  0.24951798  0.16663793  0.37452676  1
  Fe  Fe161  1  -0.00013784  0.33351279  0.75046549  1
  Fe  Fe162  1  0.24968715  0.83260156  0.12410954  1
  Fe  Fe163  1  0.74986814  -0.00014774  0.37573958  1
  Fe  Fe164  1  0.00032158  0.66640500  0.25029301  1
  Fe  Fe165  1  0.75048024  0.83361851  0.12523224  1
  Fe  Fe166  1  0.25008936  0.33310286  0.12453544  1
  Fe  Fe167  1  0.49964604  -0.00073694  0.24979984  1
  Fe  Fe168  1  0.75044836  0.33268991  0.37554672  1
  Fe  Fe169  1  0.50020723  0.83264975  0.00005463  1
  Fe  Fe170  1  0.49913140  0.00033400  0.49986084  1
  Fe  Fe171  1  -0.00019827  0.16665093  0.25013118  1
  Fe  Fe172  1  0.24936008  -0.00017825  0.62458781  1
  Fe  Fe173  1  0.75003674  0.00031044  0.87495363  1
  Fe  Fe174  1  0.24953676  0.50054796  0.62438623  1
  Fe  Fe175  1  0.00028692  0.49990211  0.25003588  1
  Fe  Fe176  1  0.50017353  0.33274871  0.24983470  1
  Fe  Fe177  1  -0.00109165  0.83427181  0.74905249  1
  Fe  Fe178  1  0.75055701  0.16620444  0.12537619  1
  Fe  Fe179  1  0.25046550  0.66653214  0.12489709  1
  Fe  Fe180  1  -0.00041749  0.83299674  0.25102417  1
  Fe  Fe181  1  0.00033372  0.16717025  0.75027052  1
  Fe  Fe182  1  -0.00017521  0.16748595  -0.00028765  1
  Fe  Fe183  1  0.00032061  0.33305191  0.00038893  1
  Fe  Fe184  1  0.75010998  0.66711809  0.87523321  1
  Fe  Fe185  1  0.74981296  0.00008440  0.62497210  1
  Fe  Fe186  1  0.24976355  0.50086386  0.87516972  1
  Fe  Fe187  1  -0.00023063  0.83389836  0.49960655  1
  Fe  Fe188  1  0.00079167  0.49933355  0.00100710  1
  Fe  Fe189  1  -0.00017358  0.00051427  0.74987781  1
  Fe  Fe190  1  0.74924518  0.83442734  0.62581282  1
  Fe  Fe191  1  0.50012445  0.16657255  0.74970477  1
  P  P192  1  0.04125291  0.24965723  0.10219794  1
  P  P193  1  0.04128424  0.25028777  0.35124921  1
  P  P194  1  0.04284952  0.24999006  0.60387478  1
  P  P195  1  0.04175023  0.25046240  0.85217501  1
  P  P196  1  0.04220702  0.58187985  0.10341753  1
  P  P197  1  0.04152408  0.58360520  0.35188412  1
  P  P198  1  0.04073868  0.58358119  0.60090791  1
  P  P199  1  0.04256453  0.58343652  0.85351809  1
  P  P200  1  0.04212298  0.91699551  0.10440640  1
  P  P201  1  0.04057362  0.91658877  0.35233882  1
  P  P202  1  0.04046662  0.91689130  0.60196002  1
  P  P203  1  0.04059339  0.91701954  0.85122566  1
  P  P204  1  0.54312928  0.24947409  0.10376859  1
  P  P205  1  0.54267827  0.25070938  0.35236620  1
  P  P206  1  0.54336485  0.24969939  0.60385707  1
  P  P207  1  0.54283119  0.24840131  0.85242676  1
  P  P208  1  0.54339763  0.58126006  0.10223339  1
  P  P209  1  0.54368782  0.58379478  0.35321646  1
  P  P210  1  0.54315490  0.58340117  0.60366260  1
  P  P211  1  0.54196476  0.58184268  0.85279545  1
  P  P212  1  0.54235044  0.91521126  0.10255771  1
  P  P213  1  0.54148869  0.91807516  0.35317820  1
  P  P214  1  0.54087350  0.91730093  0.60111485  1
  P  P215  1  0.54313910  0.91601535  0.85336337  1
  P  P216  1  0.45707181  0.08102355  0.14759183  1
  P  P217  1  0.45764341  0.08192743  0.39685829  1
  P  P218  1  0.45780054  0.08437042  0.64706502  1
  P  P219  1  0.45684601  0.08349231  0.89627437  1
  P  P220  1  0.45814031  0.41509103  0.14713873  1
  P  P221  1  0.45729881  0.41604091  0.39636029  1
  P  P222  1  0.45766974  0.41805455  0.64780473  1
  P  P223  1  0.45826874  0.41782637  0.89716559  1
  P  P224  1  0.45743836  0.74941599  0.14590712  1
  P  P225  1  0.45743445  0.75138598  0.39726094  1
  P  P226  1  0.45646033  0.75089363  0.64608975  1
  P  P227  1  0.45735634  0.75085635  0.89745373  1
  P  P228  1  0.95839003  0.08348150  0.14882144  1
  P  P229  1  0.95785648  0.08201265  0.39727628  1
  P  P230  1  0.95885405  0.08359675  0.64851691  1
  P  P231  1  0.95826539  0.08526383  0.89714224  1
  P  P232  1  0.95908409  0.41656343  0.14803901  1
  P  P233  1  0.95834537  0.41801849  0.39669451  1
  P  P234  1  0.95751128  0.41555913  0.64782429  1
  P  P235  1  0.95929139  0.41647021  0.89897959  1
  P  P236  1  0.95877864  0.74958456  0.14933018  1
  P  P237  1  0.95893895  0.75045136  0.39780844  1
  P  P238  1  0.95763075  0.75175463  0.64648292  1
  P  P239  1  0.95699701  0.75075596  0.89668480  1
  P  P240  1  0.20659519  0.08323975  0.22820177  1
  P  P241  1  0.20695649  0.08448631  0.47695368  1
  P  P242  1  0.20761699  0.08132482  0.72752686  1
  P  P243  1  0.20686786  0.08200093  0.97686256  1
  P  P244  1  0.20769159  0.41511009  0.22702680  1
  P  P245  1  0.20712524  0.41855822  0.47683079  1
  P  P246  1  0.20746168  0.41875680  0.72705977  1
  P  P247  1  0.20793661  0.41816321  0.97733782  1
  P  P248  1  0.20856937  0.74952177  0.22652236  1
  P  P249  1  0.20697167  0.75125762  0.47687462  1
  P  P250  1  0.20595854  0.75027900  0.72810776  1
  P  P251  1  0.20707599  0.75168379  0.97779469  1
  P  P252  1  0.70826557  0.08447721  0.22814239  1
  P  P253  1  0.70814124  0.08128019  0.47867606  1
  P  P254  1  0.70908364  0.08324485  0.72703057  1
  P  P255  1  0.70822055  0.08164778  0.97814068  1
  P  P256  1  0.70801474  0.41626004  0.22876550  1
  P  P257  1  0.70844301  0.41479003  0.47795637  1
  P  P258  1  0.70826437  0.41655150  0.72985694  1
  P  P259  1  0.70959996  0.41569660  0.97652152  1
  P  P260  1  0.70852152  0.75247105  0.22813248  1
  P  P261  1  0.70796276  0.75223141  0.47823415  1
  P  P262  1  0.70774597  0.75149266  0.72808057  1
  P  P263  1  0.70802168  0.74902017  0.97783386  1
  P  P264  1  0.29200176  0.25135035  0.02182557  1
  P  P265  1  0.29179640  0.24864970  0.27172140  1
  P  P266  1  0.29265681  0.24993766  0.52095515  1
  P  P267  1  0.29273798  0.25014275  0.77109441  1
  P  P268  1  0.29216310  0.58485022  0.02209674  1
  P  P269  1  0.29219290  0.58198006  0.27173581  1
  P  P270  1  0.29159943  0.58224208  0.52160313  1
  P  P271  1  0.29175108  0.58231374  0.77208411  1
  P  P272  1  0.29127743  0.91538542  0.02158661  1
  P  P273  1  0.29142917  0.91423213  0.27186370  1
  P  P274  1  0.29123074  0.91803693  0.52186069  1
  P  P275  1  0.29068788  0.91673497  0.77305690  1
  P  P276  1  0.79274201  0.24823413  0.02269984  1
  P  P277  1  0.79264933  0.25060955  0.27295707  1
  P  P278  1  0.79302873  0.24824767  0.52295496  1
  P  P279  1  0.79311599  0.25055118  0.77297292  1
  P  P280  1  0.79321478  0.58331782  0.02118653  1
  P  P281  1  0.79369064  0.58413037  0.27226230  1
  P  P282  1  0.79325808  0.58367190  0.52232463  1
  P  P283  1  0.79199875  0.58427105  0.77396473  1
  P  P284  1  0.79307083  0.91548348  0.02289146  1
  P  P285  1  0.79164940  0.91717198  0.27405275  1
  P  P286  1  0.79107918  0.91660776  0.52350725  1
  P  P287  1  0.79185460  0.91871385  0.77196199  1
  O  O288  1  0.03629290  0.24994768  0.18204248  1
  O  O289  1  0.03696376  0.25020909  0.43121913  1
  O  O290  1  0.03730710  0.25005541  0.68371674  1
  O  O291  1  0.03644833  0.25020122  0.93206342  1
  O  O292  1  0.03667837  0.58207615  0.18325227  1
  O  O293  1  0.03624201  0.58394704  0.43174636  1
  O  O294  1  0.03615676  0.58382025  0.68088141  1
  O  O295  1  0.03746973  0.58303734  0.93342409  1
  O  O296  1  0.03679271  0.91703183  0.18425842  1
  O  O297  1  0.03567444  0.91603318  0.43222471  1
  O  O298  1  0.03528213  0.91696518  0.68180692  1
  O  O299  1  0.03617337  0.91738755  0.93121492  1
  O  O300  1  0.53781655  0.25004207  0.18369319  1
  O  O301  1  0.53758035  0.25040797  0.43233135  1
  O  O302  1  0.53806427  0.24917852  0.68377900  1
  O  O303  1  0.53769605  0.24855057  0.93239075  1
  O  O304  1  0.53841689  0.58162646  0.18221633  1
  O  O305  1  0.53864655  0.58433698  0.43317665  1
  O  O306  1  0.53771267  0.58304416  0.68362723  1
  O  O307  1  0.53679877  0.58157147  0.93275483  1
  O  O308  1  0.53694418  0.91621788  0.18249127  1
  O  O309  1  0.53573532  0.91789879  0.43300920  1
  O  O310  1  0.53658517  0.91737035  0.68113438  1
  O  O311  1  0.53800962  0.91531254  0.93328459  1
  O  O312  1  0.46217940  0.08123633  0.06764094  1
  O  O313  1  0.46279622  0.08159711  0.31693405  1
  O  O314  1  0.46307415  0.08362708  0.56710879  1
  O  O315  1  0.46212339  0.08414259  0.81632119  1
  O  O316  1  0.46367233  0.41595437  0.06721789  1
  O  O317  1  0.46256987  0.41529875  0.31641425  1
  O  O318  1  0.46277905  0.41777574  0.56786779  1
  O  O319  1  0.46338967  0.41794077  0.81722873  1
  O  O320  1  0.46271859  0.74971088  0.06601278  1
  O  O321  1  0.46251442  0.75100037  0.31728797  1
  O  O322  1  0.46171310  0.75150909  0.56613659  1
  O  O323  1  0.46219257  0.75052818  0.81745443  1
  O  O324  1  0.96328068  0.08414259  0.06889994  1
  O  O325  1  0.96309932  0.08205701  0.31745741  1
  O  O326  1  0.96345163  0.08300810  0.56858260  1
  O  O327  1  0.96386292  0.08507379  0.81734252  1
  O  O328  1  0.96415552  0.41635538  0.06815979  1
  O  O329  1  0.96399674  0.41777453  0.31688479  1
  O  O330  1  0.96246824  0.41605766  0.56795506  1
  O  O331  1  0.96399048  0.41587280  0.81905540  1
  O  O332  1  0.96300726  0.74988613  0.06931902  1
  O  O333  1  0.96393453  0.74994132  0.31793868  1
  O  O334  1  0.96312956  0.75154212  0.56662393  1
  O  O335  1  0.96216069  0.75133816  0.81674499  1
  O  O336  1  0.21168606  0.08235173  0.05685639  1
  O  O337  1  0.21198108  0.08392786  0.30809165  1
  O  O338  1  0.21229633  0.08379537  0.55686960  1
  O  O339  1  0.21291045  0.08095278  0.80745177  1
  O  O340  1  0.21329994  0.41705842  0.05723701  1
  O  O341  1  0.21269217  0.41555437  0.30694536  1
  O  O342  1  0.21224849  0.41889542  0.55678520  1
  O  O343  1  0.21279491  0.41881081  0.80700070  1
  O  O344  1  0.21266552  0.75155020  0.05762290  1
  O  O345  1  0.21358713  0.74973708  0.30649896  1
  O  O346  1  0.21169072  0.75109745  0.55683258  1
  O  O347  1  0.21114588  0.75058529  0.80803356  1
  O  O348  1  0.71347819  0.08224436  0.05801893  1
  O  O349  1  0.71313839  0.08412031  0.30805504  1
  O  O350  1  0.71359845  0.08116731  0.55849597  1
  O  O351  1  0.71395966  0.08281493  0.80701236  1
  O  O352  1  0.71428132  0.41592965  0.05652349  1
  O  O353  1  0.71312902  0.41573792  0.30868702  1
  O  O354  1  0.71356536  0.41506634  0.55794382  1
  O  O355  1  0.71384756  0.41637716  0.80972733  1
  O  O356  1  0.71352331  0.74972008  0.05771404  1
  O  O357  1  0.71361111  0.75280058  0.30810873  1
  O  O358  1  0.71275695  0.75220115  0.55820309  1
  O  O359  1  0.71322311  0.75069595  0.80797414  1
  O  O360  1  0.28636583  0.24934826  0.19179431  1
  O  O361  1  0.28722977  0.24940828  0.44102143  1
  O  O362  1  0.28761674  0.25036193  0.69115598  1
  O  O363  1  0.28703928  0.25125007  0.94186564  1
  O  O364  1  0.28702713  0.58286822  0.19183727  1
  O  O365  1  0.28657534  0.58217990  0.44162910  1
  O  O366  1  0.28643421  0.58216055  0.69213094  1
  O  O367  1  0.28668919  0.58452068  0.94221733  1
  O  O368  1  0.28609732  0.91383436  0.19194867  1
  O  O369  1  0.28625116  0.91738692  0.44197546  1
  O  O370  1  0.28574952  0.91742338  0.69306438  1
  O  O371  1  0.28586806  0.91604869  0.94170292  1
  O  O372  1  0.78755898  0.24979401  0.19303577  1
  O  O373  1  0.78772653  0.24870974  0.44305047  1
  O  O374  1  0.78798743  0.24992872  0.69310106  1
  O  O375  1  0.78755340  0.24878656  0.94277805  1
  O  O376  1  0.78869179  0.58406471  0.19228250  1
  O  O377  1  0.78819647  0.58368741  0.44239664  1
  O  O378  1  0.78720453  0.58399062  0.69396790  1
  O  O379  1  0.78777887  0.58354655  0.94128240  1
  O  O380  1  0.78725142  0.91675381  0.19407593  1
  O  O381  1  0.78622620  0.91638577  0.44359610  1
  O  O382  1  0.78608227  0.91872078  0.69214261  1
  O  O383  1  0.78803092  0.91587340  0.94301773  1
  O  O384  1  0.22755652  0.25170740  0.05709566  1
  O  O385  1  0.22755552  0.24809570  0.30764274  1
  O  O386  1  0.22837784  0.25021177  0.55637715  1
  O  O387  1  0.22833852  0.25028462  0.80614361  1
  O  O388  1  0.22802351  0.58497188  0.05810716  1
  O  O389  1  0.22787117  0.58179150  0.30737663  1
  O  O390  1  0.22719455  0.58192884  0.55711198  1
  O  O391  1  0.22750195  0.58232425  0.80784571  1
  O  O392  1  0.22715821  0.91503664  0.05770206  1
  O  O393  1  0.22719516  0.91444046  0.30767689  1
  O  O394  1  0.22686789  0.91849759  0.55742114  1
  O  O395  1  0.22643512  0.91632874  0.80887663  1
  O  O396  1  0.72844044  0.24779297  0.05832892  1
  O  O397  1  0.72838399  0.25102324  0.30867653  1
  O  O398  1  0.72881057  0.24757583  0.55876949  1
  O  O399  1  0.72882441  0.25103765  0.80864740  1
  O  O400  1  0.72904483  0.58372254  0.05701004  1
  O  O401  1  0.72927566  0.58394396  0.30724993  1
  O  O402  1  0.72884896  0.58372117  0.55739425  1
  O  O403  1  0.72782909  0.58422849  0.80975464  1
  O  O404  1  0.72875439  0.91547192  0.05850029  1
  O  O405  1  0.72735840  0.91719681  0.30962283  1
  O  O406  1  0.72691893  0.91686504  0.55958805  1
  O  O407  1  0.72787439  0.91849205  0.80848847  1
  O  O408  1  0.27081084  0.08309755  0.19263044  1
  O  O409  1  0.27119142  0.08481560  0.44106781  1
  O  O410  1  0.27180735  0.08126151  0.69159726  1
  O  O411  1  0.27132229  0.08150131  0.94173649  1
  O  O412  1  0.27197395  0.41499828  0.19139483  1
  O  O413  1  0.27144069  0.41809470  0.44125728  1
  O  O414  1  0.27174776  0.41901484  0.69130520  1
  O  O415  1  0.27216059  0.41870214  0.94151700  1
  O  O416  1  0.27264391  0.74943556  0.19035008  1
  O  O417  1  0.27140797  0.75118815  0.44166448  1
  O  O418  1  0.27030023  0.75011463  0.69285500  1
  O  O419  1  0.27111395  0.75205157  0.94137862  1
  O  O420  1  0.77263900  0.08470977  0.19264128  1
  O  O421  1  0.77226910  0.08137375  0.44257251  1
  O  O422  1  0.77323946  0.08312315  0.69104943  1
  O  O423  1  0.77248001  0.08158097  0.94235413  1
  O  O424  1  0.77240391  0.41625134  0.19356938  1
  O  O425  1  0.77277556  0.41453031  0.44243248  1
  O  O426  1  0.77245072  0.41630658  0.69403186  1
  O  O427  1  0.77386241  0.41540967  0.94095021  1
  O  O428  1  0.77289725  0.75245510  0.19262017  1
  O  O429  1  0.77237608  0.75233733  0.44288979  1
  O  O430  1  0.77195198  0.75236977  0.69219177  1
  O  O431  1  0.77219264  0.74863383  0.94186227  1
  O  O432  1  0.02251147  0.08267465  0.18482062  1
  O  O433  1  0.02203714  0.08173281  0.43331233  1
  O  O434  1  0.02299603  0.08419030  0.68439454  1
  O  O435  1  0.02232020  0.08573162  0.93356845  1
  O  O436  1  0.02311701  0.41685495  0.18438766  1
  O  O437  1  0.02239737  0.41870279  0.43311827  1
  O  O438  1  0.02192711  0.41500153  0.68334757  1
  O  O439  1  0.02341923  0.41705433  0.93499751  1
  O  O440  1  0.02312710  0.74965718  0.18458576  1
  O  O441  1  0.02291629  0.75134812  0.43419316  1
  O  O442  1  0.02171559  0.75228124  0.68282077  1
  O  O443  1  0.02129398  0.75033322  0.93218338  1
  O  O444  1  0.52147109  0.08096885  0.18302998  1
  O  O445  1  0.52192702  0.08152492  0.43258311  1
  O  O446  1  0.52211936  0.08501243  0.68288004  1
  O  O447  1  0.52125694  0.08279112  0.93146640  1
  O  O448  1  0.52236419  0.41429849  0.18310336  1
  O  O449  1  0.52173380  0.41648522  0.43154551  1
  O  O450  1  0.52203082  0.41797633  0.68328819  1
  O  O451  1  0.52263455  0.41795034  0.93281308  1
  O  O452  1  0.52176812  0.74993825  0.18135384  1
  O  O453  1  0.52178932  0.75209040  0.43269098  1
  O  O454  1  0.52086954  0.75020449  0.68125870  1
  O  O455  1  0.52177442  0.75098166  0.93281871  1
  O  O456  1  0.47878327  0.24983382  0.06840369  1
  O  O457  1  0.47835687  0.25080207  0.31675625  1
  O  O458  1  0.47901135  0.24969147  0.56847583  1
  O  O459  1  0.47849978  0.24820335  0.81682868  1
  O  O460  1  0.47894300  0.58096445  0.06693479  1
  O  O461  1  0.47919557  0.58320511  0.31827633  1
  O  O462  1  0.47879426  0.58382009  0.56829937  1
  O  O463  1  0.47770776  0.58169399  0.81695932  1
  O  O464  1  0.47805397  0.91424141  0.06676138  1
  O  O465  1  0.47738617  0.91837847  0.31681344  1
  O  O466  1  0.47650491  0.91724933  0.56574801  1
  O  O467  1  0.47863520  0.91687489  0.81842802  1
  O  O468  1  0.97719362  0.24944604  0.06586981  1
  O  O469  1  0.97701913  0.25066304  0.31579306  1
  O  O470  1  0.97870764  0.24996872  0.56789640  1
  O  O471  1  0.97773528  0.25049622  0.81559243  1
  O  O472  1  0.97814005  0.58118557  0.06701390  1
  O  O473  1  0.97753936  0.58309908  0.31542395  1
  O  O474  1  0.97659592  0.58313427  0.56514677  1
  O  O475  1  0.97826825  0.58361284  0.81805925  1
  O  O476  1  0.97790146  0.91743990  0.06862820  1
  O  O477  1  0.97651994  0.91715280  0.31607392  1
  O  O478  1  0.97646697  0.91618126  0.56545753  1
  O  O479  1  0.97636692  0.91665063  0.81558975  1
  O  O480  1  0.07191828  0.31334067  0.07330963  1
  O  O481  1  0.07243329  0.31373461  0.32297639  1
  O  O482  1  0.07415585  0.31330404  0.57535270  1
  O  O483  1  0.07267316  0.31417751  0.82396755  1
  O  O484  1  0.07289766  0.64575887  0.07535455  1
  O  O485  1  0.07222403  0.64743453  0.32341682  1
  O  O486  1  0.07110532  0.64759454  0.57257562  1
  O  O487  1  0.07365007  0.64696549  0.82531372  1
  O  O488  1  0.07357966  0.98017426  0.07574197  1
  O  O489  1  0.07210132  0.97991435  0.32432783  1
  O  O490  1  0.07066120  0.98098073  0.57337655  1
  O  O491  1  0.07094479  0.98100183  0.82279052  1
  O  O492  1  0.57488134  0.31230013  0.07493142  1
  O  O493  1  0.57344623  0.31418362  0.32398473  1
  O  O494  1  0.57426828  0.31353733  0.57616993  1
  O  O495  1  0.57372667  0.31231859  0.82505103  1
  O  O496  1  0.57427206  0.64496059  0.07424183  1
  O  O497  1  0.57439002  0.64738424  0.32471710  1
  O  O498  1  0.57434875  0.64702846  0.57579031  1
  O  O499  1  0.57266212  0.64594159  0.82538998  1
  O  O500  1  0.57328719  0.97876083  0.07426438  1
  O  O501  1  0.57267720  0.98130780  0.32437076  1
  O  O502  1  0.57162322  0.98107421  0.57306448  1
  O  O503  1  0.57435489  0.97958848  0.82534510  1
  O  O504  1  0.42629645  0.01744028  0.17582492  1
  O  O505  1  0.42621778  0.01900125  0.42590673  1
  O  O506  1  0.42686814  0.02071932  0.67520410  1
  O  O507  1  0.42560895  0.01985260  0.92399351  1
  O  O508  1  0.42706923  0.35152870  0.17515431  1
  O  O509  1  0.42610398  0.35290461  0.42514112  1
  O  O510  1  0.42650162  0.35440855  0.67554470  1
  O  O511  1  0.42747804  0.35378121  0.92465502  1
  O  O512  1  0.42699379  0.68541918  0.17392114  1
  O  O513  1  0.42659753  0.68765878  0.42518348  1
  O  O514  1  0.42516540  0.68739677  0.67407674  1
  O  O515  1  0.42637523  0.68708842  0.92513345  1
  O  O516  1  0.92692788  0.02005169  0.17675373  1
  O  O517  1  0.92690065  0.01868666  0.42639238  1
  O  O518  1  0.92837302  0.01979924  0.67724289  1
  O  O519  1  0.92737113  0.02149858  0.92528117  1
  O  O520  1  0.92849299  0.35269539  0.17667192  1
  O  O521  1  0.92747701  0.35428206  0.42482122  1
  O  O522  1  0.92667084  0.35214223  0.67659504  1
  O  O523  1  0.92882126  0.35270941  0.92775595  1
  O  O524  1  0.92804057  0.68578714  0.17725458  1
  O  O525  1  0.92878028  0.68645474  0.42664169  1
  O  O526  1  0.92670532  0.68801392  0.67459919  1
  O  O527  1  0.92599792  0.68710642  0.92468521  1
  O  O528  1  0.17568159  0.01930951  0.20081707  1
  O  O529  1  0.17574761  0.02102032  0.44878037  1
  O  O530  1  0.17659835  0.01813319  0.69844707  1
  O  O531  1  0.17579856  0.01856598  0.94858651  1
  O  O532  1  0.17720088  0.35138464  0.19841408  1
  O  O533  1  0.17587442  0.35470290  0.44950741  1
  O  O534  1  0.17676335  0.35478068  0.69927266  1
  O  O535  1  0.17665930  0.35489931  0.94879711  1
  O  O536  1  0.17804490  0.68548322  0.19849880  1
  O  O537  1  0.17599354  0.68760778  0.44890437  1
  O  O538  1  0.17492684  0.68667487  0.69994981  1
  O  O539  1  0.17597680  0.68795861  0.94993406  1
  O  O540  1  0.67717262  0.02092897  0.20003771  1
  O  O541  1  0.67727518  0.01801424  0.44943093  1
  O  O542  1  0.67756340  0.02009698  0.69863107  1
  O  O543  1  0.67771711  0.01785952  0.94972123  1
  O  O544  1  0.67663692  0.35319337  0.19997912  1
  O  O545  1  0.67779357  0.35108051  0.44966753  1
  O  O546  1  0.67668366  0.35339672  0.70140142  1
  O  O547  1  0.67845838  0.35203344  0.94883599  1
  O  O548  1  0.67761217  0.68855388  0.20050203  1
  O  O549  1  0.67711266  0.68844600  0.45017958  1
  O  O550  1  0.67674480  0.68799206  0.69978408  1
  O  O551  1  0.67708007  0.68541984  0.94963221  1
  O  O552  1  0.32286944  0.31478737  0.05045608  1
  O  O553  1  0.32289499  0.31216429  0.29985815  1
  O  O554  1  0.32367206  0.31374397  0.54863032  1
  O  O555  1  0.32402328  0.31352334  0.79919700  1
  O  O556  1  0.32282279  0.64853482  0.05045811  1
  O  O557  1  0.32354593  0.64525302  0.30018559  1
  O  O558  1  0.32209516  0.64632864  0.54949471  1
  O  O559  1  0.32276328  0.64621430  0.79959584  1
  O  O560  1  0.32249411  0.97880104  0.05014609  1
  O  O561  1  0.32240077  0.97818947  0.29920306  1
  O  O562  1  0.32191444  0.98172202  0.55033022  1
  O  O563  1  0.32165755  0.98011643  0.80179000  1
  O  O564  1  0.82388498  0.31175408  0.05082131  1
  O  O565  1  0.82333822  0.31433893  0.30123449  1
  O  O566  1  0.82412394  0.31176931  0.55098682  1
  O  O567  1  0.82402753  0.31405617  0.80147819  1
  O  O568  1  0.82490889  0.64638543  0.04974439  1
  O  O569  1  0.82446382  0.64782017  0.30035219  1
  O  O570  1  0.82423199  0.64727593  0.55033804  1
  O  O571  1  0.82284795  0.64807560  0.80165566  1
  O  O572  1  0.82446933  0.97878515  0.05117934  1
  O  O573  1  0.82201315  0.98120522  0.30230051  1
  O  O574  1  0.82230194  0.98011825  0.55175574  1
  O  O575  1  0.82262826  0.98221230  0.80082701  1
  O  O576  1  0.42612320  0.14473754  0.17532058  1
  O  O577  1  0.42713219  0.14604044  0.42435920  1
  O  O578  1  0.42692495  0.14788258  0.67531574  1
  O  O579  1  0.42585240  0.14667483  0.92511321  1
  O  O580  1  0.42719580  0.47867994  0.17528361  1
  O  O581  1  0.42637095  0.47985809  0.42394974  1
  O  O582  1  0.42711163  0.48166546  0.67619398  1
  O  O583  1  0.42725663  0.48092041  0.92615804  1
  O  O584  1  0.42570122  0.81230282  0.17438462  1
  O  O585  1  0.42643983  0.81490075  0.42540418  1
  O  O586  1  0.42549006  0.81423484  0.67466303  1
  O  O587  1  0.42681521  0.81444595  0.92584893  1
  O  O588  1  0.92822846  0.14736643  0.17765054  1
  O  O589  1  0.92690113  0.14566852  0.42537742  1
  O  O590  1  0.92773161  0.14708393  0.67658767  1
  O  O591  1  0.92704045  0.14845874  0.92583308  1
  O  O592  1  0.92772122  0.47987389  0.17632286  1
  O  O593  1  0.92713394  0.48129603  0.42528494  1
  O  O594  1  0.92677899  0.47924013  0.67621988  1
  O  O595  1  0.92824064  0.48004083  0.92695799  1
  O  O596  1  0.92818421  0.81327545  0.17801470  1
  O  O597  1  0.92720997  0.81364595  0.42583796  1
  O  O598  1  0.92640684  0.81500014  0.67512394  1
  O  O599  1  0.92592416  0.81400915  0.92537017  1
  O  O600  1  0.07234802  0.18624204  0.07373948  1
  O  O601  1  0.07136285  0.18618295  0.32297018  1
  O  O602  1  0.07404005  0.18662305  0.57542632  1
  O  O603  1  0.07272969  0.18695947  0.82365298  1
  O  O604  1  0.07350545  0.51864945  0.07489802  1
  O  O605  1  0.07284738  0.52027325  0.32362044  1
  O  O606  1  0.07179549  0.52009001  0.57281617  1
  O  O607  1  0.07363052  0.52015017  0.82489827  1
  O  O608  1  0.07296817  0.85346287  0.07588681  1
  O  O609  1  0.07091871  0.85273683  0.32337720  1
  O  O610  1  0.07223157  0.85392112  0.57344570  1
  O  O611  1  0.07158062  0.85356136  0.82304796  1
  O  O612  1  0.57361693  0.18541762  0.07615342  1
  O  O613  1  0.57360713  0.18685731  0.32485515  1
  O  O614  1  0.57466055  0.18666484  0.57501809  1
  O  O615  1  0.57366401  0.18497447  0.82403521  1
  O  O616  1  0.57415671  0.51769870  0.07396768  1
  O  O617  1  0.57495291  0.52030581  0.32560939  1
  O  O618  1  0.57434064  0.52014971  0.57521954  1
  O  O619  1  0.57307015  0.51870234  0.82400302  1
  O  O620  1  0.57328915  0.85158167  0.07463985  1
  O  O621  1  0.57258551  0.85447089  0.32517002  1
  O  O622  1  0.57136441  0.85350226  0.57281998  1
  O  O623  1  0.57402999  0.85281427  0.82448218  1
  O  O624  1  0.32274363  0.18745722  0.04951304  1
  O  O625  1  0.32267540  0.18505993  0.29992052  1
  O  O626  1  0.32395450  0.18679814  0.54948114  1
  O  O627  1  0.32345594  0.18646070  0.79911327  1
  O  O628  1  0.32349819  0.52142780  0.04999245  1
  O  O629  1  0.32260557  0.51807631  0.29980331  1
  O  O630  1  0.32280784  0.51917334  0.55038821  1
  O  O631  1  0.32262557  0.51916348  0.80120834  1
  O  O632  1  0.32226884  0.85192246  0.04998442  1
  O  O633  1  0.32232515  0.85102609  0.30082730  1
  O  O634  1  0.32219739  0.85462648  0.55034483  1
  O  O635  1  0.32137149  0.85276779  0.80078038  1
  O  O636  1  0.82334484  0.18461028  0.05123578  1
  O  O637  1  0.82375698  0.18727206  0.30138816  1
  O  O638  1  0.82382387  0.18460635  0.55133403  1
  O  O639  1  0.82401562  0.18699463  0.80112983  1
  O  O640  1  0.82405191  0.51961190  0.04937883  1
  O  O641  1  0.82485849  0.52077295  0.30035293  1
  O  O642  1  0.82417518  0.52017899  0.55058281  1
  O  O643  1  0.82258738  0.52044778  0.80236351  1
  O  O644  1  0.82343870  0.85175403  0.05160906  1
  O  O645  1  0.82267417  0.85392972  0.30292877  1
  O  O646  1  0.82170348  0.85306350  0.55246756  1
  O  O647  1  0.82336512  0.85527553  0.79966151  1
  O  O648  1  0.17518672  0.14620967  0.19940604  1
  O  O649  1  0.17620966  0.14816460  0.44877473  1
  O  O650  1  0.17674850  0.14528541  0.70021387  1
  O  O651  1  0.17636758  0.14586377  0.94874344  1
  O  O652  1  0.17645551  0.47852759  0.19901984  1
  O  O653  1  0.17655739  0.48179175  0.44748386  1
  O  O654  1  0.17625349  0.48190603  0.69838173  1
  O  O655  1  0.17732529  0.48208834  0.94958470  1
  O  O656  1  0.17747040  0.81290202  0.19819465  1
  O  O657  1  0.17648374  0.81485508  0.44825651  1
  O  O658  1  0.17479038  0.81351790  0.69963100  1
  O  O659  1  0.17585334  0.81486956  0.94895013  1
  O  O660  1  0.67775108  0.14806440  0.19943230  1
  O  O661  1  0.67685620  0.14485511  0.45087130  1
  O  O662  1  0.67897124  0.14743677  0.69904132  1
  O  O663  1  0.67683281  0.14491182  0.94984368  1
  O  O664  1  0.67725872  0.48003173  0.20072955  1
  O  O665  1  0.67748148  0.47851193  0.45027509  1
  O  O666  1  0.67732718  0.48014017  0.70152672  1
  O  O667  1  0.67937207  0.47966917  0.94812162  1
  O  O668  1  0.67767310  0.81569463  0.19904877  1
  O  O669  1  0.67708725  0.81552809  0.44941968  1
  O  O670  1  0.67675567  0.81513264  0.70005117  1
  O  O671  1  0.67691539  0.81248036  0.94970227  1
