# generated using pymatgen
data_Na2MnFe(PO4)2
_symmetry_space_group_name_H-M   'P 1'
_cell_length_a   22.34056923
_cell_length_b   20.09680030
_cell_length_c   19.45145310
_cell_angle_alpha   89.98729609
_cell_angle_beta   90.06483393
_cell_angle_gamma   89.95578937
_symmetry_Int_Tables_number   1
_chemical_formula_structural   Na2MnFe(PO4)2
_chemical_formula_sum   'Na96 Mn48 Fe48 P96 O384'
_cell_volume   8733.18748656
_cell_formula_units_Z   48
loop_
 _symmetry_equiv_pos_site_id
 _symmetry_equiv_pos_as_xyz
  1  'x, y, z'
loop_
 _atom_site_type_symbol
 _atom_site_label
 _atom_site_symmetry_multiplicity
 _atom_site_fract_x
 _atom_site_fract_y
 _atom_site_fract_z
 _atom_site_occupancy
  Na  Na0  1  0.13941407  0.25064511  0.24450460  1
  Na  Na1  1  0.13980539  0.25071929  0.49186562  1
  Na  Na2  1  0.13948626  0.24793680  0.74358134  1
  Na  Na3  1  0.13922230  0.24960813  0.99281577  1
  Na  Na4  1  0.14004901  0.58478129  0.24354286  1
  Na  Na5  1  0.14043662  0.58257297  0.49264050  1
  Na  Na6  1  0.14001334  0.58456020  0.74344993  1
  Na  Na7  1  0.13950527  0.58490442  0.99251331  1
  Na  Na8  1  0.13993297  0.91710456  0.24385206  1
  Na  Na9  1  0.13940039  0.91689583  0.49381412  1
  Na  Na10  1  0.13938449  0.91633205  0.74278311  1
  Na  Na11  1  0.13955873  0.91699574  0.99237134  1
  Na  Na12  1  0.64040532  0.24897197  0.24538985  1
  Na  Na13  1  0.64005975  0.24991348  0.49319709  1
  Na  Na14  1  0.64023191  0.25061743  0.74474675  1
  Na  Na15  1  0.64063937  0.25009546  0.99342137  1
  Na  Na16  1  0.64069071  0.58314003  0.24392868  1
  Na  Na17  1  0.64111323  0.58356514  0.49320008  1
  Na  Na18  1  0.64062800  0.58338862  0.74485931  1
  Na  Na19  1  0.64020767  0.58228369  0.99363342  1
  Na  Na20  1  0.64097607  0.91576059  0.24468514  1
  Na  Na21  1  0.64068770  0.91688553  0.49318694  1
  Na  Na22  1  0.64077998  0.91714025  0.74384500  1
  Na  Na23  1  0.64071599  0.91718792  0.99355826  1
  Na  Na24  1  0.35921415  0.08273523  0.00484795  1
  Na  Na25  1  0.35917403  0.08372062  0.25639628  1
  Na  Na26  1  0.35991443  0.08265192  0.50675419  1
  Na  Na27  1  0.35965903  0.08134319  0.75533748  1
  Na  Na28  1  0.35963350  0.41646109  0.00607581  1
  Na  Na29  1  0.35913558  0.41659096  0.25723455  1
  Na  Na30  1  0.36007104  0.41613841  0.50557769  1
  Na  Na31  1  0.35993385  0.41500944  0.75613553  1
  Na  Na32  1  0.36004039  0.75004256  0.00615461  1
  Na  Na33  1  0.35992985  0.74964158  0.25597894  1
  Na  Na34  1  0.35936867  0.74962410  0.50490083  1
  Na  Na35  1  0.35980255  0.75018428  0.75538192  1
  Na  Na36  1  0.86015817  0.08400239  0.00636171  1
  Na  Na37  1  0.85942525  0.08306945  0.25644662  1
  Na  Na38  1  0.86039748  0.08421437  0.50727339  1
  Na  Na39  1  0.86031536  0.08455068  0.75831414  1
  Na  Na40  1  0.86053609  0.41605824  0.00724446  1
  Na  Na41  1  0.85990889  0.41564748  0.25736039  1
  Na  Na42  1  0.86034463  0.41702191  0.50683769  1
  Na  Na43  1  0.85991368  0.41730036  0.75715138  1
  Na  Na44  1  0.86033908  0.75045549  0.00655331  1
  Na  Na45  1  0.86023153  0.74981633  0.25655770  1
  Na  Na46  1  0.86014776  0.75081410  0.50643080  1
  Na  Na47  1  0.86033341  0.75078578  0.75715141  1
  Na  Na48  1  0.10873101  0.08362653  0.11756098  1
  Na  Na49  1  0.10930796  0.08480781  0.36951574  1
  Na  Na50  1  0.10870988  0.08304626  0.61835534  1
  Na  Na51  1  0.10911665  0.08300462  0.86779593  1
  Na  Na52  1  0.10865039  0.41639142  0.11887180  1
  Na  Na53  1  0.10938132  0.41802734  0.36834565  1
  Na  Na54  1  0.10895168  0.41621748  0.61784898  1
  Na  Na55  1  0.10893654  0.41681255  0.86916413  1
  Na  Na56  1  0.10914746  0.75044434  0.11730380  1
  Na  Na57  1  0.10954252  0.75072613  0.36868173  1
  Na  Na58  1  0.10943313  0.75082706  0.61860474  1
  Na  Na59  1  0.10931458  0.75164597  0.86801462  1
  Na  Na60  1  0.60979625  0.08329542  0.11868646  1
  Na  Na61  1  0.60953168  0.08275638  0.36891373  1
  Na  Na62  1  0.60961644  0.08332185  0.61890483  1
  Na  Na63  1  0.61012662  0.08411366  0.86843261  1
  Na  Na64  1  0.60962010  0.41671495  0.11886653  1
  Na  Na65  1  0.60981423  0.41614479  0.36950369  1
  Na  Na66  1  0.60961808  0.41491595  0.61890196  1
  Na  Na67  1  0.60974004  0.41598913  0.87045762  1
  Na  Na68  1  0.60981494  0.74890594  0.11966928  1
  Na  Na69  1  0.61027823  0.74948226  0.36829303  1
  Na  Na70  1  0.61028843  0.74930472  0.61810731  1
  Na  Na71  1  0.60977022  0.74936776  0.86870625  1
  Na  Na72  1  0.38989188  0.25052847  0.13052076  1
  Na  Na73  1  0.39002021  0.24950210  0.38324778  1
  Na  Na74  1  0.39033321  0.24860236  0.63008098  1
  Na  Na75  1  0.39024977  0.25028454  0.88081929  1
  Na  Na76  1  0.39063671  0.58408231  0.13072333  1
  Na  Na77  1  0.39014567  0.58306069  0.38123462  1
  Na  Na78  1  0.39069982  0.58108607  0.62942827  1
  Na  Na79  1  0.39093215  0.58247462  0.88135241  1
  Na  Na80  1  0.39046000  0.91511752  0.13083422  1
  Na  Na81  1  0.39063880  0.91630335  0.38105431  1
  Na  Na82  1  0.38999054  0.91656316  0.63075531  1
  Na  Na83  1  0.39030921  0.91577518  0.88018559  1
  Na  Na84  1  0.89006291  0.25031754  0.13140259  1
  Na  Na85  1  0.89037731  0.25106137  0.38287574  1
  Na  Na86  1  0.89069110  0.24973227  0.63120412  1
  Na  Na87  1  0.89052281  0.24998413  0.88316295  1
  Na  Na88  1  0.89081654  0.58287995  0.13078180  1
  Na  Na89  1  0.89095110  0.58470912  0.38234683  1
  Na  Na90  1  0.89068431  0.58467003  0.63135365  1
  Na  Na91  1  0.89107128  0.58469393  0.88183570  1
  Na  Na92  1  0.89034471  0.91655124  0.13053996  1
  Na  Na93  1  0.89082655  0.91741394  0.38247650  1
  Na  Na94  1  0.89114430  0.91728148  0.63201120  1
  Na  Na95  1  0.89082580  0.91757783  0.88219066  1
  Mn  Mn96  1  0.25082136  0.66695150  0.62421228  1
  Mn  Mn97  1  0.49942265  -0.00086622  0.24950639  1
  Mn  Mn98  1  0.50042286  0.66543255  0.74953784  1
  Mn  Mn99  1  0.25002232  0.16556538  0.62400151  1
  Mn  Mn100  1  0.00051741  0.66766047  0.50066110  1
  Mn  Mn101  1  0.24991550  0.66793469  0.12420096  1
  Mn  Mn102  1  0.75059995  0.83293753  0.62505811  1
  Mn  Mn103  1  0.49990787  0.66543698  0.49928913  1
  Mn  Mn104  1  0.24943727  0.50058233  0.12528753  1
  Mn  Mn105  1  0.74960381  0.83379785  0.12521379  1
  Mn  Mn106  1  -0.00038382  0.50054592  0.24967579  1
  Mn  Mn107  1  0.24987382  -0.00093917  0.87483850  1
  Mn  Mn108  1  0.50011919  -0.00017213  0.00014228  1
  Mn  Mn109  1  0.00055180  0.83336454  0.24985864  1
  Mn  Mn110  1  0.24978805  0.49996309  0.87458589  1
  Mn  Mn111  1  0.25023512  0.00033659  0.37435909  1
  Mn  Mn112  1  0.49930538  0.16754086  -0.00103743  1
  Mn  Mn113  1  0.25058351  0.66800705  0.87370103  1
  Mn  Mn114  1  0.50052008  0.49799363  0.75080008  1
  Mn  Mn115  1  -0.00027962  0.50085967  0.75014592  1
  Mn  Mn116  1  0.75073869  0.50002311  0.87544285  1
  Mn  Mn117  1  -0.00061958  0.33287269  0.74980977  1
  Mn  Mn118  1  0.75023742  0.16747618  0.62616028  1
  Mn  Mn119  1  0.49990160  0.16660283  0.74940209  1
  Mn  Mn120  1  0.49966044  0.33340067  0.25043326  1
  Mn  Mn121  1  0.75061837  0.49970584  0.37521516  1
  Mn  Mn122  1  0.24946041  0.16687969  0.12537931  1
  Mn  Mn123  1  0.74991036  0.50139652  0.62595577  1
  Mn  Mn124  1  0.24955731  0.33312946  0.12536770  1
  Mn  Mn125  1  0.75021576  0.00083012  0.62514290  1
  Mn  Mn126  1  0.24894821  0.33211442  0.87505001  1
  Mn  Mn127  1  0.49949300  0.16658581  0.25035649  1
  Mn  Mn128  1  0.75043462  0.66649650  0.12534103  1
  Mn  Mn129  1  0.24967748  0.49954821  0.62417232  1
  Mn  Mn130  1  0.49938457  0.50035827  0.24938092  1
  Mn  Mn131  1  0.75061176  -0.00011405  0.37541552  1
  Mn  Mn132  1  0.24937649  0.33258080  0.62446145  1
  Mn  Mn133  1  0.24897706  -0.00041062  0.12464565  1
  Mn  Mn134  1  -0.00106382  0.16808780  0.24981274  1
  Mn  Mn135  1  0.75012956  0.83351272  0.87516109  1
  Mn  Mn136  1  -0.00005925  0.00059040  0.25018259  1
  Mn  Mn137  1  0.74993302  0.16639404  0.12518055  1
  Mn  Mn138  1  0.75063185  0.33350864  0.62568503  1
  Mn  Mn139  1  0.75075983  0.49878014  0.12504627  1
  Mn  Mn140  1  0.25022403  0.83312825  0.37457952  1
  Mn  Mn141  1  0.50096553  0.83215677  0.00008880  1
  Mn  Mn142  1  0.49999146  0.83321926  0.49948426  1
  Mn  Mn143  1  0.50000950  0.83347594  0.74917125  1
  Fe  Fe144  1  0.75006760  0.33246778  0.12587402  1
  Fe  Fe145  1  0.50095767  0.49907754  0.50005534  1
  Fe  Fe146  1  0.75025814  0.16640927  0.37500555  1
  Fe  Fe147  1  -0.00040959  0.83411873  0.75049763  1
  Fe  Fe148  1  0.25006380  0.50020360  0.37466615  1
  Fe  Fe149  1  0.50002141  0.33266064  0.50022377  1
  Fe  Fe150  1  -0.00000648  0.16736715  0.50043590  1
  Fe  Fe151  1  0.50038755  -0.00021983  0.74942697  1
  Fe  Fe152  1  0.75015605  0.16712430  0.87626158  1
  Fe  Fe153  1  0.24898717  0.66696328  0.37465721  1
  Fe  Fe154  1  -0.00029872  0.33396786  0.25010310  1
  Fe  Fe155  1  0.75086282  0.66669273  0.37503390  1
  Fe  Fe156  1  0.75010459  0.00058410  0.87532975  1
  Fe  Fe157  1  0.00019080  0.50082794  0.50001982  1
  Fe  Fe158  1  0.24970165  0.33336494  0.37459151  1
  Fe  Fe159  1  0.75012316  0.33295286  0.37559052  1
  Fe  Fe160  1  0.24949596  -0.00069929  0.62498278  1
  Fe  Fe161  1  -0.00007146  0.83391262  0.50046192  1
  Fe  Fe162  1  0.75041825  0.66676506  0.87536760  1
  Fe  Fe163  1  0.24940331  0.83323060  0.62422564  1
  Fe  Fe164  1  0.75032241  0.66740056  0.62483817  1
  Fe  Fe165  1  -0.00005820  0.00001083  -0.00092642  1
  Fe  Fe166  1  -0.00006993  0.66689006  0.24953568  1
  Fe  Fe167  1  0.24922892  0.16645302  0.37518862  1
  Fe  Fe168  1  0.24983916  0.83354557  0.12472662  1
  Fe  Fe169  1  0.49977382  0.33272143  0.74961161  1
  Fe  Fe170  1  0.49969307  0.49972795  0.00016603  1
  Fe  Fe171  1  0.75007130  0.00012765  0.12533489  1
  Fe  Fe172  1  0.24973267  0.16558398  0.87415576  1
  Fe  Fe173  1  -0.00034252  0.00085011  0.50109640  1
  Fe  Fe174  1  0.00003217  0.83360233  -0.00057780  1
  Fe  Fe175  1  0.50045141  -0.00067823  0.49971970  1
  Fe  Fe176  1  0.00043435  0.66770530  0.75057695  1
  Fe  Fe177  1  0.00000650  0.33407061  0.50022174  1
  Fe  Fe178  1  0.00014004  0.16665410  0.75017485  1
  Fe  Fe179  1  0.75106860  0.83320332  0.37512319  1
  Fe  Fe180  1  -0.00052756  0.00041289  0.75008630  1
  Fe  Fe181  1  0.24985305  0.83362920  0.87408466  1
  Fe  Fe182  1  0.50009676  0.66627211  0.00013357  1
  Fe  Fe183  1  -0.00023829  0.33330008  -0.00000649  1
  Fe  Fe184  1  -0.00004781  0.50050243  0.00021335  1
  Fe  Fe185  1  -0.00021489  0.16661789  -0.00000158  1
  Fe  Fe186  1  0.50018544  0.16557193  0.50064480  1
  Fe  Fe187  1  0.50055191  0.66585837  0.24986203  1
  Fe  Fe188  1  0.00011133  0.66730370  -0.00034819  1
  Fe  Fe189  1  0.49999281  0.33359670  0.00038229  1
  Fe  Fe190  1  0.75012398  0.33359431  0.87577577  1
  Fe  Fe191  1  0.50068119  0.83244270  0.25018314  1
  P  P192  1  0.04085030  0.25016180  0.10167916  1
  P  P193  1  0.04113636  0.25225862  0.35334455  1
  P  P194  1  0.04146698  0.25006045  0.60174834  1
  P  P195  1  0.04137998  0.24872712  0.85313087  1
  P  P196  1  0.04119348  0.58392999  0.10155739  1
  P  P197  1  0.04189238  0.58499263  0.35239089  1
  P  P198  1  0.04261514  0.58269492  0.60263376  1
  P  P199  1  0.04217034  0.58553929  0.85315805  1
  P  P200  1  0.04108947  0.91684722  0.10081744  1
  P  P201  1  0.04252308  0.91728464  0.35404434  1
  P  P202  1  0.04078049  0.91700298  0.60254419  1
  P  P203  1  0.04084506  0.91744710  0.85191904  1
  P  P204  1  0.54230044  0.25104535  0.10239259  1
  P  P205  1  0.54209128  0.24974461  0.35459084  1
  P  P206  1  0.54150222  0.24955893  0.60178520  1
  P  P207  1  0.54181003  0.25153771  0.85260462  1
  P  P208  1  0.54172167  0.58331788  0.10173993  1
  P  P209  1  0.54241766  0.58348421  0.35256968  1
  P  P210  1  0.54303980  0.58109546  0.60227981  1
  P  P211  1  0.54270352  0.58234638  0.85426538  1
  P  P212  1  0.54307383  0.91562615  0.10366113  1
  P  P213  1  0.54228818  0.91543368  0.35255811  1
  P  P214  1  0.54254680  0.91779444  0.60243657  1
  P  P215  1  0.54254464  0.91748798  0.85207170  1
  P  P216  1  0.45667169  0.08346534  0.14664857  1
  P  P217  1  0.45850355  0.08252688  0.39863112  1
  P  P218  1  0.45813613  0.08169144  0.64645741  1
  P  P219  1  0.45737286  0.08283078  0.89580832  1
  P  P220  1  0.45679198  0.41674868  0.14612551  1
  P  P221  1  0.45863608  0.41641167  0.39866042  1
  P  P222  1  0.45802642  0.41431679  0.64670181  1
  P  P223  1  0.45819437  0.41597576  0.89843082  1
  P  P224  1  0.45903188  0.74888876  0.14826524  1
  P  P225  1  0.45768691  0.74952047  0.39553881  1
  P  P226  1  0.45743427  0.74928008  0.64624902  1
  P  P227  1  0.45797395  0.74839646  0.89740869  1
  P  P228  1  0.95720085  0.08373345  0.14614569  1
  P  P229  1  0.95865831  0.08422969  0.39917271  1
  P  P230  1  0.95846889  0.08379099  0.64834451  1
  P  P231  1  0.95885517  0.08361549  0.89780985  1
  P  P232  1  0.95752190  0.41544793  0.14712868  1
  P  P233  1  0.95871649  0.41756060  0.39841709  1
  P  P234  1  0.95719895  0.41696553  0.64642108  1
  P  P235  1  0.95869093  0.41723969  0.89874844  1
  P  P236  1  0.95805292  0.74883268  0.14669768  1
  P  P237  1  0.95811784  0.75168469  0.39772932  1
  P  P238  1  0.95903853  0.75076016  0.64877919  1
  P  P239  1  0.95889311  0.75069208  0.89771151  1
  P  P240  1  0.20622157  0.08368259  0.22835497  1
  P  P241  1  0.20761984  0.08363463  0.47766237  1
  P  P242  1  0.20757042  0.08162697  0.72717518  1
  P  P243  1  0.20713778  0.08404327  0.97677201  1
  P  P244  1  0.20708130  0.41699658  0.22924772  1
  P  P245  1  0.20847676  0.41675401  0.47582774  1
  P  P246  1  0.20650478  0.41606271  0.72771081  1
  P  P247  1  0.20652933  0.41669589  0.97809367  1
  P  P248  1  0.20727179  0.75143694  0.22724186  1
  P  P249  1  0.20730377  0.74932226  0.47741556  1
  P  P250  1  0.20779679  0.75161759  0.72691477  1
  P  P251  1  0.20783346  0.75217667  0.97683256  1
  P  P252  1  0.70795090  0.08212956  0.22794704  1
  P  P253  1  0.70805030  0.08469804  0.47749766  1
  P  P254  1  0.70765690  0.08383661  0.72960567  1
  P  P255  1  0.70865717  0.08312467  0.97727518  1
  P  P256  1  0.70804635  0.41452662  0.22827006  1
  P  P257  1  0.70830938  0.41581839  0.47776159  1
  P  P258  1  0.70765908  0.41687033  0.72910175  1
  P  P259  1  0.70845446  0.41521189  0.97841743  1
  P  P260  1  0.70801921  0.74991648  0.22928245  1
  P  P261  1  0.70913833  0.74999105  0.47667605  1
  P  P262  1  0.70809000  0.74876679  0.72790357  1
  P  P263  1  0.70790621  0.74903845  0.97751477  1
  P  P264  1  0.29201764  0.24934650  0.02129639  1
  P  P265  1  0.29133844  0.24954454  0.27393961  1
  P  P266  1  0.29207999  0.24973710  0.52038447  1
  P  P267  1  0.29193202  0.24770013  0.77211583  1
  P  P268  1  0.29260788  0.58385391  0.02161696  1
  P  P269  1  0.29114400  0.58402819  0.27333602  1
  P  P270  1  0.29256776  0.58288385  0.52015994  1
  P  P271  1  0.29323697  0.58331124  0.77125490  1
  P  P272  1  0.29197264  0.91510241  0.02197868  1
  P  P273  1  0.29301103  0.91635725  0.27115630  1
  P  P274  1  0.29114483  0.91639951  0.52310250  1
  P  P275  1  0.29178308  0.91521394  0.77122972  1
  P  P276  1  0.79196278  0.25104229  0.02243900  1
  P  P277  1  0.79160392  0.24981923  0.27372908  1
  P  P278  1  0.79264514  0.25012933  0.52151828  1
  P  P279  1  0.79175687  0.25048985  0.77474259  1
  P  P280  1  0.79300435  0.58324067  0.02166234  1
  P  P281  1  0.79293907  0.58391289  0.27295124  1
  P  P282  1  0.79249316  0.58531230  0.52236031  1
  P  P283  1  0.79263197  0.58534662  0.77270304  1
  P  P284  1  0.79188603  0.91861830  0.02227329  1
  P  P285  1  0.79304843  0.91565577  0.27265528  1
  P  P286  1  0.79316733  0.91671737  0.52191570  1
  P  P287  1  0.79267560  0.91821432  0.77315334  1
  O  O288  1  0.03593906  0.25088238  0.18163794  1
  O  O289  1  0.03593298  0.25212535  0.43318983  1
  O  O290  1  0.03662492  0.24928613  0.68170989  1
  O  O291  1  0.03604936  0.24872727  0.93296908  1
  O  O292  1  0.03611260  0.58397051  0.18150734  1
  O  O293  1  0.03696758  0.58444639  0.43230339  1
  O  O294  1  0.03766349  0.58299632  0.68249356  1
  O  O295  1  0.03681413  0.58578474  0.93297730  1
  O  O296  1  0.03672402  0.91682636  0.18079679  1
  O  O297  1  0.03718608  0.91703080  0.43388751  1
  O  O298  1  0.03549181  0.91739959  0.68237680  1
  O  O299  1  0.03607670  0.91707827  0.93177378  1
  O  O300  1  0.53729366  0.25046065  0.18239136  1
  O  O301  1  0.53682293  0.24971000  0.43447716  1
  O  O302  1  0.53664227  0.24968715  0.68175490  1
  O  O303  1  0.53653878  0.25162514  0.93251926  1
  O  O304  1  0.53665226  0.58377529  0.18172974  1
  O  O305  1  0.53732444  0.58250794  0.43246893  1
  O  O306  1  0.53795794  0.58110684  0.68223674  1
  O  O307  1  0.53707738  0.58264983  0.93413591  1
  O  O308  1  0.53769900  0.91496534  0.18356894  1
  O  O309  1  0.53723532  0.91624192  0.43252795  1
  O  O310  1  0.53728582  0.91807164  0.68238404  1
  O  O311  1  0.53764472  0.91686598  0.93206008  1
  O  O312  1  0.46172264  0.08370378  0.06669030  1
  O  O313  1  0.46284514  0.08282856  0.31860454  1
  O  O314  1  0.46361717  0.08181288  0.56659168  1
  O  O315  1  0.46281632  0.08236273  0.81587527  1
  O  O316  1  0.46211709  0.41675797  0.06625128  1
  O  O317  1  0.46327811  0.41660278  0.31865279  1
  O  O318  1  0.46362784  0.41464136  0.56686898  1
  O  O319  1  0.46314162  0.41546158  0.81844623  1
  O  O320  1  0.46417850  0.74843785  0.06829285  1
  O  O321  1  0.46320552  0.74969570  0.31566183  1
  O  O322  1  0.46250951  0.74941195  0.56629833  1
  O  O323  1  0.46289402  0.74881919  0.81745168  1
  O  O324  1  0.96260127  0.08385002  0.06631159  1
  O  O325  1  0.96291172  0.08434004  0.31918568  1
  O  O326  1  0.96363942  0.08408096  0.56849178  1
  O  O327  1  0.96370841  0.08322142  0.81792554  1
  O  O328  1  0.96263314  0.41551545  0.06732634  1
  O  O329  1  0.96352326  0.41752658  0.31845186  1
  O  O330  1  0.96265610  0.41689295  0.56655402  1
  O  O331  1  0.96307983  0.41728182  0.81877519  1
  O  O332  1  0.96339060  0.74888253  0.06685614  1
  O  O333  1  0.96321445  0.75102302  0.31785449  1
  O  O334  1  0.96392071  0.75142667  0.56885672  1
  O  O335  1  0.96400679  0.75099253  0.81787006  1
  O  O336  1  0.21189157  0.08370934  0.05674807  1
  O  O337  1  0.21143452  0.08409408  0.30833340  1
  O  O338  1  0.21299829  0.08265141  0.55757978  1
  O  O339  1  0.21266345  0.08214843  0.80711827  1
  O  O340  1  0.21160626  0.41664342  0.05810643  1
  O  O341  1  0.21272682  0.41720971  0.30915780  1
  O  O342  1  0.21281636  0.41639608  0.55585812  1
  O  O343  1  0.21150842  0.41600517  0.80769779  1
  O  O344  1  0.21275844  0.75218319  0.05681449  1
  O  O345  1  0.21235452  0.75043894  0.30719565  1
  O  O346  1  0.21289699  0.74994206  0.55730586  1
  O  O347  1  0.21299092  0.75189095  0.80686793  1
  O  O348  1  0.71317561  0.08280333  0.05729104  1
  O  O349  1  0.71335453  0.08280143  0.30784138  1
  O  O350  1  0.71292507  0.08470063  0.55749007  1
  O  O351  1  0.71278295  0.08358814  0.80954025  1
  O  O352  1  0.71379010  0.41488349  0.05834427  1
  O  O353  1  0.71355760  0.41472989  0.30822687  1
  O  O354  1  0.71321645  0.41650462  0.55772245  1
  O  O355  1  0.71299942  0.41642762  0.80905289  1
  O  O356  1  0.71274548  0.74946391  0.05749444  1
  O  O357  1  0.71364663  0.74986741  0.30915667  1
  O  O358  1  0.71419423  0.74945230  0.55670672  1
  O  O359  1  0.71322458  0.74881078  0.80787067  1
  O  O360  1  0.28670093  0.25002766  0.19390414  1
  O  O361  1  0.28681468  0.24970857  0.44049142  1
  O  O362  1  0.28697002  0.24820671  0.69210995  1
  O  O363  1  0.28677925  0.24859652  0.94134435  1
  O  O364  1  0.28596839  0.58412112  0.19336016  1
  O  O365  1  0.28679453  0.58296852  0.44026654  1
  O  O366  1  0.28815087  0.58320490  0.69125041  1
  O  O367  1  0.28795979  0.58392658  0.94165009  1
  O  O368  1  0.28776071  0.91617421  0.19123750  1
  O  O369  1  0.28662811  0.91666735  0.44310059  1
  O  O370  1  0.28632350  0.91559319  0.69136699  1
  O  O371  1  0.28686669  0.91502218  0.94198667  1
  O  O372  1  0.78640017  0.25013486  0.19375376  1
  O  O373  1  0.78756798  0.24992356  0.44160733  1
  O  O374  1  0.78737506  0.25014430  0.69469789  1
  O  O375  1  0.78658996  0.25101469  0.94258767  1
  O  O376  1  0.78789635  0.58326517  0.19298701  1
  O  O377  1  0.78717457  0.58540398  0.44239038  1
  O  O378  1  0.78727593  0.58551412  0.69272690  1
  O  O379  1  0.78768109  0.58388737  0.94170833  1
  O  O380  1  0.78748415  0.91633155  0.19274038  1
  O  O381  1  0.78820552  0.91610136  0.44195137  1
  O  O382  1  0.78784672  0.91780998  0.69316766  1
  O  O383  1  0.78639709  0.91887363  0.94234555  1
  O  O384  1  0.22762251  0.24985078  0.05649233  1
  O  O385  1  0.22696561  0.24906684  0.30921559  1
  O  O386  1  0.22779541  0.24928772  0.55589187  1
  O  O387  1  0.22749269  0.24734808  0.80731102  1
  O  O388  1  0.22805508  0.58422181  0.05627537  1
  O  O389  1  0.22697730  0.58390383  0.30922702  1
  O  O390  1  0.22842309  0.58348569  0.55606169  1
  O  O391  1  0.22873160  0.58379925  0.80606038  1
  O  O392  1  0.22757999  0.91478623  0.05747848  1
  O  O393  1  0.22862896  0.91676490  0.30629465  1
  O  O394  1  0.22684134  0.91626648  0.55857018  1
  O  O395  1  0.22759349  0.91505559  0.80728034  1
  O  O396  1  0.72786916  0.25131104  0.05864957  1
  O  O397  1  0.72751351  0.24962418  0.30983460  1
  O  O398  1  0.72834489  0.25038319  0.55699668  1
  O  O399  1  0.72740674  0.25092548  0.80993219  1
  O  O400  1  0.72873939  0.58269206  0.05704439  1
  O  O401  1  0.72860384  0.58397918  0.30825920  1
  O  O402  1  0.72823721  0.58571441  0.55811668  1
  O  O403  1  0.72841928  0.58469043  0.80840877  1
  O  O404  1  0.72773747  0.91865896  0.05824810  1
  O  O405  1  0.72888391  0.91516040  0.30861738  1
  O  O406  1  0.72878735  0.91676128  0.55704904  1
  O  O407  1  0.72825761  0.91822947  0.80827359  1
  O  O408  1  0.27066599  0.08306253  0.19339596  1
  O  O409  1  0.27184947  0.08468702  0.44186057  1
  O  O410  1  0.27185720  0.08115636  0.69165660  1
  O  O411  1  0.27154417  0.08405111  0.94153664  1
  O  O412  1  0.27129221  0.41687109  0.19351866  1
  O  O413  1  0.27273745  0.41716433  0.44045174  1
  O  O414  1  0.27104580  0.41589614  0.69298231  1
  O  O415  1  0.27095930  0.41612100  0.94309916  1
  O  O416  1  0.27167088  0.75215266  0.19178205  1
  O  O417  1  0.27148868  0.74821562  0.44151341  1
  O  O418  1  0.27207823  0.75187089  0.69130509  1
  O  O419  1  0.27223440  0.75235363  0.94148218  1
  O  O420  1  0.77213436  0.08196490  0.19205345  1
  O  O421  1  0.77244123  0.08472899  0.44224297  1
  O  O422  1  0.77203483  0.08384684  0.69428054  1
  O  O423  1  0.77288822  0.08285357  0.94166770  1
  O  O424  1  0.77230790  0.41427182  0.19248594  1
  O  O425  1  0.77263004  0.41551566  0.44238169  1
  O  O426  1  0.77198862  0.41739319  0.69381105  1
  O  O427  1  0.77266781  0.41525202  0.94259112  1
  O  O428  1  0.77212755  0.75027785  0.19335519  1
  O  O429  1  0.77331345  0.75012721  0.44075226  1
  O  O430  1  0.77246247  0.74850552  0.69239933  1
  O  O431  1  0.77235144  0.74941090  0.94243638  1
  O  O432  1  0.02138280  0.08423260  0.18212191  1
  O  O433  1  0.02287378  0.08397255  0.43477240  1
  O  O434  1  0.02251410  0.08351777  0.68485794  1
  O  O435  1  0.02288080  0.08408771  0.93418739  1
  O  O436  1  0.02171604  0.41555244  0.18326382  1
  O  O437  1  0.02287896  0.41721746  0.43450735  1
  O  O438  1  0.02138532  0.41683877  0.68230907  1
  O  O439  1  0.02284163  0.41719532  0.93449958  1
  O  O440  1  0.02225495  0.74858107  0.18287897  1
  O  O441  1  0.02236873  0.75229333  0.43362476  1
  O  O442  1  0.02314963  0.75032202  0.68478537  1
  O  O443  1  0.02293586  0.75033430  0.93413193  1
  O  O444  1  0.52114505  0.08321896  0.18169558  1
  O  O445  1  0.52286417  0.08189350  0.43404428  1
  O  O446  1  0.52221082  0.08177684  0.68285827  1
  O  O447  1  0.52164776  0.08341697  0.93144534  1
  O  O448  1  0.52112446  0.41678347  0.18172899  1
  O  O449  1  0.52289539  0.41605968  0.43443752  1
  O  O450  1  0.52220725  0.41395210  0.68299218  1
  O  O451  1  0.52233053  0.41633331  0.93467070  1
  O  O452  1  0.52313262  0.74858450  0.18458232  1
  O  O453  1  0.52189228  0.74945771  0.43144500  1
  O  O454  1  0.52187209  0.74949592  0.68135308  1
  O  O455  1  0.52239887  0.74769900  0.93282864  1
  O  O456  1  0.47786415  0.25153363  0.06702308  1
  O  O457  1  0.47778777  0.24984976  0.31887191  1
  O  O458  1  0.47739700  0.24984292  0.56573514  1
  O  O459  1  0.47763478  0.25123596  0.81655622  1
  O  O460  1  0.47757297  0.58330318  0.06557267  1
  O  O461  1  0.47807312  0.58458434  0.31686939  1
  O  O462  1  0.47865870  0.58077097  0.56674772  1
  O  O463  1  0.47859490  0.58211530  0.81812862  1
  O  O464  1  0.47876233  0.91567668  0.06814602  1
  O  O465  1  0.47801513  0.91485654  0.31690716  1
  O  O466  1  0.47821632  0.91793923  0.56671023  1
  O  O467  1  0.47816852  0.91767829  0.81659352  1
  O  O468  1  0.97673212  0.24943890  0.06560076  1
  O  O469  1  0.97699407  0.25259219  0.31707134  1
  O  O470  1  0.97725619  0.25100234  0.56593563  1
  O  O471  1  0.97723826  0.24830803  0.81688037  1
  O  O472  1  0.97712147  0.58443562  0.06536016  1
  O  O473  1  0.97761738  0.58537303  0.31658212  1
  O  O474  1  0.97826900  0.58275180  0.56698364  1
  O  O475  1  0.97801033  0.58582407  0.81690594  1
  O  O476  1  0.97684552  0.91677181  0.06527693  1
  O  O477  1  0.97831955  0.91696655  0.31809647  1
  O  O478  1  0.97686939  0.91650390  0.56583416  1
  O  O479  1  0.97672772  0.91787444  0.81576229  1
  O  O480  1  0.07119543  0.31391705  0.07286228  1
  O  O481  1  0.07210954  0.31552283  0.32444309  1
  O  O482  1  0.07279550  0.31351283  0.57384228  1
  O  O483  1  0.07216955  0.31250993  0.82507930  1
  O  O484  1  0.07287568  0.64695207  0.07332019  1
  O  O485  1  0.07255569  0.64858563  0.32392032  1
  O  O486  1  0.07385668  0.64615784  0.57468456  1
  O  O487  1  0.07317350  0.64875976  0.82405957  1
  O  O488  1  0.07167063  0.98059555  0.07243703  1
  O  O489  1  0.07333504  0.98092633  0.32567619  1
  O  O490  1  0.07112610  0.98090495  0.57386165  1
  O  O491  1  0.07213170  0.98076448  0.82351753  1
  O  O492  1  0.57307982  0.31461736  0.07423801  1
  O  O493  1  0.57327131  0.31307347  0.32615622  1
  O  O494  1  0.57298654  0.31269224  0.57348245  1
  O  O495  1  0.57255722  0.31491672  0.82393426  1
  O  O496  1  0.57288475  0.64666780  0.07338638  1
  O  O497  1  0.57356222  0.64687969  0.32443570  1
  O  O498  1  0.57378107  0.64489522  0.57452789  1
  O  O499  1  0.57388300  0.64558976  0.82554914  1
  O  O500  1  0.57387859  0.97942648  0.07590358  1
  O  O501  1  0.57334976  0.97890074  0.32432534  1
  O  O502  1  0.57369622  0.98085110  0.57349799  1
  O  O503  1  0.57319461  0.98110159  0.82386581  1
  O  O504  1  0.42563621  0.01992465  0.17454185  1
  O  O505  1  0.42731216  0.01901102  0.42651003  1
  O  O506  1  0.42731413  0.01830328  0.67524388  1
  O  O507  1  0.42634860  0.01952184  0.92435986  1
  O  O508  1  0.42562615  0.35350832  0.17486321  1
  O  O509  1  0.42761439  0.35284833  0.42653612  1
  O  O510  1  0.42698739  0.35092679  0.67532607  1
  O  O511  1  0.42734507  0.35244843  0.92679779  1
  O  O512  1  0.42769107  0.68561076  0.17656515  1
  O  O513  1  0.42647184  0.68615466  0.42378217  1
  O  O514  1  0.42660919  0.68564699  0.67410573  1
  O  O515  1  0.42688174  0.68516370  0.92590457  1
  O  O516  1  0.92639648  0.02018947  0.17465921  1
  O  O517  1  0.92792395  0.02058743  0.42756725  1
  O  O518  1  0.92732510  0.02026620  0.67654156  1
  O  O519  1  0.92853546  0.01975007  0.92668253  1
  O  O520  1  0.92681357  0.35213301  0.17634332  1
  O  O521  1  0.92738209  0.35434161  0.42668567  1
  O  O522  1  0.92598392  0.35362938  0.67501501  1
  O  O523  1  0.92805626  0.35342451  0.92682098  1
  O  O524  1  0.92714426  0.68554863  0.17573819  1
  O  O525  1  0.92736884  0.68809652  0.42612657  1
  O  O526  1  0.92820793  0.68696688  0.67663873  1
  O  O527  1  0.92748563  0.68744077  0.92592286  1
  O  O528  1  0.17504157  0.02027524  0.20003169  1
  O  O529  1  0.17682593  0.02007506  0.44941315  1
  O  O530  1  0.17683785  0.01803238  0.69867983  1
  O  O531  1  0.17625467  0.02032268  0.94891980  1
  O  O532  1  0.17590495  0.35351335  0.20106028  1
  O  O533  1  0.17820996  0.35279719  0.44742449  1
  O  O534  1  0.17546098  0.35256353  0.69957623  1
  O  O535  1  0.17513039  0.35345321  0.94997342  1
  O  O536  1  0.17646193  0.68792188  0.19870895  1
  O  O537  1  0.17603654  0.68598215  0.44918348  1
  O  O538  1  0.17711289  0.68766855  0.69931890  1
  O  O539  1  0.17716812  0.68828520  0.94891759  1
  O  O540  1  0.67738552  0.01840758  0.19967708  1
  O  O541  1  0.67711545  0.02093429  0.44990906  1
  O  O542  1  0.67654865  0.02067675  0.70056932  1
  O  O543  1  0.67721553  0.02012378  0.94856329  1
  O  O544  1  0.67683695  0.35132730  0.19984136  1
  O  O545  1  0.67756659  0.35224601  0.44953110  1
  O  O546  1  0.67668533  0.35353787  0.70051596  1
  O  O547  1  0.67741779  0.35206266  0.94950664  1
  O  O548  1  0.67699174  0.68640826  0.20093392  1
  O  O549  1  0.67815457  0.68656104  0.44817250  1
  O  O550  1  0.67689626  0.68574626  0.69898466  1
  O  O551  1  0.67766385  0.68524486  0.94908451  1
  O  O552  1  0.32301714  0.31296649  0.04929254  1
  O  O553  1  0.32161528  0.31351664  0.30233562  1
  O  O554  1  0.32284783  0.31328488  0.54894504  1
  O  O555  1  0.32276288  0.31134565  0.80020113  1
  O  O556  1  0.32366084  0.64727238  0.04998076  1
  O  O557  1  0.32173501  0.64784124  0.30129350  1
  O  O558  1  0.32434239  0.64594344  0.54840407  1
  O  O559  1  0.32439441  0.64679092  0.79917525  1
  O  O560  1  0.32253514  0.97916807  0.04957589  1
  O  O561  1  0.32419098  0.97977649  0.29943808  1
  O  O562  1  0.32160575  0.98015091  0.55160946  1
  O  O563  1  0.32289620  0.97866129  0.79969312  1
  O  O564  1  0.82318421  0.31409020  0.05140998  1
  O  O565  1  0.82254016  0.31325457  0.30224003  1
  O  O566  1  0.82390138  0.31342423  0.55002632  1
  O  O567  1  0.82295658  0.31403891  0.80250759  1
  O  O568  1  0.82410556  0.64648330  0.05020622  1
  O  O569  1  0.82359710  0.64752901  0.30119813  1
  O  O570  1  0.82379276  0.64838070  0.55109145  1
  O  O571  1  0.82315793  0.64878092  0.80173425  1
  O  O572  1  0.82287739  0.98175115  0.05124314  1
  O  O573  1  0.82416717  0.97918987  0.30073252  1
  O  O574  1  0.82391633  0.98052179  0.54974596  1
  O  O575  1  0.82337526  0.98165434  0.80173720  1
  O  O576  1  0.42572129  0.14692101  0.17503265  1
  O  O577  1  0.42846242  0.14648898  0.42734155  1
  O  O578  1  0.42674922  0.14529551  0.67418847  1
  O  O579  1  0.42605497  0.14643070  0.92341424  1
  O  O580  1  0.42564432  0.48019533  0.17459341  1
  O  O581  1  0.42827369  0.48040137  0.42666741  1
  O  O582  1  0.42694488  0.47783941  0.67501216  1
  O  O583  1  0.42736396  0.47985105  0.92623242  1
  O  O584  1  0.42867122  0.81301935  0.17609973  1
  O  O585  1  0.42631682  0.81281756  0.42399505  1
  O  O586  1  0.42631374  0.81277481  0.67429006  1
  O  O587  1  0.42749461  0.81234802  0.92540807  1
  O  O588  1  0.92564240  0.14688788  0.17474360  1
  O  O589  1  0.92808042  0.14802779  0.42749109  1
  O  O590  1  0.92769871  0.14745110  0.67700033  1
  O  O591  1  0.92735378  0.14689299  0.92600810  1
  O  O592  1  0.92631749  0.47904474  0.17520636  1
  O  O593  1  0.92849909  0.48175905  0.42656035  1
  O  O594  1  0.92596765  0.48034196  0.67479684  1
  O  O595  1  0.92810548  0.48109918  0.92690526  1
  O  O596  1  0.92701615  0.81256967  0.17458489  1
  O  O597  1  0.92711472  0.81508946  0.42615605  1
  O  O598  1  0.92820110  0.81427341  0.67759099  1
  O  O599  1  0.92837018  0.81456393  0.92639425  1
  O  O600  1  0.07224293  0.18663513  0.07395870  1
  O  O601  1  0.07204477  0.18851884  0.32526811  1
  O  O602  1  0.07174522  0.18619365  0.57298241  1
  O  O603  1  0.07262494  0.18555360  0.82423876  1
  O  O604  1  0.07119134  0.51955903  0.07352486  1
  O  O605  1  0.07287754  0.52150191  0.32409510  1
  O  O606  1  0.07305745  0.51905689  0.57371737  1
  O  O607  1  0.07314310  0.52173472  0.82541425  1
  O  O608  1  0.07186674  0.85317051  0.07250618  1
  O  O609  1  0.07408663  0.85425465  0.32521083  1
  O  O610  1  0.07228238  0.85364883  0.57447269  1
  O  O611  1  0.07129866  0.85366223  0.82302380  1
  O  O612  1  0.57318119  0.18742175  0.07418398  1
  O  O613  1  0.57318132  0.18630603  0.32610054  1
  O  O614  1  0.57172851  0.18531544  0.57374799  1
  O  O615  1  0.57301828  0.18788162  0.82492403  1
  O  O616  1  0.57232042  0.51926744  0.07401907  1
  O  O617  1  0.57309228  0.51985122  0.32405429  1
  O  O618  1  0.57385357  0.51759100  0.57383384  1
  O  O619  1  0.57402145  0.51882266  0.82634911  1
  O  O620  1  0.57448701  0.85251839  0.07504024  1
  O  O621  1  0.57313778  0.85175407  0.32446936  1
  O  O622  1  0.57339441  0.85380918  0.57495070  1
  O  O623  1  0.57355549  0.85379970  0.82415168  1
  O  O624  1  0.32320584  0.18614531  0.05008713  1
  O  O625  1  0.32240514  0.18594874  0.30189227  1
  O  O626  1  0.32365456  0.18658869  0.54891632  1
  O  O627  1  0.32267895  0.18400376  0.80022787  1
  O  O628  1  0.32333011  0.52032913  0.05012715  1
  O  O629  1  0.32215876  0.52026494  0.30116418  1
  O  O630  1  0.32342051  0.51924912  0.54859783  1
  O  O631  1  0.32399453  0.51968097  0.79950009  1
  O  O632  1  0.32317678  0.85200216  0.05091281  1
  O  O633  1  0.32403093  0.85303861  0.29982095  1
  O  O634  1  0.32202353  0.85257936  0.55084568  1
  O  O635  1  0.32293492  0.85190203  0.79992677  1
  O  O636  1  0.82285552  0.18719242  0.05041343  1
  O  O637  1  0.82235074  0.18577396  0.30141841  1
  O  O638  1  0.82368108  0.18678210  0.55044227  1
  O  O639  1  0.82189791  0.18654026  0.80352867  1
  O  O640  1  0.82418756  0.51959720  0.04944864  1
  O  O641  1  0.82411010  0.52032495  0.30093597  1
  O  O642  1  0.82305984  0.52123878  0.55007124  1
  O  O643  1  0.82420256  0.52173689  0.80017455  1
  O  O644  1  0.82281841  0.85459145  0.04957532  1
  O  O645  1  0.82399448  0.85210399  0.30091913  1
  O  O646  1  0.82441585  0.85358647  0.55079067  1
  O  O647  1  0.82361333  0.85446955  0.80112345  1
  O  O648  1  0.17517478  0.14709217  0.19990687  1
  O  O649  1  0.17643035  0.14720257  0.44968816  1
  O  O650  1  0.17636986  0.14504919  0.69891493  1
  O  O651  1  0.17651000  0.14752848  0.94806896  1
  O  O652  1  0.17578819  0.48036994  0.20078863  1
  O  O653  1  0.17730733  0.48029819  0.44789041  1
  O  O654  1  0.17565000  0.47964758  0.69942790  1
  O  O655  1  0.17594835  0.48048726  0.95001667  1
  O  O656  1  0.17637455  0.81502519  0.19899793  1
  O  O657  1  0.17661835  0.81311772  0.44935910  1
  O  O658  1  0.17655413  0.81475318  0.69806106  1
  O  O659  1  0.17669927  0.81531511  0.94786806  1
  O  O660  1  0.67658961  0.14552177  0.19973099  1
  O  O661  1  0.67735551  0.14810605  0.44867506  1
  O  O662  1  0.67655644  0.14741477  0.70131283  1
  O  O663  1  0.67862880  0.14752850  0.94918316  1
  O  O664  1  0.67727157  0.47849547  0.20041585  1
  O  O665  1  0.67732175  0.47942278  0.44958284  1
  O  O666  1  0.67647111  0.48043323  0.70113125  1
  O  O667  1  0.67745517  0.47907398  0.95092626  1
  O  O668  1  0.67650735  0.81313302  0.20085092  1
  O  O669  1  0.67851037  0.81405058  0.44895960  1
  O  O670  1  0.67749293  0.81280893  0.69993281  1
  O  O671  1  0.67659671  0.81254804  0.94956252  1
