# generated using pymatgen
data_Na2MnFe(PO4)2
_symmetry_space_group_name_H-M   'P 1'
_cell_length_a   22.34413873
_cell_length_b   20.09950876
_cell_length_c   19.44889542
_cell_angle_alpha   90.01080169
_cell_angle_beta   90.00180804
_cell_angle_gamma   89.95940750
_symmetry_Int_Tables_number   1
_chemical_formula_structural   Na2MnFe(PO4)2
_chemical_formula_sum   'Na96 Mn48 Fe48 P96 O384'
_cell_volume   8734.61739940
_cell_formula_units_Z   48
loop_
 _symmetry_equiv_pos_site_id
 _symmetry_equiv_pos_as_xyz
  1  'x, y, z'
loop_
 _atom_site_type_symbol
 _atom_site_label
 _atom_site_symmetry_multiplicity
 _atom_site_fract_x
 _atom_site_fract_y
 _atom_site_fract_z
 _atom_site_occupancy
  Na  Na0  1  0.13909078  0.24970382  0.24359859  1
  Na  Na1  1  0.14002356  0.24984580  0.49501520  1
  Na  Na2  1  0.14009871  0.24863990  0.74398808  1
  Na  Na3  1  0.13937321  0.24838410  0.99330737  1
  Na  Na4  1  0.14004531  0.58242683  0.24339597  1
  Na  Na5  1  0.13990406  0.58172919  0.49395065  1
  Na  Na6  1  0.13975994  0.58196429  0.74303609  1
  Na  Na7  1  0.13987700  0.58238336  0.99265127  1
  Na  Na8  1  0.13978394  0.91827634  0.24310087  1
  Na  Na9  1  0.14003378  0.91942241  0.49442080  1
  Na  Na10  1  0.14013283  0.91840709  0.74332085  1
  Na  Na11  1  0.13963438  0.91777046  0.99207536  1
  Na  Na12  1  0.64075304  0.24914066  0.24423295  1
  Na  Na13  1  0.64135643  0.25003353  0.49284687  1
  Na  Na14  1  0.64092369  0.24867739  0.74435153  1
  Na  Na15  1  0.63997752  0.24919488  0.99401637  1
  Na  Na16  1  0.64069223  0.58385704  0.24497773  1
  Na  Na17  1  0.64118542  0.58469442  0.49253806  1
  Na  Na18  1  0.64087634  0.58412743  0.74322527  1
  Na  Na19  1  0.64046398  0.58391719  0.99382527  1
  Na  Na20  1  0.64030843  0.91741233  0.24382224  1
  Na  Na21  1  0.64171823  0.91686987  0.49307944  1
  Na  Na22  1  0.64134121  0.91576065  0.74345947  1
  Na  Na23  1  0.64071301  0.91687314  0.99446089  1
  Na  Na24  1  0.35938193  0.08458986  0.00590110  1
  Na  Na25  1  0.35958490  0.08461954  0.25559280  1
  Na  Na26  1  0.35948565  0.08529134  0.50570740  1
  Na  Na27  1  0.35955558  0.08432185  0.75584374  1
  Na  Na28  1  0.35906660  0.41474014  0.00588892  1
  Na  Na29  1  0.35871942  0.41521870  0.25500266  1
  Na  Na30  1  0.35888890  0.41515544  0.50545301  1
  Na  Na31  1  0.35953309  0.41474920  0.75596900  1
  Na  Na32  1  0.36018098  0.75013430  0.00654853  1
  Na  Na33  1  0.35992581  0.74997844  0.25571302  1
  Na  Na34  1  0.35964897  0.75052131  0.50528075  1
  Na  Na35  1  0.35964233  0.75093557  0.75613015  1
  Na  Na36  1  0.86050164  0.08352803  0.00765320  1
  Na  Na37  1  0.85984680  0.08307887  0.25760039  1
  Na  Na38  1  0.85987789  0.08300613  0.50665250  1
  Na  Na39  1  0.86026597  0.08254214  0.75701607  1
  Na  Na40  1  0.85938150  0.41565391  0.00617165  1
  Na  Na41  1  0.85938383  0.41635297  0.25837203  1
  Na  Na42  1  0.85972992  0.41792974  0.50686813  1
  Na  Na43  1  0.85966831  0.41622632  0.75690630  1
  Na  Na44  1  0.86072057  0.75023037  0.00667532  1
  Na  Na45  1  0.85947240  0.75038908  0.25735763  1
  Na  Na46  1  0.85923672  0.75096623  0.50699526  1
  Na  Na47  1  0.86048899  0.75013616  0.75660395  1
  Na  Na48  1  0.10922254  0.08327173  0.11789370  1
  Na  Na49  1  0.10912560  0.08460722  0.36880138  1
  Na  Na50  1  0.11010723  0.08385507  0.61930178  1
  Na  Na51  1  0.10956944  0.08344124  0.86756560  1
  Na  Na52  1  0.10875149  0.41477468  0.11826224  1
  Na  Na53  1  0.10912509  0.41558196  0.36850509  1
  Na  Na54  1  0.10939790  0.41570806  0.61955180  1
  Na  Na55  1  0.10878488  0.41570682  0.86784131  1
  Na  Na56  1  0.10863148  0.75101808  0.11790380  1
  Na  Na57  1  0.10926859  0.75098568  0.36893355  1
  Na  Na58  1  0.10939034  0.75028887  0.61928479  1
  Na  Na59  1  0.10878052  0.75017086  0.86842011  1
  Na  Na60  1  0.61032912  0.08262351  0.11875723  1
  Na  Na61  1  0.61037096  0.08302229  0.36799262  1
  Na  Na62  1  0.61053688  0.08290282  0.61819813  1
  Na  Na63  1  0.61055935  0.08393886  0.86989854  1
  Na  Na64  1  0.60943507  0.41664197  0.11919114  1
  Na  Na65  1  0.60993356  0.41755188  0.36860656  1
  Na  Na66  1  0.60997748  0.41640485  0.61759412  1
  Na  Na67  1  0.60957647  0.41603975  0.86929349  1
  Na  Na68  1  0.60996542  0.74994988  0.11994805  1
  Na  Na69  1  0.61007270  0.75065569  0.36821237  1
  Na  Na70  1  0.61094726  0.75009693  0.61778300  1
  Na  Na71  1  0.61029392  0.74957048  0.86934198  1
  Na  Na72  1  0.38928368  0.24916921  0.13068434  1
  Na  Na73  1  0.38938156  0.25002985  0.38111679  1
  Na  Na74  1  0.38993242  0.24939298  0.63062542  1
  Na  Na75  1  0.38973584  0.24978738  0.88196790  1
  Na  Na76  1  0.39066805  0.58430836  0.13032749  1
  Na  Na77  1  0.39013407  0.58413898  0.37995706  1
  Na  Na78  1  0.39060306  0.58364381  0.63003401  1
  Na  Na79  1  0.39074121  0.58314972  0.88124584  1
  Na  Na80  1  0.39092961  0.91560972  0.13042109  1
  Na  Na81  1  0.39070216  0.91699325  0.38046679  1
  Na  Na82  1  0.39056797  0.91754421  0.63055518  1
  Na  Na83  1  0.39079986  0.91709097  0.88134129  1
  Na  Na84  1  0.89012096  0.24812050  0.13269823  1
  Na  Na85  1  0.88966314  0.25012412  0.38200308  1
  Na  Na86  1  0.89009229  0.25018827  0.63303572  1
  Na  Na87  1  0.89015922  0.24825446  0.88164460  1
  Na  Na88  1  0.89063789  0.58319884  0.13145718  1
  Na  Na89  1  0.89014719  0.58347292  0.38290473  1
  Na  Na90  1  0.89082052  0.58365731  0.63252610  1
  Na  Na91  1  0.89041722  0.58462645  0.88078208  1
  Na  Na92  1  0.89036699  0.91777959  0.13182579  1
  Na  Na93  1  0.88981331  0.91748071  0.38200875  1
  Na  Na94  1  0.89056794  0.91709688  0.63250222  1
  Na  Na95  1  0.89125401  0.91678607  0.88140146  1
  Mn  Mn96  1  0.74997151  0.33188401  0.87610050  1
  Mn  Mn97  1  0.75026931  0.49986458  0.12602418  1
  Mn  Mn98  1  -0.00016222  0.16613829  0.50066166  1
  Mn  Mn99  1  0.50061500  -0.00067039  0.00011904  1
  Mn  Mn100  1  0.50059546  0.33274042  0.74945767  1
  Mn  Mn101  1  0.00000056  0.66635030  0.50037782  1
  Mn  Mn102  1  0.00012894  0.83469074  0.50019858  1
  Mn  Mn103  1  0.24947963  0.83401949  0.12409471  1
  Mn  Mn104  1  0.75071322  0.66664817  0.12618318  1
  Mn  Mn105  1  -0.00122875  0.33195657  -0.00066909  1
  Mn  Mn106  1  0.49962665  0.50123196  0.49878654  1
  Mn  Mn107  1  0.25019308  0.49796888  0.62417370  1
  Mn  Mn108  1  0.75066163  0.16634356  0.62450344  1
  Mn  Mn109  1  0.50073585  0.83297903  0.49961440  1
  Mn  Mn110  1  0.74924966  0.33228554  0.12628954  1
  Mn  Mn111  1  0.25001502  0.00209710  0.37408768  1
  Mn  Mn112  1  0.74965248  0.83425799  0.12575087  1
  Mn  Mn113  1  0.50066157  0.00042673  0.49967744  1
  Mn  Mn114  1  0.25005053  0.49801880  0.87418550  1
  Mn  Mn115  1  0.24982489  0.49806047  0.37400634  1
  Mn  Mn116  1  0.25006902  0.66633911  0.87441478  1
  Mn  Mn117  1  -0.00034175  0.66684917  0.25008391  1
  Mn  Mn118  1  0.24953609  0.83455670  0.37495181  1
  Mn  Mn119  1  -0.00078683  0.83481424  0.24937987  1
  Mn  Mn120  1  0.50071888  0.16594653  0.24960253  1
  Mn  Mn121  1  0.49918125  0.50112562  0.24876191  1
  Mn  Mn122  1  0.50028766  0.66702573  0.75002220  1
  Mn  Mn123  1  0.24923556  0.66653133  0.37457468  1
  Mn  Mn124  1  0.49966072  0.33296565  0.49923572  1
  Mn  Mn125  1  0.24923192  0.66618161  0.12445741  1
  Mn  Mn126  1  0.00024714  0.49936216  0.24985054  1
  Mn  Mn127  1  -0.00112071  0.50035302  -0.00059594  1
  Mn  Mn128  1  0.49988577  0.33305054  0.24959499  1
  Mn  Mn129  1  0.75093668  0.83287620  0.87450541  1
  Mn  Mn130  1  0.50042823  0.83319383  0.75013925  1
  Mn  Mn131  1  0.25039504  0.00166516  0.12414731  1
  Mn  Mn132  1  0.75079576  0.00052573  0.87500288  1
  Mn  Mn133  1  0.24972134  0.49801128  0.12385695  1
  Mn  Mn134  1  0.50079473  0.00028903  0.75050269  1
  Mn  Mn135  1  0.74956349  0.50025438  0.87518969  1
  Mn  Mn136  1  0.24984192  0.66654050  0.62456547  1
  Mn  Mn137  1  0.50032123  0.50012961  0.00003168  1
  Mn  Mn138  1  -0.00026967  0.33382179  0.50119247  1
  Mn  Mn139  1  0.24968887  0.83513150  0.62533162  1
  Mn  Mn140  1  0.50038312  0.16675485  0.75016984  1
  Mn  Mn141  1  0.75021662  0.50007548  0.62504346  1
  Mn  Mn142  1  0.24963691  0.83465312  0.87461588  1
  Mn  Mn143  1  0.50031492  0.49997549  0.75008841  1
  Fe  Fe144  1  0.00042987  0.00032261  0.24953514  1
  Fe  Fe145  1  -0.00052656  0.16604810  0.75049530  1
  Fe  Fe146  1  0.75037263  0.16587214  0.87545768  1
  Fe  Fe147  1  -0.00060244  0.16600558  0.25034430  1
  Fe  Fe148  1  0.75033322  0.83412885  0.37573298  1
  Fe  Fe149  1  0.75016295  0.33338716  0.62470678  1
  Fe  Fe150  1  0.75038491  -0.00009123  0.62494465  1
  Fe  Fe151  1  0.50097329  0.83281019  0.00094647  1
  Fe  Fe152  1  -0.00036047  0.33303769  0.75039256  1
  Fe  Fe153  1  -0.00019352  0.00046073  0.50087515  1
  Fe  Fe154  1  -0.00017004  0.50004088  0.75056111  1
  Fe  Fe155  1  0.24890206  0.33189890  0.37491508  1
  Fe  Fe156  1  0.00006796  0.49970552  0.50088001  1
  Fe  Fe157  1  0.75017457  0.16646583  0.37534971  1
  Fe  Fe158  1  0.50028461  0.16631636  0.49938168  1
  Fe  Fe159  1  0.50000147  0.16615717  0.00027699  1
  Fe  Fe160  1  0.24982219  0.16673449  0.87436705  1
  Fe  Fe161  1  0.25014551  0.16703710  0.62533625  1
  Fe  Fe162  1  0.75054798  0.00056329  0.12573231  1
  Fe  Fe163  1  0.75020460  0.00024541  0.37515088  1
  Fe  Fe164  1  0.75061915  0.66722953  0.62411694  1
  Fe  Fe165  1  -0.00024348  0.83403486  -0.00045813  1
  Fe  Fe166  1  0.24971988  0.33194026  0.62525499  1
  Fe  Fe167  1  0.74994346  0.33341118  0.37542891  1
  Fe  Fe168  1  0.25049598  0.00128785  0.87409087  1
  Fe  Fe169  1  0.75045649  0.16621564  0.12610004  1
  Fe  Fe170  1  0.49991843  0.66726113  0.49927446  1
  Fe  Fe171  1  0.49999013  0.83301179  0.24986304  1
  Fe  Fe172  1  0.50028654  0.66746785  0.24961003  1
  Fe  Fe173  1  0.00021062  0.66714197  -0.00035746  1
  Fe  Fe174  1  -0.00117387  0.33280489  0.24994802  1
  Fe  Fe175  1  0.00034566  0.66691527  0.75026194  1
  Fe  Fe176  1  0.00010891  0.00029091  -0.00044493  1
  Fe  Fe177  1  0.75069460  0.83315408  0.62450724  1
  Fe  Fe178  1  0.24932008  0.16756693  0.37528822  1
  Fe  Fe179  1  0.00037709  0.83382856  0.75058170  1
  Fe  Fe180  1  0.00007568  0.00034534  0.75108343  1
  Fe  Fe181  1  0.24880304  0.33169210  0.12498073  1
  Fe  Fe182  1  0.49947953  0.33285146  -0.00011455  1
  Fe  Fe183  1  0.75036166  0.66731804  0.37562362  1
  Fe  Fe184  1  0.50074103  0.66726065  0.00064128  1
  Fe  Fe185  1  0.24896906  0.16719421  0.12437223  1
  Fe  Fe186  1  0.75030064  0.50026683  0.37617343  1
  Fe  Fe187  1  0.24928458  0.33167169  0.87522433  1
  Fe  Fe188  1  0.49956083  -0.00032715  0.24932366  1
  Fe  Fe189  1  0.25042395  0.00157678  0.62444372  1
  Fe  Fe190  1  0.75051987  0.66696845  0.87474363  1
  Fe  Fe191  1  -0.00016887  0.16580218  0.00050971  1
  P  P192  1  0.04118917  0.24812289  0.10307061  1
  P  P193  1  0.04026783  0.24995484  0.35166004  1
  P  P194  1  0.04177180  0.24967023  0.60453618  1
  P  P195  1  0.04062507  0.24895342  0.85181286  1
  P  P196  1  0.04206695  0.58423812  0.10187483  1
  P  P197  1  0.04258429  0.58289551  0.35361560  1
  P  P198  1  0.04191301  0.58175962  0.60377010  1
  P  P199  1  0.04116473  0.58364873  0.85194585  1
  P  P200  1  0.04107682  0.91761602  0.10114595  1
  P  P201  1  0.04198372  0.91895632  0.35263533  1
  P  P202  1  0.04195506  0.91841252  0.60387769  1
  P  P203  1  0.04149991  0.91678876  0.85235375  1
  P  P204  1  0.54124556  0.24960503  0.10152749  1
  P  P205  1  0.54277279  0.24946498  0.35324781  1
  P  P206  1  0.54281508  0.24847796  0.60163060  1
  P  P207  1  0.54273977  0.24991416  0.85434450  1
  P  P208  1  0.54262891  0.58519839  0.10287272  1
  P  P209  1  0.54193994  0.58533452  0.35209426  1
  P  P210  1  0.54301623  0.58497179  0.60157633  1
  P  P211  1  0.54335119  0.58369799  0.85371409  1
  P  P212  1  0.54256216  0.91494897  0.10367792  1
  P  P213  1  0.54146237  0.91678104  0.35101822  1
  P  P214  1  0.54382332  0.91672190  0.60272258  1
  P  P215  1  0.54376870  0.91620413  0.85392976  1
  P  P216  1  0.45813482  0.08196447  0.14669688  1
  P  P217  1  0.45792418  0.08408988  0.39668006  1
  P  P218  1  0.45769927  0.08357556  0.64641160  1
  P  P219  1  0.45801143  0.08417329  0.89795990  1
  P  P220  1  0.45699143  0.41622245  0.14573000  1
  P  P221  1  0.45669911  0.41713453  0.39607368  1
  P  P222  1  0.45735714  0.41671454  0.64640174  1
  P  P223  1  0.45772991  0.41543535  0.89760119  1
  P  P224  1  0.45873880  0.75019932  0.14764416  1
  P  P225  1  0.45794603  0.74931693  0.39628199  1
  P  P226  1  0.45737646  0.75005569  0.64627526  1
  P  P227  1  0.45879716  0.75023037  0.89904810  1
  P  P228  1  0.95850087  0.08304918  0.14809209  1
  P  P229  1  0.95792672  0.08214245  0.39729018  1
  P  P230  1  0.95881320  0.08292639  0.64884518  1
  P  P231  1  0.95880212  0.08324569  0.89806203  1
  P  P232  1  0.95680078  0.41490305  0.14759612  1
  P  P233  1  0.95777197  0.41760678  0.39794347  1
  P  P234  1  0.95851383  0.41706659  0.64899065  1
  P  P235  1  0.95683027  0.41649953  0.89590069  1
  P  P236  1  0.95694619  0.75039834  0.14603907  1
  P  P237  1  0.95700766  0.75077850  0.39751941  1
  P  P238  1  0.95907882  0.75056542  0.64900024  1
  P  P239  1  0.95913776  0.75047334  0.89763710  1
  P  P240  1  0.20731364  0.08585684  0.22718694  1
  P  P241  1  0.20758321  0.08560345  0.47813724  1
  P  P242  1  0.20881811  0.08383717  0.72706186  1
  P  P243  1  0.20819684  0.08413824  0.97595361  1
  P  P244  1  0.20682641  0.41395314  0.22720283  1
  P  P245  1  0.20718064  0.41386200  0.47750591  1
  P  P246  1  0.20772183  0.41367241  0.72771755  1
  P  P247  1  0.20691258  0.41371229  0.97732718  1
  P  P248  1  0.20645791  0.75048235  0.22762411  1
  P  P249  1  0.20669261  0.75077389  0.47813895  1
  P  P250  1  0.20717701  0.75070293  0.72795353  1
  P  P251  1  0.20696856  0.75027556  0.97745253  1
  P  P252  1  0.70892648  0.08330397  0.22779153  1
  P  P253  1  0.70932753  0.08296930  0.47683738  1
  P  P254  1  0.70833259  0.08217843  0.72739524  1
  P  P255  1  0.70870631  0.08433412  0.97889598  1
  P  P256  1  0.70733392  0.41645749  0.23001287  1
  P  P257  1  0.70870218  0.41663826  0.47718934  1
  P  P258  1  0.70791194  0.41522322  0.72738024  1
  P  P259  1  0.70694816  0.41621128  0.97867174  1
  P  P260  1  0.70791391  0.75064946  0.22967676  1
  P  P261  1  0.70929495  0.75079111  0.47721413  1
  P  P262  1  0.70965114  0.74970342  0.72625586  1
  P  P263  1  0.70862622  0.74918153  0.97748207  1
  P  P264  1  0.29078061  0.24950735  0.02238755  1
  P  P265  1  0.29083484  0.24961461  0.27254031  1
  P  P266  1  0.29112693  0.24973593  0.52285092  1
  P  P267  1  0.29137087  0.24951148  0.77277136  1
  P  P268  1  0.29261817  0.58221636  0.02126447  1
  P  P269  1  0.29231215  0.58240425  0.27114018  1
  P  P270  1  0.29255237  0.58229382  0.52126481  1
  P  P271  1  0.29291963  0.58222591  0.77131893  1
  P  P272  1  0.29258723  0.91815716  0.02070720  1
  P  P273  1  0.29260753  0.91793113  0.27125602  1
  P  P274  1  0.29236187  0.91925761  0.52216565  1
  P  P275  1  0.29246774  0.91927995  0.77176955  1
  P  P276  1  0.79212762  0.24809469  0.02334766  1
  P  P277  1  0.79118211  0.24946866  0.27395882  1
  P  P278  1  0.79262036  0.25157082  0.52202064  1
  P  P279  1  0.79245395  0.24803489  0.77278381  1
  P  P280  1  0.79295063  0.58341296  0.02201386  1
  P  P281  1  0.79170578  0.58329108  0.27463468  1
  P  P282  1  0.79242328  0.58471686  0.52202350  1
  P  P283  1  0.79197604  0.58482435  0.77204801  1
  P  P284  1  0.79246334  0.91824015  0.02313833  1
  P  P285  1  0.79137754  0.91718473  0.27374411  1
  P  P286  1  0.79160388  0.91688937  0.52306893  1
  P  P287  1  0.79329211  0.91665834  0.77118550  1
  O  O288  1  0.03583847  0.24854077  0.18292426  1
  O  O289  1  0.03572906  0.24985931  0.43163963  1
  O  O290  1  0.03639649  0.24956352  0.68435209  1
  O  O291  1  0.03567264  0.24853455  0.93176402  1
  O  O292  1  0.03698573  0.58369761  0.18188123  1
  O  O293  1  0.03753737  0.58234075  0.43363011  1
  O  O294  1  0.03624490  0.58186209  0.68365611  1
  O  O295  1  0.03605975  0.58440514  0.93188298  1
  O  O296  1  0.03643450  0.91785448  0.18112786  1
  O  O297  1  0.03677235  0.91912804  0.43258375  1
  O  O298  1  0.03663659  0.91776975  0.68374766  1
  O  O299  1  0.03631973  0.91709218  0.93220152  1
  O  O300  1  0.53657088  0.24945003  0.18156105  1
  O  O301  1  0.53764900  0.24887893  0.43316542  1
  O  O302  1  0.53792372  0.24888322  0.68167197  1
  O  O303  1  0.53729987  0.24995688  0.93427160  1
  O  O304  1  0.53700928  0.58538493  0.18278539  1
  O  O305  1  0.53655017  0.58540108  0.43201220  1
  O  O306  1  0.53826454  0.58445300  0.68162000  1
  O  O307  1  0.53828238  0.58412930  0.93369377  1
  O  O308  1  0.53654670  0.91527497  0.18349680  1
  O  O309  1  0.53675104  0.91687927  0.43101367  1
  O  O310  1  0.53909761  0.91674229  0.68272896  1
  O  O311  1  0.53870208  0.91552914  0.93392683  1
  O  O312  1  0.46359079  0.08275909  0.06679251  1
  O  O313  1  0.46312558  0.08313417  0.31671427  1
  O  O314  1  0.46271687  0.08402306  0.56642758  1
  O  O315  1  0.46301306  0.08409313  0.81799301  1
  O  O316  1  0.46264123  0.41558691  0.06580916  1
  O  O317  1  0.46169635  0.41713066  0.31609489  1
  O  O318  1  0.46221298  0.41678698  0.56640475  1
  O  O319  1  0.46295387  0.41560852  0.81759290  1
  O  O320  1  0.46421819  0.75025921  0.06775845  1
  O  O321  1  0.46339716  0.74980557  0.31638469  1
  O  O322  1  0.46218866  0.74967538  0.56628872  1
  O  O323  1  0.46367724  0.75030390  0.81902733  1
  O  O324  1  0.96328939  0.08371886  0.06821092  1
  O  O325  1  0.96324609  0.08232928  0.31743057  1
  O  O326  1  0.96346411  0.08227362  0.56889111  1
  O  O327  1  0.96388367  0.08331049  0.81819053  1
  O  O328  1  0.96158684  0.41506385  0.06760231  1
  O  O329  1  0.96279768  0.41677991  0.31801166  1
  O  O330  1  0.96345738  0.41733629  0.56899420  1
  O  O331  1  0.96243016  0.41672372  0.81604226  1
  O  O332  1  0.96236077  0.74998562  0.06612295  1
  O  O333  1  0.96168666  0.75096372  0.31752623  1
  O  O334  1  0.96386850  0.75022765  0.56905989  1
  O  O335  1  0.96463598  0.75091615  0.81776417  1
  O  O336  1  0.21289097  0.08468535  0.05593783  1
  O  O337  1  0.21245099  0.08608013  0.30712033  1
  O  O338  1  0.21314349  0.08502608  0.55799666  1
  O  O339  1  0.21394013  0.08367072  0.80694965  1
  O  O340  1  0.21200870  0.41366485  0.05730270  1
  O  O341  1  0.21206405  0.41396742  0.30717166  1
  O  O342  1  0.21263447  0.41383546  0.55746173  1
  O  O343  1  0.21292723  0.41366241  0.80765673  1
  O  O344  1  0.21172466  0.75030817  0.05747225  1
  O  O345  1  0.21148628  0.75056222  0.30766544  1
  O  O346  1  0.21203093  0.75089656  0.55812149  1
  O  O347  1  0.21234911  0.75073882  0.80791621  1
  O  O348  1  0.71413685  0.08397788  0.05878208  1
  O  O349  1  0.71405191  0.08325269  0.30766156  1
  O  O350  1  0.71409275  0.08260081  0.55676704  1
  O  O351  1  0.71351430  0.08304727  0.80733553  1
  O  O352  1  0.71189615  0.41624238  0.05868337  1
  O  O353  1  0.71276961  0.41654123  0.30994568  1
  O  O354  1  0.71393624  0.41615798  0.55717579  1
  O  O355  1  0.71296811  0.41538213  0.80734054  1
  O  O356  1  0.71343417  0.74954842  0.05744298  1
  O  O357  1  0.71318814  0.75105417  0.30955135  1
  O  O358  1  0.71448933  0.75034205  0.55710800  1
  O  O359  1  0.71442045  0.74960072  0.80623720  1
  O  O360  1  0.28553662  0.24945978  0.19266720  1
  O  O361  1  0.28577025  0.24969622  0.44299605  1
  O  O362  1  0.28645199  0.24941603  0.69287156  1
  O  O363  1  0.28580010  0.24942340  0.94251650  1
  O  O364  1  0.28711835  0.58231524  0.19116206  1
  O  O365  1  0.28725578  0.58225086  0.44128606  1
  O  O366  1  0.28776547  0.58224833  0.69133570  1
  O  O367  1  0.28778942  0.58214315  0.94126125  1
  O  O368  1  0.28754538  0.91782070  0.19127005  1
  O  O369  1  0.28711087  0.91899635  0.44218156  1
  O  O370  1  0.28719028  0.91944205  0.69180203  1
  O  O371  1  0.28752845  0.91868601  0.94072945  1
  O  O372  1  0.78610513  0.24867373  0.19401783  1
  O  O373  1  0.78716433  0.25158238  0.44217413  1
  O  O374  1  0.78759305  0.24851560  0.69286235  1
  O  O375  1  0.78716181  0.24772380  0.94337589  1
  O  O376  1  0.78706851  0.58318860  0.19461017  1
  O  O377  1  0.78692032  0.58414232  0.44215745  1
  O  O378  1  0.78674778  0.58492803  0.69208093  1
  O  O379  1  0.78772774  0.58378791  0.94203424  1
  O  O380  1  0.78642875  0.91795875  0.19382024  1
  O  O381  1  0.78653301  0.91654877  0.44318357  1
  O  O382  1  0.78823148  0.91679125  0.69130701  1
  O  O383  1  0.78774243  0.91807317  0.94316962  1
  O  O384  1  0.22657450  0.24934017  0.05853883  1
  O  O385  1  0.22672934  0.24949537  0.30905137  1
  O  O386  1  0.22717262  0.24967559  0.55952701  1
  O  O387  1  0.22715948  0.24945106  0.80884269  1
  O  O388  1  0.22804700  0.58198569  0.05592620  1
  O  O389  1  0.22792985  0.58210966  0.30629856  1
  O  O390  1  0.22818372  0.58197951  0.55647497  1
  O  O391  1  0.22841579  0.58211231  0.80622504  1
  O  O392  1  0.22816511  0.91823104  0.05583052  1
  O  O393  1  0.22815000  0.91817865  0.30624355  1
  O  O394  1  0.22807994  0.91966965  0.55780327  1
  O  O395  1  0.22815329  0.91937435  0.80739834  1
  O  O396  1  0.72779684  0.24774008  0.05890693  1
  O  O397  1  0.72713889  0.25021743  0.31004561  1
  O  O398  1  0.72846303  0.25134544  0.55814230  1
  O  O399  1  0.72816862  0.24753989  0.80850337  1
  O  O400  1  0.72862988  0.58335615  0.05744551  1
  O  O401  1  0.72751167  0.58289801  0.31026837  1
  O  O402  1  0.72830957  0.58495559  0.55816547  1
  O  O403  1  0.72781128  0.58526091  0.80802232  1
  O  O404  1  0.72811391  0.91881550  0.05855397  1
  O  O405  1  0.72726741  0.91638392  0.30980769  1
  O  O406  1  0.72761823  0.91729959  0.55945153  1
  O  O407  1  0.72905857  0.91672648  0.80683875  1
  O  O408  1  0.27163091  0.08622669  0.19155098  1
  O  O409  1  0.27167898  0.08620566  0.44183395  1
  O  O410  1  0.27282261  0.08400963  0.69060190  1
  O  O411  1  0.27249988  0.08408613  0.94029920  1
  O  O412  1  0.27108549  0.41369551  0.19145060  1
  O  O413  1  0.27134395  0.41342731  0.44150827  1
  O  O414  1  0.27194062  0.41352456  0.69185695  1
  O  O415  1  0.27128981  0.41352313  0.94186629  1
  O  O416  1  0.27097120  0.75044855  0.19276350  1
  O  O417  1  0.27109228  0.75067846  0.44298350  1
  O  O418  1  0.27158242  0.75092863  0.69292593  1
  O  O419  1  0.27152867  0.75057063  0.94280376  1
  O  O420  1  0.77306289  0.08339152  0.19153047  1
  O  O421  1  0.77347011  0.08304620  0.44112403  1
  O  O422  1  0.77259184  0.08167092  0.69160427  1
  O  O423  1  0.77283735  0.08479912  0.94263666  1
  O  O424  1  0.77157503  0.41594205  0.19431492  1
  O  O425  1  0.77280167  0.41680024  0.44106184  1
  O  O426  1  0.77225365  0.41526456  0.69184711  1
  O  O427  1  0.77131781  0.41628002  0.94353701  1
  O  O428  1  0.77209928  0.75087551  0.19389074  1
  O  O429  1  0.77324098  0.75159505  0.44076679  1
  O  O430  1  0.77382359  0.74935785  0.69039363  1
  O  O431  1  0.77298687  0.74859286  0.94201441  1
  O  O432  1  0.02267651  0.08263122  0.18403595  1
  O  O433  1  0.02202285  0.08160708  0.43360811  1
  O  O434  1  0.02293610  0.08402919  0.68478408  1
  O  O435  1  0.02288375  0.08354257  0.93436368  1
  O  O436  1  0.02125465  0.41436397  0.18279960  1
  O  O437  1  0.02202384  0.41821998  0.43376904  1
  O  O438  1  0.02260471  0.41734781  0.68500407  1
  O  O439  1  0.02091361  0.41619090  0.93190998  1
  O  O440  1  0.02115912  0.75075747  0.18184223  1
  O  O441  1  0.02146950  0.75062417  0.43240180  1
  O  O442  1  0.02318617  0.75122595  0.68491431  1
  O  O443  1  0.02294592  0.75012022  0.93449027  1
  O  O444  1  0.52233744  0.08122526  0.18259265  1
  O  O445  1  0.52229585  0.08486246  0.43228277  1
  O  O446  1  0.52215865  0.08341784  0.68149106  1
  O  O447  1  0.52236596  0.08416799  0.93328470  1
  O  O448  1  0.52122820  0.41685952  0.18133685  1
  O  O449  1  0.52116004  0.41703360  0.43101976  1
  O  O450  1  0.52191290  0.41664294  0.68123289  1
  O  O451  1  0.52197603  0.41514469  0.93319248  1
  O  O452  1  0.52271038  0.75017934  0.18425966  1
  O  O453  1  0.52217212  0.74856251  0.43238220  1
  O  O454  1  0.52195277  0.75016432  0.68108745  1
  O  O455  1  0.52310686  0.75014553  0.93476656  1
  O  O456  1  0.47697876  0.24962988  0.06597548  1
  O  O457  1  0.47839938  0.24928294  0.31804179  1
  O  O458  1  0.47832309  0.24800819  0.56648155  1
  O  O459  1  0.47847372  0.25010213  0.81869293  1
  O  O460  1  0.47849529  0.58523054  0.06683764  1
  O  O461  1  0.47776184  0.58576561  0.31613188  1
  O  O462  1  0.47846296  0.58564749  0.56652663  1
  O  O463  1  0.47892039  0.58352006  0.81850738  1
  O  O464  1  0.47864291  0.91469082  0.06695951  1
  O  O465  1  0.47728408  0.91695121  0.31520196  1
  O  O466  1  0.47930278  0.91669925  0.56798993  1
  O  O467  1  0.47931073  0.91666459  0.81877037  1
  O  O468  1  0.97703406  0.24750171  0.06690598  1
  O  O469  1  0.97610770  0.25023383  0.31588963  1
  O  O470  1  0.97765426  0.24975281  0.56861910  1
  O  O471  1  0.97655721  0.24865598  0.81576017  1
  O  O472  1  0.97770282  0.58519451  0.06648048  1
  O  O473  1  0.97817954  0.58285793  0.31842707  1
  O  O474  1  0.97787193  0.58146045  0.56728824  1
  O  O475  1  0.97711433  0.58307545  0.81582527  1
  O  O476  1  0.97690685  0.91775296  0.06539408  1
  O  O477  1  0.97768894  0.91937278  0.31686576  1
  O  O478  1  0.97778442  0.91894883  0.56769946  1
  O  O479  1  0.97752604  0.91602118  0.81594488  1
  O  O480  1  0.07196015  0.31168059  0.07449475  1
  O  O481  1  0.07117586  0.31348548  0.32345412  1
  O  O482  1  0.07298487  0.31298098  0.57603655  1
  O  O483  1  0.07073567  0.31319272  0.82386759  1
  O  O484  1  0.07332498  0.64746384  0.07368018  1
  O  O485  1  0.07331130  0.64668646  0.32571538  1
  O  O486  1  0.07291629  0.64554345  0.57606815  1
  O  O487  1  0.07173971  0.64724559  0.82307564  1
  O  O488  1  0.07228609  0.98093135  0.07263585  1
  O  O489  1  0.07332012  0.98191495  0.32372918  1
  O  O490  1  0.07299533  0.98178857  0.57542000  1
  O  O491  1  0.07158042  0.98091406  0.82375285  1
  O  O492  1  0.57209293  0.31327804  0.07365947  1
  O  O493  1  0.57341665  0.31328659  0.32537429  1
  O  O494  1  0.57348924  0.31226425  0.57372195  1
  O  O495  1  0.57408873  0.31304027  0.82558440  1
  O  O496  1  0.57372268  0.64844874  0.07433876  1
  O  O497  1  0.57332960  0.64841990  0.32367750  1
  O  O498  1  0.57384065  0.64835144  0.57303336  1
  O  O499  1  0.57446467  0.64687214  0.82500033  1
  O  O500  1  0.57378694  0.97849315  0.07574743  1
  O  O501  1  0.57229761  0.98043873  0.32292057  1
  O  O502  1  0.57471109  0.98011886  0.57426222  1
  O  O503  1  0.57466767  0.97995368  0.82617399  1
  O  O504  1  0.42721048  0.01837890  0.17473460  1
  O  O505  1  0.42702187  0.02060252  0.42498845  1
  O  O506  1  0.42699764  0.01993641  0.67471516  1
  O  O507  1  0.42694022  0.02058034  0.92557868  1
  O  O508  1  0.42599389  0.35289910  0.17426888  1
  O  O509  1  0.42574820  0.35361457  0.42418791  1
  O  O510  1  0.42650511  0.35310174  0.67447239  1
  O  O511  1  0.42683034  0.35195536  0.92593790  1
  O  O512  1  0.42766663  0.68664261  0.17579377  1
  O  O513  1  0.42668394  0.68614138  0.42480741  1
  O  O514  1  0.42622101  0.68696775  0.67515163  1
  O  O515  1  0.42806794  0.68645358  0.92697159  1
  O  O516  1  0.92737544  0.01959046  0.17637103  1
  O  O517  1  0.92664971  0.01914409  0.42624616  1
  O  O518  1  0.92872504  0.01920304  0.67801915  1
  O  O519  1  0.92823129  0.01940085  0.92638856  1
  O  O520  1  0.92599282  0.35150337  0.17621379  1
  O  O521  1  0.92694252  0.35404649  0.42631353  1
  O  O522  1  0.92845528  0.35275973  0.67698612  1
  O  O523  1  0.92539117  0.35313729  0.92396200  1
  O  O524  1  0.92581676  0.68717949  0.17490078  1
  O  O525  1  0.92606628  0.68734655  0.42572570  1
  O  O526  1  0.92898031  0.68644953  0.67728987  1
  O  O527  1  0.92780645  0.68701333  0.92553014  1
  O  O528  1  0.17682815  0.02185823  0.19928261  1
  O  O529  1  0.17668447  0.02208628  0.44963222  1
  O  O530  1  0.17798396  0.02033204  0.69837917  1
  O  O531  1  0.17769779  0.02026316  0.94778690  1
  O  O532  1  0.17580025  0.35068841  0.19857737  1
  O  O533  1  0.17589774  0.35069091  0.44898790  1
  O  O534  1  0.17667135  0.35040333  0.69920979  1
  O  O535  1  0.17585622  0.35049737  0.94860913  1
  O  O536  1  0.17548688  0.68691576  0.19964646  1
  O  O537  1  0.17562047  0.68722499  0.45026007  1
  O  O538  1  0.17631545  0.68706969  0.70002758  1
  O  O539  1  0.17622075  0.68663363  0.94937126  1
  O  O540  1  0.67818110  0.01968479  0.19918047  1
  O  O541  1  0.67822204  0.01968939  0.44803959  1
  O  O542  1  0.67754546  0.01854086  0.69925103  1
  O  O543  1  0.67764747  0.02077749  0.95068962  1
  O  O544  1  0.67581776  0.35322514  0.20165011  1
  O  O545  1  0.67763300  0.35327643  0.44878506  1
  O  O546  1  0.67742059  0.35159197  0.69885353  1
  O  O547  1  0.67614886  0.35258141  0.95069442  1
  O  O548  1  0.67704585  0.68700655  0.20155242  1
  O  O549  1  0.67912829  0.68684303  0.44841832  1
  O  O550  1  0.67813538  0.68664359  0.69775758  1
  O  O551  1  0.67774692  0.68585035  0.94886591  1
  O  O552  1  0.32150809  0.31298903  0.05119024  1
  O  O553  1  0.32160311  0.31326526  0.30095080  1
  O  O554  1  0.32212155  0.31326753  0.55123731  1
  O  O555  1  0.32218179  0.31295290  0.80154559  1
  O  O556  1  0.32336829  0.64583381  0.04944057  1
  O  O557  1  0.32307434  0.64606467  0.29917326  1
  O  O558  1  0.32334949  0.64595606  0.54924624  1
  O  O559  1  0.32391392  0.64577128  0.79940580  1
  O  O560  1  0.32389916  0.98125914  0.04935010  1
  O  O561  1  0.32356548  0.98152839  0.29915094  1
  O  O562  1  0.32326712  0.98280100  0.55023673  1
  O  O563  1  0.32344807  0.98248729  0.80056551  1
  O  O564  1  0.82263388  0.31219327  0.05095500  1
  O  O565  1  0.82248005  0.31299254  0.30164765  1
  O  O566  1  0.82326157  0.31495534  0.55121280  1
  O  O567  1  0.82336004  0.31156427  0.80105947  1
  O  O568  1  0.82418541  0.64656179  0.05065229  1
  O  O569  1  0.82191923  0.64743825  0.30263048  1
  O  O570  1  0.82347947  0.64818255  0.55033100  1
  O  O571  1  0.82316960  0.64797124  0.80078221  1
  O  O572  1  0.82339009  0.98154684  0.05181047  1
  O  O573  1  0.82167716  0.98096274  0.30256867  1
  O  O574  1  0.82285841  0.98033246  0.55124109  1
  O  O575  1  0.82452409  0.97983928  0.79996020  1
  O  O576  1  0.42706652  0.14549358  0.17485394  1
  O  O577  1  0.42707707  0.14770772  0.42493531  1
  O  O578  1  0.42642705  0.14676370  0.67502104  1
  O  O579  1  0.42731123  0.14774015  0.92651738  1
  O  O580  1  0.42569426  0.47988823  0.17317426  1
  O  O581  1  0.42569955  0.48062644  0.42413437  1
  O  O582  1  0.42650271  0.48020796  0.67478901  1
  O  O583  1  0.42670000  0.47916983  0.92517821  1
  O  O584  1  0.42771286  0.81378046  0.17605168  1
  O  O585  1  0.42720225  0.81314502  0.42448416  1
  O  O586  1  0.42656798  0.81375510  0.67457458  1
  O  O587  1  0.42813885  0.81401595  0.92715411  1
  O  O588  1  0.92795582  0.14657623  0.17756126  1
  O  O589  1  0.92717611  0.14600011  0.42543818  1
  O  O590  1  0.92724688  0.14642062  0.67645588  1
  O  O591  1  0.92754564  0.14651504  0.92670598  1
  O  O592  1  0.92616302  0.47877853  0.17548073  1
  O  O593  1  0.92689971  0.48109836  0.42640980  1
  O  O594  1  0.92683777  0.48015081  0.67722365  1
  O  O595  1  0.92568224  0.47990333  0.92439944  1
  O  O596  1  0.92570514  0.81396106  0.17412031  1
  O  O597  1  0.92623258  0.81432992  0.42597158  1
  O  O598  1  0.92766099  0.81393350  0.67684995  1
  O  O599  1  0.92846740  0.81427604  0.92628708  1
  O  O600  1  0.07243968  0.18485876  0.07431322  1
  O  O601  1  0.07069592  0.18598665  0.32344233  1
  O  O602  1  0.07292815  0.18635611  0.57584401  1
  O  O603  1  0.07218297  0.18585731  0.82334101  1
  O  O604  1  0.07241170  0.52013704  0.07394540  1
  O  O605  1  0.07395823  0.51980696  0.32481279  1
  O  O606  1  0.07304703  0.51843843  0.57507345  1
  O  O607  1  0.07243798  0.51992025  0.82447094  1
  O  O608  1  0.07146619  0.85369485  0.07270642  1
  O  O609  1  0.07253771  0.85493366  0.32479033  1
  O  O610  1  0.07285226  0.85482400  0.57533022  1
  O  O611  1  0.07329362  0.85372723  0.82411617  1
  O  O612  1  0.57186088  0.18561556  0.07368157  1
  O  O613  1  0.57433771  0.18647629  0.32450373  1
  O  O614  1  0.57370826  0.18500414  0.57326668  1
  O  O615  1  0.57386520  0.18642096  0.82600239  1
  O  O616  1  0.57367410  0.52131928  0.07547473  1
  O  O617  1  0.57255819  0.52127562  0.32445006  1
  O  O618  1  0.57360517  0.52112775  0.57343330  1
  O  O619  1  0.57416818  0.51994083  0.82563912  1
  O  O620  1  0.57377704  0.85158175  0.07529079  1
  O  O621  1  0.57210051  0.85288521  0.32319507  1
  O  O622  1  0.57478182  0.85330538  0.57430635  1
  O  O623  1  0.57481679  0.85296864  0.82508939  1
  O  O624  1  0.32176122  0.18599457  0.05096249  1
  O  O625  1  0.32196119  0.18624565  0.30122526  1
  O  O626  1  0.32222617  0.18630681  0.55142606  1
  O  O627  1  0.32225029  0.18591974  0.80139641  1
  O  O628  1  0.32365405  0.51872109  0.04935088  1
  O  O629  1  0.32351509  0.51890040  0.29899743  1
  O  O630  1  0.32381617  0.51884169  0.54919602  1
  O  O631  1  0.32392234  0.51868723  0.79938718  1
  O  O632  1  0.32339963  0.85439197  0.04866248  1
  O  O633  1  0.32354113  0.85448178  0.29956809  1
  O  O634  1  0.32331838  0.85552986  0.54995373  1
  O  O635  1  0.32342971  0.85540169  0.79939180  1
  O  O636  1  0.82348209  0.18521038  0.05252945  1
  O  O637  1  0.82168961  0.18568781  0.30261204  1
  O  O638  1  0.82400610  0.18796351  0.54976222  1
  O  O639  1  0.82318163  0.18441694  0.80125251  1
  O  O640  1  0.82383735  0.51967854  0.05008406  1
  O  O641  1  0.82295817  0.51989246  0.30276149  1
  O  O642  1  0.82356464  0.52125251  0.55045657  1
  O  O643  1  0.82261610  0.52078143  0.79959786  1
  O  O644  1  0.82300729  0.85430682  0.05091823  1
  O  O645  1  0.82280500  0.85376959  0.30162490  1
  O  O646  1  0.82211339  0.85307354  0.55186586  1
  O  O647  1  0.82432481  0.85319534  0.79977830  1
  O  O648  1  0.17600561  0.14881105  0.19825889  1
  O  O649  1  0.17626663  0.14891850  0.44977361  1
  O  O650  1  0.17772258  0.14743860  0.69893233  1
  O  O651  1  0.17717465  0.14746455  0.94718800  1
  O  O652  1  0.17595586  0.47775010  0.19930020  1
  O  O653  1  0.17644083  0.47774862  0.44970435  1
  O  O654  1  0.17686717  0.47750475  0.69989773  1
  O  O655  1  0.17613714  0.47756607  0.94938276  1
  O  O656  1  0.17546107  0.81404818  0.19949474  1
  O  O657  1  0.17570727  0.81444491  0.45028385  1
  O  O658  1  0.17600070  0.81422424  0.70010593  1
  O  O659  1  0.17586525  0.81375785  0.94938729  1
  O  O660  1  0.67778495  0.14680921  0.19943442  1
  O  O661  1  0.67877675  0.14693469  0.44872320  1
  O  O662  1  0.67722005  0.14556333  0.69894950  1
  O  O663  1  0.67762031  0.14760988  0.95010300  1
  O  O664  1  0.67642205  0.47996415  0.20150775  1
  O  O665  1  0.67787832  0.48063599  0.44962944  1
  O  O666  1  0.67679258  0.47887403  0.69959157  1
  O  O667  1  0.67585426  0.47959139  0.95039318  1
  O  O668  1  0.67654791  0.81378397  0.20083331  1
  O  O669  1  0.67756923  0.81406984  0.44930148  1
  O  O670  1  0.67947135  0.81385294  0.69785501  1
  O  O671  1  0.67804301  0.81308785  0.94953139  1
