# generated using pymatgen
data_Na2MnFe(PO4)2
_symmetry_space_group_name_H-M   'P 1'
_cell_length_a   22.34143057
_cell_length_b   20.09485453
_cell_length_c   19.45094318
_cell_angle_alpha   89.97764678
_cell_angle_beta   90.01446092
_cell_angle_gamma   89.98697161
_symmetry_Int_Tables_number   1
_chemical_formula_structural   Na2MnFe(PO4)2
_chemical_formula_sum   'Na96 Mn48 Fe48 P96 O384'
_cell_volume   8732.45692707
_cell_formula_units_Z   48
loop_
 _symmetry_equiv_pos_site_id
 _symmetry_equiv_pos_as_xyz
  1  'x, y, z'
loop_
 _atom_site_type_symbol
 _atom_site_label
 _atom_site_symmetry_multiplicity
 _atom_site_fract_x
 _atom_site_fract_y
 _atom_site_fract_z
 _atom_site_occupancy
  Na  Na0  1  0.13960340  0.24928147  0.24445527  1
  Na  Na1  1  0.13961452  0.24906382  0.49319012  1
  Na  Na2  1  0.14081116  0.24981715  0.74312267  1
  Na  Na3  1  0.14063597  0.25023596  0.99414655  1
  Na  Na4  1  0.14032574  0.58536705  0.24269661  1
  Na  Na5  1  0.14039656  0.58447430  0.49346644  1
  Na  Na6  1  0.14011701  0.58337473  0.74378717  1
  Na  Na7  1  0.14020755  0.58301517  0.99241677  1
  Na  Na8  1  0.14003129  0.91772730  0.24418503  1
  Na  Na9  1  0.14029635  0.91752987  0.49284583  1
  Na  Na10  1  0.14028238  0.91827438  0.74280263  1
  Na  Na11  1  0.14020491  0.91622782  0.99546056  1
  Na  Na12  1  0.64041517  0.24882406  0.24395561  1
  Na  Na13  1  0.64001182  0.24909977  0.49397847  1
  Na  Na14  1  0.64050750  0.24976762  0.74342727  1
  Na  Na15  1  0.64072021  0.24781602  0.99394379  1
  Na  Na16  1  0.63997453  0.58401530  0.24306239  1
  Na  Na17  1  0.64053155  0.58335630  0.49251987  1
  Na  Na18  1  0.64092359  0.58483779  0.74357324  1
  Na  Na19  1  0.64011588  0.58338138  0.99384302  1
  Na  Na20  1  0.64010247  0.91700345  0.24333607  1
  Na  Na21  1  0.63966532  0.91658267  0.49362612  1
  Na  Na22  1  0.64064472  0.91699558  0.74424097  1
  Na  Na23  1  0.64050533  0.91592060  0.99537640  1
  Na  Na24  1  0.35991289  0.08209458  0.00740312  1
  Na  Na25  1  0.35998388  0.08314261  0.25809319  1
  Na  Na26  1  0.35966116  0.08347163  0.50712688  1
  Na  Na27  1  0.35960330  0.08421997  0.75522577  1
  Na  Na28  1  0.35956707  0.41561900  0.00547484  1
  Na  Na29  1  0.35924300  0.41702990  0.25647276  1
  Na  Na30  1  0.35902888  0.41608748  0.50549489  1
  Na  Na31  1  0.35905950  0.41603989  0.75576459  1
  Na  Na32  1  0.35999539  0.74951090  0.00730833  1
  Na  Na33  1  0.35999224  0.75156004  0.25797192  1
  Na  Na34  1  0.35977147  0.75124664  0.50550611  1
  Na  Na35  1  0.35959839  0.75013093  0.75478028  1
  Na  Na36  1  0.85941101  0.08173640  0.00715137  1
  Na  Na37  1  0.86021140  0.08308616  0.25716682  1
  Na  Na38  1  0.86023387  0.08210695  0.50719242  1
  Na  Na39  1  0.85987550  0.08319622  0.75601817  1
  Na  Na40  1  0.86009270  0.41530281  0.00617516  1
  Na  Na41  1  0.85953780  0.41608207  0.25529241  1
  Na  Na42  1  0.85932990  0.41594896  0.50560565  1
  Na  Na43  1  0.85918621  0.41812633  0.75614542  1
  Na  Na44  1  0.86044713  0.75013143  0.00699414  1
  Na  Na45  1  0.86066187  0.75034509  0.25597075  1
  Na  Na46  1  0.85946575  0.75057408  0.50602434  1
  Na  Na47  1  0.85950866  0.75127678  0.75691332  1
  Na  Na48  1  0.10974997  0.08392412  0.12003696  1
  Na  Na49  1  0.10978819  0.08249555  0.36867305  1
  Na  Na50  1  0.10980486  0.08362682  0.61692250  1
  Na  Na51  1  0.10971258  0.08368835  0.86917185  1
  Na  Na52  1  0.10911246  0.41756638  0.11728247  1
  Na  Na53  1  0.10879929  0.41595477  0.36872435  1
  Na  Na54  1  0.10967881  0.41547118  0.61860963  1
  Na  Na55  1  0.11031243  0.41740899  0.86836617  1
  Na  Na56  1  0.10992045  0.75025167  0.11943762  1
  Na  Na57  1  0.10983441  0.75102162  0.36732049  1
  Na  Na58  1  0.10960568  0.75095218  0.61824530  1
  Na  Na59  1  0.10951734  0.75125593  0.86939314  1
  Na  Na60  1  0.61036253  0.08288495  0.11960110  1
  Na  Na61  1  0.60930879  0.08209675  0.36902825  1
  Na  Na62  1  0.60919780  0.08227092  0.61882642  1
  Na  Na63  1  0.61000691  0.08174860  0.86964199  1
  Na  Na64  1  0.60897004  0.41734462  0.11905832  1
  Na  Na65  1  0.60915691  0.41609893  0.36799580  1
  Na  Na66  1  0.60954721  0.41678921  0.61775419  1
  Na  Na67  1  0.60979695  0.41551553  0.86792746  1
  Na  Na68  1  0.60961171  0.75127215  0.11957323  1
  Na  Na69  1  0.60935190  0.75066547  0.36824230  1
  Na  Na70  1  0.60975160  0.75120077  0.61743946  1
  Na  Na71  1  0.60989370  0.74934742  0.86950805  1
  Na  Na72  1  0.39034113  0.24927651  0.13222178  1
  Na  Na73  1  0.39025260  0.24830507  0.38180734  1
  Na  Na74  1  0.38965659  0.24960451  0.63133375  1
  Na  Na75  1  0.39030384  0.24859387  0.88073006  1
  Na  Na76  1  0.39064104  0.58483978  0.13160141  1
  Na  Na77  1  0.39040059  0.58471265  0.38030126  1
  Na  Na78  1  0.39057082  0.58401079  0.62968778  1
  Na  Na79  1  0.39033308  0.58273214  0.88102049  1
  Na  Na80  1  0.39084624  0.91688768  0.13357985  1
  Na  Na81  1  0.39039309  0.91682437  0.38277359  1
  Na  Na82  1  0.38961001  0.91733233  0.63059722  1
  Na  Na83  1  0.39025283  0.91577938  0.88135806  1
  Na  Na84  1  0.89059356  0.24945490  0.13145961  1
  Na  Na85  1  0.89040317  0.24891001  0.38175864  1
  Na  Na86  1  0.89062970  0.24940462  0.63054461  1
  Na  Na87  1  0.89035442  0.25095362  0.88193575  1
  Na  Na88  1  0.89103053  0.58417234  0.12975734  1
  Na  Na89  1  0.89090027  0.58318686  0.38045340  1
  Na  Na90  1  0.89017589  0.58320995  0.63120493  1
  Na  Na91  1  0.89095434  0.58470463  0.88180489  1
  Na  Na92  1  0.89064185  0.91599246  0.13278128  1
  Na  Na93  1  0.89002465  0.91654920  0.38116294  1
  Na  Na94  1  0.88980644  0.91666988  0.63191961  1
  Na  Na95  1  0.89035342  0.91687441  0.88135442  1
  Mn  Mn96  1  0.25019807  0.00024297  0.87486549  1
  Mn  Mn97  1  -0.00062412  0.16724929  -0.00021078  1
  Mn  Mn98  1  0.74920585  0.33163480  0.12510262  1
  Mn  Mn99  1  0.75052128  0.66742704  0.37456667  1
  Mn  Mn100  1  -0.00006590  0.33342468  0.74989860  1
  Mn  Mn101  1  0.00065709  0.49943825  0.50018403  1
  Mn  Mn102  1  0.49985800  0.66679800  0.74935994  1
  Mn  Mn103  1  0.24940228  0.16697096  0.87497833  1
  Mn  Mn104  1  0.49947701  0.50076293  0.49868398  1
  Mn  Mn105  1  0.75012821  0.33404503  0.62471450  1
  Mn  Mn106  1  0.50005972  0.83309382  0.75010047  1
  Mn  Mn107  1  0.24938903  0.66637779  0.87465850  1
  Mn  Mn108  1  0.74989317  -0.00110053  0.37533993  1
  Mn  Mn109  1  0.00013619  0.66703615  0.49962627  1
  Mn  Mn110  1  0.74993210  0.16562809  0.87484902  1
  Mn  Mn111  1  0.49978459  0.50087280  -0.00032072  1
  Mn  Mn112  1  0.25056606  0.66775757  0.12427594  1
  Mn  Mn113  1  -0.00066315  0.33251704  0.24946810  1
  Mn  Mn114  1  0.24985172  0.49998955  0.12475164  1
  Mn  Mn115  1  0.00060364  0.16607327  0.74996382  1
  Mn  Mn116  1  0.75047765  0.83369813  0.87543204  1
  Mn  Mn117  1  0.49926571  0.33224138  0.49898050  1
  Mn  Mn118  1  -0.00028307  -0.00035505  0.00064013  1
  Mn  Mn119  1  0.25046867  0.83375824  0.87454674  1
  Mn  Mn120  1  0.75061107  0.66709957  0.12486709  1
  Mn  Mn121  1  0.74999691  0.50011679  0.87479835  1
  Mn  Mn122  1  0.49987294  0.83335856  0.00113157  1
  Mn  Mn123  1  0.24869434  0.50094941  0.37522316  1
  Mn  Mn124  1  0.50047251  0.33280466  0.00021563  1
  Mn  Mn125  1  0.74967301  0.16650128  0.37564439  1
  Mn  Mn126  1  0.25030460  0.66780494  0.62434951  1
  Mn  Mn127  1  0.75035431  0.16608372  0.62531840  1
  Mn  Mn128  1  0.00042992  0.83391996  0.75000988  1
  Mn  Mn129  1  0.49956581  0.33177568  0.74899085  1
  Mn  Mn130  1  0.24950746  0.33221700  0.12573439  1
  Mn  Mn131  1  0.50013837  0.16515292  0.00128761  1
  Mn  Mn132  1  0.75006791  0.66742142  0.62446026  1
  Mn  Mn133  1  0.74985760  0.49919839  0.12418386  1
  Mn  Mn134  1  0.25039467  0.00006241  0.12611421  1
  Mn  Mn135  1  0.50044003  0.49995135  0.74933261  1
  Mn  Mn136  1  0.49983381  0.33300890  0.25014019  1
  Mn  Mn137  1  0.25011184  0.49955378  0.62416469  1
  Mn  Mn138  1  -0.00094339  0.83424183  0.49967187  1
  Mn  Mn139  1  -0.00033660  0.50055674  0.24889129  1
  Mn  Mn140  1  0.24910652  0.33244579  0.37528700  1
  Mn  Mn141  1  -0.00025257  0.50087408  0.74994118  1
  Mn  Mn142  1  0.50003913  0.00003662  0.75022642  1
  Mn  Mn143  1  0.74999081  0.49920090  0.37420200  1
  Fe  Fe144  1  0.74950628  0.83374720  0.62553205  1
  Fe  Fe145  1  0.25065936  0.33292005  0.87470977  1
  Fe  Fe146  1  0.75025889  -0.00040569  0.87588976  1
  Fe  Fe147  1  0.24938899  0.83404054  0.62425016  1
  Fe  Fe148  1  0.25005468  0.00043676  0.37553038  1
  Fe  Fe149  1  0.25039255  0.83403710  0.12607459  1
  Fe  Fe150  1  0.49957164  0.50077622  0.24949018  1
  Fe  Fe151  1  -0.00003998  0.83343951  0.24989745  1
  Fe  Fe152  1  0.00037027  0.83363693  0.00066880  1
  Fe  Fe153  1  0.00050681  0.66779128  0.00005453  1
  Fe  Fe154  1  0.74959507  0.50037405  0.62471998  1
  Fe  Fe155  1  0.75018748  0.66731742  0.87461094  1
  Fe  Fe156  1  0.24921609  0.33294017  0.62506990  1
  Fe  Fe157  1  0.49992983  0.83353196  0.49917427  1
  Fe  Fe158  1  0.00011082  -0.00017560  0.49944031  1
  Fe  Fe159  1  -0.00061751  0.33251790  0.49923888  1
  Fe  Fe160  1  0.24979212  0.00040584  0.62420300  1
  Fe  Fe161  1  0.49956243  -0.00012226  0.49982979  1
  Fe  Fe162  1  0.24981810  0.83448348  0.37556939  1
  Fe  Fe163  1  0.74962677  -0.00062714  0.62546218  1
  Fe  Fe164  1  0.25030173  0.49939419  0.87408130  1
  Fe  Fe165  1  0.00002281  0.66758630  0.75074602  1
  Fe  Fe166  1  0.24990295  0.16671601  0.62490456  1
  Fe  Fe167  1  0.00016075  0.16622526  0.25074837  1
  Fe  Fe168  1  0.49995772  -0.00016337  0.00109002  1
  Fe  Fe169  1  0.00090309  0.33378711  0.00016179  1
  Fe  Fe170  1  0.75014171  0.83306508  0.12493593  1
  Fe  Fe171  1  0.49986343  0.66740747  0.25035320  1
  Fe  Fe172  1  0.50036669  0.66721853  0.00091226  1
  Fe  Fe173  1  0.50057041  0.66709951  0.49894521  1
  Fe  Fe174  1  0.25018670  0.16624529  0.12540980  1
  Fe  Fe175  1  0.75005829  0.83374194  0.37518998  1
  Fe  Fe176  1  0.50002901  0.16581923  0.50017795  1
  Fe  Fe177  1  0.24997515  0.66820543  0.37449263  1
  Fe  Fe178  1  0.25033440  0.16652526  0.37582993  1
  Fe  Fe179  1  0.00055054  0.66684384  0.24906255  1
  Fe  Fe180  1  0.50013699  0.16562352  0.75020522  1
  Fe  Fe181  1  0.00039549  0.50103770  -0.00033574  1
  Fe  Fe182  1  0.75107005  0.16562688  0.12495677  1
  Fe  Fe183  1  -0.00033324  0.16571221  0.49993025  1
  Fe  Fe184  1  0.50004442  0.83371364  0.25046465  1
  Fe  Fe185  1  -0.00050844  0.00004607  0.25046682  1
  Fe  Fe186  1  0.74964269  0.33286417  0.37479076  1
  Fe  Fe187  1  0.49988427  0.00010186  0.25144720  1
  Fe  Fe188  1  0.75068201  -0.00078615  0.12558140  1
  Fe  Fe189  1  0.75007711  0.33293085  0.87495691  1
  Fe  Fe190  1  0.50026600  0.16584614  0.25075596  1
  Fe  Fe191  1  0.00004867  0.00012480  0.75002704  1
  P  P192  1  0.04228256  0.25077939  0.10277064  1
  P  P193  1  0.04157611  0.24817029  0.35332082  1
  P  P194  1  0.04102567  0.24963920  0.60098480  1
  P  P195  1  0.04294850  0.25049711  0.85332265  1
  P  P196  1  0.04184217  0.58459302  0.10134136  1
  P  P197  1  0.04253754  0.58453681  0.35159396  1
  P  P198  1  0.04305211  0.58385845  0.60344225  1
  P  P199  1  0.04208575  0.58543317  0.85328751  1
  P  P200  1  0.04185615  0.91540400  0.10401506  1
  P  P201  1  0.04091679  0.91700565  0.35165250  1
  P  P202  1  0.04195580  0.91830475  0.60232651  1
  P  P203  1  0.04259511  0.91805093  0.85279466  1
  P  P204  1  0.54289608  0.24915219  0.10421710  1
  P  P205  1  0.54198791  0.24780775  0.35297454  1
  P  P206  1  0.54184820  0.24798741  0.60243477  1
  P  P207  1  0.54246595  0.24764490  0.85239795  1
  P  P208  1  0.54204507  0.58513783  0.10353203  1
  P  P209  1  0.54140859  0.58414105  0.35138252  1
  P  P210  1  0.54270471  0.58479632  0.60130428  1
  P  P211  1  0.54308705  0.58362885  0.85319937  1
  P  P212  1  0.54190042  0.91823301  0.10419067  1
  P  P213  1  0.54103270  0.91659043  0.35263892  1
  P  P214  1  0.54087469  0.91665203  0.60111245  1
  P  P215  1  0.54281116  0.91639184  0.85391056  1
  P  P216  1  0.45851966  0.08243111  0.14935588  1
  P  P217  1  0.45867111  0.08294614  0.39814192  1
  P  P218  1  0.45774640  0.08426962  0.64689277  1
  P  P219  1  0.45762114  0.08161561  0.89804086  1
  P  P220  1  0.45742167  0.41815304  0.14765410  1
  P  P221  1  0.45673447  0.41692635  0.39563075  1
  P  P222  1  0.45686976  0.41651400  0.64607121  1
  P  P223  1  0.45750858  0.41597486  0.89662846  1
  P  P224  1  0.45865849  0.75036873  0.14889341  1
  P  P225  1  0.45879033  0.75030184  0.39736281  1
  P  P226  1  0.45759580  0.75061040  0.64530681  1
  P  P227  1  0.45762922  0.74869473  0.89828693  1
  P  P228  1  0.95866224  0.08354073  0.14893191  1
  P  P229  1  0.95852656  0.08259084  0.39775871  1
  P  P230  1  0.95814270  0.08180478  0.64672642  1
  P  P231  1  0.95702307  0.08286144  0.89685361  1
  P  P232  1  0.95742365  0.41686714  0.14544629  1
  P  P233  1  0.95755118  0.41535854  0.39718332  1
  P  P234  1  0.95721918  0.41640017  0.64633501  1
  P  P235  1  0.95930537  0.41722348  0.89857821  1
  P  P236  1  0.95914749  0.75009130  0.14755173  1
  P  P237  1  0.95746414  0.75057677  0.39571966  1
  P  P238  1  0.95752518  0.74928281  0.64801315  1
  P  P239  1  0.95874076  0.75088697  0.89858611  1
  P  P240  1  0.20825556  0.08480416  0.22883989  1
  P  P241  1  0.20894160  0.08347325  0.47737800  1
  P  P242  1  0.20818812  0.08352224  0.72587568  1
  P  P243  1  0.20730214  0.08314575  0.97885596  1
  P  P244  1  0.20639382  0.41660936  0.22799397  1
  P  P245  1  0.20646957  0.41605047  0.47843818  1
  P  P246  1  0.20789275  0.41544594  0.72788560  1
  P  P247  1  0.20885082  0.41598283  0.97606501  1
  P  P248  1  0.20862182  0.75198998  0.22847520  1
  P  P249  1  0.20821672  0.75140382  0.47655134  1
  P  P250  1  0.20742931  0.75176246  0.72686546  1
  P  P251  1  0.20762561  0.75068020  0.97843605  1
  P  P252  1  0.70940030  0.08297387  0.22684144  1
  P  P253  1  0.70742746  0.08211077  0.47885883  1
  P  P254  1  0.70786724  0.08174356  0.72800997  1
  P  P255  1  0.70830084  0.08123298  0.97879000  1
  P  P256  1  0.70673953  0.41572511  0.22809277  1
  P  P257  1  0.70720450  0.41527812  0.47722989  1
  P  P258  1  0.70745391  0.41832432  0.72736291  1
  P  P259  1  0.70761337  0.41469297  0.97709572  1
  P  P260  1  0.70823089  0.75175971  0.22784608  1
  P  P261  1  0.70769631  0.75177805  0.47756396  1
  P  P262  1  0.70759196  0.75156891  0.72768899  1
  P  P263  1  0.70824532  0.74920322  0.97777612  1
  P  P264  1  0.29241684  0.24856865  0.02272827  1
  P  P265  1  0.29213196  0.24820571  0.27289430  1
  P  P266  1  0.29085567  0.24962180  0.52328793  1
  P  P267  1  0.29190402  0.25086404  0.77165677  1
  P  P268  1  0.29272951  0.58266808  0.02100371  1
  P  P269  1  0.29173013  0.58519688  0.27255685  1
  P  P270  1  0.29244361  0.58443690  0.52082335  1
  P  P271  1  0.29216923  0.58218823  0.77202544  1
  P  P272  1  0.29299338  0.91557040  0.02355994  1
  P  P273  1  0.29134716  0.91712611  0.27407724  1
  P  P274  1  0.29088558  0.91699905  0.52242180  1
  P  P275  1  0.29274002  0.91747341  0.77048482  1
  P  P276  1  0.79259109  0.24782670  0.02225680  1
  P  P277  1  0.79223615  0.25032364  0.27252886  1
  P  P278  1  0.79261051  0.24991326  0.52163063  1
  P  P279  1  0.79243579  0.25107104  0.77273654  1
  P  P280  1  0.79270631  0.58339868  0.02096471  1
  P  P281  1  0.79304276  0.58337161  0.27145145  1
  P  P282  1  0.79218614  0.58225154  0.52221153  1
  P  P283  1  0.79250954  0.58520840  0.77220734  1
  P  P284  1  0.79201478  0.91615710  0.02375752  1
  P  P285  1  0.79212629  0.91530129  0.27188729  1
  P  P286  1  0.79126924  0.91600802  0.52355720  1
  P  P287  1  0.79215191  0.91847765  0.77237080  1
  O  O288  1  0.03683510  0.25004010  0.18268097  1
  O  O289  1  0.03592403  0.24855984  0.43314623  1
  O  O290  1  0.03661427  0.24937639  0.68099097  1
  O  O291  1  0.03776912  0.25088003  0.93325574  1
  O  O292  1  0.03693685  0.58433911  0.18130812  1
  O  O293  1  0.03750364  0.58402047  0.43154251  1
  O  O294  1  0.03777266  0.58445542  0.68338987  1
  O  O295  1  0.03668690  0.58532722  0.93318000  1
  O  O296  1  0.03606306  0.91539418  0.18384597  1
  O  O297  1  0.03610045  0.91766219  0.43160087  1
  O  O298  1  0.03720890  0.91843170  0.68227556  1
  O  O299  1  0.03734330  0.91720356  0.93271648  1
  O  O300  1  0.53764071  0.24907181  0.18414864  1
  O  O301  1  0.53648429  0.24757113  0.43290424  1
  O  O302  1  0.53668651  0.24781956  0.68241101  1
  O  O303  1  0.53750239  0.24806370  0.93241254  1
  O  O304  1  0.53632881  0.58468234  0.18339347  1
  O  O305  1  0.53639705  0.58435720  0.43134680  1
  O  O306  1  0.53764546  0.58429157  0.68127191  1
  O  O307  1  0.53812018  0.58417364  0.93319540  1
  O  O308  1  0.53659991  0.91814853  0.18407407  1
  O  O309  1  0.53585299  0.91607577  0.43248648  1
  O  O310  1  0.53638734  0.91689307  0.68108169  1
  O  O311  1  0.53767449  0.91662969  0.93385338  1
  O  O312  1  0.46316240  0.08181061  0.06939125  1
  O  O313  1  0.46376812  0.08290655  0.31826742  1
  O  O314  1  0.46305737  0.08408979  0.56704075  1
  O  O315  1  0.46278082  0.08248847  0.81811165  1
  O  O316  1  0.46282297  0.41780566  0.06768294  1
  O  O317  1  0.46220875  0.41743107  0.31570535  1
  O  O318  1  0.46170482  0.41642392  0.56604210  1
  O  O319  1  0.46264062  0.41570165  0.81664753  1
  O  O320  1  0.46346198  0.75027971  0.06894805  1
  O  O321  1  0.46403819  0.75029105  0.31746949  1
  O  O322  1  0.46306519  0.75074273  0.56542076  1
  O  O323  1  0.46261081  0.74922116  0.81830427  1
  O  O324  1  0.96326508  0.08337372  0.06899169  1
  O  O325  1  0.96345108  0.08300253  0.31786691  1
  O  O326  1  0.96333241  0.08193301  0.56681379  1
  O  O327  1  0.96241112  0.08247295  0.81694014  1
  O  O328  1  0.96315338  0.41692376  0.06559009  1
  O  O329  1  0.96251140  0.41566036  0.31720324  1
  O  O330  1  0.96250008  0.41567021  0.56639544  1
  O  O331  1  0.96393789  0.41752831  0.81855993  1
  O  O332  1  0.96461349  0.75047167  0.06768076  1
  O  O333  1  0.96292161  0.75069596  0.31584140  1
  O  O334  1  0.96226161  0.74975827  0.56803440  1
  O  O335  1  0.96380739  0.75061020  0.81864269  1
  O  O336  1  0.21250390  0.08345663  0.05879512  1
  O  O337  1  0.21364695  0.08465007  0.30870415  1
  O  O338  1  0.21379539  0.08304260  0.55725857  1
  O  O339  1  0.21273074  0.08367373  0.80589839  1
  O  O340  1  0.21331362  0.41622263  0.05608358  1
  O  O341  1  0.21112557  0.41675940  0.30796904  1
  O  O342  1  0.21187200  0.41545844  0.55836805  1
  O  O343  1  0.21382891  0.41573576  0.80773849  1
  O  O344  1  0.21306833  0.75104168  0.05838896  1
  O  O345  1  0.21393423  0.75158627  0.30839154  1
  O  O346  1  0.21314537  0.75172897  0.55652363  1
  O  O347  1  0.21256935  0.75110208  0.80682026  1
  O  O348  1  0.71407928  0.08184955  0.05862387  1
  O  O349  1  0.71390130  0.08276876  0.30684647  1
  O  O350  1  0.71257645  0.08159478  0.55876977  1
  O  O351  1  0.71304535  0.08163893  0.80798864  1
  O  O352  1  0.71257268  0.41471627  0.05705837  1
  O  O353  1  0.71195957  0.41533874  0.30803234  1
  O  O354  1  0.71247198  0.41644709  0.55715753  1
  O  O355  1  0.71265539  0.41774267  0.80725960  1
  O  O356  1  0.71343886  0.74975216  0.05770923  1
  O  O357  1  0.71342321  0.75187708  0.30777494  1
  O  O358  1  0.71294567  0.75178356  0.55751186  1
  O  O359  1  0.71303792  0.75077504  0.80760990  1
  O  O360  1  0.28727059  0.24793306  0.19293514  1
  O  O361  1  0.28606915  0.24878313  0.44333626  1
  O  O362  1  0.28621417  0.25073485  0.69183335  1
  O  O363  1  0.28712660  0.24937284  0.94280046  1
  O  O364  1  0.28690343  0.58512727  0.19253759  1
  O  O365  1  0.28670460  0.58517712  0.44093762  1
  O  O366  1  0.28732416  0.58255030  0.69202770  1
  O  O367  1  0.28743486  0.58206031  0.94103947  1
  O  O368  1  0.28686254  0.91700831  0.19411841  1
  O  O369  1  0.28565913  0.91700496  0.44252909  1
  O  O370  1  0.28718089  0.91759015  0.69059222  1
  O  O371  1  0.28826615  0.91593927  0.94357680  1
  O  O372  1  0.78703213  0.24922289  0.19258126  1
  O  O373  1  0.78716691  0.25026158  0.44172222  1
  O  O374  1  0.78729963  0.25097491  0.69279754  1
  O  O375  1  0.78746898  0.24822414  0.94233442  1
  O  O376  1  0.78792974  0.58341881  0.19149678  1
  O  O377  1  0.78709472  0.58238063  0.44225915  1
  O  O378  1  0.78723032  0.58480797  0.69226823  1
  O  O379  1  0.78730846  0.58414165  0.94104473  1
  O  O380  1  0.78687174  0.91559224  0.19204386  1
  O  O381  1  0.78643101  0.91555836  0.44355766  1
  O  O382  1  0.78647342  0.91834571  0.69253791  1
  O  O383  1  0.78737764  0.91680375  0.94379355  1
  O  O384  1  0.22809820  0.24774332  0.05851297  1
  O  O385  1  0.22772509  0.24785389  0.30822429  1
  O  O386  1  0.22665987  0.25011506  0.55908177  1
  O  O387  1  0.22786379  0.25168433  0.80809187  1
  O  O388  1  0.22836605  0.58347541  0.05631459  1
  O  O389  1  0.22734500  0.58556738  0.30781180  1
  O  O390  1  0.22829355  0.58403565  0.55655897  1
  O  O391  1  0.22781630  0.58198307  0.80741607  1
  O  O392  1  0.22854261  0.91550341  0.05883239  1
  O  O393  1  0.22707123  0.91685352  0.30962664  1
  O  O394  1  0.22689595  0.91707522  0.55890805  1
  O  O395  1  0.22847712  0.91736305  0.80625343  1
  O  O396  1  0.72825445  0.24669938  0.05783740  1
  O  O397  1  0.72790602  0.25108357  0.30822754  1
  O  O398  1  0.72837027  0.24968153  0.55715266  1
  O  O399  1  0.72807993  0.25094294  0.80822232  1
  O  O400  1  0.72844270  0.58346008  0.05651877  1
  O  O401  1  0.72861864  0.58345591  0.30645178  1
  O  O402  1  0.72786702  0.58253986  0.55774602  1
  O  O403  1  0.72826482  0.58525549  0.80799359  1
  O  O404  1  0.72779131  0.91574075  0.05950158  1
  O  O405  1  0.72789409  0.91479441  0.30791536  1
  O  O406  1  0.72703248  0.91574593  0.55940294  1
  O  O407  1  0.72813779  0.91819255  0.80882973  1
  O  O408  1  0.27239513  0.08502504  0.19260208  1
  O  O409  1  0.27306605  0.08367273  0.44133625  1
  O  O410  1  0.27248792  0.08320521  0.69043238  1
  O  O411  1  0.27161473  0.08339905  0.94343711  1
  O  O412  1  0.27099528  0.41632962  0.19341141  1
  O  O413  1  0.27072424  0.41647512  0.44297824  1
  O  O414  1  0.27185214  0.41469619  0.69123959  1
  O  O415  1  0.27306260  0.41567834  0.94033308  1
  O  O416  1  0.27277954  0.75225518  0.19238974  1
  O  O417  1  0.27245226  0.75137366  0.44072224  1
  O  O418  1  0.27178434  0.75267143  0.69139608  1
  O  O419  1  0.27186216  0.74994621  0.94291350  1
  O  O420  1  0.77362944  0.08335793  0.19124500  1
  O  O421  1  0.77173201  0.08239278  0.44353239  1
  O  O422  1  0.77212186  0.08165735  0.69234406  1
  O  O423  1  0.77232035  0.08136390  0.94230037  1
  O  O424  1  0.77110718  0.41566300  0.19284213  1
  O  O425  1  0.77152858  0.41449910  0.44155043  1
  O  O426  1  0.77181362  0.41878170  0.69177684  1
  O  O427  1  0.77201893  0.41488442  0.94173528  1
  O  O428  1  0.77251035  0.75196832  0.19214365  1
  O  O429  1  0.77202838  0.75206018  0.44192141  1
  O  O430  1  0.77184577  0.75209589  0.69185579  1
  O  O431  1  0.77250775  0.74899010  0.94203726  1
  O  O432  1  0.02285452  0.08387723  0.18466933  1
  O  O433  1  0.02266175  0.08222116  0.43388054  1
  O  O434  1  0.02237842  0.08145173  0.68278306  1
  O  O435  1  0.02131543  0.08327601  0.93229514  1
  O  O436  1  0.02151112  0.41649206  0.18150242  1
  O  O437  1  0.02188790  0.41490733  0.43268722  1
  O  O438  1  0.02155976  0.41696170  0.68169607  1
  O  O439  1  0.02352100  0.41665749  0.93425361  1
  O  O440  1  0.02303798  0.74985828  0.18436577  1
  O  O441  1  0.02167598  0.75092626  0.43149963  1
  O  O442  1  0.02198749  0.74892140  0.68322939  1
  O  O443  1  0.02290312  0.75134194  0.93470117  1
  O  O444  1  0.52281068  0.08197896  0.18509364  1
  O  O445  1  0.52271374  0.08315561  0.43434927  1
  O  O446  1  0.52193601  0.08453528  0.68306956  1
  O  O447  1  0.52196842  0.08096090  0.93377735  1
  O  O448  1  0.52168451  0.41796549  0.18329969  1
  O  O449  1  0.52100837  0.41643089  0.43112418  1
  O  O450  1  0.52137975  0.41608520  0.68095558  1
  O  O451  1  0.52189183  0.41644636  0.93187144  1
  O  O452  1  0.52283151  0.74981660  0.18474686  1
  O  O453  1  0.52279661  0.75042839  0.43386483  1
  O  O454  1  0.52185214  0.75032272  0.68108727  1
  O  O455  1  0.52202469  0.74886954  0.93376237  1
  O  O456  1  0.47856053  0.24927629  0.06884891  1
  O  O457  1  0.47780409  0.24806014  0.31711387  1
  O  O458  1  0.47754501  0.24785877  0.56673197  1
  O  O459  1  0.47805163  0.24726768  0.81697619  1
  O  O460  1  0.47796174  0.58546013  0.06716513  1
  O  O461  1  0.47721761  0.58439355  0.31544456  1
  O  O462  1  0.47829854  0.58551251  0.56592025  1
  O  O463  1  0.47864591  0.58318174  0.81799715  1
  O  O464  1  0.47779003  0.91828529  0.06795143  1
  O  O465  1  0.47701785  0.91741063  0.31627829  1
  O  O466  1  0.47665545  0.91609767  0.56545825  1
  O  O467  1  0.47845630  0.91639789  0.81854097  1
  O  O468  1  0.97806452  0.25185324  0.06687478  1
  O  O469  1  0.97750458  0.24782439  0.31695587  1
  O  O470  1  0.97679950  0.24988747  0.56541141  1
  O  O471  1  0.97853783  0.24969878  0.81813445  1
  O  O472  1  0.97774606  0.58484512  0.06534928  1
  O  O473  1  0.97819333  0.58532479  0.31603070  1
  O  O474  1  0.97870252  0.58340864  0.56809734  1
  O  O475  1  0.97794175  0.58569892  0.81703977  1
  O  O476  1  0.97783934  0.91495445  0.06749748  1
  O  O477  1  0.97680151  0.91627592  0.31574505  1
  O  O478  1  0.97750442  0.91878998  0.56699800  1
  O  O479  1  0.97831129  0.91852374  0.81691878  1
  O  O480  1  0.07349697  0.31421616  0.07458049  1
  O  O481  1  0.07278267  0.31161974  0.32507837  1
  O  O482  1  0.07197071  0.31322095  0.57292588  1
  O  O483  1  0.07370672  0.31389415  0.82463530  1
  O  O484  1  0.07330034  0.64795122  0.07349900  1
  O  O485  1  0.07357414  0.64798681  0.32335723  1
  O  O486  1  0.07415422  0.64710678  0.57467429  1
  O  O487  1  0.07298670  0.64886103  0.82455234  1
  O  O488  1  0.07283820  0.97925818  0.07632728  1
  O  O489  1  0.07132631  0.98083570  0.32296007  1
  O  O490  1  0.07330240  0.98111750  0.57302020  1
  O  O491  1  0.07341939  0.98165546  0.82460927  1
  O  O492  1  0.57393824  0.31265400  0.07594237  1
  O  O493  1  0.57323969  0.31145913  0.32549724  1
  O  O494  1  0.57261100  0.31190949  0.57464278  1
  O  O495  1  0.57330091  0.31124191  0.82414356  1
  O  O496  1  0.57295875  0.64874123  0.07517278  1
  O  O497  1  0.57278884  0.64752194  0.32333809  1
  O  O498  1  0.57374830  0.64819881  0.57296872  1
  O  O499  1  0.57402567  0.64693528  0.82444144  1
  O  O500  1  0.57281248  0.98150646  0.07521860  1
  O  O501  1  0.57271929  0.97992655  0.32475412  1
  O  O502  1  0.57094849  0.98076499  0.57273519  1
  O  O503  1  0.57405535  0.97951914  0.82516727  1
  O  O504  1  0.42691940  0.01956481  0.17826895  1
  O  O505  1  0.42814040  0.01903297  0.42663891  1
  O  O506  1  0.42680333  0.02053654  0.67486853  1
  O  O507  1  0.42684303  0.01801602  0.92636650  1
  O  O508  1  0.42597409  0.35467973  0.17531456  1
  O  O509  1  0.42552170  0.35330155  0.42340367  1
  O  O510  1  0.42567052  0.35316437  0.67428099  1
  O  O511  1  0.42683844  0.35232362  0.92498412  1
  O  O512  1  0.42692918  0.68737526  0.17722537  1
  O  O513  1  0.42798351  0.68665517  0.42573814  1
  O  O514  1  0.42620879  0.68726335  0.67360814  1
  O  O515  1  0.42723700  0.68494414  0.92660854  1
  O  O516  1  0.92833751  0.01950745  0.17716161  1
  O  O517  1  0.92727351  0.01907512  0.42593456  1
  O  O518  1  0.92704829  0.01862408  0.67566280  1
  O  O519  1  0.92599668  0.01960318  0.92564748  1
  O  O520  1  0.92573944  0.35376900  0.17383957  1
  O  O521  1  0.92676991  0.35177131  0.42543715  1
  O  O522  1  0.92617600  0.35311853  0.67508393  1
  O  O523  1  0.92810236  0.35372828  0.92649578  1
  O  O524  1  0.92805601  0.68637606  0.17544975  1
  O  O525  1  0.92635582  0.68714048  0.42408720  1
  O  O526  1  0.92668353  0.68589587  0.67651502  1
  O  O527  1  0.92799395  0.68731680  0.92708632  1
  O  O528  1  0.17724376  0.02103114  0.20099085  1
  O  O529  1  0.17836361  0.01981870  0.44830817  1
  O  O530  1  0.17714447  0.02013833  0.69755165  1
  O  O531  1  0.17662905  0.01931833  0.95080426  1
  O  O532  1  0.17545615  0.35305162  0.19989939  1
  O  O533  1  0.17536094  0.35280839  0.44982721  1
  O  O534  1  0.17647527  0.35218868  0.69945565  1
  O  O535  1  0.17791810  0.35231431  0.94820830  1
  O  O536  1  0.17743423  0.68859637  0.20008927  1
  O  O537  1  0.17763574  0.68756530  0.44834316  1
  O  O538  1  0.17699953  0.68784559  0.69885860  1
  O  O539  1  0.17619296  0.68727736  0.95051457  1
  O  O540  1  0.67913061  0.01894748  0.19865029  1
  O  O541  1  0.67628202  0.01893337  0.45008320  1
  O  O542  1  0.67685586  0.01850328  0.69921058  1
  O  O543  1  0.67765754  0.01749620  0.95055151  1
  O  O544  1  0.67528611  0.35257926  0.19978020  1
  O  O545  1  0.67638800  0.35152816  0.44935836  1
  O  O546  1  0.67631662  0.35481264  0.69926469  1
  O  O547  1  0.67728362  0.35088637  0.94861119  1
  O  O548  1  0.67746418  0.68783168  0.20026329  1
  O  O549  1  0.67714787  0.68776240  0.44977641  1
  O  O550  1  0.67650604  0.68828258  0.69910606  1
  O  O551  1  0.67758386  0.68565440  0.94923024  1
  O  O552  1  0.32317863  0.31217623  0.05113538  1
  O  O553  1  0.32264721  0.31230812  0.30053945  1
  O  O554  1  0.32186951  0.31334587  0.55094859  1
  O  O555  1  0.32350809  0.31381230  0.80038444  1
  O  O556  1  0.32406366  0.64614620  0.04888528  1
  O  O557  1  0.32258730  0.64870429  0.30100416  1
  O  O558  1  0.32366307  0.64766720  0.54933992  1
  O  O559  1  0.32314996  0.64590324  0.79979782  1
  O  O560  1  0.32390357  0.97914552  0.05175278  1
  O  O561  1  0.32147631  0.98121181  0.30252309  1
  O  O562  1  0.32194159  0.98060922  0.55056968  1
  O  O563  1  0.32377119  0.98083849  0.79924527  1
  O  O564  1  0.82309569  0.31162218  0.05042536  1
  O  O565  1  0.82306816  0.31399234  0.30051414  1
  O  O566  1  0.82392807  0.31309193  0.54995900  1
  O  O567  1  0.82286475  0.31481980  0.80125640  1
  O  O568  1  0.82427580  0.64635168  0.04962195  1
  O  O569  1  0.82402009  0.64687189  0.29960526  1
  O  O570  1  0.82354996  0.64584788  0.54967850  1
  O  O571  1  0.82299370  0.64894193  0.80068113  1
  O  O572  1  0.82262600  0.97967026  0.05278557  1
  O  O573  1  0.82286170  0.97911326  0.30011388  1
  O  O574  1  0.82151645  0.98012931  0.55154592  1
  O  O575  1  0.82298529  0.98175628  0.80134857  1
  O  O576  1  0.42860482  0.14682175  0.17734475  1
  O  O577  1  0.42730658  0.14618335  0.42662299  1
  O  O578  1  0.42677809  0.14752597  0.67584915  1
  O  O579  1  0.42665705  0.14510127  0.92649723  1
  O  O580  1  0.42690053  0.48196711  0.17580228  1
  O  O581  1  0.42558894  0.48024890  0.42395316  1
  O  O582  1  0.42626961  0.48029184  0.67408064  1
  O  O583  1  0.42619637  0.47938698  0.92442752  1
  O  O584  1  0.42870849  0.81461976  0.17729846  1
  O  O585  1  0.42769828  0.81390862  0.42550769  1
  O  O586  1  0.42660347  0.81395833  0.67411149  1
  O  O587  1  0.42637753  0.81212751  0.92638388  1
  O  O588  1  0.92756602  0.14698186  0.17704839  1
  O  O589  1  0.92796674  0.14621681  0.42679416  1
  O  O590  1  0.92724284  0.14560964  0.67473859  1
  O  O591  1  0.92576683  0.14639341  0.92469108  1
  O  O592  1  0.92644073  0.48051847  0.17362386  1
  O  O593  1  0.92677875  0.47917330  0.42498148  1
  O  O594  1  0.92609793  0.47995414  0.67434172  1
  O  O595  1  0.92910184  0.48136637  0.92665739  1
  O  O596  1  0.92817700  0.81357227  0.17614656  1
  O  O597  1  0.92607190  0.81378912  0.42442652  1
  O  O598  1  0.92690982  0.81311552  0.67610627  1
  O  O599  1  0.92780698  0.81460729  0.92660538  1
  O  O600  1  0.07298533  0.18704356  0.07470459  1
  O  O601  1  0.07259592  0.18465948  0.32489853  1
  O  O602  1  0.07137726  0.18566785  0.57264672  1
  O  O603  1  0.07427709  0.18704564  0.82521598  1
  O  O604  1  0.07213312  0.52059096  0.07271061  1
  O  O605  1  0.07309752  0.52067021  0.32361044  1
  O  O606  1  0.07419327  0.52024491  0.57557565  1
  O  O607  1  0.07312817  0.52173877  0.82535389  1
  O  O608  1  0.07315118  0.85230381  0.07518790  1
  O  O609  1  0.07231824  0.85356830  0.32385136  1
  O  O610  1  0.07220312  0.85412059  0.57444579  1
  O  O611  1  0.07360063  0.85459069  0.82435843  1
  O  O612  1  0.57401290  0.18571321  0.07605692  1
  O  O613  1  0.57281133  0.18433926  0.32432193  1
  O  O614  1  0.57303959  0.18479849  0.57380523  1
  O  O615  1  0.57322278  0.18399176  0.82427504  1
  O  O616  1  0.57333145  0.52168669  0.07532593  1
  O  O617  1  0.57172390  0.52009879  0.32317103  1
  O  O618  1  0.57330540  0.52097164  0.57328732  1
  O  O619  1  0.57411140  0.51999595  0.82517878  1
  O  O620  1  0.57305073  0.85456134  0.07630914  1
  O  O621  1  0.57133812  0.85281994  0.32358147  1
  O  O622  1  0.57231105  0.85343717  0.57294969  1
  O  O623  1  0.57366736  0.85272622  0.82573365  1
  O  O624  1  0.32341273  0.18501813  0.05091474  1
  O  O625  1  0.32337205  0.18528297  0.30219784  1
  O  O626  1  0.32147310  0.18597740  0.55215601  1
  O  O627  1  0.32255332  0.18691449  0.79968843  1
  O  O628  1  0.32358183  0.51929702  0.04980883  1
  O  O629  1  0.32247700  0.52132228  0.30018312  1
  O  O630  1  0.32370230  0.52075714  0.54832908  1
  O  O631  1  0.32280575  0.51849117  0.80032163  1
  O  O632  1  0.32360374  0.85201665  0.05219887  1
  O  O633  1  0.32276097  0.85399418  0.30262782  1
  O  O634  1  0.32179109  0.85336397  0.55076253  1
  O  O635  1  0.32409137  0.85411532  0.79885189  1
  O  O636  1  0.82389339  0.18458364  0.05091568  1
  O  O637  1  0.82312043  0.18679163  0.30101225  1
  O  O638  1  0.82367597  0.18624151  0.54957154  1
  O  O639  1  0.82369367  0.18746784  0.80026981  1
  O  O640  1  0.82338354  0.51939611  0.04851328  1
  O  O641  1  0.82416434  0.51988345  0.29944106  1
  O  O642  1  0.82250331  0.51850309  0.55081618  1
  O  O643  1  0.82388952  0.52177630  0.80023506  1
  O  O644  1  0.82285137  0.85232734  0.05162328  1
  O  O645  1  0.82336600  0.85222557  0.30082542  1
  O  O646  1  0.82258468  0.85280221  0.55218868  1
  O  O647  1  0.82360683  0.85490170  0.80022165  1
  O  O648  1  0.17712560  0.14794237  0.19985387  1
  O  O649  1  0.17774581  0.14696024  0.44920004  1
  O  O650  1  0.17774605  0.14748685  0.69762249  1
  O  O651  1  0.17576943  0.14617219  0.95019975  1
  O  O652  1  0.17564206  0.48012205  0.19939466  1
  O  O653  1  0.17527553  0.47974088  0.45082955  1
  O  O654  1  0.17691140  0.47919128  0.69992209  1
  O  O655  1  0.17852998  0.47992538  0.94756106  1
  O  O656  1  0.17777802  0.81560800  0.20004438  1
  O  O657  1  0.17714019  0.81491755  0.44823430  1
  O  O658  1  0.17620041  0.81510075  0.69863349  1
  O  O659  1  0.17667898  0.81414084  0.95007173  1
  O  O660  1  0.67831286  0.14648694  0.19883271  1
  O  O661  1  0.67631808  0.14567536  0.45086219  1
  O  O662  1  0.67698512  0.14564584  0.70036139  1
  O  O663  1  0.67667570  0.14441457  0.95035842  1
  O  O664  1  0.67603342  0.47953290  0.19996792  1
  O  O665  1  0.67615861  0.47873046  0.44873023  1
  O  O666  1  0.67687185  0.48202140  0.69872996  1
  O  O667  1  0.67634290  0.47828502  0.94955861  1
  O  O668  1  0.67706476  0.81487926  0.19892159  1
  O  O669  1  0.67652641  0.81491919  0.44879801  1
  O  O670  1  0.67668279  0.81529441  0.69975217  1
  O  O671  1  0.67700227  0.81275769  0.94988984  1
