# generated using pymatgen
data_Na2MnFe(PO4)2
_symmetry_space_group_name_H-M   'P 1'
_cell_length_a   22.34312381
_cell_length_b   20.09340503
_cell_length_c   19.44993487
_cell_angle_alpha   89.97165311
_cell_angle_beta   89.95476768
_cell_angle_gamma   90.01380338
_symmetry_Int_Tables_number   1
_chemical_formula_structural   Na2MnFe(PO4)2
_chemical_formula_sum   'Na96 Mn48 Fe48 P96 O384'
_cell_volume   8732.03325673
_cell_formula_units_Z   48
loop_
 _symmetry_equiv_pos_site_id
 _symmetry_equiv_pos_as_xyz
  1  'x, y, z'
loop_
 _atom_site_type_symbol
 _atom_site_label
 _atom_site_symmetry_multiplicity
 _atom_site_fract_x
 _atom_site_fract_y
 _atom_site_fract_z
 _atom_site_occupancy
  Na  Na0  1  0.14016866  0.25114979  0.24413158  1
  Na  Na1  1  0.14025297  0.24909982  0.49368254  1
  Na  Na2  1  0.14061526  0.24893563  0.74257827  1
  Na  Na3  1  0.13989522  0.25042790  0.99225919  1
  Na  Na4  1  0.14042289  0.58260187  0.24412986  1
  Na  Na5  1  0.14012295  0.58133097  0.49333336  1
  Na  Na6  1  0.14080216  0.58311057  0.74373891  1
  Na  Na7  1  0.14096620  0.58512782  0.99335920  1
  Na  Na8  1  0.13977085  0.91609600  0.24329817  1
  Na  Na9  1  0.14009044  0.91629710  0.49438973  1
  Na  Na10  1  0.14070938  0.91749414  0.74389423  1
  Na  Na11  1  0.14066075  0.91647206  0.99262611  1
  Na  Na12  1  0.64017323  0.24893732  0.24271422  1
  Na  Na13  1  0.64046185  0.25088639  0.49345717  1
  Na  Na14  1  0.64063796  0.24960451  0.74491901  1
  Na  Na15  1  0.64036391  0.25041199  0.99464846  1
  Na  Na16  1  0.64072978  0.58306815  0.24346221  1
  Na  Na17  1  0.64022609  0.58483242  0.49384778  1
  Na  Na18  1  0.64099614  0.58418100  0.74460868  1
  Na  Na19  1  0.64109620  0.58330142  0.99371350  1
  Na  Na20  1  0.64078070  0.91710636  0.24292070  1
  Na  Na21  1  0.64057075  0.91769917  0.49467686  1
  Na  Na22  1  0.64081404  0.91623170  0.74434685  1
  Na  Na23  1  0.64042759  0.91721334  0.99386701  1
  Na  Na24  1  0.35936838  0.08345209  0.00516314  1
  Na  Na25  1  0.35930500  0.08442751  0.25619802  1
  Na  Na26  1  0.35846392  0.08273017  0.50618273  1
  Na  Na27  1  0.35902929  0.08274554  0.75626338  1
  Na  Na28  1  0.35954721  0.41791526  0.00527817  1
  Na  Na29  1  0.35951548  0.41632253  0.25681716  1
  Na  Na30  1  0.35930685  0.41549538  0.50661286  1
  Na  Na31  1  0.35961959  0.41655994  0.75649565  1
  Na  Na32  1  0.35981944  0.75061452  0.00573408  1
  Na  Na33  1  0.35984393  0.74943662  0.25703436  1
  Na  Na34  1  0.35910623  0.74980818  0.50640194  1
  Na  Na35  1  0.35869424  0.75062425  0.75706703  1
  Na  Na36  1  0.85910608  0.08338154  0.00688270  1
  Na  Na37  1  0.85959188  0.08207936  0.25615304  1
  Na  Na38  1  0.85954272  0.08342501  0.50643068  1
  Na  Na39  1  0.85975824  0.08274805  0.75699070  1
  Na  Na40  1  0.85995017  0.41492333  0.00721624  1
  Na  Na41  1  0.86007738  0.41516733  0.25678422  1
  Na  Na42  1  0.85954210  0.41763458  0.50505841  1
  Na  Na43  1  0.85970538  0.41640587  0.75731401  1
  Na  Na44  1  0.86031255  0.75115136  0.00648007  1
  Na  Na45  1  0.86004900  0.75007101  0.25579029  1
  Na  Na46  1  0.85938553  0.75086457  0.50560810  1
  Na  Na47  1  0.85950463  0.75074512  0.75655238  1
  Na  Na48  1  0.10954902  0.08289346  0.11824272  1
  Na  Na49  1  0.10932017  0.08285750  0.36868028  1
  Na  Na50  1  0.11001374  0.08285387  0.61906261  1
  Na  Na51  1  0.10996736  0.08296501  0.86710252  1
  Na  Na52  1  0.10976703  0.41755689  0.11952227  1
  Na  Na53  1  0.11019470  0.41659569  0.36876699  1
  Na  Na54  1  0.11003487  0.41579961  0.61740630  1
  Na  Na55  1  0.10960737  0.41567584  0.86781333  1
  Na  Na56  1  0.11023998  0.74987253  0.11788741  1
  Na  Na57  1  0.10914556  0.74911021  0.36852880  1
  Na  Na58  1  0.10959240  0.74928280  0.61889090  1
  Na  Na59  1  0.11054933  0.75065943  0.86863006  1
  Na  Na60  1  0.60973134  0.08492375  0.11843872  1
  Na  Na61  1  0.60967752  0.08412622  0.36771986  1
  Na  Na62  1  0.60980403  0.08310923  0.61923377  1
  Na  Na63  1  0.60986162  0.08329872  0.86913088  1
  Na  Na64  1  0.61000755  0.41575841  0.11944228  1
  Na  Na65  1  0.60965375  0.41705098  0.36762087  1
  Na  Na66  1  0.61009817  0.41715321  0.62027839  1
  Na  Na67  1  0.60987030  0.41565161  0.86935129  1
  Na  Na68  1  0.60987783  0.75154615  0.11899769  1
  Na  Na69  1  0.60955724  0.75109356  0.36825234  1
  Na  Na70  1  0.60981470  0.75115986  0.62011755  1
  Na  Na71  1  0.61054031  0.74982374  0.86821556  1
  Na  Na72  1  0.38999505  0.25073815  0.13038769  1
  Na  Na73  1  0.38990617  0.25067857  0.38094855  1
  Na  Na74  1  0.38973990  0.25080476  0.63194888  1
  Na  Na75  1  0.39002612  0.24982326  0.88053265  1
  Na  Na76  1  0.39038245  0.58404628  0.13146388  1
  Na  Na77  1  0.39033150  0.58330227  0.38080303  1
  Na  Na78  1  0.39017398  0.58281666  0.63265627  1
  Na  Na79  1  0.38995639  0.58216547  0.88134732  1
  Na  Na80  1  0.39039887  0.91777149  0.13104197  1
  Na  Na81  1  0.38991957  0.91685838  0.38085120  1
  Na  Na82  1  0.38910981  0.91679324  0.63194214  1
  Na  Na83  1  0.38979351  0.91637784  0.88089485  1
  Na  Na84  1  0.89015239  0.25033250  0.13195583  1
  Na  Na85  1  0.89026636  0.25040197  0.38049303  1
  Na  Na86  1  0.89035425  0.24877134  0.63145935  1
  Na  Na87  1  0.88995859  0.24894436  0.88237271  1
  Na  Na88  1  0.89113275  0.58368189  0.13129626  1
  Na  Na89  1  0.89057583  0.58280623  0.38084638  1
  Na  Na90  1  0.89040507  0.58314171  0.62995074  1
  Na  Na91  1  0.89071118  0.58368559  0.88254730  1
  Na  Na92  1  0.89036099  0.91604008  0.13180315  1
  Na  Na93  1  0.89013841  0.91604194  0.38117191  1
  Na  Na94  1  0.88968775  0.91728416  0.63224273  1
  Na  Na95  1  0.89044458  0.91606986  0.88185784  1
  Mn  Mn96  1  0.49955458  0.00021354  0.49939499  1
  Mn  Mn97  1  0.75003333  0.00004718  0.37492751  1
  Mn  Mn98  1  -0.00027501  0.00046780  0.50016693  1
  Mn  Mn99  1  0.49956185  0.16699465  0.75005447  1
  Mn  Mn100  1  0.49941726  0.66734255  0.50087726  1
  Mn  Mn101  1  0.49979922  0.50039968  0.24989082  1
  Mn  Mn102  1  0.75032572  0.33352744  0.62471526  1
  Mn  Mn103  1  0.49966960  0.83398803  0.00011907  1
  Mn  Mn104  1  0.24992140  0.33371081  0.87395117  1
  Mn  Mn105  1  0.24933672  0.66512710  0.37644437  1
  Mn  Mn106  1  0.75066132  0.66717632  0.12486045  1
  Mn  Mn107  1  0.75000291  0.50088282  0.62602532  1
  Mn  Mn108  1  0.00027154  0.49944089  0.00030304  1
  Mn  Mn109  1  0.00019785  0.16700417  0.24942552  1
  Mn  Mn110  1  -0.00002034  0.66628760  0.74999532  1
  Mn  Mn111  1  0.24990346  0.50124224  0.12518569  1
  Mn  Mn112  1  0.49935734  0.83364324  0.49967266  1
  Mn  Mn113  1  0.24898449  0.83338506  0.37545433  1
  Mn  Mn114  1  0.49984414  0.66636864  0.75040584  1
  Mn  Mn115  1  0.25083630  0.83294241  0.12447493  1
  Mn  Mn116  1  0.75037473  0.16627655  0.62534313  1
  Mn  Mn117  1  0.75098523  0.49878539  0.12400849  1
  Mn  Mn118  1  0.24984616  0.33419856  0.12388068  1
  Mn  Mn119  1  0.75053029  0.66845937  0.62407387  1
  Mn  Mn120  1  0.50078722  0.49890610  0.00134654  1
  Mn  Mn121  1  0.50033869  0.33380385  0.50023072  1
  Mn  Mn122  1  -0.00034864  0.33299837  0.49997029  1
  Mn  Mn123  1  0.00049003  0.66649983  0.24980591  1
  Mn  Mn124  1  0.75016979  0.00009565  0.87576904  1
  Mn  Mn125  1  0.00009401  0.83261637  0.50021284  1
  Mn  Mn126  1  0.24945752  0.00052006  0.12411770  1
  Mn  Mn127  1  -0.00021384  0.16679624  0.00009253  1
  Mn  Mn128  1  0.74969747  0.66729432  0.37452108  1
  Mn  Mn129  1  0.00006319  0.49939368  0.75014448  1
  Mn  Mn130  1  0.24936434  0.16713801  0.12472608  1
  Mn  Mn131  1  -0.00017980  -0.00091076  -0.00037381  1
  Mn  Mn132  1  0.74985121  0.33284598  0.37500446  1
  Mn  Mn133  1  0.50018880  0.50040438  0.49997328  1
  Mn  Mn134  1  -0.00045915  0.33174061  0.74867881  1
  Mn  Mn135  1  0.75050323  0.49993830  0.87539253  1
  Mn  Mn136  1  -0.00054493  0.83348406  0.74941594  1
  Mn  Mn137  1  0.49993100  0.16739999  0.49965409  1
  Mn  Mn138  1  0.24970649  0.66604014  0.62533358  1
  Mn  Mn139  1  0.49944347  -0.00064092  0.74948268  1
  Mn  Mn140  1  0.50052806  0.66661764  -0.00007109  1
  Mn  Mn141  1  0.49984455  0.16720651  -0.00056525  1
  Mn  Mn142  1  0.49966893  0.00090457  0.24982364  1
  Mn  Mn143  1  0.24942869  0.16647693  0.37549632  1
  Fe  Fe144  1  0.25016339  0.00038508  0.87409801  1
  Fe  Fe145  1  0.00105212  0.83336660  0.00018216  1
  Fe  Fe146  1  0.49953028  0.33329849  0.00003300  1
  Fe  Fe147  1  -0.00035284  0.66584823  0.49911586  1
  Fe  Fe148  1  -0.00003037  0.00004634  0.75025526  1
  Fe  Fe149  1  0.00092928  0.66704685  0.00056731  1
  Fe  Fe150  1  0.24924748  0.83333621  0.62581530  1
  Fe  Fe151  1  0.74996177  -0.00009432  0.12532509  1
  Fe  Fe152  1  0.49921119  0.16750008  0.24897845  1
  Fe  Fe153  1  0.50013527  0.00040554  0.00009739  1
  Fe  Fe154  1  0.00019065  0.33324523  0.00047991  1
  Fe  Fe155  1  0.75078596  0.66760452  0.87486745  1
  Fe  Fe156  1  0.74987500  0.16612250  0.37457572  1
  Fe  Fe157  1  0.25001382  0.33295132  0.37556267  1
  Fe  Fe158  1  0.75030948  0.33253237  0.87619411  1
  Fe  Fe159  1  0.25057022  0.66702717  0.12470331  1
  Fe  Fe160  1  0.50056508  0.49959730  0.75099363  1
  Fe  Fe161  1  0.74979052  0.00012883  0.62529621  1
  Fe  Fe162  1  0.24953382  0.50058437  0.87457329  1
  Fe  Fe163  1  0.74997656  0.33216009  0.12579050  1
  Fe  Fe164  1  0.24975790  -0.00062620  0.62548902  1
  Fe  Fe165  1  0.24990095  0.16665778  0.87338132  1
  Fe  Fe166  1  0.74994326  0.83320202  0.12476075  1
  Fe  Fe167  1  0.50004569  0.83347716  0.75044234  1
  Fe  Fe168  1  0.25055611  0.49892951  0.37503912  1
  Fe  Fe169  1  0.75001428  0.83416365  0.37510177  1
  Fe  Fe170  1  0.50057297  0.66742485  0.25024067  1
  Fe  Fe171  1  -0.00030207  0.49967465  0.49930741  1
  Fe  Fe172  1  -0.00042190  0.16632792  0.49959322  1
  Fe  Fe173  1  0.74967682  0.16678506  0.87615975  1
  Fe  Fe174  1  0.74996307  0.49974176  0.37446781  1
  Fe  Fe175  1  0.75001646  0.83416537  0.62556681  1
  Fe  Fe176  1  0.25052235  0.66730280  0.87441375  1
  Fe  Fe177  1  0.75014458  0.16637437  0.12491142  1
  Fe  Fe178  1  0.25030174  0.49932001  0.62498885  1
  Fe  Fe179  1  0.49938589  0.33339229  0.24960269  1
  Fe  Fe180  1  0.24991048  0.33300696  0.62495304  1
  Fe  Fe181  1  0.00016733  0.16597923  0.75039168  1
  Fe  Fe182  1  0.00043180  0.50002159  0.24997478  1
  Fe  Fe183  1  -0.00021673  0.83299252  0.24958121  1
  Fe  Fe184  1  0.49988112  0.83411501  0.24980038  1
  Fe  Fe185  1  0.75056275  0.83391091  0.87537929  1
  Fe  Fe186  1  0.00012364  -0.00033565  0.24969535  1
  Fe  Fe187  1  0.25020402  0.83374885  0.87486339  1
  Fe  Fe188  1  0.00048962  0.33384120  0.25073451  1
  Fe  Fe189  1  0.50055780  0.33351168  0.75045506  1
  Fe  Fe190  1  0.24926350  -0.00051483  0.37555242  1
  Fe  Fe191  1  0.24982825  0.16580346  0.62415655  1
  P  P192  1  0.04234052  0.25155899  0.10289081  1
  P  P193  1  0.04215545  0.25077492  0.35275412  1
  P  P194  1  0.04191497  0.24757774  0.60240451  1
  P  P195  1  0.04225858  0.24870768  0.85235659  1
  P  P196  1  0.04250313  0.58413431  0.10271758  1
  P  P197  1  0.04216576  0.58176567  0.35299828  1
  P  P198  1  0.04152033  0.58283873  0.60097679  1
  P  P199  1  0.04281711  0.58328883  0.85371790  1
  P  P200  1  0.04262990  0.91528858  0.10297120  1
  P  P201  1  0.04093275  0.91612592  0.35141590  1
  P  P202  1  0.04218080  0.91703226  0.60351046  1
  P  P203  1  0.04208090  0.91728785  0.85236090  1
  P  P204  1  0.54162506  0.25154493  0.10294544  1
  P  P205  1  0.54142549  0.25013546  0.35083987  1
  P  P206  1  0.54297608  0.25062002  0.60377388  1
  P  P207  1  0.54201990  0.25119633  0.85295138  1
  P  P208  1  0.54336490  0.58393286  0.10396798  1
  P  P209  1  0.54248785  0.58493951  0.35234776  1
  P  P210  1  0.54272692  0.58320940  0.60415081  1
  P  P211  1  0.54272727  0.58170444  0.85297400  1
  P  P212  1  0.54200140  0.91840185  0.10288469  1
  P  P213  1  0.54236870  0.91622284  0.35195885  1
  P  P214  1  0.54227037  0.91651528  0.60342739  1
  P  P215  1  0.54232269  0.91596537  0.85293555  1
  P  P216  1  0.45743366  0.08497561  0.14672242  1
  P  P217  1  0.45668709  0.08427327  0.39595353  1
  P  P218  1  0.45663124  0.08364079  0.64667486  1
  P  P219  1  0.45765958  0.08200874  0.89741551  1
  P  P220  1  0.45737719  0.41547113  0.14740450  1
  P  P221  1  0.45743331  0.41664758  0.39644536  1
  P  P222  1  0.45869660  0.41692585  0.64914926  1
  P  P223  1  0.45815908  0.41545988  0.89714997  1
  P  P224  1  0.45861632  0.75064212  0.14852763  1
  P  P225  1  0.45695745  0.75009510  0.39595640  1
  P  P226  1  0.45697021  0.75135948  0.64833679  1
  P  P227  1  0.45763211  0.75012380  0.89657128  1
  P  P228  1  0.95796411  0.08197504  0.14758847  1
  P  P229  1  0.95755327  0.08424142  0.39693489  1
  P  P230  1  0.95845367  0.08349545  0.64848040  1
  P  P231  1  0.95740951  0.08304906  0.89633296  1
  P  P232  1  0.95890522  0.41656238  0.14855068  1
  P  P233  1  0.95810882  0.41755511  0.39658205  1
  P  P234  1  0.95709311  0.41666138  0.64611850  1
  P  P235  1  0.95773972  0.41469702  0.89788038  1
  P  P236  1  0.95844331  0.75099956  0.14670160  1
  P  P237  1  0.95777120  0.74876008  0.39692873  1
  P  P238  1  0.95702757  0.74903614  0.64618654  1
  P  P239  1  0.95932330  0.75028439  0.89881801  1
  P  P240  1  0.20668705  0.08331284  0.22839737  1
  P  P241  1  0.20733735  0.08135221  0.47833903  1
  P  P242  1  0.20910727  0.08313947  0.72689120  1
  P  P243  1  0.20823839  0.08361882  0.97538141  1
  P  P244  1  0.20767473  0.41679664  0.22874966  1
  P  P245  1  0.20893277  0.41587308  0.47750483  1
  P  P246  1  0.20829141  0.41659209  0.72643118  1
  P  P247  1  0.20751857  0.41860009  0.97670708  1
  P  P248  1  0.20803065  0.74846038  0.22734982  1
  P  P249  1  0.20664949  0.74969258  0.47919616  1
  P  P250  1  0.20776459  0.75094887  0.72844239  1
  P  P251  1  0.20925046  0.74998291  0.97636366  1
  P  P252  1  0.70867756  0.08343606  0.22668267  1
  P  P253  1  0.70748873  0.08431493  0.47753918  1
  P  P254  1  0.70781854  0.08202263  0.72817334  1
  P  P255  1  0.70790935  0.08469573  0.97881557  1
  P  P256  1  0.70832220  0.41520733  0.22765551  1
  P  P257  1  0.70732823  0.41819119  0.47719977  1
  P  P258  1  0.70807629  0.41603663  0.72932879  1
  P  P259  1  0.70824092  0.41483917  0.97820114  1
  P  P260  1  0.70807387  0.75140802  0.22762288  1
  P  P261  1  0.70765417  0.75251652  0.47751459  1
  P  P262  1  0.70838361  0.75157915  0.72838904  1
  P  P263  1  0.70902545  0.75089169  0.97682913  1
  P  P264  1  0.29220031  0.25002492  0.02040671  1
  P  P265  1  0.29181170  0.25116323  0.27276747  1
  P  P266  1  0.29094087  0.24993733  0.52319934  1
  P  P267  1  0.29183998  0.24894117  0.77093293  1
  P  P268  1  0.29245746  0.58546968  0.02163544  1
  P  P269  1  0.29220483  0.58221743  0.27280954  1
  P  P270  1  0.29235293  0.58105783  0.52272120  1
  P  P271  1  0.29131372  0.58322236  0.77291639  1
  P  P272  1  0.29269490  0.91713355  0.02054507  1
  P  P273  1  0.29165605  0.91771277  0.27278109  1
  P  P274  1  0.29087382  0.91636970  0.52364977  1
  P  P275  1  0.29086693  0.91686611  0.77255876  1
  P  P276  1  0.79154721  0.24976281  0.02331832  1
  P  P277  1  0.79185728  0.24792222  0.27182999  1
  P  P278  1  0.79297559  0.24969669  0.52140535  1
  P  P279  1  0.79164505  0.24933048  0.77416713  1
  P  P280  1  0.79335517  0.58394712  0.02125363  1
  P  P281  1  0.79239820  0.58202350  0.27227411  1
  P  P282  1  0.79229424  0.58356581  0.52105726  1
  P  P283  1  0.79286172  0.58511302  0.77293860  1
  P  P284  1  0.79133458  0.91658189  0.02354692  1
  P  P285  1  0.79206084  0.91548663  0.27179490  1
  P  P286  1  0.79164584  0.91703430  0.52353127  1
  P  P287  1  0.79242562  0.91589773  0.77256853  1
  O  O288  1  0.03712989  0.25169002  0.18285263  1
  O  O289  1  0.03665123  0.25003183  0.43264528  1
  O  O290  1  0.03685152  0.24725000  0.68238246  1
  O  O291  1  0.03750360  0.24946977  0.93232595  1
  O  O292  1  0.03737345  0.58381704  0.18266795  1
  O  O293  1  0.03646563  0.58202078  0.43285065  1
  O  O294  1  0.03650028  0.58277638  0.68100900  1
  O  O295  1  0.03770366  0.58356241  0.93367480  1
  O  O296  1  0.03724262  0.91548350  0.18286017  1
  O  O297  1  0.03597647  0.91650117  0.43139510  1
  O  O298  1  0.03689746  0.91764350  0.68340502  1
  O  O299  1  0.03727765  0.91663843  0.93233972  1
  O  O300  1  0.53594695  0.25123805  0.18279997  1
  O  O301  1  0.53689062  0.25014166  0.43091643  1
  O  O302  1  0.53793337  0.25100873  0.68374319  1
  O  O303  1  0.53663912  0.25123435  0.93286855  1
  O  O304  1  0.53800259  0.58467772  0.18390888  1
  O  O305  1  0.53732269  0.58464938  0.43236375  1
  O  O306  1  0.53758375  0.58245568  0.68413869  1
  O  O307  1  0.53790198  0.58184547  0.93297969  1
  O  O308  1  0.53656070  0.91765015  0.18279321  1
  O  O309  1  0.53727173  0.91658502  0.43192926  1
  O  O310  1  0.53719588  0.91587818  0.68339858  1
  O  O311  1  0.53705788  0.91699570  0.93289605  1
  O  O312  1  0.46293479  0.08410209  0.06680326  1
  O  O313  1  0.46173716  0.08490761  0.31594228  1
  O  O314  1  0.46162771  0.08371766  0.56669145  1
  O  O315  1  0.46259975  0.08219018  0.81746176  1
  O  O316  1  0.46256694  0.41527409  0.06743833  1
  O  O317  1  0.46231605  0.41616583  0.31647590  1
  O  O318  1  0.46337061  0.41714795  0.56910181  1
  O  O319  1  0.46388889  0.41598227  0.81729221  1
  O  O320  1  0.46375956  0.75041382  0.06851998  1
  O  O321  1  0.46235936  0.75007245  0.31602224  1
  O  O322  1  0.46177280  0.75105817  0.56829358  1
  O  O323  1  0.46284139  0.75062499  0.81667064  1
  O  O324  1  0.96278563  0.08203938  0.06763752  1
  O  O325  1  0.96292536  0.08354802  0.31705107  1
  O  O326  1  0.96313719  0.08382217  0.56844833  1
  O  O327  1  0.96263604  0.08307814  0.81640273  1
  O  O328  1  0.96392055  0.41584420  0.06856554  1
  O  O329  1  0.96372521  0.41729173  0.31671359  1
  O  O330  1  0.96230177  0.41719225  0.56615964  1
  O  O331  1  0.96260715  0.41483179  0.81788861  1
  O  O332  1  0.96410784  0.75077354  0.06686093  1
  O  O333  1  0.96330755  0.74942275  0.31700244  1
  O  O334  1  0.96233074  0.74846050  0.56626607  1
  O  O335  1  0.96370949  0.75013581  0.81879349  1
  O  O336  1  0.21284597  0.08388824  0.05543304  1
  O  O337  1  0.21158687  0.08277271  0.30836013  1
  O  O338  1  0.21290116  0.08129394  0.55818802  1
  O  O339  1  0.21433240  0.08368942  0.80677200  1
  O  O340  1  0.21252356  0.41840637  0.05665755  1
  O  O341  1  0.21299421  0.41634255  0.30865858  1
  O  O342  1  0.21432487  0.41581130  0.55740238  1
  O  O343  1  0.21304369  0.41706515  0.80639287  1
  O  O344  1  0.21417042  0.74986256  0.05632316  1
  O  O345  1  0.21251970  0.74857925  0.30736396  1
  O  O346  1  0.21192004  0.75023119  0.55912513  1
  O  O347  1  0.21364686  0.75057355  0.80828209  1
  O  O348  1  0.71348262  0.08439924  0.05864381  1
  O  O349  1  0.71333701  0.08339621  0.30667083  1
  O  O350  1  0.71280172  0.08363314  0.55744620  1
  O  O351  1  0.71288581  0.08250624  0.80809495  1
  O  O352  1  0.71347149  0.41437669  0.05815327  1
  O  O353  1  0.71368692  0.41618948  0.30758657  1
  O  O354  1  0.71252732  0.41794656  0.55719610  1
  O  O355  1  0.71360263  0.41525502  0.80924389  1
  O  O356  1  0.71403740  0.75097944  0.05679610  1
  O  O357  1  0.71310227  0.75150546  0.30755192  1
  O  O358  1  0.71320100  0.75272185  0.55744696  1
  O  O359  1  0.71403400  0.75095421  0.80823273  1
  O  O360  1  0.28672218  0.25108546  0.19280355  1
  O  O361  1  0.28601861  0.25021854  0.44322489  1
  O  O362  1  0.28646395  0.24918675  0.69107312  1
  O  O363  1  0.28710728  0.24939599  0.94043021  1
  O  O364  1  0.28729423  0.58337321  0.19286663  1
  O  O365  1  0.28730349  0.58069738  0.44278043  1
  O  O366  1  0.28621199  0.58244554  0.69297639  1
  O  O367  1  0.28715798  0.58543217  0.94179937  1
  O  O368  1  0.28678965  0.91742994  0.19278635  1
  O  O369  1  0.28544998  0.91679161  0.44371604  1
  O  O370  1  0.28548794  0.91637059  0.69270262  1
  O  O371  1  0.28753597  0.91725387  0.94063948  1
  O  O372  1  0.78643915  0.24819581  0.19193957  1
  O  O373  1  0.78777226  0.24923761  0.44148585  1
  O  O374  1  0.78685261  0.24934384  0.69415375  1
  O  O375  1  0.78611162  0.25020357  0.94343268  1
  O  O376  1  0.78753831  0.58214666  0.19227307  1
  O  O377  1  0.78666731  0.58284667  0.44114688  1
  O  O378  1  0.78766210  0.58511423  0.69294853  1
  O  O379  1  0.78804027  0.58462043  0.94132944  1
  O  O380  1  0.78666829  0.91559779  0.19196907  1
  O  O381  1  0.78666632  0.91706097  0.44354581  1
  O  O382  1  0.78703391  0.91619502  0.69273928  1
  O  O383  1  0.78664751  0.91674086  0.94357693  1
  O  O384  1  0.22782900  0.25038651  0.05575512  1
  O  O385  1  0.22757057  0.25133691  0.30854438  1
  O  O386  1  0.22686249  0.25039237  0.55923720  1
  O  O387  1  0.22772141  0.24909264  0.80716040  1
  O  O388  1  0.22826540  0.58575567  0.05781774  1
  O  O389  1  0.22793158  0.58105179  0.30859242  1
  O  O390  1  0.22798563  0.58136194  0.55825356  1
  O  O391  1  0.22724251  0.58408173  0.80908713  1
  O  O392  1  0.22842504  0.91643166  0.05623791  1
  O  O393  1  0.22722651  0.91805987  0.30820184  1
  O  O394  1  0.22681699  0.91623923  0.56005776  1
  O  O395  1  0.22704959  0.91774765  0.80937845  1
  O  O396  1  0.72750951  0.24973206  0.05983268  1
  O  O397  1  0.72772267  0.24799637  0.30806374  1
  O  O398  1  0.72862095  0.24976215  0.55675601  1
  O  O399  1  0.72742176  0.24937081  0.81003322  1
  O  O400  1  0.72906628  0.58334541  0.05669806  1
  O  O401  1  0.72803540  0.58226605  0.30767144  1
  O  O402  1  0.72817525  0.58414457  0.55703286  1
  O  O403  1  0.72858799  0.58492282  0.80857562  1
  O  O404  1  0.72715939  0.91624333  0.05941733  1
  O  O405  1  0.72791980  0.91550544  0.30806663  1
  O  O406  1  0.72752888  0.91721182  0.55977260  1
  O  O407  1  0.72830249  0.91537747  0.80884978  1
  O  O408  1  0.27111503  0.08364196  0.19317506  1
  O  O409  1  0.27139197  0.08136466  0.44186317  1
  O  O410  1  0.27296513  0.08251473  0.69023952  1
  O  O411  1  0.27250858  0.08312446  0.93970642  1
  O  O412  1  0.27184775  0.41715949  0.19283627  1
  O  O413  1  0.27291054  0.41575582  0.44080828  1
  O  O414  1  0.27259741  0.41604508  0.69072914  1
  O  O415  1  0.27185206  0.41843537  0.94119910  1
  O  O416  1  0.27251632  0.74839206  0.19210699  1
  O  O417  1  0.27090441  0.74966559  0.44364469  1
  O  O418  1  0.27173371  0.75108054  0.69186271  1
  O  O419  1  0.27332523  0.74979993  0.94024900  1
  O  O420  1  0.77284784  0.08370454  0.19081556  1
  O  O421  1  0.77179322  0.08471038  0.44170458  1
  O  O422  1  0.77208371  0.08158945  0.69232469  1
  O  O423  1  0.77196843  0.08499220  0.94242512  1
  O  O424  1  0.77255271  0.41444940  0.19176076  1
  O  O425  1  0.77168117  0.41790157  0.44163851  1
  O  O426  1  0.77228930  0.41652386  0.69358035  1
  O  O427  1  0.77250436  0.41517717  0.94252484  1
  O  O428  1  0.77241894  0.75180142  0.19201217  1
  O  O429  1  0.77183845  0.75208810  0.44145177  1
  O  O430  1  0.77242255  0.75232161  0.69189998  1
  O  O431  1  0.77325524  0.75109637  0.94086142  1
  O  O432  1  0.02229748  0.08237305  0.18284753  1
  O  O433  1  0.02177733  0.08467477  0.43278405  1
  O  O434  1  0.02268842  0.08347277  0.68428648  1
  O  O435  1  0.02168786  0.08314515  0.93178050  1
  O  O436  1  0.02303840  0.41704061  0.18458143  1
  O  O437  1  0.02210655  0.41752741  0.43297437  1
  O  O438  1  0.02150132  0.41601984  0.68127658  1
  O  O439  1  0.02217294  0.41482014  0.93305926  1
  O  O440  1  0.02248258  0.75132537  0.18301411  1
  O  O441  1  0.02189519  0.74803454  0.43295715  1
  O  O442  1  0.02137336  0.74965147  0.68148148  1
  O  O443  1  0.02364744  0.75085590  0.93425096  1
  O  O444  1  0.52160856  0.08543041  0.18264519  1
  O  O445  1  0.52117209  0.08392663  0.43093365  1
  O  O446  1  0.52107820  0.08343949  0.68156492  1
  O  O447  1  0.52197717  0.08224119  0.93285066  1
  O  O448  1  0.52165584  0.41564383  0.18298356  1
  O  O449  1  0.52190136  0.41699462  0.43142038  1
  O  O450  1  0.52298265  0.41693504  0.68467419  1
  O  O451  1  0.52223046  0.41469725  0.93353483  1
  O  O452  1  0.52281389  0.75118135  0.18430306  1
  O  O453  1  0.52122526  0.75010903  0.43154847  1
  O  O454  1  0.52144496  0.75149807  0.68342985  1
  O  O455  1  0.52196276  0.75043376  0.93185705  1
  O  O456  1  0.47760043  0.25164982  0.06653473  1
  O  O457  1  0.47702933  0.25001993  0.31554274  1
  O  O458  1  0.47850146  0.25058969  0.56874538  1
  O  O459  1  0.47782879  0.25141073  0.81712764  1
  O  O460  1  0.47902443  0.58329428  0.06870049  1
  O  O461  1  0.47818951  0.58506809  0.31691037  1
  O  O462  1  0.47829114  0.58335636  0.56900447  1
  O  O463  1  0.47833459  0.58165843  0.81775090  1
  O  O464  1  0.47781026  0.91888712  0.06702038  1
  O  O465  1  0.47795328  0.91611723  0.31675632  1
  O  O466  1  0.47782312  0.91698018  0.56839053  1
  O  O467  1  0.47800186  0.91497122  0.81729660  1
  O  O468  1  0.97799963  0.25144904  0.06731574  1
  O  O469  1  0.97805375  0.25110179  0.31671873  1
  O  O470  1  0.97764095  0.24795371  0.56681822  1
  O  O471  1  0.97783064  0.24803370  0.81710954  1
  O  O472  1  0.97833335  0.58417999  0.06701259  1
  O  O473  1  0.97818337  0.58180477  0.31656023  1
  O  O474  1  0.97735527  0.58300692  0.56507195  1
  O  O475  1  0.97839190  0.58290395  0.81860766  1
  O  O476  1  0.97839527  0.91447306  0.06703836  1
  O  O477  1  0.97686243  0.91575439  0.31544027  1
  O  O478  1  0.97791836  0.91661474  0.56810450  1
  O  O479  1  0.97774216  0.91784485  0.81696926  1
  O  O480  1  0.07319424  0.31487701  0.07396944  1
  O  O481  1  0.07289090  0.31461283  0.32479159  1
  O  O482  1  0.07299706  0.31145148  0.57495523  1
  O  O483  1  0.07321067  0.31212104  0.82360314  1
  O  O484  1  0.07300105  0.64795016  0.07421180  1
  O  O485  1  0.07362572  0.64525455  0.32501559  1
  O  O486  1  0.07231481  0.64660244  0.57297055  1
  O  O487  1  0.07378716  0.64666029  0.82510221  1
  O  O488  1  0.07333848  0.97909607  0.07467578  1
  O  O489  1  0.07121830  0.98019056  0.32309574  1
  O  O490  1  0.07332514  0.98024181  0.57476794  1
  O  O491  1  0.07278522  0.98097271  0.82393562  1
  O  O492  1  0.57266369  0.31490253  0.07429630  1
  O  O493  1  0.57207227  0.31397537  0.32274888  1
  O  O494  1  0.57417801  0.31386944  0.57505250  1
  O  O495  1  0.57321699  0.31434763  0.82422017  1
  O  O496  1  0.57449012  0.64711469  0.07503500  1
  O  O497  1  0.57329171  0.64851867  0.32399889  1
  O  O498  1  0.57344185  0.64717340  0.57640861  1
  O  O499  1  0.57369374  0.64544353  0.82518737  1
  O  O500  1  0.57278879  0.98210979  0.07470440  1
  O  O501  1  0.57354783  0.97983582  0.32414277  1
  O  O502  1  0.57327139  0.98019813  0.57541305  1
  O  O503  1  0.57318507  0.97953607  0.82452561  1
  O  O504  1  0.42611829  0.02164336  0.17503449  1
  O  O505  1  0.42583210  0.02045558  0.42385138  1
  O  O506  1  0.42545964  0.02022804  0.67477687  1
  O  O507  1  0.42726938  0.01833470  0.92600519  1
  O  O508  1  0.42644863  0.35214635  0.17617598  1
  O  O509  1  0.42652332  0.35330176  0.42531172  1
  O  O510  1  0.42805683  0.35301079  0.67707545  1
  O  O511  1  0.42671292  0.35216354  0.92541854  1
  O  O512  1  0.42820392  0.68672884  0.17679066  1
  O  O513  1  0.42573790  0.68684425  0.42481836  1
  O  O514  1  0.42605029  0.68757417  0.67613426  1
  O  O515  1  0.42703919  0.68616736  0.92443710  1
  O  O516  1  0.92777208  0.01812819  0.17627650  1
  O  O517  1  0.92642789  0.02072930  0.42527206  1
  O  O518  1  0.92806231  0.01942880  0.67664811  1
  O  O519  1  0.92619245  0.01961923  0.92473893  1
  O  O520  1  0.92811894  0.35305664  0.17737510  1
  O  O521  1  0.92666571  0.35404030  0.42451309  1
  O  O522  1  0.92588891  0.35297962  0.67387547  1
  O  O523  1  0.92725737  0.35109816  0.92667016  1
  O  O524  1  0.92722755  0.68739000  0.17471334  1
  O  O525  1  0.92673791  0.68516747  0.42493463  1
  O  O526  1  0.92606175  0.68576535  0.67503274  1
  O  O527  1  0.92924345  0.68625111  0.92737502  1
  O  O528  1  0.17563361  0.02015163  0.19944913  1
  O  O529  1  0.17638446  0.01803196  0.44946047  1
  O  O530  1  0.17752882  0.01967308  0.69923571  1
  O  O531  1  0.17717401  0.01996806  0.94759105  1
  O  O532  1  0.17655807  0.35353449  0.19993694  1
  O  O533  1  0.17772095  0.35231277  0.44935782  1
  O  O534  1  0.17723203  0.35294808  0.69843081  1
  O  O535  1  0.17630649  0.35512708  0.94877371  1
  O  O536  1  0.17748480  0.68488838  0.19872543  1
  O  O537  1  0.17585687  0.68585372  0.45148247  1
  O  O538  1  0.17641733  0.68741123  0.70049760  1
  O  O539  1  0.17781558  0.68683970  0.94800012  1
  O  O540  1  0.67849454  0.01929468  0.19837437  1
  O  O541  1  0.67638810  0.02082994  0.44932010  1
  O  O542  1  0.67716268  0.01841388  0.69963847  1
  O  O543  1  0.67680689  0.02112256  0.95073139  1
  O  O544  1  0.67737222  0.35144698  0.19994981  1
  O  O545  1  0.67612279  0.35455078  0.44950783  1
  O  O546  1  0.67692048  0.35292832  0.70043972  1
  O  O547  1  0.67739011  0.35157078  0.94932072  1
  O  O548  1  0.67758917  0.68733841  0.19986199  1
  O  O549  1  0.67634655  0.68883001  0.45004459  1
  O  O550  1  0.67737708  0.68799516  0.70004043  1
  O  O551  1  0.67857244  0.68693062  0.94860811  1
  O  O552  1  0.32321004  0.31376320  0.04812663  1
  O  O553  1  0.32273417  0.31450530  0.30133057  1
  O  O554  1  0.32260292  0.31294764  0.55169723  1
  O  O555  1  0.32321585  0.31238332  0.79897159  1
  O  O556  1  0.32343996  0.64870810  0.05080028  1
  O  O557  1  0.32285221  0.64575402  0.30148721  1
  O  O558  1  0.32337876  0.64486473  0.55036937  1
  O  O559  1  0.32273374  0.64681986  0.80033569  1
  O  O560  1  0.32336723  0.98072209  0.04914386  1
  O  O561  1  0.32248735  0.98115784  0.30123319  1
  O  O562  1  0.32206052  0.97979827  0.55189235  1
  O  O563  1  0.32263754  0.98018236  0.80027895  1
  O  O564  1  0.82259426  0.31313003  0.05216043  1
  O  O565  1  0.82324851  0.31139667  0.29974736  1
  O  O566  1  0.82382818  0.31349196  0.54926285  1
  O  O567  1  0.82255933  0.31297102  0.80223857  1
  O  O568  1  0.82435341  0.64716665  0.05010027  1
  O  O569  1  0.82361357  0.64569565  0.29975987  1
  O  O570  1  0.82353800  0.64734355  0.54830908  1
  O  O571  1  0.82347613  0.64875379  0.80135774  1
  O  O572  1  0.82157684  0.98065280  0.05193627  1
  O  O573  1  0.82316669  0.97912304  0.29986827  1
  O  O574  1  0.82229047  0.98092418  0.55168145  1
  O  O575  1  0.82329391  0.97951655  0.80089830  1
  O  O576  1  0.42661521  0.14873383  0.17460942  1
  O  O577  1  0.42555643  0.14741457  0.42477670  1
  O  O578  1  0.42584988  0.14717409  0.67497801  1
  O  O579  1  0.42641033  0.14566625  0.92484149  1
  O  O580  1  0.42636022  0.47932329  0.17491505  1
  O  O581  1  0.42647316  0.48021228  0.42457079  1
  O  O582  1  0.42789035  0.48050336  0.67758958  1
  O  O583  1  0.42736991  0.47914556  0.92552514  1
  O  O584  1  0.42747667  0.81437829  0.17607022  1
  O  O585  1  0.42572656  0.81354663  0.42426947  1
  O  O586  1  0.42632316  0.81486049  0.67685786  1
  O  O587  1  0.42602538  0.81306953  0.92519164  1
  O  O588  1  0.92654715  0.14547626  0.17504480  1
  O  O589  1  0.92681598  0.14785710  0.42525201  1
  O  O590  1  0.92735748  0.14680480  0.67709353  1
  O  O591  1  0.92617985  0.14625501  0.92512488  1
  O  O592  1  0.92807282  0.48054476  0.17602697  1
  O  O593  1  0.92717105  0.48100718  0.42513174  1
  O  O594  1  0.92617273  0.47989739  0.67499992  1
  O  O595  1  0.92662922  0.47826541  0.92575156  1
  O  O596  1  0.92726608  0.81423660  0.17547412  1
  O  O597  1  0.92680486  0.81236741  0.42500635  1
  O  O598  1  0.92591223  0.81263920  0.67409593  1
  O  O599  1  0.92820092  0.81380989  0.92679774  1
  O  O600  1  0.07323765  0.18769571  0.07515807  1
  O  O601  1  0.07354093  0.18749481  0.32456163  1
  O  O602  1  0.07260242  0.18430948  0.57333051  1
  O  O603  1  0.07309524  0.18513591  0.82394611  1
  O  O604  1  0.07395602  0.52077800  0.07488821  1
  O  O605  1  0.07303059  0.51833380  0.32431930  1
  O  O606  1  0.07219752  0.51898423  0.57302975  1
  O  O607  1  0.07377823  0.51971735  0.82545040  1
  O  O608  1  0.07404392  0.85223353  0.07405278  1
  O  O609  1  0.07218276  0.85255115  0.32376038  1
  O  O610  1  0.07333166  0.85341228  0.57575633  1
  O  O611  1  0.07307491  0.85383013  0.82409168  1
  O  O612  1  0.57286910  0.18799319  0.07493544  1
  O  O613  1  0.57208939  0.18645939  0.32246267  1
  O  O614  1  0.57378767  0.18698212  0.57553586  1
  O  O615  1  0.57279216  0.18715377  0.82555302  1
  O  O616  1  0.57456305  0.52022092  0.07644574  1
  O  O617  1  0.57356005  0.52132509  0.32452074  1
  O  O618  1  0.57405883  0.52023050  0.57518809  1
  O  O619  1  0.57345082  0.51815638  0.82462704  1
  O  O620  1  0.57313944  0.85493904  0.07474061  1
  O  O621  1  0.57293497  0.85267003  0.32341610  1
  O  O622  1  0.57337027  0.85331237  0.57477435  1
  O  O623  1  0.57323485  0.85234254  0.82490743  1
  O  O624  1  0.32322573  0.18681482  0.04931177  1
  O  O625  1  0.32269044  0.18740934  0.30052611  1
  O  O626  1  0.32104759  0.18558087  0.55102532  1
  O  O627  1  0.32260855  0.18539559  0.79960763  1
  O  O628  1  0.32343103  0.52176338  0.04973609  1
  O  O629  1  0.32330227  0.51861004  0.30069803  1
  O  O630  1  0.32316369  0.51777885  0.55177989  1
  O  O631  1  0.32165168  0.51940566  0.80165376  1
  O  O632  1  0.32426351  0.85397435  0.04906236  1
  O  O633  1  0.32232223  0.85386292  0.30068026  1
  O  O634  1  0.32159987  0.85246405  0.55155976  1
  O  O635  1  0.32115800  0.85296074  0.80131527  1
  O  O636  1  0.82257931  0.18602529  0.05114408  1
  O  O637  1  0.82259753  0.18440063  0.30048563  1
  O  O638  1  0.82426139  0.18662459  0.55022503  1
  O  O639  1  0.82216276  0.18547227  0.80232277  1
  O  O640  1  0.82460405  0.52025258  0.04874429  1
  O  O641  1  0.82275923  0.51827245  0.30073027  1
  O  O642  1  0.82348059  0.52044313  0.54988455  1
  O  O643  1  0.82413417  0.52150612  0.80051131  1
  O  O644  1  0.82263175  0.85322995  0.05167604  1
  O  O645  1  0.82299047  0.85222570  0.30083636  1
  O  O646  1  0.82260904  0.85349954  0.55171469  1
  O  O647  1  0.82368762  0.85268015  0.80131901  1
  O  O648  1  0.17582870  0.14705981  0.20034550  1
  O  O649  1  0.17619286  0.14507355  0.45062460  1
  O  O650  1  0.17859055  0.14684495  0.69791676  1
  O  O651  1  0.17787309  0.14749083  0.94701002  1
  O  O652  1  0.17639675  0.48021534  0.20052093  1
  O  O653  1  0.17819833  0.47956930  0.44908083  1
  O  O654  1  0.17770442  0.48026439  0.69778378  1
  O  O655  1  0.17711772  0.48240307  0.94841855  1
  O  O656  1  0.17727258  0.81218299  0.19928695  1
  O  O657  1  0.17520974  0.81273827  0.45049251  1
  O  O658  1  0.17668460  0.81442199  0.70015678  1
  O  O659  1  0.17893513  0.81410454  0.94814556  1
  O  O660  1  0.67725740  0.14660642  0.19835164  1
  O  O661  1  0.67669698  0.14787716  0.44910691  1
  O  O662  1  0.67669393  0.14553061  0.70008953  1
  O  O663  1  0.67686890  0.14809778  0.95022740  1
  O  O664  1  0.67728882  0.47860327  0.19922853  1
  O  O665  1  0.67680396  0.48176872  0.44859334  1
  O  O666  1  0.67698561  0.47990807  0.70203546  1
  O  O667  1  0.67711752  0.47870530  0.95085838  1
  O  O668  1  0.67686978  0.81443528  0.19862547  1
  O  O669  1  0.67698185  0.81599952  0.44888480  1
  O  O670  1  0.67709865  0.81489309  0.70001375  1
  O  O671  1  0.67785764  0.81436305  0.94868138  1
