# generated using pymatgen
data_Na2MnFe(PO4)2
_symmetry_space_group_name_H-M   'P 1'
_cell_length_a   22.34150828
_cell_length_b   20.09593715
_cell_length_c   19.45337993
_cell_angle_alpha   90.01155055
_cell_angle_beta   90.07262509
_cell_angle_gamma   90.02719751
_symmetry_Int_Tables_number   1
_chemical_formula_structural   Na2MnFe(PO4)2
_chemical_formula_sum   'Na96 Mn48 Fe48 P96 O384'
_cell_volume   8734.04479200
_cell_formula_units_Z   48
loop_
 _symmetry_equiv_pos_site_id
 _symmetry_equiv_pos_as_xyz
  1  'x, y, z'
loop_
 _atom_site_type_symbol
 _atom_site_label
 _atom_site_symmetry_multiplicity
 _atom_site_fract_x
 _atom_site_fract_y
 _atom_site_fract_z
 _atom_site_occupancy
  Na  Na0  1  0.13999911  0.24791748  0.24517187  1
  Na  Na1  1  0.14021130  0.25016784  0.49446281  1
  Na  Na2  1  0.14042290  0.24957408  0.74337729  1
  Na  Na3  1  0.14003815  0.24943992  0.99518476  1
  Na  Na4  1  0.14027448  0.58280910  0.24508565  1
  Na  Na5  1  0.14031471  0.58338155  0.49438804  1
  Na  Na6  1  0.13971642  0.58268750  0.74342507  1
  Na  Na7  1  0.13999477  0.58359070  0.99363301  1
  Na  Na8  1  0.13954255  0.91584261  0.24434924  1
  Na  Na9  1  0.13968507  0.91768713  0.49314177  1
  Na  Na10  1  0.14018348  0.91807875  0.74326115  1
  Na  Na11  1  0.13997698  0.91686232  0.99481665  1
  Na  Na12  1  0.63988295  0.25101225  0.24380980  1
  Na  Na13  1  0.64030059  0.25050587  0.49324499  1
  Na  Na14  1  0.64027682  0.25182243  0.74193612  1
  Na  Na15  1  0.64008294  0.25182880  0.99281295  1
  Na  Na16  1  0.63968132  0.58313733  0.24345596  1
  Na  Na17  1  0.64035367  0.58139663  0.49264750  1
  Na  Na18  1  0.64044250  0.58283872  0.74329589  1
  Na  Na19  1  0.64013462  0.58407427  0.99184854  1
  Na  Na20  1  0.64029194  0.91620814  0.24329208  1
  Na  Na21  1  0.64027211  0.91577728  0.49311008  1
  Na  Na22  1  0.64028805  0.91647964  0.74305756  1
  Na  Na23  1  0.64032829  0.91634477  0.99277007  1
  Na  Na24  1  0.36049758  0.08296023  0.00630999  1
  Na  Na25  1  0.35989064  0.08209571  0.25647641  1
  Na  Na26  1  0.36008156  0.08439451  0.50634615  1
  Na  Na27  1  0.36038239  0.08444206  0.75566915  1
  Na  Na28  1  0.36087142  0.41616361  0.00659358  1
  Na  Na29  1  0.36068153  0.41533859  0.25734171  1
  Na  Na30  1  0.36066131  0.41630341  0.50670516  1
  Na  Na31  1  0.36084161  0.41592980  0.75607265  1
  Na  Na32  1  0.36009973  0.75015756  0.00675927  1
  Na  Na33  1  0.36043583  0.74886314  0.25658408  1
  Na  Na34  1  0.35975809  0.75035867  0.50464739  1
  Na  Na35  1  0.36012657  0.75002569  0.75594414  1
  Na  Na36  1  0.85934816  0.08379164  0.00558899  1
  Na  Na37  1  0.85983316  0.08406733  0.25835462  1
  Na  Na38  1  0.85974013  0.08269144  0.50761516  1
  Na  Na39  1  0.85977994  0.08407309  0.75612196  1
  Na  Na40  1  0.85934138  0.41806572  0.00478062  1
  Na  Na41  1  0.85912321  0.41766814  0.25736853  1
  Na  Na42  1  0.85916560  0.41629831  0.50681421  1
  Na  Na43  1  0.85930408  0.41815464  0.75617915  1
  Na  Na44  1  0.86017495  0.75047020  0.00611620  1
  Na  Na45  1  0.85928104  0.75034180  0.25648778  1
  Na  Na46  1  0.85888970  0.74898681  0.50624438  1
  Na  Na47  1  0.85939708  0.74945864  0.75700888  1
  Na  Na48  1  0.10906711  0.08191677  0.12031080  1
  Na  Na49  1  0.10911262  0.08300033  0.36889863  1
  Na  Na50  1  0.10922120  0.08288255  0.61834642  1
  Na  Na51  1  0.10930995  0.08290370  0.86904234  1
  Na  Na52  1  0.10905761  0.41705051  0.11997486  1
  Na  Na53  1  0.10934697  0.41673109  0.36973897  1
  Na  Na54  1  0.10949977  0.41607177  0.61851993  1
  Na  Na55  1  0.10917857  0.41658706  0.86823606  1
  Na  Na56  1  0.10911409  0.75086309  0.11956720  1
  Na  Na57  1  0.10895425  0.75168018  0.36902093  1
  Na  Na58  1  0.10887765  0.74982007  0.61874847  1
  Na  Na59  1  0.10910221  0.74998291  0.86926977  1
  Na  Na60  1  0.60947805  0.08499268  0.11909549  1
  Na  Na61  1  0.60976459  0.08261343  0.36830083  1
  Na  Na62  1  0.60965617  0.08493454  0.61791610  1
  Na  Na63  1  0.60900783  0.08301932  0.86767069  1
  Na  Na64  1  0.60937127  0.41780008  0.11869905  1
  Na  Na65  1  0.60966420  0.41657085  0.36786999  1
  Na  Na66  1  0.61042325  0.41673432  0.61783394  1
  Na  Na67  1  0.61011305  0.41600977  0.86744595  1
  Na  Na68  1  0.60978047  0.74930302  0.11794248  1
  Na  Na69  1  0.60916987  0.74840277  0.36734690  1
  Na  Na70  1  0.60976850  0.75042438  0.61819553  1
  Na  Na71  1  0.60993562  0.74856223  0.86796005  1
  Na  Na72  1  0.39166807  0.25116908  0.13180474  1
  Na  Na73  1  0.39073626  0.24951005  0.38202388  1
  Na  Na74  1  0.39090989  0.25134547  0.63195229  1
  Na  Na75  1  0.39119407  0.24984163  0.88016803  1
  Na  Na76  1  0.39153025  0.58271997  0.13136248  1
  Na  Na77  1  0.39077352  0.58191861  0.38142381  1
  Na  Na78  1  0.39107070  0.58256468  0.63099437  1
  Na  Na79  1  0.39142822  0.58151997  0.88138065  1
  Na  Na80  1  0.39104321  0.91715506  0.13195515  1
  Na  Na81  1  0.39095601  0.91577481  0.38052556  1
  Na  Na82  1  0.39109249  0.91777192  0.63061562  1
  Na  Na83  1  0.39119337  0.91546716  0.88138753  1
  Na  Na84  1  0.89011100  0.24983228  0.13189366  1
  Na  Na85  1  0.89024423  0.24988901  0.38307740  1
  Na  Na86  1  0.88988613  0.24949176  0.63226025  1
  Na  Na87  1  0.89008435  0.25016203  0.87996562  1
  Na  Na88  1  0.88960441  0.58584435  0.13120872  1
  Na  Na89  1  0.88963897  0.58418763  0.38232470  1
  Na  Na90  1  0.89004518  0.58281012  0.63153564  1
  Na  Na91  1  0.89005772  0.58461769  0.88138668  1
  Na  Na92  1  0.89041872  0.91728874  0.13187566  1
  Na  Na93  1  0.89001596  0.91784522  0.38237224  1
  Na  Na94  1  0.89024917  0.91604831  0.63131799  1
  Na  Na95  1  0.89019504  0.91602164  0.88074389  1
  Mn  Mn96  1  0.50033565  0.66569036  0.74941740  1
  Mn  Mn97  1  -0.00074660  0.50145196  -0.00032409  1
  Mn  Mn98  1  0.74956958  0.00008499  0.87465577  1
  Mn  Mn99  1  0.25014446  0.83386910  0.87540714  1
  Mn  Mn100  1  -0.00060622  0.50116198  0.24980144  1
  Mn  Mn101  1  0.75046703  0.83270044  0.12476211  1
  Mn  Mn102  1  0.25011700  0.49907702  0.12537016  1
  Mn  Mn103  1  0.74997465  0.33467176  0.12449552  1
  Mn  Mn104  1  0.00000441  0.83323370  0.74986846  1
  Mn  Mn105  1  -0.00015653  0.33322169  0.00015183  1
  Mn  Mn106  1  0.74915236  0.16827919  0.87485975  1
  Mn  Mn107  1  0.25014466  0.66593908  0.12589767  1
  Mn  Mn108  1  0.24988861  0.83344365  0.12546320  1
  Mn  Mn109  1  0.50034871  -0.00018190  0.74964349  1
  Mn  Mn110  1  0.74960733  0.66619383  0.62516264  1
  Mn  Mn111  1  0.49986712  0.83365590  0.49918210  1
  Mn  Mn112  1  -0.00132684  -0.00074158  0.00019071  1
  Mn  Mn113  1  0.25009693  0.66698561  0.62437691  1
  Mn  Mn114  1  -0.00034751  0.33317833  0.50071519  1
  Mn  Mn115  1  -0.00016459  0.66715383  0.50034918  1
  Mn  Mn116  1  -0.00047330  0.16595404  0.00053150  1
  Mn  Mn117  1  -0.00102887  0.33294747  0.25053213  1
  Mn  Mn118  1  0.49976025  0.66576823  0.49936031  1
  Mn  Mn119  1  0.75010744  0.16770450  0.12526725  1
  Mn  Mn120  1  0.50059923  0.16732001  -0.00050389  1
  Mn  Mn121  1  0.74953012  0.50156997  0.12527842  1
  Mn  Mn122  1  0.25027570  0.33302582  0.87524748  1
  Mn  Mn123  1  0.24952865  0.33228661  0.12617571  1
  Mn  Mn124  1  0.74929251  0.83245951  0.37458020  1
  Mn  Mn125  1  0.50055697  0.83250128  0.00014896  1
  Mn  Mn126  1  0.25109300  0.00133648  0.62391570  1
  Mn  Mn127  1  0.25098433  0.49940170  0.62489586  1
  Mn  Mn128  1  0.25023977  0.16675839  0.87532728  1
  Mn  Mn129  1  0.74969143  0.00034035  0.12459187  1
  Mn  Mn130  1  0.25085791  0.16497119  0.12487832  1
  Mn  Mn131  1  0.25029737  0.00042562  0.87464911  1
  Mn  Mn132  1  -0.00012774  0.66867175  0.25131268  1
  Mn  Mn133  1  0.25044225  0.33267162  0.37568808  1
  Mn  Mn134  1  0.25007884  0.00003525  0.37547069  1
  Mn  Mn135  1  -0.00007590  0.33302473  0.74966236  1
  Mn  Mn136  1  0.25001584  0.83398627  0.62504384  1
  Mn  Mn137  1  0.25027421  0.66655712  0.87497634  1
  Mn  Mn138  1  0.50046020  0.00020514  0.24939667  1
  Mn  Mn139  1  0.50028361  0.16734174  0.49949256  1
  Mn  Mn140  1  0.74966480  0.16690771  0.37543037  1
  Mn  Mn141  1  0.74981399  -0.00068463  0.62551412  1
  Mn  Mn142  1  0.24978286  0.66638292  0.37513464  1
  Mn  Mn143  1  0.24985038  0.49939843  0.87491039  1
  Fe  Fe144  1  0.50034925  0.16696832  0.74963802  1
  Fe  Fe145  1  -0.00044644  0.16604250  0.25135775  1
  Fe  Fe146  1  0.75054102  0.33452781  0.87358287  1
  Fe  Fe147  1  -0.00051125  -0.00006969  0.25095503  1
  Fe  Fe148  1  0.25000280  0.33332051  0.62474378  1
  Fe  Fe149  1  0.00016206  0.66750167  0.00014498  1
  Fe  Fe150  1  -0.00041048  0.66667393  0.74992203  1
  Fe  Fe151  1  0.49979934  0.66590729  -0.00019869  1
  Fe  Fe152  1  -0.00036618  0.50024488  0.75008584  1
  Fe  Fe153  1  0.74956325  0.66693297  0.12413405  1
  Fe  Fe154  1  0.50083394  0.33360935  0.00010958  1
  Fe  Fe155  1  0.75014887  0.49974928  0.62428577  1
  Fe  Fe156  1  0.25024268  0.49931135  0.37557419  1
  Fe  Fe157  1  -0.00009824  -0.00033198  0.74981487  1
  Fe  Fe158  1  -0.00057868  0.83420106  0.49998995  1
  Fe  Fe159  1  0.00021327  0.83345933  0.00017009  1
  Fe  Fe160  1  0.74996820  0.49977131  0.37482795  1
  Fe  Fe161  1  0.50061040  0.83305215  0.24937184  1
  Fe  Fe162  1  0.24994173  0.16748252  0.62510615  1
  Fe  Fe163  1  0.50019240  0.33373840  0.25014368  1
  Fe  Fe164  1  0.50059573  0.49913864  0.49979797  1
  Fe  Fe165  1  -0.00022582  0.00016904  0.50009892  1
  Fe  Fe166  1  -0.00017642  0.50047729  0.50061026  1
  Fe  Fe167  1  0.74919039  0.66588808  0.37535864  1
  Fe  Fe168  1  0.50064571  0.33398225  0.75015718  1
  Fe  Fe169  1  0.74989661  0.33403022  0.62438276  1
  Fe  Fe170  1  0.75017607  0.33333079  0.37557237  1
  Fe  Fe171  1  0.00006531  0.16584025  0.75014673  1
  Fe  Fe172  1  0.50052231  0.49919535  0.00016928  1
  Fe  Fe173  1  0.50056512  0.00029045  0.49956418  1
  Fe  Fe174  1  0.74978442  -0.00032938  0.37574821  1
  Fe  Fe175  1  0.24983865  0.83340989  0.37487778  1
  Fe  Fe176  1  0.74963006  0.83260903  0.62464604  1
  Fe  Fe177  1  0.25034809  0.16661247  0.37565438  1
  Fe  Fe178  1  0.49986550  0.49963787  0.24942875  1
  Fe  Fe179  1  -0.00028184  0.16588166  0.50085553  1
  Fe  Fe180  1  0.50036443  0.00009297  -0.00009530  1
  Fe  Fe181  1  0.75022651  0.83341297  0.87476738  1
  Fe  Fe182  1  0.74971541  0.16712401  0.62483480  1
  Fe  Fe183  1  -0.00110359  0.83443753  0.25001905  1
  Fe  Fe184  1  0.50053104  0.33348944  0.49999039  1
  Fe  Fe185  1  0.74989741  0.66739308  0.87425616  1
  Fe  Fe186  1  0.50030155  0.66581660  0.24924006  1
  Fe  Fe187  1  0.50084464  0.49907145  0.75033259  1
  Fe  Fe188  1  0.49988965  0.16707870  0.24978407  1
  Fe  Fe189  1  0.74988171  0.50098693  0.87443326  1
  Fe  Fe190  1  0.24989912  -0.00074029  0.12570030  1
  Fe  Fe191  1  0.50028761  0.83269235  0.75000433  1
  P  P192  1  0.04216054  0.24921783  0.10433174  1
  P  P193  1  0.04149869  0.24838273  0.35364669  1
  P  P194  1  0.04149800  0.24803999  0.60319765  1
  P  P195  1  0.04219044  0.24847561  0.85226245  1
  P  P196  1  0.04196948  0.58561610  0.10263598  1
  P  P197  1  0.04219307  0.58384442  0.35412787  1
  P  P198  1  0.04175621  0.58223085  0.60341240  1
  P  P199  1  0.04108680  0.58418869  0.85183753  1
  P  P200  1  0.04153310  0.91555329  0.10341286  1
  P  P201  1  0.04055758  0.91685370  0.35259977  1
  P  P202  1  0.04104680  0.91693151  0.60175127  1
  P  P203  1  0.04210024  0.91736820  0.85251437  1
  P  P204  1  0.54265517  0.25186343  0.10295599  1
  P  P205  1  0.54122069  0.25019177  0.35167925  1
  P  P206  1  0.54238130  0.25172470  0.60276759  1
  P  P207  1  0.54194140  0.25026051  0.85126123  1
  P  P208  1  0.54158678  0.58315278  0.10165553  1
  P  P209  1  0.54108496  0.58215126  0.35123088  1
  P  P210  1  0.54240073  0.58150431  0.60215472  1
  P  P211  1  0.54249658  0.58135747  0.85289215  1
  P  P212  1  0.54250695  0.91784855  0.10236417  1
  P  P213  1  0.54267288  0.91544772  0.35190577  1
  P  P214  1  0.54258808  0.91818944  0.60211286  1
  P  P215  1  0.54264754  0.91479192  0.85236809  1
  P  P216  1  0.45793292  0.08507143  0.14712000  1
  P  P217  1  0.45818630  0.08223184  0.39706491  1
  P  P218  1  0.45836285  0.08508946  0.64698733  1
  P  P219  1  0.45833727  0.08211608  0.89708226  1
  P  P220  1  0.45893212  0.41670056  0.14789983  1
  P  P221  1  0.45913227  0.41593733  0.39781816  1
  P  P222  1  0.45957049  0.41678959  0.64781781  1
  P  P223  1  0.45943799  0.41590212  0.89791168  1
  P  P224  1  0.45921331  0.74952661  0.14789774  1
  P  P225  1  0.45770856  0.74935515  0.39540054  1
  P  P226  1  0.45810059  0.75091203  0.64722595  1
  P  P227  1  0.45812041  0.74803944  0.89727733  1
  P  P228  1  0.95783839  0.08309047  0.14949406  1
  P  P229  1  0.95831892  0.08346632  0.39860649  1
  P  P230  1  0.95851243  0.08270395  0.64792637  1
  P  P231  1  0.95680543  0.08296330  0.89605836  1
  P  P232  1  0.95631509  0.41722711  0.14703067  1
  P  P233  1  0.95754824  0.41801349  0.39832438  1
  P  P234  1  0.95793679  0.41805014  0.64723648  1
  P  P235  1  0.95744599  0.41715116  0.89615063  1
  P  P236  1  0.95741214  0.75194582  0.14725367  1
  P  P237  1  0.95714670  0.75237060  0.39783829  1
  P  P238  1  0.95716425  0.74889421  0.64756477  1
  P  P239  1  0.95860036  0.75009605  0.89820365  1
  P  P240  1  0.20779309  0.08147844  0.22828919  1
  P  P241  1  0.20786020  0.08548401  0.47797473  1
  P  P242  1  0.20787687  0.08474661  0.72681028  1
  P  P243  1  0.20720634  0.08270904  0.97871343  1
  P  P244  1  0.20718230  0.41606910  0.22955789  1
  P  P245  1  0.20807971  0.41711967  0.47816693  1
  P  P246  1  0.20771116  0.41516869  0.72717212  1
  P  P247  1  0.20660778  0.41618752  0.97849533  1
  P  P248  1  0.20715370  0.74991188  0.22910418  1
  P  P249  1  0.20722981  0.75145979  0.47725658  1
  P  P250  1  0.20685901  0.75010041  0.72808382  1
  P  P251  1  0.20724003  0.75006847  0.97848955  1
  P  P252  1  0.70744015  0.08347881  0.22876795  1
  P  P253  1  0.70798630  0.08227335  0.47809753  1
  P  P254  1  0.70753475  0.08498944  0.72700573  1
  P  P255  1  0.70649347  0.08405634  0.97767913  1
  P  P256  1  0.70740118  0.41743581  0.22884810  1
  P  P257  1  0.70869688  0.41634829  0.47683054  1
  P  P258  1  0.70924723  0.41752145  0.72647953  1
  P  P259  1  0.70867607  0.41748074  0.97549246  1
  P  P260  1  0.70770814  0.74810202  0.22730501  1
  P  P261  1  0.70691128  0.74811286  0.47735982  1
  P  P262  1  0.70773072  0.75116351  0.72782419  1
  P  P263  1  0.70874701  0.75013086  0.97620910  1
  P  P264  1  0.29362366  0.24968926  0.02243007  1
  P  P265  1  0.29270753  0.24788275  0.27316808  1
  P  P266  1  0.29200020  0.25011803  0.52339943  1
  P  P267  1  0.29284088  0.24996710  0.77093331  1
  P  P268  1  0.29329283  0.58290955  0.02219246  1
  P  P269  1  0.29262092  0.58136195  0.27318890  1
  P  P270  1  0.29337578  0.58305140  0.52119209  1
  P  P271  1  0.29332853  0.58279784  0.77172598  1
  P  P272  1  0.29295600  0.91784817  0.02308430  1
  P  P273  1  0.29235204  0.91544424  0.27252963  1
  P  P274  1  0.29309839  0.91679927  0.52095241  1
  P  P275  1  0.29349702  0.91715424  0.77164978  1
  P  P276  1  0.79278587  0.25136472  0.02113082  1
  P  P277  1  0.79232440  0.25169468  0.27324376  1
  P  P278  1  0.79107618  0.25021916  0.52324483  1
  P  P279  1  0.79161620  0.25194932  0.77106279  1
  P  P280  1  0.79154268  0.58511002  0.02140992  1
  P  P281  1  0.79116077  0.58393510  0.27341789  1
  P  P282  1  0.79168095  0.58177504  0.52187120  1
  P  P283  1  0.79103545  0.58374945  0.77293778  1
  P  P284  1  0.79276715  0.91628116  0.02132362  1
  P  P285  1  0.79178178  0.91764976  0.27300117  1
  P  P286  1  0.79165118  0.91498212  0.52236459  1
  P  P287  1  0.79190609  0.91532757  0.77200858  1
  O  O288  1  0.03667965  0.24891398  0.18427218  1
  O  O289  1  0.03615008  0.24829121  0.43358558  1
  O  O290  1  0.03613877  0.24800857  0.68308101  1
  O  O291  1  0.03712441  0.24891825  0.93223580  1
  O  O292  1  0.03700966  0.58557731  0.18258768  1
  O  O293  1  0.03695014  0.58322284  0.43406126  1
  O  O294  1  0.03635191  0.58222166  0.68328525  1
  O  O295  1  0.03595537  0.58480015  0.93179500  1
  O  O296  1  0.03613643  0.91575476  0.18323741  1
  O  O297  1  0.03586872  0.91685216  0.43246881  1
  O  O298  1  0.03618257  0.91744401  0.68166328  1
  O  O299  1  0.03665455  0.91672039  0.93238737  1
  O  O300  1  0.53709118  0.25142329  0.18276144  1
  O  O301  1  0.53627310  0.25073059  0.43161771  1
  O  O302  1  0.53726479  0.25139683  0.68256870  1
  O  O303  1  0.53716553  0.25076216  0.93120089  1
  O  O304  1  0.53641095  0.58308982  0.18150525  1
  O  O305  1  0.53646266  0.58217936  0.43115252  1
  O  O306  1  0.53755244  0.58136997  0.68209245  1
  O  O307  1  0.53708089  0.58192968  0.93268379  1
  O  O308  1  0.53716170  0.91726646  0.18225486  1
  O  O309  1  0.53741861  0.91602039  0.43177205  1
  O  O310  1  0.53749843  0.91775942  0.68197221  1
  O  O311  1  0.53769336  0.91510035  0.93225741  1
  O  O312  1  0.46325127  0.08466489  0.06724494  1
  O  O313  1  0.46332776  0.08284829  0.31719518  1
  O  O314  1  0.46350873  0.08476180  0.56709351  1
  O  O315  1  0.46371901  0.08245603  0.81721862  1
  O  O316  1  0.46385382  0.41626134  0.06808818  1
  O  O317  1  0.46376192  0.41610922  0.31796773  1
  O  O318  1  0.46442238  0.41657468  0.56796050  1
  O  O319  1  0.46438388  0.41633560  0.81804138  1
  O  O320  1  0.46407276  0.74894805  0.06793165  1
  O  O321  1  0.46335668  0.74932929  0.31556599  1
  O  O322  1  0.46307204  0.75075676  0.56728574  1
  O  O323  1  0.46334696  0.74869639  0.81737312  1
  O  O324  1  0.96227410  0.08256776  0.06949525  1
  O  O325  1  0.96299684  0.08352458  0.31873806  1
  O  O326  1  0.96365051  0.08303118  0.56802807  1
  O  O327  1  0.96216143  0.08302571  0.81617586  1
  O  O328  1  0.96153328  0.41711029  0.06705156  1
  O  O329  1  0.96219311  0.41763189  0.31835845  1
  O  O330  1  0.96327526  0.41836986  0.56730554  1
  O  O331  1  0.96295367  0.41741362  0.81619985  1
  O  O332  1  0.96303176  0.75144125  0.06743651  1
  O  O333  1  0.96231445  0.75263252  0.31792203  1
  O  O334  1  0.96229079  0.74940002  0.56773184  1
  O  O335  1  0.96365186  0.74939447  0.81826900  1
  O  O336  1  0.21239446  0.08170845  0.05866564  1
  O  O337  1  0.21301122  0.08216903  0.30820858  1
  O  O338  1  0.21323638  0.08598177  0.55787124  1
  O  O339  1  0.21261040  0.08429799  0.80678769  1
  O  O340  1  0.21141663  0.41613608  0.05852739  1
  O  O341  1  0.21253184  0.41666471  0.30953253  1
  O  O342  1  0.21356495  0.41635343  0.55808376  1
  O  O343  1  0.21243212  0.41545612  0.80717819  1
  O  O344  1  0.21231983  0.74989092  0.05847245  1
  O  O345  1  0.21231638  0.75047040  0.30904653  1
  O  O346  1  0.21244120  0.75117179  0.55721759  1
  O  O347  1  0.21188271  0.75014877  0.80807869  1
  O  O348  1  0.71173046  0.08411614  0.05766285  1
  O  O349  1  0.71272175  0.08280333  0.30877720  1
  O  O350  1  0.71320436  0.08283055  0.55801978  1
  O  O351  1  0.71252027  0.08493221  0.80694837  1
  O  O352  1  0.71332419  0.41789074  0.05547015  1
  O  O353  1  0.71269202  0.41726134  0.30871178  1
  O  O354  1  0.71372994  0.41628368  0.55670270  1
  O  O355  1  0.71414166  0.41729535  0.80631344  1
  O  O356  1  0.71337161  0.74933382  0.05619346  1
  O  O357  1  0.71275333  0.74786202  0.30722785  1
  O  O358  1  0.71200088  0.74870535  0.55727286  1
  O  O359  1  0.71319753  0.75134114  0.80767337  1
  O  O360  1  0.28769620  0.24804659  0.19327337  1
  O  O361  1  0.28705941  0.24954134  0.44341062  1
  O  O362  1  0.28740441  0.25011132  0.69099534  1
  O  O363  1  0.28866729  0.24998842  0.94242421  1
  O  O364  1  0.28755867  0.58171116  0.19322131  1
  O  O365  1  0.28798459  0.58249463  0.44126855  1
  O  O366  1  0.28853165  0.58281906  0.69169473  1
  O  O367  1  0.28836629  0.58292120  0.94218978  1
  O  O368  1  0.28697487  0.91640398  0.19260824  1
  O  O369  1  0.28769255  0.91627186  0.44102385  1
  O  O370  1  0.28870568  0.91736625  0.69163281  1
  O  O371  1  0.28807106  0.91759603  0.94307772  1
  O  O372  1  0.78750033  0.25146336  0.19326194  1
  O  O373  1  0.78639536  0.25065587  0.44325296  1
  O  O374  1  0.78598782  0.25124896  0.69120523  1
  O  O375  1  0.78753606  0.25172011  0.94115702  1
  O  O376  1  0.78629156  0.58441468  0.19343067  1
  O  O377  1  0.78615682  0.58191136  0.44204524  1
  O  O378  1  0.78669089  0.58362226  0.69300562  1
  O  O379  1  0.78633664  0.58492528  0.94157064  1
  O  O380  1  0.78695679  0.91746674  0.19302041  1
  O  O381  1  0.78625361  0.91579253  0.44243366  1
  O  O382  1  0.78646059  0.91504435  0.69208474  1
  O  O383  1  0.78757559  0.91593289  0.94137449  1
  O  O384  1  0.22906955  0.24909693  0.05712231  1
  O  O385  1  0.22833179  0.24823124  0.30847259  1
  O  O386  1  0.22771695  0.25052883  0.55905273  1
  O  O387  1  0.22857595  0.24989666  0.80653455  1
  O  O388  1  0.22871682  0.58278488  0.05685345  1
  O  O389  1  0.22825605  0.58116218  0.30850671  1
  O  O390  1  0.22903021  0.58295442  0.55646733  1
  O  O391  1  0.22871611  0.58289444  0.80626226  1
  O  O392  1  0.22841462  0.91806354  0.05809064  1
  O  O393  1  0.22807935  0.91522838  0.30827084  1
  O  O394  1  0.22874491  0.91746147  0.55613647  1
  O  O395  1  0.22885375  0.91702286  0.80612092  1
  O  O396  1  0.72837373  0.25099997  0.05628034  1
  O  O397  1  0.72788335  0.25160617  0.30836368  1
  O  O398  1  0.72688975  0.24972689  0.55885539  1
  O  O399  1  0.72755451  0.25285305  0.80732774  1
  O  O400  1  0.72733695  0.58531333  0.05745144  1
  O  O401  1  0.72694034  0.58349954  0.30924900  1
  O  O402  1  0.72760101  0.58167290  0.55805105  1
  O  O403  1  0.72684604  0.58365391  0.80841722  1
  O  O404  1  0.72840176  0.91624505  0.05652398  1
  O  O405  1  0.72742559  0.91760757  0.30823510  1
  O  O406  1  0.72747851  0.91483720  0.55818169  1
  O  O407  1  0.72773630  0.91502191  0.80790322  1
  O  O408  1  0.27210549  0.08055029  0.19265177  1
  O  O409  1  0.27215674  0.08488297  0.44241382  1
  O  O410  1  0.27236308  0.08516121  0.69182812  1
  O  O411  1  0.27170057  0.08325187  0.94376067  1
  O  O412  1  0.27158924  0.41576224  0.19441524  1
  O  O413  1  0.27232777  0.41742663  0.44245458  1
  O  O414  1  0.27223002  0.41459775  0.69225075  1
  O  O415  1  0.27129592  0.41640465  0.94409227  1
  O  O416  1  0.27155713  0.74984761  0.19398920  1
  O  O417  1  0.27154428  0.75162134  0.44181643  1
  O  O418  1  0.27143156  0.75025268  0.69337937  1
  O  O419  1  0.27174799  0.75017762  0.94364621  1
  O  O420  1  0.77177032  0.08370525  0.19347424  1
  O  O421  1  0.77219936  0.08248841  0.44241816  1
  O  O422  1  0.77183554  0.08483634  0.69160050  1
  O  O423  1  0.77090551  0.08419937  0.94269984  1
  O  O424  1  0.77157296  0.41804665  0.19309535  1
  O  O425  1  0.77276702  0.41665243  0.44064997  1
  O  O426  1  0.77324742  0.41786365  0.69024731  1
  O  O427  1  0.77284998  0.41689414  0.93976359  1
  O  O428  1  0.77201112  0.74798007  0.19170829  1
  O  O429  1  0.77120610  0.74786933  0.44180174  1
  O  O430  1  0.77184949  0.75101854  0.69168205  1
  O  O431  1  0.77295631  0.75080388  0.94052877  1
  O  O432  1  0.02210221  0.08364538  0.18521704  1
  O  O433  1  0.02252728  0.08375044  0.43460892  1
  O  O434  1  0.02257896  0.08229834  0.68437501  1
  O  O435  1  0.02098479  0.08259013  0.93197980  1
  O  O436  1  0.02073244  0.41696539  0.18223529  1
  O  O437  1  0.02194071  0.41760905  0.43362057  1
  O  O438  1  0.02209837  0.41785986  0.68317996  1
  O  O439  1  0.02160335  0.41743830  0.93198633  1
  O  O440  1  0.02151157  0.75274658  0.18367429  1
  O  O441  1  0.02145148  0.75236208  0.43358740  1
  O  O442  1  0.02149929  0.74841652  0.68328612  1
  O  O443  1  0.02267381  0.75037045  0.93456443  1
  O  O444  1  0.52218022  0.08541557  0.18305385  1
  O  O445  1  0.52246023  0.08238709  0.43291716  1
  O  O446  1  0.52255262  0.08508063  0.68297936  1
  O  O447  1  0.52252553  0.08208341  0.93317472  1
  O  O448  1  0.52300324  0.41729159  0.18419812  1
  O  O449  1  0.52330134  0.41530048  0.43403466  1
  O  O450  1  0.52368545  0.41731396  0.68412089  1
  O  O451  1  0.52353869  0.41557878  0.93426294  1
  O  O452  1  0.52336340  0.75010072  0.18386006  1
  O  O453  1  0.52179899  0.74939253  0.43156320  1
  O  O454  1  0.52243254  0.75083298  0.68286091  1
  O  O455  1  0.52237377  0.74769402  0.93320604  1
  O  O456  1  0.47858188  0.25209104  0.06649765  1
  O  O457  1  0.47714140  0.24954287  0.31556421  1
  O  O458  1  0.47819547  0.25192108  0.56660839  1
  O  O459  1  0.47783681  0.24964721  0.81515560  1
  O  O460  1  0.47756284  0.58315703  0.06520263  1
  O  O461  1  0.47700855  0.58203739  0.31509168  1
  O  O462  1  0.47807614  0.58139348  0.56659355  1
  O  O463  1  0.47843725  0.58102764  0.81640804  1
  O  O464  1  0.47829354  0.91772354  0.06640091  1
  O  O465  1  0.47848334  0.91500946  0.31590624  1
  O  O466  1  0.47828010  0.91853832  0.56631804  1
  O  O467  1  0.47836138  0.91482173  0.81653349  1
  O  O468  1  0.97788067  0.24957852  0.06868321  1
  O  O469  1  0.97723255  0.24812647  0.31778506  1
  O  O470  1  0.97731098  0.24820523  0.56721901  1
  O  O471  1  0.97787814  0.24852220  0.81670040  1
  O  O472  1  0.97758144  0.58593416  0.06715839  1
  O  O473  1  0.97784064  0.58443710  0.31873780  1
  O  O474  1  0.97760258  0.58254569  0.56724182  1
  O  O475  1  0.97691930  0.58411541  0.81563965  1
  O  O476  1  0.97740166  0.91465658  0.06707420  1
  O  O477  1  0.97640044  0.91666900  0.31648919  1
  O  O478  1  0.97685889  0.91653465  0.56575225  1
  O  O479  1  0.97789874  0.91789771  0.81642200  1
  O  O480  1  0.07335535  0.31275807  0.07632371  1
  O  O481  1  0.07235843  0.31232343  0.32616610  1
  O  O482  1  0.07250697  0.31190341  0.57563861  1
  O  O483  1  0.07347150  0.31194858  0.82433430  1
  O  O484  1  0.07290751  0.64897262  0.07404642  1
  O  O485  1  0.07331271  0.64759939  0.32662005  1
  O  O486  1  0.07326704  0.64572210  0.57562453  1
  O  O487  1  0.07218351  0.64755811  0.82331968  1
  O  O488  1  0.07211803  0.97947655  0.07535532  1
  O  O489  1  0.07105264  0.98077561  0.32400569  1
  O  O490  1  0.07175161  0.98046950  0.57291643  1
  O  O491  1  0.07305057  0.98085281  0.82415986  1
  O  O492  1  0.57369910  0.31528869  0.07438935  1
  O  O493  1  0.57174591  0.31393343  0.32308406  1
  O  O494  1  0.57332173  0.31510426  0.57398358  1
  O  O495  1  0.57238170  0.31406611  0.82263960  1
  O  O496  1  0.57259796  0.64665123  0.07313285  1
  O  O497  1  0.57152933  0.64606252  0.32273756  1
  O  O498  1  0.57324450  0.64536636  0.57438954  1
  O  O499  1  0.57359321  0.64482171  0.82441691  1
  O  O500  1  0.57277727  0.98181357  0.07408400  1
  O  O501  1  0.57386537  0.97894428  0.32396695  1
  O  O502  1  0.57310709  0.98197114  0.57364390  1
  O  O503  1  0.57405955  0.97816601  0.82442247  1
  O  O504  1  0.42681883  0.02154155  0.17513752  1
  O  O505  1  0.42798084  0.01828450  0.42540360  1
  O  O506  1  0.42688789  0.02173780  0.67482431  1
  O  O507  1  0.42792402  0.01832535  0.92564105  1
  O  O508  1  0.42849187  0.35306725  0.17713602  1
  O  O509  1  0.42764099  0.35270049  0.42624255  1
  O  O510  1  0.42924501  0.35296211  0.67675668  1
  O  O511  1  0.42815964  0.35243688  0.92605831  1
  O  O512  1  0.42863431  0.68581708  0.17656812  1
  O  O513  1  0.42646606  0.68597898  0.42380606  1
  O  O514  1  0.42701017  0.68719546  0.67476834  1
  O  O515  1  0.42737158  0.68438396  0.92548729  1
  O  O516  1  0.92774652  0.01906704  0.17804351  1
  O  O517  1  0.92797047  0.01953713  0.42725820  1
  O  O518  1  0.92730037  0.01913460  0.67595936  1
  O  O519  1  0.92532541  0.01972748  0.92448870  1
  O  O520  1  0.92510028  0.35397421  0.17544464  1
  O  O521  1  0.92626807  0.35451265  0.42629374  1
  O  O522  1  0.92682977  0.35411310  0.67431481  1
  O  O523  1  0.92661897  0.35336911  0.92391540  1
  O  O524  1  0.92661482  0.68825377  0.17568945  1
  O  O525  1  0.92630010  0.68845721  0.42538987  1
  O  O526  1  0.92625905  0.68541345  0.67606105  1
  O  O527  1  0.92767213  0.68666538  0.92685625  1
  O  O528  1  0.17677252  0.01792114  0.20007309  1
  O  O529  1  0.17649826  0.02176103  0.45061311  1
  O  O530  1  0.17706999  0.02108087  0.69850026  1
  O  O531  1  0.17606800  0.01964297  0.94954462  1
  O  O532  1  0.17622619  0.35219915  0.20194633  1
  O  O533  1  0.17674651  0.35364905  0.45017056  1
  O  O534  1  0.17673104  0.35181306  0.69854643  1
  O  O535  1  0.17575373  0.35266645  0.95020104  1
  O  O536  1  0.17633031  0.68604236  0.20133499  1
  O  O537  1  0.17620432  0.68765590  0.44972430  1
  O  O538  1  0.17613740  0.68649758  0.69968619  1
  O  O539  1  0.17627307  0.68664067  0.95007545  1
  O  O540  1  0.67602619  0.02040660  0.20006080  1
  O  O541  1  0.67770260  0.01834236  0.44963258  1
  O  O542  1  0.67633793  0.02123899  0.69961293  1
  O  O543  1  0.67572270  0.02039235  0.94949150  1
  O  O544  1  0.67655319  0.35393964  0.20017755  1
  O  O545  1  0.67799405  0.35254820  0.44832282  1
  O  O546  1  0.67863001  0.35385393  0.69744035  1
  O  O547  1  0.67748172  0.35404306  0.94735539  1
  O  O548  1  0.67659438  0.68504297  0.19821857  1
  O  O549  1  0.67620766  0.68438931  0.44906750  1
  O  O550  1  0.67640631  0.68747795  0.70013908  1
  O  O551  1  0.67831820  0.68646787  0.94706650  1
  O  O552  1  0.32421802  0.31323625  0.05110613  1
  O  O553  1  0.32407402  0.31133628  0.30107202  1
  O  O554  1  0.32274675  0.31404994  0.55127630  1
  O  O555  1  0.32410747  0.31330497  0.79942492  1
  O  O556  1  0.32412196  0.64645768  0.05063001  1
  O  O557  1  0.32359659  0.64511678  0.30083550  1
  O  O558  1  0.32409059  0.64698082  0.54898903  1
  O  O559  1  0.32435936  0.64626086  0.79992561  1
  O  O560  1  0.32364192  0.98125604  0.05186269  1
  O  O561  1  0.32379613  0.97871494  0.30081377  1
  O  O562  1  0.32431450  0.98050627  0.54861740  1
  O  O563  1  0.32441041  0.98069444  0.79989673  1
  O  O564  1  0.82384069  0.31469889  0.04967070  1
  O  O565  1  0.82288305  0.31528229  0.30191399  1
  O  O566  1  0.82164801  0.31395198  0.55191708  1
  O  O567  1  0.82298502  0.31534725  0.79926428  1
  O  O568  1  0.82238816  0.64852703  0.05036450  1
  O  O569  1  0.82202606  0.64740325  0.30215330  1
  O  O570  1  0.82291330  0.64531257  0.55002986  1
  O  O571  1  0.82139056  0.64773424  0.80148054  1
  O  O572  1  0.82370261  0.97998627  0.04936396  1
  O  O573  1  0.82237500  0.98118229  0.30186375  1
  O  O574  1  0.82311833  0.97823974  0.55065613  1
  O  O575  1  0.82252796  0.97954555  0.79925750  1
  O  O576  1  0.42725663  0.14863256  0.17562546  1
  O  O577  1  0.42670427  0.14545382  0.42523526  1
  O  O578  1  0.42797566  0.14884208  0.67554488  1
  O  O579  1  0.42701667  0.14559535  0.92480000  1
  O  O580  1  0.42757806  0.48010447  0.17610324  1
  O  O581  1  0.42906336  0.47986982  0.42678454  1
  O  O582  1  0.42814241  0.47998628  0.67633177  1
  O  O583  1  0.42896782  0.47959427  0.92686469  1
  O  O584  1  0.42819073  0.81330440  0.17554373  1
  O  O585  1  0.42636194  0.81265684  0.42365995  1
  O  O586  1  0.42763747  0.81456309  0.67574432  1
  O  O587  1  0.42698003  0.81144260  0.92559176  1
  O  O588  1  0.92663821  0.14654105  0.17742696  1
  O  O589  1  0.92693950  0.14659748  0.42742142  1
  O  O590  1  0.92787414  0.14642984  0.67649327  1
  O  O591  1  0.92580438  0.14640744  0.92460418  1
  O  O592  1  0.92555780  0.48104476  0.17474240  1
  O  O593  1  0.92721563  0.48177908  0.42671735  1
  O  O594  1  0.92696524  0.48123022  0.67618411  1
  O  O595  1  0.92588138  0.48036145  0.92420201  1
  O  O596  1  0.92591451  0.81504504  0.17579649  1
  O  O597  1  0.92617092  0.81552920  0.42669947  1
  O  O598  1  0.92633778  0.81247023  0.67585593  1
  O  O599  1  0.92793822  0.81406524  0.92580707  1
  O  O600  1  0.07324176  0.18582491  0.07602233  1
  O  O601  1  0.07257390  0.18518415  0.32489577  1
  O  O602  1  0.07252553  0.18484016  0.57455579  1
  O  O603  1  0.07273677  0.18475260  0.82401039  1
  O  O604  1  0.07273174  0.52177422  0.07490429  1
  O  O605  1  0.07325939  0.52067751  0.32535918  1
  O  O606  1  0.07246241  0.51876281  0.57446667  1
  O  O607  1  0.07169964  0.52016294  0.82410310  1
  O  O608  1  0.07299797  0.85256965  0.07454620  1
  O  O609  1  0.07170067  0.85362526  0.32387346  1
  O  O610  1  0.07193420  0.85315739  0.57393298  1
  O  O611  1  0.07309699  0.85382965  0.82437316  1
  O  O612  1  0.57382995  0.18843904  0.07458890  1
  O  O613  1  0.57232646  0.18647954  0.32402389  1
  O  O614  1  0.57346639  0.18831618  0.57421026  1
  O  O615  1  0.57297366  0.18665310  0.82326416  1
  O  O616  1  0.57230452  0.51941621  0.07313493  1
  O  O617  1  0.57226134  0.51878482  0.32298355  1
  O  O618  1  0.57325713  0.51828922  0.57301630  1
  O  O619  1  0.57352181  0.51792602  0.82446295  1
  O  O620  1  0.57410475  0.85453902  0.07456725  1
  O  O621  1  0.57343969  0.85183206  0.32354096  1
  O  O622  1  0.57370046  0.85472132  0.57400932  1
  O  O623  1  0.57287742  0.85097235  0.82365406  1
  O  O624  1  0.32487011  0.18623390  0.05021502  1
  O  O625  1  0.32301936  0.18416245  0.30173323  1
  O  O626  1  0.32280315  0.18664860  0.55199893  1
  O  O627  1  0.32400352  0.18661854  0.79942463  1
  O  O628  1  0.32433034  0.51947143  0.05038785  1
  O  O629  1  0.32333416  0.51779223  0.30156241  1
  O  O630  1  0.32490823  0.52004364  0.54973139  1
  O  O631  1  0.32407181  0.51916669  0.79996045  1
  O  O632  1  0.32381416  0.85407551  0.05093410  1
  O  O633  1  0.32293991  0.85160450  0.30046077  1
  O  O634  1  0.32421009  0.85360278  0.54956580  1
  O  O635  1  0.32431326  0.85365652  0.80005501  1
  O  O636  1  0.82375970  0.18776030  0.04936942  1
  O  O637  1  0.82338286  0.18817171  0.30129898  1
  O  O638  1  0.82212334  0.18654124  0.55120247  1
  O  O639  1  0.82247742  0.18832023  0.79936303  1
  O  O640  1  0.82257403  0.52156930  0.04975743  1
  O  O641  1  0.82192511  0.52011690  0.30150426  1
  O  O642  1  0.82264502  0.51843355  0.55068272  1
  O  O643  1  0.82202205  0.52040180  0.80166561  1
  O  O644  1  0.82394583  0.85311694  0.05004318  1
  O  O645  1  0.82272658  0.85389326  0.30063047  1
  O  O646  1  0.82212705  0.85110854  0.55045871  1
  O  O647  1  0.82327681  0.85233158  0.80081715  1
  O  O648  1  0.17708642  0.14511597  0.20004011  1
  O  O649  1  0.17732993  0.14884006  0.44883181  1
  O  O650  1  0.17710638  0.14825729  0.69841694  1
  O  O651  1  0.17624563  0.14648756  0.95104864  1
  O  O652  1  0.17588863  0.47916162  0.20084392  1
  O  O653  1  0.17730032  0.48077928  0.45006369  1
  O  O654  1  0.17703506  0.47895810  0.69923308  1
  O  O655  1  0.17567603  0.47964869  0.95003166  1
  O  O656  1  0.17581352  0.81297167  0.20042560  1
  O  O657  1  0.17648263  0.81502267  0.44898399  1
  O  O658  1  0.17573531  0.81353018  0.69993132  1
  O  O659  1  0.17635981  0.81372529  0.95058107  1
  O  O660  1  0.67660803  0.14734213  0.20104669  1
  O  O661  1  0.67631586  0.14550999  0.45008744  1
  O  O662  1  0.67695126  0.14854054  0.69839454  1
  O  O663  1  0.67522320  0.14738161  0.94959668  1
  O  O664  1  0.67594262  0.48062894  0.20028776  1
  O  O665  1  0.67757954  0.47975619  0.44833098  1
  O  O666  1  0.67808362  0.48095310  0.69798992  1
  O  O667  1  0.67854029  0.48152355  0.94709425  1
  O  O668  1  0.67710819  0.81212649  0.19957650  1
  O  O669  1  0.67581729  0.81149467  0.44894456  1
  O  O670  1  0.67694589  0.81442064  0.69858729  1
  O  O671  1  0.67761390  0.81376810  0.94846442  1
