# generated using pymatgen
data_Na2MnFe(PO4)2
_symmetry_space_group_name_H-M   'P 1'
_cell_length_a   22.34334534
_cell_length_b   20.09305646
_cell_length_c   19.44855718
_cell_angle_alpha   90.02765222
_cell_angle_beta   90.01685781
_cell_angle_gamma   89.96375854
_symmetry_Int_Tables_number   1
_chemical_formula_structural   Na2MnFe(PO4)2
_chemical_formula_sum   'Na96 Mn48 Fe48 P96 O384'
_cell_volume   8731.35074432
_cell_formula_units_Z   48
loop_
 _symmetry_equiv_pos_site_id
 _symmetry_equiv_pos_as_xyz
  1  'x, y, z'
loop_
 _atom_site_type_symbol
 _atom_site_label
 _atom_site_symmetry_multiplicity
 _atom_site_fract_x
 _atom_site_fract_y
 _atom_site_fract_z
 _atom_site_occupancy
  Na  Na0  1  0.14100461  0.24984755  0.24448222  1
  Na  Na1  1  0.14088257  0.24914889  0.49419464  1
  Na  Na2  1  0.14046051  0.24871098  0.74438468  1
  Na  Na3  1  0.14082856  0.25047309  0.99474588  1
  Na  Na4  1  0.14032643  0.58258475  0.24325992  1
  Na  Na5  1  0.14025495  0.58298329  0.49464473  1
  Na  Na6  1  0.13983577  0.58334139  0.74421580  1
  Na  Na7  1  0.14069669  0.58398016  0.99451625  1
  Na  Na8  1  0.14064320  0.91688575  0.24422229  1
  Na  Na9  1  0.14034635  0.91736669  0.49419629  1
  Na  Na10  1  0.14076401  0.91624150  0.74416266  1
  Na  Na11  1  0.14072141  0.91657026  0.99462562  1
  Na  Na12  1  0.64053090  0.24982818  0.24440153  1
  Na  Na13  1  0.64040394  0.24948153  0.49431973  1
  Na  Na14  1  0.63965067  0.25068632  0.74404251  1
  Na  Na15  1  0.64054600  0.25071077  0.99293208  1
  Na  Na16  1  0.63957664  0.58307923  0.24247442  1
  Na  Na17  1  0.63927137  0.58243931  0.49223755  1
  Na  Na18  1  0.63934100  0.58419158  0.74280884  1
  Na  Na19  1  0.64032484  0.58320383  0.99175832  1
  Na  Na20  1  0.64013751  0.91657732  0.24279311  1
  Na  Na21  1  0.64035856  0.91620860  0.49361322  1
  Na  Na22  1  0.63992240  0.91725822  0.74250352  1
  Na  Na23  1  0.64007481  0.91618917  0.99213220  1
  Na  Na24  1  0.36032880  0.08460400  0.00617053  1
  Na  Na25  1  0.35993927  0.08380611  0.25630609  1
  Na  Na26  1  0.36042323  0.08271150  0.50681614  1
  Na  Na27  1  0.36052839  0.08351487  0.75676040  1
  Na  Na28  1  0.35993775  0.41956707  0.00586690  1
  Na  Na29  1  0.36053855  0.41731748  0.25655817  1
  Na  Na30  1  0.36053909  0.41732518  0.50705057  1
  Na  Na31  1  0.36032425  0.41853678  0.75727519  1
  Na  Na32  1  0.36035462  0.75149479  0.00615830  1
  Na  Na33  1  0.36058062  0.75021789  0.25644347  1
  Na  Na34  1  0.36008402  0.75059211  0.50672861  1
  Na  Na35  1  0.36008459  0.75025517  0.75723000  1
  Na  Na36  1  0.85910116  0.08281499  0.00691403  1
  Na  Na37  1  0.85918777  0.08341127  0.25637835  1
  Na  Na38  1  0.85950518  0.08239739  0.50661777  1
  Na  Na39  1  0.85941074  0.08381453  0.75697135  1
  Na  Na40  1  0.85930000  0.41529604  0.00590288  1
  Na  Na41  1  0.85940849  0.41528976  0.25681149  1
  Na  Na42  1  0.85934855  0.41519689  0.50525627  1
  Na  Na43  1  0.85884095  0.41639818  0.75806772  1
  Na  Na44  1  0.85903897  0.74904632  0.00462413  1
  Na  Na45  1  0.85914665  0.74967926  0.25532505  1
  Na  Na46  1  0.85920275  0.74875770  0.50509295  1
  Na  Na47  1  0.85881174  0.74911972  0.75616457  1
  Na  Na48  1  0.11010660  0.08219407  0.11969741  1
  Na  Na49  1  0.10991576  0.08277340  0.36927375  1
  Na  Na50  1  0.10988843  0.08323933  0.61966112  1
  Na  Na51  1  0.10991555  0.08202104  0.86965574  1
  Na  Na52  1  0.10993757  0.41602007  0.12024352  1
  Na  Na53  1  0.10972035  0.41652084  0.36810170  1
  Na  Na54  1  0.10917572  0.41666510  0.62033490  1
  Na  Na55  1  0.10965094  0.41674093  0.86886087  1
  Na  Na56  1  0.10963904  0.74940207  0.11908512  1
  Na  Na57  1  0.10945152  0.74984013  0.36871907  1
  Na  Na58  1  0.10957032  0.74941303  0.61959404  1
  Na  Na59  1  0.10968751  0.74852142  0.86863210  1
  Na  Na60  1  0.60962644  0.08359801  0.11784346  1
  Na  Na61  1  0.60983567  0.08262194  0.36894805  1
  Na  Na62  1  0.60985870  0.08505077  0.61887978  1
  Na  Na63  1  0.60927493  0.08529045  0.86746030  1
  Na  Na64  1  0.60988606  0.41634415  0.11807071  1
  Na  Na65  1  0.60947631  0.41688494  0.36863067  1
  Na  Na66  1  0.60909647  0.41810823  0.61928249  1
  Na  Na67  1  0.60942968  0.41804243  0.86713477  1
  Na  Na68  1  0.60972093  0.74953316  0.11762912  1
  Na  Na69  1  0.60929757  0.74828195  0.36754623  1
  Na  Na70  1  0.60926455  0.75059413  0.61819275  1
  Na  Na71  1  0.60945338  0.75121474  0.86624722  1
  Na  Na72  1  0.39082921  0.25132570  0.13141935  1
  Na  Na73  1  0.39069098  0.25078041  0.38215218  1
  Na  Na74  1  0.39134864  0.25152303  0.63176348  1
  Na  Na75  1  0.39087038  0.25193337  0.88121125  1
  Na  Na76  1  0.39115703  0.58444504  0.13084985  1
  Na  Na77  1  0.39124689  0.58309004  0.38119153  1
  Na  Na78  1  0.39071653  0.58465730  0.63235307  1
  Na  Na79  1  0.38996237  0.58545414  0.88135404  1
  Na  Na80  1  0.39080269  0.91603580  0.13134917  1
  Na  Na81  1  0.39093880  0.91579404  0.38135936  1
  Na  Na82  1  0.39089594  0.91835885  0.63230566  1
  Na  Na83  1  0.39077689  0.91883774  0.88101723  1
  Na  Na84  1  0.88954323  0.24889765  0.13255314  1
  Na  Na85  1  0.88977591  0.24915059  0.38138905  1
  Na  Na86  1  0.88991448  0.24983431  0.63185822  1
  Na  Na87  1  0.88969901  0.24803885  0.88227988  1
  Na  Na88  1  0.89021785  0.58182146  0.13133428  1
  Na  Na89  1  0.89012761  0.58293732  0.37936369  1
  Na  Na90  1  0.88965261  0.58279951  0.63142493  1
  Na  Na91  1  0.88937016  0.58262747  0.88067626  1
  Na  Na92  1  0.88997061  0.91546498  0.13058241  1
  Na  Na93  1  0.89014944  0.91631791  0.38030286  1
  Na  Na94  1  0.89024594  0.91632786  0.63120394  1
  Na  Na95  1  0.88984081  0.91565455  0.88067683  1
  Mn  Mn96  1  0.75002479  0.66685784  0.12288943  1
  Mn  Mn97  1  0.75024694  0.00052751  0.37412025  1
  Mn  Mn98  1  0.50011493  0.83327434  0.50017691  1
  Mn  Mn99  1  0.25057841  0.50056983  0.12529795  1
  Mn  Mn100  1  0.50050492  0.66754253  -0.00050799  1
  Mn  Mn101  1  0.25033457  0.83369386  0.12511921  1
  Mn  Mn102  1  0.00009711  0.00019377  0.75078151  1
  Mn  Mn103  1  0.25058327  0.16637350  0.87523667  1
  Mn  Mn104  1  0.25006696  0.66695250  0.37553608  1
  Mn  Mn105  1  0.75025423  0.49875291  0.12405297  1
  Mn  Mn106  1  0.25047773  0.83342300  0.62575306  1
  Mn  Mn107  1  0.00046261  0.16469963  0.00193167  1
  Mn  Mn108  1  0.50013169  0.16632084  0.25069082  1
  Mn  Mn109  1  0.00044690  0.83247791  0.75001930  1
  Mn  Mn110  1  0.25017456  0.83380319  0.87557391  1
  Mn  Mn111  1  0.25032754  0.33335599  0.62558801  1
  Mn  Mn112  1  0.00003727  0.66550656  -0.00021936  1
  Mn  Mn113  1  -0.00055401  0.83288272  -0.00004800  1
  Mn  Mn114  1  0.25075285  0.49940799  0.37486397  1
  Mn  Mn115  1  0.50073203  0.33440401  0.25009787  1
  Mn  Mn116  1  0.00009278  0.66611567  0.49970509  1
  Mn  Mn117  1  -0.00044071  0.49990377  0.49956926  1
  Mn  Mn118  1  0.49997791  -0.00147655  0.24878118  1
  Mn  Mn119  1  0.25082527  0.16646690  0.37483418  1
  Mn  Mn120  1  0.25132981  0.16542367  0.62434452  1
  Mn  Mn121  1  0.24956945  0.50074796  0.62574381  1
  Mn  Mn122  1  0.74949266  0.49910492  0.37404840  1
  Mn  Mn123  1  -0.00089964  0.83381916  0.49930950  1
  Mn  Mn124  1  0.24976330  0.83428300  0.37596453  1
  Mn  Mn125  1  -0.00033166  0.33207955  0.00023055  1
  Mn  Mn126  1  0.74945288  0.33201711  0.62603053  1
  Mn  Mn127  1  0.74979765  0.49940482  0.62442015  1
  Mn  Mn128  1  0.74945077  0.00010480  0.12426834  1
  Mn  Mn129  1  0.74969610  0.00010126  0.87475942  1
  Mn  Mn130  1  0.74973060  -0.00022899  0.62505526  1
  Mn  Mn131  1  0.25063020  0.16730650  0.12560291  1
  Mn  Mn132  1  -0.00021375  0.16551455  0.25080678  1
  Mn  Mn133  1  -0.00015436  0.33246766  0.75058657  1
  Mn  Mn134  1  0.74967466  0.66663647  0.62429015  1
  Mn  Mn135  1  0.50029333  0.00059827  -0.00075062  1
  Mn  Mn136  1  0.25057963  0.33455672  0.87498344  1
  Mn  Mn137  1  0.00038091  0.83326818  0.24963310  1
  Mn  Mn138  1  0.00012872  0.49906515  0.00052702  1
  Mn  Mn139  1  0.74986726  0.83257154  0.37389456  1
  Mn  Mn140  1  -0.00019418  0.33332848  0.50087859  1
  Mn  Mn141  1  0.00035467  0.16593062  0.50019967  1
  Mn  Mn142  1  0.50013629  0.16715102  0.50065743  1
  Mn  Mn143  1  0.49969501  0.33454316  -0.00056696  1
  Fe  Fe144  1  0.74923585  0.16719650  0.12523468  1
  Fe  Fe145  1  0.74971787  0.33268349  0.87559658  1
  Fe  Fe146  1  0.74979138  0.33227736  0.37502651  1
  Fe  Fe147  1  0.00026958  0.33262566  0.25069016  1
  Fe  Fe148  1  0.49987392  0.50093043  0.50036517  1
  Fe  Fe149  1  0.24949832  0.66722776  0.87556164  1
  Fe  Fe150  1  0.24950532  0.50126700  0.87591772  1
  Fe  Fe151  1  0.74957095  0.83280745  0.62416497  1
  Fe  Fe152  1  0.49947626  0.33524604  0.75039275  1
  Fe  Fe153  1  -0.00015215  -0.00094145  0.00006363  1
  Fe  Fe154  1  0.50084021  0.83232841  0.25030376  1
  Fe  Fe155  1  0.75035772  0.16650776  0.62539986  1
  Fe  Fe156  1  0.50004740  0.83474298  0.74900386  1
  Fe  Fe157  1  0.25005437  0.66681513  0.62595308  1
  Fe  Fe158  1  0.25085452  0.00005361  0.37526859  1
  Fe  Fe159  1  0.49966795  0.50166904  0.74914699  1
  Fe  Fe160  1  0.50019769  0.50022600  0.25020261  1
  Fe  Fe161  1  -0.00107179  0.66577159  0.74943744  1
  Fe  Fe162  1  0.49975107  0.66669309  0.49962155  1
  Fe  Fe163  1  0.74907553  0.66686975  0.87396125  1
  Fe  Fe164  1  0.50065270  0.33448738  0.50088236  1
  Fe  Fe165  1  0.50054061  0.00038083  0.50068736  1
  Fe  Fe166  1  0.25079136  0.00035638  0.12532320  1
  Fe  Fe167  1  0.25050525  0.66719860  0.12525078  1
  Fe  Fe168  1  0.50030731  0.00151577  0.75026014  1
  Fe  Fe169  1  -0.00017495  0.66619180  0.24956452  1
  Fe  Fe170  1  0.74955051  0.33252330  0.12491160  1
  Fe  Fe171  1  0.74925921  0.49971429  0.87498263  1
  Fe  Fe172  1  0.74971024  0.16655675  0.37524395  1
  Fe  Fe173  1  0.25057386  0.33421781  0.12478729  1
  Fe  Fe174  1  0.25028300  0.00030666  0.87540282  1
  Fe  Fe175  1  0.50044493  0.50126577  -0.00086842  1
  Fe  Fe176  1  -0.00028235  0.16593775  0.75072468  1
  Fe  Fe177  1  0.74948895  0.16697689  0.87577115  1
  Fe  Fe178  1  0.74949179  0.83331171  0.87398170  1
  Fe  Fe179  1  0.49985902  0.66780605  0.74969865  1
  Fe  Fe180  1  -0.00018336  0.49931579  0.25006210  1
  Fe  Fe181  1  -0.00007029  -0.00063397  0.25027526  1
  Fe  Fe182  1  -0.00101695  0.49946051  0.74995286  1
  Fe  Fe183  1  0.74928347  0.66618228  0.37394493  1
  Fe  Fe184  1  0.50000241  0.16775831  -0.00087736  1
  Fe  Fe185  1  0.50006853  0.16851292  0.74925272  1
  Fe  Fe186  1  -0.00033819  -0.00002036  0.50060036  1
  Fe  Fe187  1  0.25008361  -0.00022253  0.62538687  1
  Fe  Fe188  1  0.50050539  0.66613510  0.24948549  1
  Fe  Fe189  1  0.25077164  0.33318856  0.37537410  1
  Fe  Fe190  1  0.50047528  0.83398787  -0.00108034  1
  Fe  Fe191  1  0.74920090  0.83297725  0.12376947  1
  P  P192  1  0.04268988  0.24961046  0.10453208  1
  P  P193  1  0.04240808  0.25022822  0.35288095  1
  P  P194  1  0.04292827  0.24938247  0.60409940  1
  P  P195  1  0.04228233  0.24763795  0.85320149  1
  P  P196  1  0.04257518  0.58251494  0.10431769  1
  P  P197  1  0.04171297  0.58296248  0.35104524  1
  P  P198  1  0.04209897  0.58275997  0.60407330  1
  P  P199  1  0.04090026  0.58268169  0.85126271  1
  P  P200  1  0.04218669  0.91753671  0.10287530  1
  P  P201  1  0.04234201  0.91790496  0.35294757  1
  P  P202  1  0.04217114  0.91759578  0.60256708  1
  P  P203  1  0.04298302  0.91627963  0.85373390  1
  P  P204  1  0.54212316  0.24965894  0.10184183  1
  P  P205  1  0.54252741  0.25067451  0.35401913  1
  P  P206  1  0.54196645  0.25237264  0.60365610  1
  P  P207  1  0.54085048  0.25125002  0.85149780  1
  P  P208  1  0.54263390  0.58241983  0.10224983  1
  P  P209  1  0.54168901  0.58309715  0.35190358  1
  P  P210  1  0.54111976  0.58440593  0.60197711  1
  P  P211  1  0.54105975  0.58426399  0.85110056  1
  P  P212  1  0.54239021  0.91502611  0.10184049  1
  P  P213  1  0.54262387  0.91502447  0.35251460  1
  P  P214  1  0.54226269  0.91840472  0.60323422  1
  P  P215  1  0.54136772  0.91740322  0.85109817  1
  P  P216  1  0.45751749  0.08354857  0.14615355  1
  P  P217  1  0.45825584  0.08183430  0.39795921  1
  P  P218  1  0.45922056  0.08442836  0.64828108  1
  P  P219  1  0.45838809  0.08582933  0.89624686  1
  P  P220  1  0.45821564  0.41880086  0.14720181  1
  P  P221  1  0.45911094  0.41745308  0.39881373  1
  P  P222  1  0.45864151  0.41813095  0.64790742  1
  P  P223  1  0.45801329  0.41968752  0.89644818  1
  P  P224  1  0.45931187  0.75005534  0.14803314  1
  P  P225  1  0.45795695  0.74848419  0.39693151  1
  P  P226  1  0.45863285  0.75079392  0.64802323  1
  P  P227  1  0.45834187  0.75237545  0.89632115  1
  P  P228  1  0.95749739  0.08083247  0.14785234  1
  P  P229  1  0.95764006  0.08131258  0.39756181  1
  P  P230  1  0.95733609  0.08410051  0.64783159  1
  P  P231  1  0.95745721  0.08176645  0.89810105  1
  P  P232  1  0.95824811  0.41560410  0.14900771  1
  P  P233  1  0.95739596  0.41607215  0.39586434  1
  P  P234  1  0.95661298  0.41710653  0.64811304  1
  P  P235  1  0.95714118  0.41614225  0.89662855  1
  P  P236  1  0.95745049  0.74852669  0.14737302  1
  P  P237  1  0.95722120  0.74931391  0.39585435  1
  P  P238  1  0.95716415  0.74870452  0.64734077  1
  P  P239  1  0.95718007  0.74873924  0.89604176  1
  P  P240  1  0.20854398  0.08211057  0.22804983  1
  P  P241  1  0.20833515  0.08176003  0.47768115  1
  P  P242  1  0.20837650  0.08171045  0.72793015  1
  P  P243  1  0.20846207  0.08227183  0.97836820  1
  P  P244  1  0.20859671  0.41528936  0.22796350  1
  P  P245  1  0.20801291  0.41547784  0.47761433  1
  P  P246  1  0.20724263  0.41735732  0.72920366  1
  P  P247  1  0.20768104  0.41853710  0.97811583  1
  P  P248  1  0.20787413  0.74930983  0.22767318  1
  P  P249  1  0.20709808  0.75019027  0.47922521  1
  P  P250  1  0.20813938  0.74865121  0.72857000  1
  P  P251  1  0.20798810  0.74927962  0.97818775  1
  P  P252  1  0.70736980  0.08499855  0.22735862  1
  P  P253  1  0.70795596  0.08423488  0.47778495  1
  P  P254  1  0.70783422  0.08505502  0.72800386  1
  P  P255  1  0.70728442  0.08472892  0.97767917  1
  P  P256  1  0.70781774  0.41456805  0.22743364  1
  P  P257  1  0.70748509  0.41450568  0.47710673  1
  P  P258  1  0.70728860  0.41665234  0.72912105  1
  P  P259  1  0.70829028  0.41606481  0.97659164  1
  P  P260  1  0.70747212  0.75047410  0.22627731  1
  P  P261  1  0.70716797  0.74849159  0.47667705  1
  P  P262  1  0.70750597  0.75137441  0.72725459  1
  P  P263  1  0.70791940  0.75029862  0.97551155  1
  P  P264  1  0.29287001  0.25202181  0.02272345  1
  P  P265  1  0.29306351  0.25177232  0.27237098  1
  P  P266  1  0.29366769  0.25020291  0.52160225  1
  P  P267  1  0.29332675  0.24999005  0.77207246  1
  P  P268  1  0.29243815  0.58561495  0.02217518  1
  P  P269  1  0.29313091  0.58385647  0.27170579  1
  P  P270  1  0.29252990  0.58472428  0.52337955  1
  P  P271  1  0.29112272  0.58414620  0.77388638  1
  P  P272  1  0.29265320  0.91854840  0.02246245  1
  P  P273  1  0.29266785  0.91808653  0.27255382  1
  P  P274  1  0.29270970  0.91813552  0.52297377  1
  P  P275  1  0.29229224  0.91815835  0.77270903  1
  P  P276  1  0.79136071  0.24964000  0.02306149  1
  P  P277  1  0.79110626  0.24929467  0.27295209  1
  P  P278  1  0.79208249  0.24819713  0.52233934  1
  P  P279  1  0.79100815  0.24939110  0.77390978  1
  P  P280  1  0.79242604  0.58240663  0.01997384  1
  P  P281  1  0.79155120  0.58389438  0.27157182  1
  P  P282  1  0.79214537  0.58283116  0.52069968  1
  P  P283  1  0.79026611  0.58300556  0.77315350  1
  P  P284  1  0.79142143  0.91488533  0.02137398  1
  P  P285  1  0.79237989  0.91651045  0.27056862  1
  P  P286  1  0.79214260  0.91494670  0.52224358  1
  P  P287  1  0.79156767  0.91544484  0.77175833  1
  O  O288  1  0.03750622  0.25017448  0.18448002  1
  O  O289  1  0.03746038  0.25005076  0.43287631  1
  O  O290  1  0.03774436  0.24873205  0.68407307  1
  O  O291  1  0.03717476  0.24772232  0.93319734  1
  O  O292  1  0.03724930  0.58269091  0.18419958  1
  O  O293  1  0.03686232  0.58296017  0.43108143  1
  O  O294  1  0.03646920  0.58273938  0.68396500  1
  O  O295  1  0.03633382  0.58254375  0.93131672  1
  O  O296  1  0.03692182  0.91755469  0.18284880  1
  O  O297  1  0.03687100  0.91798057  0.43287830  1
  O  O298  1  0.03720623  0.91717085  0.68254008  1
  O  O299  1  0.03767966  0.91646898  0.93366313  1
  O  O300  1  0.53715692  0.24978307  0.18181979  1
  O  O301  1  0.53718995  0.25137517  0.43395273  1
  O  O302  1  0.53621148  0.25222201  0.68350918  1
  O  O303  1  0.53594659  0.25106263  0.93147177  1
  O  O304  1  0.53742014  0.58232717  0.18209680  1
  O  O305  1  0.53690763  0.58382206  0.43178748  1
  O  O306  1  0.53591312  0.58414375  0.68185042  1
  O  O307  1  0.53651965  0.58436889  0.93106943  1
  O  O308  1  0.53721772  0.91447177  0.18177626  1
  O  O309  1  0.53735744  0.91571227  0.43241815  1
  O  O310  1  0.53681020  0.91830144  0.68311260  1
  O  O311  1  0.53670440  0.91713350  0.93106906  1
  O  O312  1  0.46274998  0.08428132  0.06618809  1
  O  O313  1  0.46336628  0.08173938  0.31798598  1
  O  O314  1  0.46421533  0.08339051  0.56833651  1
  O  O315  1  0.46401169  0.08593740  0.81638623  1
  O  O316  1  0.46315959  0.41870228  0.06724596  1
  O  O317  1  0.46399806  0.41795915  0.31883729  1
  O  O318  1  0.46370155  0.41736768  0.56804620  1
  O  O319  1  0.46328305  0.41965419  0.81657831  1
  O  O320  1  0.46399013  0.75019265  0.06805841  1
  O  O321  1  0.46346189  0.74875392  0.31708735  1
  O  O322  1  0.46353029  0.74970748  0.56807934  1
  O  O323  1  0.46352354  0.75240114  0.81646801  1
  O  O324  1  0.96265450  0.08068678  0.06792052  1
  O  O325  1  0.96282119  0.08122282  0.31760259  1
  O  O326  1  0.96248576  0.08336053  0.56787666  1
  O  O327  1  0.96259230  0.08311093  0.81815413  1
  O  O328  1  0.96317915  0.41541166  0.06897253  1
  O  O329  1  0.96291254  0.41581466  0.31595545  1
  O  O330  1  0.96156204  0.41679597  0.56808490  1
  O  O331  1  0.96214932  0.41663717  0.81666280  1
  O  O332  1  0.96235504  0.74877552  0.06736565  1
  O  O333  1  0.96273079  0.74899673  0.31592050  1
  O  O334  1  0.96206586  0.74906590  0.56733884  1
  O  O335  1  0.96256600  0.74838626  0.81609611  1
  O  O336  1  0.21382869  0.08241964  0.05831353  1
  O  O337  1  0.21410968  0.08213372  0.30796480  1
  O  O338  1  0.21352465  0.08169226  0.55765237  1
  O  O339  1  0.21348072  0.08177974  0.80791794  1
  O  O340  1  0.21322077  0.41793004  0.05805456  1
  O  O341  1  0.21383295  0.41499670  0.30791336  1
  O  O342  1  0.21290935  0.41601850  0.55762217  1
  O  O343  1  0.21237041  0.41821688  0.80915607  1
  O  O344  1  0.21323822  0.74939007  0.05813626  1
  O  O345  1  0.21276616  0.74991186  0.30766368  1
  O  O346  1  0.21233653  0.74980231  0.55920326  1
  O  O347  1  0.21342398  0.74875409  0.80854553  1
  O  O348  1  0.71254362  0.08473038  0.05763081  1
  O  O349  1  0.71277917  0.08502452  0.30731840  1
  O  O350  1  0.71331927  0.08404851  0.55775182  1
  O  O351  1  0.71315620  0.08504685  0.80795757  1
  O  O352  1  0.71317565  0.41534889  0.05658215  1
  O  O353  1  0.71318806  0.41462662  0.30735785  1
  O  O354  1  0.71255188  0.41488466  0.55707963  1
  O  O355  1  0.71248551  0.41711957  0.80902627  1
  O  O356  1  0.71259812  0.75031161  0.05550241  1
  O  O357  1  0.71265724  0.74970118  0.30619124  1
  O  O358  1  0.71235413  0.74903734  0.55661930  1
  O  O359  1  0.71265557  0.75144653  0.80714501  1
  O  O360  1  0.28760016  0.25190554  0.19240788  1
  O  O361  1  0.28847973  0.25057506  0.44159816  1
  O  O362  1  0.28837181  0.24969184  0.69210361  1
  O  O363  1  0.28757786  0.25143577  0.94278133  1
  O  O364  1  0.28794755  0.58430322  0.19175240  1
  O  O365  1  0.28775642  0.58413290  0.44341126  1
  O  O366  1  0.28618861  0.58438307  0.69390871  1
  O  O367  1  0.28656751  0.58540618  0.94231923  1
  O  O368  1  0.28745294  0.91802949  0.19257732  1
  O  O369  1  0.28758686  0.91815528  0.44300168  1
  O  O370  1  0.28699372  0.91802086  0.69277218  1
  O  O371  1  0.28719917  0.91838722  0.94252034  1
  O  O372  1  0.78569854  0.24955694  0.19306261  1
  O  O373  1  0.78680919  0.24837950  0.44247006  1
  O  O374  1  0.78659869  0.24919818  0.69392843  1
  O  O375  1  0.78610335  0.24945466  0.94317499  1
  O  O376  1  0.78668678  0.58350597  0.19157342  1
  O  O377  1  0.78687979  0.58318166  0.44076731  1
  O  O378  1  0.78581374  0.58320035  0.69311148  1
  O  O379  1  0.78682060  0.58223576  0.94009643  1
  O  O380  1  0.78698782  0.91629283  0.19064462  1
  O  O381  1  0.78709718  0.91549337  0.44227444  1
  O  O382  1  0.78626021  0.91541514  0.69183110  1
  O  O383  1  0.78588575  0.91504651  0.94141834  1
  O  O384  1  0.22860758  0.25194117  0.05840123  1
  O  O385  1  0.22885231  0.25149336  0.30827900  1
  O  O386  1  0.22930764  0.24954509  0.55684995  1
  O  O387  1  0.22891967  0.25020414  0.80708935  1
  O  O388  1  0.22843827  0.58566836  0.05867357  1
  O  O389  1  0.22878640  0.58313486  0.30698703  1
  O  O390  1  0.22803668  0.58523527  0.55849594  1
  O  O391  1  0.22695820  0.58372299  0.80991479  1
  O  O392  1  0.22848388  0.91845866  0.05842262  1
  O  O393  1  0.22836533  0.91855263  0.30826456  1
  O  O394  1  0.22835834  0.91792100  0.55848087  1
  O  O395  1  0.22810408  0.91808299  0.80855525  1
  O  O396  1  0.72721007  0.24999592  0.05932454  1
  O  O397  1  0.72716203  0.24928530  0.30961576  1
  O  O398  1  0.72788648  0.24767944  0.55845330  1
  O  O399  1  0.72671247  0.24918712  0.80944910  1
  O  O400  1  0.72822922  0.58246899  0.05571767  1
  O  O401  1  0.72725245  0.58385280  0.30709938  1
  O  O402  1  0.72777857  0.58290021  0.55598116  1
  O  O403  1  0.72602980  0.58270428  0.80867396  1
  O  O404  1  0.72725933  0.91508194  0.05737509  1
  O  O405  1  0.72816384  0.91665331  0.30613487  1
  O  O406  1  0.72779790  0.91505564  0.55776682  1
  O  O407  1  0.72734147  0.91588226  0.80757151  1
  O  O408  1  0.27272526  0.08250518  0.19212994  1
  O  O409  1  0.27270018  0.08188364  0.44218118  1
  O  O410  1  0.27274270  0.08127205  0.69237677  1
  O  O411  1  0.27269030  0.08238964  0.94254620  1
  O  O412  1  0.27280874  0.41564837  0.19211563  1
  O  O413  1  0.27251636  0.41530541  0.44245037  1
  O  O414  1  0.27163161  0.41736260  0.69400626  1
  O  O415  1  0.27189622  0.41947712  0.94222594  1
  O  O416  1  0.27227782  0.74922522  0.19231819  1
  O  O417  1  0.27151331  0.75055942  0.44409681  1
  O  O418  1  0.27236374  0.74871707  0.69272379  1
  O  O419  1  0.27218209  0.74924603  0.94240998  1
  O  O420  1  0.77152565  0.08483487  0.19140511  1
  O  O421  1  0.77214713  0.08467120  0.44187212  1
  O  O422  1  0.77202992  0.08458620  0.69208427  1
  O  O423  1  0.77157117  0.08446495  0.94200937  1
  O  O424  1  0.77203441  0.41408673  0.19155566  1
  O  O425  1  0.77172116  0.41468444  0.44143691  1
  O  O426  1  0.77149010  0.41624973  0.69336497  1
  O  O427  1  0.77240922  0.41672601  0.94074948  1
  O  O428  1  0.77171285  0.75123529  0.19045177  1
  O  O429  1  0.77143222  0.74778778  0.44093097  1
  O  O430  1  0.77169397  0.75136931  0.69124552  1
  O  O431  1  0.77212478  0.75018156  0.93985636  1
  O  O432  1  0.02183452  0.08127608  0.18343721  1
  O  O433  1  0.02196639  0.08106985  0.43322977  1
  O  O434  1  0.02170636  0.08470227  0.68342990  1
  O  O435  1  0.02184464  0.08071509  0.93364646  1
  O  O436  1  0.02247281  0.41609144  0.18477600  1
  O  O437  1  0.02161095  0.41623876  0.43171020  1
  O  O438  1  0.02105279  0.41732931  0.68333028  1
  O  O439  1  0.02154043  0.41567405  0.93183943  1
  O  O440  1  0.02186636  0.74839072  0.18263246  1
  O  O441  1  0.02143097  0.75003239  0.43153204  1
  O  O442  1  0.02158080  0.74791537  0.68260638  1
  O  O443  1  0.02144591  0.74930812  0.93158739  1
  O  O444  1  0.52183952  0.08303300  0.18158085  1
  O  O445  1  0.52252479  0.08221789  0.43361554  1
  O  O446  1  0.52327384  0.08526659  0.68434537  1
  O  O447  1  0.52240455  0.08575255  0.93273968  1
  O  O448  1  0.52253751  0.41903021  0.18289002  1
  O  O449  1  0.52321135  0.41718530  0.43485145  1
  O  O450  1  0.52260532  0.41890742  0.68434803  1
  O  O451  1  0.52216524  0.41925618  0.93258795  1
  O  O452  1  0.52343164  0.75043042  0.18405578  1
  O  O453  1  0.52203992  0.74832619  0.43326615  1
  O  O454  1  0.52278496  0.75146545  0.68391852  1
  O  O455  1  0.52255994  0.75222098  0.93229839  1
  O  O456  1  0.47779636  0.24969798  0.06630231  1
  O  O457  1  0.47833801  0.25079845  0.31832626  1
  O  O458  1  0.47803793  0.25236697  0.56704109  1
  O  O459  1  0.47681591  0.25075121  0.81540327  1
  O  O460  1  0.47845145  0.58271497  0.06614035  1
  O  O461  1  0.47764557  0.58256518  0.31560018  1
  O  O462  1  0.47707496  0.58491674  0.56561046  1
  O  O463  1  0.47683874  0.58390769  0.81535883  1
  O  O464  1  0.47812697  0.91566602  0.06609210  1
  O  O465  1  0.47839127  0.91431598  0.31656476  1
  O  O466  1  0.47816021  0.91852084  0.56700374  1
  O  O467  1  0.47720638  0.91702135  0.81529310  1
  O  O468  1  0.97829086  0.24892129  0.06929882  1
  O  O469  1  0.97801767  0.25012447  0.31759630  1
  O  O470  1  0.97854069  0.24935504  0.56885188  1
  O  O471  1  0.97790361  0.24771489  0.81771977  1
  O  O472  1  0.97828376  0.58235937  0.06870169  1
  O  O473  1  0.97746666  0.58267100  0.31528601  1
  O  O474  1  0.97786893  0.58285527  0.56827348  1
  O  O475  1  0.97656692  0.58270968  0.81570966  1
  O  O476  1  0.97787878  0.91772442  0.06709243  1
  O  O477  1  0.97811681  0.91753630  0.31705338  1
  O  O478  1  0.97773838  0.91812665  0.56719815  1
  O  O479  1  0.97864277  0.91607357  0.81840925  1
  O  O480  1  0.07361751  0.31280110  0.07559297  1
  O  O481  1  0.07304078  0.31374357  0.32436193  1
  O  O482  1  0.07366473  0.31326597  0.57638888  1
  O  O483  1  0.07343017  0.31128788  0.82566046  1
  O  O484  1  0.07365670  0.64581229  0.07558040  1
  O  O485  1  0.07222456  0.64688330  0.32314971  1
  O  O486  1  0.07340496  0.64605230  0.57565517  1
  O  O487  1  0.07151275  0.64651371  0.82331004  1
  O  O488  1  0.07324952  0.98068480  0.07416528  1
  O  O489  1  0.07313114  0.98120380  0.32410791  1
  O  O490  1  0.07297593  0.98117356  0.57447377  1
  O  O491  1  0.07412047  0.97958414  0.82540291  1
  O  O492  1  0.57305290  0.31338419  0.07404299  1
  O  O493  1  0.57396076  0.31362935  0.32518888  1
  O  O494  1  0.57296059  0.31580220  0.57521098  1
  O  O495  1  0.57077859  0.31563700  0.82352910  1
  O  O496  1  0.57388763  0.64593032  0.07408358  1
  O  O497  1  0.57202098  0.64670766  0.32245436  1
  O  O498  1  0.57257859  0.64762614  0.57369042  1
  O  O499  1  0.57112412  0.64841467  0.82266665  1
  O  O500  1  0.57364580  0.97876165  0.07442652  1
  O  O501  1  0.57352183  0.97854423  0.32412874  1
  O  O502  1  0.57322530  0.98183336  0.57462481  1
  O  O503  1  0.57144733  0.98179425  0.82325791  1
  O  O504  1  0.42653584  0.01976852  0.17372777  1
  O  O505  1  0.42788007  0.01820544  0.42660482  1
  O  O506  1  0.42885174  0.02077307  0.67735826  1
  O  O507  1  0.42721571  0.02212081  0.92387445  1
  O  O508  1  0.42768158  0.35485696  0.17524903  1
  O  O509  1  0.42812634  0.35386126  0.42684795  1
  O  O510  1  0.42827681  0.35444448  0.67711061  1
  O  O511  1  0.42655723  0.35623651  0.92436259  1
  O  O512  1  0.42928654  0.68584750  0.17632421  1
  O  O513  1  0.42694413  0.68514676  0.42560575  1
  O  O514  1  0.42819326  0.68725208  0.67728429  1
  O  O515  1  0.42716802  0.68888889  0.92451403  1
  O  O516  1  0.92672487  0.01750810  0.17657420  1
  O  O517  1  0.92654832  0.01819298  0.42644234  1
  O  O518  1  0.92633504  0.02059613  0.67608383  1
  O  O519  1  0.92648877  0.01802004  0.92570461  1
  O  O520  1  0.92777746  0.35176668  0.17720642  1
  O  O521  1  0.92620550  0.35286188  0.42463338  1
  O  O522  1  0.92572575  0.35345852  0.67609413  1
  O  O523  1  0.92614580  0.35246452  0.92452726  1
  O  O524  1  0.92671066  0.68498029  0.17571449  1
  O  O525  1  0.92628720  0.68591015  0.42420201  1
  O  O526  1  0.92607391  0.68531784  0.67569983  1
  O  O527  1  0.92618080  0.68536326  0.92433737  1
  O  O528  1  0.17779140  0.01875114  0.19926394  1
  O  O529  1  0.17744416  0.01851656  0.44885311  1
  O  O530  1  0.17713233  0.01854270  0.69925212  1
  O  O531  1  0.17767051  0.01890530  0.94956516  1
  O  O532  1  0.17781564  0.35200172  0.19894434  1
  O  O533  1  0.17736370  0.35187845  0.44926177  1
  O  O534  1  0.17646351  0.35347978  0.70155151  1
  O  O535  1  0.17687210  0.35485444  0.95001275  1
  O  O536  1  0.17731345  0.68565765  0.19939475  1
  O  O537  1  0.17591180  0.68699998  0.45053286  1
  O  O538  1  0.17726705  0.68531800  0.69992241  1
  O  O539  1  0.17683262  0.68607865  0.94946233  1
  O  O540  1  0.67621821  0.02128390  0.19964835  1
  O  O541  1  0.67735639  0.02027150  0.44980784  1
  O  O542  1  0.67658924  0.02139799  0.70039996  1
  O  O543  1  0.67615633  0.02105521  0.94985079  1
  O  O544  1  0.67649442  0.35144915  0.19885951  1
  O  O545  1  0.67704824  0.35076239  0.44886665  1
  O  O546  1  0.67610039  0.35310316  0.70113066  1
  O  O547  1  0.67791266  0.35227120  0.94778454  1
  O  O548  1  0.67660213  0.68693130  0.19790972  1
  O  O549  1  0.67637957  0.68494096  0.44810548  1
  O  O550  1  0.67638174  0.68765925  0.69947041  1
  O  O551  1  0.67753866  0.68627177  0.94704772  1
  O  O552  1  0.32339758  0.31596665  0.05046568  1
  O  O553  1  0.32395494  0.31501395  0.30128923  1
  O  O554  1  0.32455275  0.31352539  0.55035241  1
  O  O555  1  0.32441078  0.31355069  0.79991181  1
  O  O556  1  0.32347680  0.64902239  0.05077503  1
  O  O557  1  0.32403134  0.64718048  0.30032450  1
  O  O558  1  0.32330912  0.64820577  0.55192372  1
  O  O559  1  0.32184357  0.64783465  0.80219968  1
  O  O560  1  0.32373266  0.98178230  0.05102445  1
  O  O561  1  0.32399833  0.98116335  0.30123812  1
  O  O562  1  0.32355588  0.98139604  0.55191890  1
  O  O563  1  0.32319495  0.98148830  0.80140014  1
  O  O564  1  0.82236492  0.31322788  0.05142354  1
  O  O565  1  0.82198299  0.31287531  0.30156877  1
  O  O566  1  0.82284257  0.31197038  0.55061264  1
  O  O567  1  0.82109970  0.31352061  0.80237730  1
  O  O568  1  0.82362507  0.64591232  0.04809862  1
  O  O569  1  0.82193277  0.64766727  0.29986783  1
  O  O570  1  0.82351533  0.64588319  0.54948506  1
  O  O571  1  0.82039315  0.64716932  0.80133431  1
  O  O572  1  0.82252524  0.97862132  0.04898379  1
  O  O573  1  0.82327522  0.98016482  0.29875688  1
  O  O574  1  0.82330388  0.97836936  0.55044750  1
  O  O575  1  0.82280760  0.97910574  0.79951376  1
  O  O576  1  0.42640709  0.14671607  0.17513873  1
  O  O577  1  0.42693066  0.14548666  0.42544804  1
  O  O578  1  0.42780260  0.14816940  0.67544158  1
  O  O579  1  0.42738957  0.14917025  0.92511600  1
  O  O580  1  0.42710262  0.48195008  0.17605526  1
  O  O581  1  0.42848307  0.48121838  0.42748867  1
  O  O582  1  0.42705832  0.48162232  0.67572216  1
  O  O583  1  0.42743656  0.48320293  0.92541329  1
  O  O584  1  0.42783726  0.81321660  0.17653355  1
  O  O585  1  0.42679530  0.81203664  0.42528481  1
  O  O586  1  0.42741909  0.81456710  0.67543670  1
  O  O587  1  0.42758493  0.81580307  0.92543187  1
  O  O588  1  0.92640386  0.14463848  0.17557425  1
  O  O589  1  0.92690334  0.14532805  0.42514563  1
  O  O590  1  0.92655940  0.14769554  0.67630198  1
  O  O591  1  0.92661160  0.14510889  0.92709540  1
  O  O592  1  0.92712280  0.47931518  0.17670056  1
  O  O593  1  0.92613893  0.47964749  0.42386094  1
  O  O594  1  0.92581381  0.48068497  0.67645573  1
  O  O595  1  0.92612807  0.47940402  0.92537106  1
  O  O596  1  0.92653644  0.81229307  0.17511524  1
  O  O597  1  0.92578360  0.81283530  0.42369297  1
  O  O598  1  0.92662301  0.81261182  0.67530939  1
  O  O599  1  0.92588970  0.81224024  0.92404374  1
  O  O600  1  0.07398919  0.18596195  0.07685140  1
  O  O601  1  0.07356559  0.18651502  0.32525589  1
  O  O602  1  0.07442431  0.18640323  0.57521199  1
  O  O603  1  0.07291113  0.18401700  0.82474375  1
  O  O604  1  0.07376808  0.51905650  0.07590908  1
  O  O605  1  0.07271621  0.51926947  0.32312960  1
  O  O606  1  0.07330092  0.51935552  0.57553330  1
  O  O607  1  0.07158243  0.51888958  0.82314422  1
  O  O608  1  0.07292851  0.85348800  0.07530308  1
  O  O609  1  0.07363475  0.85418758  0.32529749  1
  O  O610  1  0.07282444  0.85376990  0.57453468  1
  O  O611  1  0.07413222  0.85276347  0.82553501  1
  O  O612  1  0.57277254  0.18615719  0.07315620  1
  O  O613  1  0.57328674  0.18669568  0.32643843  1
  O  O614  1  0.57326084  0.18873737  0.57582586  1
  O  O615  1  0.57256780  0.18822020  0.82311953  1
  O  O616  1  0.57336914  0.51901945  0.07310038  1
  O  O617  1  0.57307788  0.51959775  0.32384299  1
  O  O618  1  0.57151427  0.52046298  0.57326562  1
  O  O619  1  0.57253677  0.52114556  0.82267925  1
  O  O620  1  0.57301441  0.85170738  0.07256791  1
  O  O621  1  0.57358857  0.85140198  0.32436914  1
  O  O622  1  0.57337558  0.85479435  0.57510133  1
  O  O623  1  0.57288357  0.85441044  0.82236034  1
  O  O624  1  0.32415979  0.18859627  0.05074988  1
  O  O625  1  0.32423511  0.18791885  0.29978355  1
  O  O626  1  0.32494996  0.18658336  0.54932649  1
  O  O627  1  0.32421768  0.18651187  0.80041036  1
  O  O628  1  0.32377423  0.52203227  0.04998916  1
  O  O629  1  0.32437194  0.52027957  0.29964043  1
  O  O630  1  0.32322099  0.52094362  0.55147532  1
  O  O631  1  0.32202578  0.52045989  0.80206537  1
  O  O632  1  0.32363728  0.85465508  0.05012217  1
  O  O633  1  0.32315944  0.85402362  0.30045753  1
  O  O634  1  0.32379825  0.85438388  0.55077650  1
  O  O635  1  0.32332495  0.85433300  0.80032510  1
  O  O636  1  0.82212271  0.18602239  0.05171425  1
  O  O637  1  0.82220749  0.18569624  0.30114298  1
  O  O638  1  0.82325227  0.18497976  0.55125388  1
  O  O639  1  0.82230948  0.18619922  0.80253613  1
  O  O640  1  0.82373099  0.51919242  0.04876992  1
  O  O641  1  0.82275523  0.52029023  0.29924500  1
  O  O642  1  0.82299553  0.51906150  0.54871768  1
  O  O643  1  0.82152267  0.51962614  0.80118406  1
  O  O644  1  0.82226981  0.85139630  0.04979653  1
  O  O645  1  0.82377869  0.85330401  0.29884002  1
  O  O646  1  0.82259422  0.85106928  0.55027451  1
  O  O647  1  0.82240338  0.85205225  0.80043780  1
  O  O648  1  0.17727800  0.14589429  0.20062014  1
  O  O649  1  0.17733126  0.14556321  0.44986611  1
  O  O650  1  0.17781515  0.14564238  0.69989542  1
  O  O651  1  0.17732929  0.14608655  0.95073405  1
  O  O652  1  0.17743508  0.47907991  0.20049868  1
  O  O653  1  0.17712806  0.47922166  0.44960407  1
  O  O654  1  0.17588056  0.48038032  0.70032863  1
  O  O655  1  0.17650358  0.48204533  0.95005272  1
  O  O656  1  0.17679411  0.81293966  0.19972474  1
  O  O657  1  0.17612120  0.81384834  0.45111935  1
  O  O658  1  0.17707772  0.81246324  0.70096191  1
  O  O659  1  0.17699442  0.81309171  0.95044997  1
  O  O660  1  0.67634623  0.14833533  0.19878352  1
  O  O661  1  0.67657594  0.14736963  0.44935794  1
  O  O662  1  0.67711267  0.14847599  0.69929090  1
  O  O663  1  0.67644555  0.14812454  0.94904013  1
  O  O664  1  0.67719925  0.47853852  0.19957346  1
  O  O665  1  0.67619289  0.47802047  0.44925069  1
  O  O666  1  0.67617202  0.47986812  0.70006115  1
  O  O667  1  0.67693746  0.47959707  0.94878721  1
  O  O668  1  0.67662288  0.81414003  0.19807494  1
  O  O669  1  0.67618401  0.81214621  0.44871378  1
  O  O670  1  0.67669097  0.81467719  0.69807605  1
  O  O671  1  0.67676622  0.81365226  0.94715105  1
