# generated using pymatgen
data_Na2MnFe(PO4)2
_symmetry_space_group_name_H-M   'P 1'
_cell_length_a   22.34657080
_cell_length_b   20.09603526
_cell_length_c   19.44740238
_cell_angle_alpha   90.05340431
_cell_angle_beta   89.98643781
_cell_angle_gamma   90.03932654
_symmetry_Int_Tables_number   1
_chemical_formula_structural   Na2MnFe(PO4)2
_chemical_formula_sum   'Na96 Mn48 Fe48 P96 O384'
_cell_volume   8733.38425946
_cell_formula_units_Z   48
loop_
 _symmetry_equiv_pos_site_id
 _symmetry_equiv_pos_as_xyz
  1  'x, y, z'
loop_
 _atom_site_type_symbol
 _atom_site_label
 _atom_site_symmetry_multiplicity
 _atom_site_fract_x
 _atom_site_fract_y
 _atom_site_fract_z
 _atom_site_occupancy
  Na  Na0  1  0.14083528  0.25096467  0.24538240  1
  Na  Na1  1  0.14056321  0.25080726  0.49319517  1
  Na  Na2  1  0.14065498  0.25062921  0.74371605  1
  Na  Na3  1  0.14067577  0.25098560  0.99367774  1
  Na  Na4  1  0.14027541  0.58381099  0.24423726  1
  Na  Na5  1  0.14009888  0.58274921  0.49282414  1
  Na  Na6  1  0.14008170  0.58228453  0.74335538  1
  Na  Na7  1  0.14035162  0.58432177  0.99447217  1
  Na  Na8  1  0.14049991  0.91528064  0.24417611  1
  Na  Na9  1  0.14034076  0.91627639  0.49361163  1
  Na  Na10  1  0.14016756  0.91578532  0.74508923  1
  Na  Na11  1  0.14031468  0.91504518  0.99410227  1
  Na  Na12  1  0.64060652  0.24972563  0.24342553  1
  Na  Na13  1  0.63993363  0.25032353  0.49313012  1
  Na  Na14  1  0.63990154  0.24838885  0.74211328  1
  Na  Na15  1  0.64043719  0.24914007  0.99161817  1
  Na  Na16  1  0.64052728  0.58489357  0.24371844  1
  Na  Na17  1  0.64019866  0.58406502  0.49343066  1
  Na  Na18  1  0.64042876  0.58238869  0.74419815  1
  Na  Na19  1  0.64073055  0.58446665  0.99419896  1
  Na  Na20  1  0.64044045  0.91579351  0.24249630  1
  Na  Na21  1  0.64045722  0.91581848  0.49361565  1
  Na  Na22  1  0.64014744  0.91577023  0.74459658  1
  Na  Na23  1  0.64039083  0.91631019  0.99279008  1
  Na  Na24  1  0.36035499  0.08337856  0.00626814  1
  Na  Na25  1  0.35963747  0.08306774  0.25621625  1
  Na  Na26  1  0.35965714  0.08374392  0.50584813  1
  Na  Na27  1  0.35993948  0.08387270  0.75640965  1
  Na  Na28  1  0.35950011  0.41814689  0.00448564  1
  Na  Na29  1  0.35979965  0.41685633  0.25656652  1
  Na  Na30  1  0.36010260  0.41626513  0.50673523  1
  Na  Na31  1  0.35997185  0.41668830  0.75618285  1
  Na  Na32  1  0.35984947  0.75004177  0.00698996  1
  Na  Na33  1  0.36050962  0.75004048  0.25720334  1
  Na  Na34  1  0.36025709  0.74978038  0.50614112  1
  Na  Na35  1  0.35968112  0.74942982  0.75634452  1
  Na  Na36  1  0.85913017  0.08246040  0.00566917  1
  Na  Na37  1  0.85936090  0.08299288  0.25577899  1
  Na  Na38  1  0.85920730  0.08410479  0.50609306  1
  Na  Na39  1  0.85866844  0.08185315  0.75611517  1
  Na  Na40  1  0.85909240  0.41824699  0.00604045  1
  Na  Na41  1  0.85911795  0.41893670  0.25649023  1
  Na  Na42  1  0.85949269  0.41821039  0.50574008  1
  Na  Na43  1  0.85942426  0.41658313  0.75612500  1
  Na  Na44  1  0.85967251  0.74987520  0.00819046  1
  Na  Na45  1  0.85992134  0.75017406  0.25664355  1
  Na  Na46  1  0.85974915  0.75005006  0.50600534  1
  Na  Na47  1  0.85916006  0.75006845  0.75872204  1
  Na  Na48  1  0.10956862  0.08252066  0.11916098  1
  Na  Na49  1  0.10936486  0.08283622  0.36923240  1
  Na  Na50  1  0.10947285  0.08327781  0.61927614  1
  Na  Na51  1  0.10980797  0.08247013  0.86907391  1
  Na  Na52  1  0.10942201  0.41869993  0.11977942  1
  Na  Na53  1  0.11018083  0.41832071  0.36894915  1
  Na  Na54  1  0.11023914  0.41778856  0.61748771  1
  Na  Na55  1  0.10959344  0.41763509  0.86797249  1
  Na  Na56  1  0.11036016  0.74958460  0.11947932  1
  Na  Na57  1  0.10941052  0.74893377  0.36813408  1
  Na  Na58  1  0.10894591  0.74970147  0.61976448  1
  Na  Na59  1  0.10967673  0.74860649  0.87027002  1
  Na  Na60  1  0.60962134  0.08178620  0.11715858  1
  Na  Na61  1  0.60966974  0.08233196  0.36868057  1
  Na  Na62  1  0.60947639  0.08308510  0.61801440  1
  Na  Na63  1  0.60986069  0.08267201  0.86754547  1
  Na  Na64  1  0.60950104  0.41657469  0.11821327  1
  Na  Na65  1  0.60986783  0.41743738  0.36853703  1
  Na  Na66  1  0.60962864  0.41607523  0.61822156  1
  Na  Na67  1  0.60942137  0.41599830  0.86692602  1
  Na  Na68  1  0.61065824  0.75090060  0.11812185  1
  Na  Na69  1  0.60981978  0.74982842  0.36844875  1
  Na  Na70  1  0.60947587  0.75033929  0.61977734  1
  Na  Na71  1  0.61026871  0.74983563  0.86913391  1
  Na  Na72  1  0.39074417  0.24915712  0.12995168  1
  Na  Na73  1  0.39092856  0.25037779  0.38197125  1
  Na  Na74  1  0.39060784  0.25087844  0.63109588  1
  Na  Na75  1  0.39059670  0.24895836  0.88038502  1
  Na  Na76  1  0.39017197  0.58463783  0.13172809  1
  Na  Na77  1  0.39088591  0.58341906  0.38204220  1
  Na  Na78  1  0.39045056  0.58313509  0.63163458  1
  Na  Na79  1  0.38984774  0.58324830  0.88119792  1
  Na  Na80  1  0.39044403  0.91558128  0.13174990  1
  Na  Na81  1  0.39032571  0.91565289  0.38168894  1
  Na  Na82  1  0.39063613  0.91679016  0.62986140  1
  Na  Na83  1  0.39093611  0.91685143  0.88194834  1
  Na  Na84  1  0.89035080  0.25097735  0.13054914  1
  Na  Na85  1  0.89052887  0.25126068  0.38157099  1
  Na  Na86  1  0.89021974  0.25066439  0.63065328  1
  Na  Na87  1  0.89004226  0.24966986  0.88039862  1
  Na  Na88  1  0.88971710  0.58492872  0.13262959  1
  Na  Na89  1  0.88972521  0.58385858  0.38065746  1
  Na  Na90  1  0.89033806  0.58432374  0.63056468  1
  Na  Na91  1  0.88990663  0.58381604  0.88245144  1
  Na  Na92  1  0.88968830  0.91541625  0.13194020  1
  Na  Na93  1  0.89019216  0.91682075  0.38112849  1
  Na  Na94  1  0.88988548  0.91705438  0.63163046  1
  Na  Na95  1  0.88964159  0.91518788  0.88279245  1
  Mn  Mn96  1  0.50060249  0.33270674  0.24939870  1
  Mn  Mn97  1  0.25063421  0.83198501  0.87482713  1
  Mn  Mn98  1  0.75012139  0.16597517  0.12409178  1
  Mn  Mn99  1  0.49952217  0.50074278  0.24996047  1
  Mn  Mn100  1  0.24922856  0.16706305  0.62471068  1
  Mn  Mn101  1  0.74984767  0.66643282  0.62586038  1
  Mn  Mn102  1  -0.00070306  -0.00132316  0.74986683  1
  Mn  Mn103  1  0.25054021  0.66647449  0.37533831  1
  Mn  Mn104  1  0.24987966  0.33399330  0.87465368  1
  Mn  Mn105  1  0.49937247  -0.00128703  0.24933287  1
  Mn  Mn106  1  0.74951742  0.33303575  0.87487889  1
  Mn  Mn107  1  0.24983818  0.50133353  0.12542335  1
  Mn  Mn108  1  0.50030380  -0.00032156  0.50002447  1
  Mn  Mn109  1  0.50041329  0.66754102  0.00008864  1
  Mn  Mn110  1  0.25000536  -0.00011781  0.62525766  1
  Mn  Mn111  1  0.00031027  0.00021501  0.50068488  1
  Mn  Mn112  1  0.75025411  0.33472841  0.37351105  1
  Mn  Mn113  1  0.49957545  0.66716852  0.75035162  1
  Mn  Mn114  1  0.25071104  0.00020573  0.87536105  1
  Mn  Mn115  1  -0.00023177  0.16669246  0.75010825  1
  Mn  Mn116  1  0.25016975  0.33446643  0.12450146  1
  Mn  Mn117  1  -0.00000901  0.83239358  0.50048404  1
  Mn  Mn118  1  0.50006776  0.49982407  -0.00003359  1
  Mn  Mn119  1  0.75011662  0.16598597  0.37413857  1
  Mn  Mn120  1  0.50049353  0.16595936  0.24951452  1
  Mn  Mn121  1  0.00037764  0.16660483  0.00024219  1
  Mn  Mn122  1  0.25027696  0.16711302  0.37532176  1
  Mn  Mn123  1  0.75006274  0.33447059  0.12372631  1
  Mn  Mn124  1  0.75052603  0.49943630  0.62500604  1
  Mn  Mn125  1  0.74986673  0.83362812  0.62578087  1
  Mn  Mn126  1  0.75043848  0.83383504  0.37481035  1
  Mn  Mn127  1  -0.00071052  0.66673605  0.75018711  1
  Mn  Mn128  1  0.24914679  0.66539369  0.62475011  1
  Mn  Mn129  1  0.25002947  0.16722900  0.12592102  1
  Mn  Mn130  1  -0.00081306  0.50146587  0.00005803  1
  Mn  Mn131  1  0.50000978  -0.00046978  0.74949030  1
  Mn  Mn132  1  0.00014867  0.16699586  0.25014052  1
  Mn  Mn133  1  0.74944237  0.16608488  0.62422046  1
  Mn  Mn134  1  0.25037336  0.83285364  0.62519669  1
  Mn  Mn135  1  -0.00071774  -0.00103358  0.25004330  1
  Mn  Mn136  1  0.50053622  0.50028501  0.50001948  1
  Mn  Mn137  1  -0.00030124  -0.00175134  -0.00003387  1
  Mn  Mn138  1  0.00066535  0.33505990  0.25096577  1
  Mn  Mn139  1  0.24939966  -0.00069011  0.12557425  1
  Mn  Mn140  1  -0.00002636  0.33450067  0.50015948  1
  Mn  Mn141  1  0.49945565  0.33209237  -0.00145346  1
  Mn  Mn142  1  -0.00010745  0.33452148  0.00022927  1
  Mn  Mn143  1  0.00058241  0.33445601  0.74945531  1
  Fe  Fe144  1  0.25059635  0.33414872  0.37522582  1
  Fe  Fe145  1  0.75021877  0.66712830  0.12535965  1
  Fe  Fe146  1  0.49991075  0.16677958  0.49974014  1
  Fe  Fe147  1  0.24949533  0.50032102  0.87458175  1
  Fe  Fe148  1  0.74918119  0.50109137  0.37508195  1
  Fe  Fe149  1  0.49955657  0.83316572  0.00004131  1
  Fe  Fe150  1  -0.00000232  0.66678847  0.25017869  1
  Fe  Fe151  1  0.50032525  0.33281908  0.74927906  1
  Fe  Fe152  1  0.25002025  0.16691308  0.87508530  1
  Fe  Fe153  1  0.74941073  0.50030705  0.87569924  1
  Fe  Fe154  1  0.50041770  0.83268595  0.49996334  1
  Fe  Fe155  1  0.50057918  0.33334143  0.50023197  1
  Fe  Fe156  1  0.75003133  -0.00070587  0.87522332  1
  Fe  Fe157  1  0.24971517  -0.00043931  0.37517713  1
  Fe  Fe158  1  -0.00002259  0.16701512  0.50018639  1
  Fe  Fe159  1  0.50001399  -0.00069869  -0.00083267  1
  Fe  Fe160  1  0.50074798  0.83277317  0.25025923  1
  Fe  Fe161  1  0.25106430  0.66685067  0.12531968  1
  Fe  Fe162  1  0.24999443  0.66590854  0.87542940  1
  Fe  Fe163  1  0.50079435  0.16589384  -0.00102177  1
  Fe  Fe164  1  0.50040912  0.66761038  0.25071248  1
  Fe  Fe165  1  0.49959202  0.83327723  0.74993749  1
  Fe  Fe166  1  0.00000803  0.83210763  0.00124448  1
  Fe  Fe167  1  0.74973792  0.66735339  0.37453480  1
  Fe  Fe168  1  -0.00050055  0.83241586  0.75066699  1
  Fe  Fe169  1  0.00039377  0.83237983  0.25061107  1
  Fe  Fe170  1  0.25038518  0.33372243  0.62495612  1
  Fe  Fe171  1  -0.00000050  0.66720586  0.00109703  1
  Fe  Fe172  1  0.75018646  0.66653898  0.87641079  1
  Fe  Fe173  1  0.49958978  0.16623513  0.74918116  1
  Fe  Fe174  1  0.75004971  0.83343882  0.12481301  1
  Fe  Fe175  1  0.25060666  0.83295444  0.12546571  1
  Fe  Fe176  1  0.50044709  0.66705809  0.50075713  1
  Fe  Fe177  1  -0.00061763  0.50147908  0.25004933  1
  Fe  Fe178  1  -0.00050645  0.50095265  0.74963645  1
  Fe  Fe179  1  0.50036970  0.50014959  0.74944361  1
  Fe  Fe180  1  0.25053530  0.49950301  0.62455611  1
  Fe  Fe181  1  0.00003620  0.50128395  0.49937639  1
  Fe  Fe182  1  0.74977541  -0.00019178  0.37446050  1
  Fe  Fe183  1  0.24976711  0.83289397  0.37498777  1
  Fe  Fe184  1  -0.00050843  0.66650883  0.49964850  1
  Fe  Fe185  1  0.25075525  0.49993474  0.37492387  1
  Fe  Fe186  1  0.74992359  0.83312355  0.87608646  1
  Fe  Fe187  1  0.74995146  0.16591405  0.87382639  1
  Fe  Fe188  1  0.74953558  0.33304558  0.62469602  1
  Fe  Fe189  1  0.74933102  0.50132335  0.12523064  1
  Fe  Fe190  1  0.74951143  -0.00027137  0.12418656  1
  Fe  Fe191  1  0.74978254  -0.00048956  0.62560848  1
  P  P192  1  0.04318804  0.25096610  0.10342454  1
  P  P193  1  0.04277254  0.25049382  0.35414433  1
  P  P194  1  0.04239608  0.24959103  0.60219959  1
  P  P195  1  0.04301891  0.25051019  0.85294908  1
  P  P196  1  0.04180341  0.58542937  0.10363371  1
  P  P197  1  0.04134141  0.58385305  0.35214819  1
  P  P198  1  0.04148749  0.58398766  0.60154409  1
  P  P199  1  0.04190892  0.58286348  0.85260014  1
  P  P200  1  0.04217640  0.91420862  0.10338217  1
  P  P201  1  0.04217003  0.91492708  0.35272554  1
  P  P202  1  0.04285946  0.91582806  0.60394436  1
  P  P203  1  0.04168510  0.91392674  0.85336493  1
  P  P204  1  0.54300915  0.24824003  0.10120681  1
  P  P205  1  0.54308219  0.24962826  0.35369166  1
  P  P206  1  0.54122712  0.24970610  0.60197152  1
  P  P207  1  0.54142801  0.24874039  0.85081024  1
  P  P208  1  0.54247596  0.58426875  0.10370775  1
  P  P209  1  0.54210215  0.58517097  0.35294519  1
  P  P210  1  0.54226562  0.58441815  0.60305459  1
  P  P211  1  0.54206891  0.58246118  0.85219964  1
  P  P212  1  0.54131942  0.91599201  0.10126011  1
  P  P213  1  0.54229197  0.91489720  0.35261534  1
  P  P214  1  0.54232084  0.91499039  0.60256535  1
  P  P215  1  0.54171088  0.91517209  0.85297587  1
  P  P216  1  0.45739644  0.08250814  0.14550633  1
  P  P217  1  0.45786696  0.08381406  0.39753184  1
  P  P218  1  0.45770465  0.08445377  0.64672648  1
  P  P219  1  0.45902316  0.08314905  0.89747039  1
  P  P220  1  0.45708066  0.41637799  0.14658724  1
  P  P221  1  0.45830427  0.41563440  0.39789759  1
  P  P222  1  0.45932766  0.41648111  0.64796822  1
  P  P223  1  0.45784043  0.41649807  0.89515460  1
  P  P224  1  0.45927320  0.75059399  0.14842649  1
  P  P225  1  0.45911376  0.74938494  0.39809428  1
  P  P226  1  0.45762340  0.75126825  0.64697356  1
  P  P227  1  0.45765496  0.75142635  0.89730932  1
  P  P228  1  0.95697333  0.08282549  0.14691061  1
  P  P229  1  0.95765584  0.08437308  0.39787617  1
  P  P230  1  0.95694738  0.08359174  0.64647721  1
  P  P231  1  0.95715623  0.08249671  0.89702655  1
  P  P232  1  0.95728245  0.41903331  0.14799445  1
  P  P233  1  0.95789477  0.41927065  0.39721782  1
  P  P234  1  0.95797650  0.41918636  0.64672931  1
  P  P235  1  0.95673677  0.41762674  0.89629657  1
  P  P236  1  0.95864284  0.74993600  0.14852612  1
  P  P237  1  0.95788992  0.74832604  0.39682574  1
  P  P238  1  0.95655417  0.75080232  0.64783161  1
  P  P239  1  0.95818620  0.74963243  0.89916579  1
  P  P240  1  0.20724520  0.08295355  0.22929686  1
  P  P241  1  0.20765158  0.08234825  0.47738463  1
  P  P242  1  0.20722584  0.08377208  0.72892978  1
  P  P243  1  0.20805193  0.08441599  0.97779658  1
  P  P244  1  0.20756478  0.41729642  0.22908978  1
  P  P245  1  0.20915630  0.41707673  0.47716868  1
  P  P246  1  0.20869119  0.41708562  0.72640668  1
  P  P247  1  0.20722592  0.41886204  0.97710961  1
  P  P248  1  0.20955489  0.74979256  0.22718918  1
  P  P249  1  0.20742114  0.75054650  0.47730394  1
  P  P250  1  0.20723838  0.74873241  0.72862840  1
  P  P251  1  0.20848777  0.74825369  0.97846501  1
  P  P252  1  0.70744632  0.08145119  0.22689577  1
  P  P253  1  0.70772406  0.08168310  0.47746825  1
  P  P254  1  0.70740719  0.08158302  0.72790320  1
  P  P255  1  0.70860362  0.08262897  0.97607188  1
  P  P256  1  0.70751099  0.41886456  0.22717622  1
  P  P257  1  0.70770376  0.41797891  0.47729827  1
  P  P258  1  0.70750781  0.41501822  0.72742790  1
  P  P259  1  0.70726559  0.41845492  0.97750463  1
  P  P260  1  0.70924726  0.75024235  0.22672045  1
  P  P261  1  0.70795592  0.74945310  0.47716624  1
  P  P262  1  0.70749442  0.74979418  0.72980836  1
  P  P263  1  0.70914413  0.74998582  0.97793676  1
  P  P264  1  0.29268740  0.25019170  0.02125333  1
  P  P265  1  0.29301183  0.25169950  0.27298392  1
  P  P266  1  0.29202131  0.25177900  0.52230799  1
  P  P267  1  0.29196656  0.24943979  0.77224608  1
  P  P268  1  0.29255802  0.58503445  0.02204467  1
  P  P269  1  0.29285498  0.58274968  0.27272201  1
  P  P270  1  0.29245206  0.58146000  0.52210192  1
  P  P271  1  0.29132215  0.58269569  0.77289999  1
  P  P272  1  0.29226099  0.91515927  0.02309345  1
  P  P273  1  0.29144990  0.91581613  0.27345224  1
  P  P274  1  0.29245228  0.91645214  0.52086328  1
  P  P275  1  0.29356312  0.91633934  0.77215584  1
  P  P276  1  0.79253055  0.24964223  0.02068173  1
  P  P277  1  0.79311240  0.25012310  0.27108025  1
  P  P278  1  0.79189872  0.25151073  0.52202947  1
  P  P279  1  0.79158734  0.24857412  0.77161875  1
  P  P280  1  0.79119335  0.58415594  0.02340890  1
  P  P281  1  0.79066935  0.58402087  0.27282213  1
  P  P282  1  0.79216858  0.58372206  0.52130336  1
  P  P283  1  0.79119228  0.58320199  0.77437971  1
  P  P284  1  0.79095817  0.91643011  0.02273555  1
  P  P285  1  0.79208974  0.91795181  0.27150982  1
  P  P286  1  0.79210087  0.91815330  0.52258165  1
  P  P287  1  0.79111706  0.91623482  0.77401930  1
  O  O288  1  0.03804257  0.25108247  0.18344423  1
  O  O289  1  0.03727909  0.24999795  0.43412029  1
  O  O290  1  0.03743517  0.25001860  0.68218796  1
  O  O291  1  0.03807255  0.25080340  0.93293255  1
  O  O292  1  0.03651453  0.58521875  0.18351754  1
  O  O293  1  0.03630459  0.58391915  0.43206476  1
  O  O294  1  0.03631286  0.58366639  0.68150680  1
  O  O295  1  0.03687803  0.58330470  0.93249180  1
  O  O296  1  0.03706010  0.91428581  0.18334907  1
  O  O297  1  0.03728453  0.91539381  0.43269981  1
  O  O298  1  0.03744701  0.91530168  0.68391090  1
  O  O299  1  0.03656000  0.91375744  0.93338626  1
  O  O300  1  0.53816398  0.24858431  0.18121397  1
  O  O301  1  0.53767690  0.24985033  0.43363958  1
  O  O302  1  0.53607948  0.24971809  0.68187835  1
  O  O303  1  0.53652043  0.24854984  0.93078227  1
  O  O304  1  0.53709902  0.58496459  0.18366895  1
  O  O305  1  0.53696678  0.58542054  0.43293835  1
  O  O306  1  0.53673333  0.58360638  0.68297309  1
  O  O307  1  0.53716766  0.58266922  0.93218587  1
  O  O308  1  0.53694362  0.91607083  0.18127113  1
  O  O309  1  0.53718207  0.91478921  0.43254970  1
  O  O310  1  0.53672857  0.91524578  0.68247293  1
  O  O311  1  0.53613851  0.91557791  0.93284073  1
  O  O312  1  0.46269337  0.08254629  0.06558582  1
  O  O313  1  0.46282950  0.08318406  0.31753426  1
  O  O314  1  0.46321429  0.08448463  0.56681742  1
  O  O315  1  0.46371318  0.08304810  0.81745340  1
  O  O316  1  0.46219791  0.41630924  0.06657833  1
  O  O317  1  0.46308501  0.41588307  0.31793376  1
  O  O318  1  0.46425987  0.41610459  0.56798013  1
  O  O319  1  0.46350200  0.41673421  0.81525181  1
  O  O320  1  0.46362448  0.75097499  0.06841425  1
  O  O321  1  0.46450665  0.74907537  0.31817352  1
  O  O322  1  0.46345087  0.75068420  0.56711958  1
  O  O323  1  0.46259428  0.75140451  0.81737234  1
  O  O324  1  0.96217767  0.08250662  0.06694537  1
  O  O325  1  0.96277460  0.08382824  0.31787187  1
  O  O326  1  0.96256372  0.08420556  0.56651436  1
  O  O327  1  0.96203572  0.08213549  0.81702177  1
  O  O328  1  0.96230545  0.41875938  0.06798477  1
  O  O329  1  0.96309048  0.41919650  0.31728015  1
  O  O330  1  0.96334754  0.41940246  0.56676558  1
  O  O331  1  0.96188670  0.41802854  0.81629343  1
  O  O332  1  0.96357531  0.74993709  0.06860551  1
  O  O333  1  0.96357218  0.74855854  0.31696739  1
  O  O334  1  0.96165375  0.75015011  0.56792806  1
  O  O335  1  0.96281550  0.74988224  0.81917094  1
  O  O336  1  0.21281771  0.08411697  0.05787192  1
  O  O337  1  0.21269875  0.08235864  0.30924539  1
  O  O338  1  0.21240479  0.08256087  0.55743093  1
  O  O339  1  0.21274778  0.08442248  0.80889610  1
  O  O340  1  0.21232393  0.41874070  0.05705070  1
  O  O341  1  0.21314686  0.41719939  0.30900736  1
  O  O342  1  0.21426803  0.41711452  0.55710925  1
  O  O343  1  0.21342448  0.41762352  0.80638249  1
  O  O344  1  0.21407359  0.74862381  0.05833904  1
  O  O345  1  0.21425632  0.75033695  0.30716949  1
  O  O346  1  0.21222080  0.75002965  0.55726877  1
  O  O347  1  0.21269553  0.74796030  0.80854858  1
  O  O348  1  0.71360412  0.08245696  0.05603658  1
  O  O349  1  0.71265441  0.08136606  0.30686992  1
  O  O350  1  0.71314181  0.08183856  0.55742174  1
  O  O351  1  0.71294191  0.08223135  0.80774948  1
  O  O352  1  0.71238440  0.41886598  0.05744655  1
  O  O353  1  0.71289632  0.41904477  0.30714585  1
  O  O354  1  0.71303312  0.41697039  0.55722584  1
  O  O355  1  0.71214543  0.41518965  0.80732603  1
  O  O356  1  0.71394570  0.75035655  0.05784096  1
  O  O357  1  0.71383483  0.75028649  0.30667947  1
  O  O358  1  0.71273759  0.74977985  0.55712972  1
  O  O359  1  0.71291565  0.74956780  0.80971112  1
  O  O360  1  0.28782481  0.25143098  0.19299702  1
  O  O361  1  0.28693576  0.25211855  0.44237253  1
  O  O362  1  0.28691767  0.24983259  0.69227950  1
  O  O363  1  0.28720186  0.24945188  0.94128986  1
  O  O364  1  0.28785475  0.58369612  0.19277997  1
  O  O365  1  0.28763275  0.58141273  0.44212300  1
  O  O366  1  0.28626399  0.58205472  0.69291195  1
  O  O367  1  0.28712376  0.58491430  0.94217662  1
  O  O368  1  0.28646278  0.91554399  0.19342894  1
  O  O369  1  0.28688205  0.91642414  0.44092787  1
  O  O370  1  0.28852403  0.91647765  0.69218114  1
  O  O371  1  0.28757500  0.91526471  0.94313508  1
  O  O372  1  0.78798092  0.25014903  0.19109373  1
  O  O373  1  0.78697136  0.25128077  0.44205860  1
  O  O374  1  0.78605914  0.24915925  0.69167618  1
  O  O375  1  0.78703804  0.24909549  0.94071429  1
  O  O376  1  0.78557004  0.58392345  0.19294822  1
  O  O377  1  0.78675735  0.58382888  0.44143772  1
  O  O378  1  0.78655244  0.58304444  0.69439657  1
  O  O379  1  0.78623167  0.58469819  0.94354628  1
  O  O380  1  0.78665514  0.91765119  0.19165366  1
  O  O381  1  0.78697396  0.91821383  0.44261719  1
  O  O382  1  0.78658668  0.91628915  0.69403987  1
  O  O383  1  0.78609604  0.91578444  0.94283885  1
  O  O384  1  0.22840982  0.25052481  0.05681797  1
  O  O385  1  0.22868840  0.25186986  0.30847618  1
  O  O386  1  0.22775595  0.25210402  0.55800827  1
  O  O387  1  0.22775837  0.24950240  0.80797644  1
  O  O388  1  0.22840660  0.58578594  0.05823609  1
  O  O389  1  0.22853191  0.58233176  0.30823675  1
  O  O390  1  0.22800737  0.58084349  0.55734743  1
  O  O391  1  0.22717537  0.58295524  0.80902238  1
  O  O392  1  0.22787291  0.91470391  0.05837079  1
  O  O393  1  0.22726501  0.91570467  0.30938969  1
  O  O394  1  0.22830237  0.91623047  0.55680223  1
  O  O395  1  0.22914341  0.91631113  0.80716639  1
  O  O396  1  0.72824825  0.24998960  0.05613638  1
  O  O397  1  0.72871307  0.25014885  0.30613892  1
  O  O398  1  0.72756553  0.25134300  0.55757322  1
  O  O399  1  0.72743611  0.24823363  0.80763786  1
  O  O400  1  0.72707110  0.58396671  0.05954865  1
  O  O401  1  0.72669453  0.58406239  0.30935576  1
  O  O402  1  0.72802413  0.58318073  0.55720107  1
  O  O403  1  0.72697062  0.58412126  0.81005619  1
  O  O404  1  0.72688223  0.91682368  0.05896643  1
  O  O405  1  0.72793929  0.91811593  0.30771382  1
  O  O406  1  0.72783589  0.91793394  0.55841560  1
  O  O407  1  0.72692997  0.91637147  0.80975573  1
  O  O408  1  0.27150921  0.08290897  0.19379090  1
  O  O409  1  0.27201285  0.08236244  0.44214319  1
  O  O410  1  0.27147954  0.08384323  0.69337837  1
  O  O411  1  0.27246760  0.08453600  0.94258705  1
  O  O412  1  0.27175041  0.41757180  0.19323820  1
  O  O413  1  0.27326382  0.41706091  0.44090165  1
  O  O414  1  0.27296420  0.41675954  0.69055323  1
  O  O415  1  0.27154682  0.41893753  0.94158121  1
  O  O416  1  0.27373287  0.74943271  0.19130003  1
  O  O417  1  0.27191672  0.75104009  0.44223873  1
  O  O418  1  0.27149427  0.74862059  0.69305815  1
  O  O419  1  0.27255100  0.74778124  0.94211203  1
  O  O420  1  0.77174688  0.08122078  0.19125643  1
  O  O421  1  0.77191619  0.08129651  0.44145266  1
  O  O422  1  0.77152240  0.08170209  0.69166541  1
  O  O423  1  0.77270905  0.08295329  0.93998706  1
  O  O424  1  0.77172959  0.41904195  0.19128013  1
  O  O425  1  0.77186942  0.41904098  0.44131890  1
  O  O426  1  0.77192080  0.41459893  0.69199998  1
  O  O427  1  0.77155118  0.41778392  0.94192419  1
  O  O428  1  0.77336651  0.75022236  0.19090604  1
  O  O429  1  0.77228408  0.74918475  0.44171680  1
  O  O430  1  0.77170639  0.75003876  0.69402088  1
  O  O431  1  0.77321908  0.74928843  0.94183415  1
  O  O432  1  0.02138314  0.08259935  0.18194991  1
  O  O433  1  0.02199543  0.08476221  0.43331699  1
  O  O434  1  0.02119427  0.08287323  0.68195977  1
  O  O435  1  0.02161755  0.08221934  0.93194616  1
  O  O436  1  0.02167714  0.41964195  0.18332936  1
  O  O437  1  0.02213282  0.41895535  0.43292118  1
  O  O438  1  0.02221176  0.41954612  0.68255788  1
  O  O439  1  0.02113455  0.41788054  0.93147803  1
  O  O440  1  0.02276822  0.74975994  0.18470055  1
  O  O441  1  0.02192931  0.74795919  0.43320341  1
  O  O442  1  0.02095030  0.75102742  0.68335279  1
  O  O443  1  0.02243475  0.74955018  0.93496122  1
  O  O444  1  0.52165622  0.08207607  0.18114654  1
  O  O445  1  0.52215201  0.08424990  0.43304600  1
  O  O446  1  0.52188777  0.08449241  0.68265832  1
  O  O447  1  0.52317177  0.08346396  0.93336989  1
  O  O448  1  0.52150370  0.41694857  0.18162372  1
  O  O449  1  0.52264290  0.41575330  0.43326329  1
  O  O450  1  0.52339821  0.41687776  0.68388974  1
  O  O451  1  0.52191458  0.41607873  0.93122341  1
  O  O452  1  0.52361998  0.75041108  0.18388536  1
  O  O453  1  0.52312827  0.74949202  0.43457736  1
  O  O454  1  0.52162995  0.75147584  0.68349601  1
  O  O455  1  0.52204027  0.75190054  0.93275805  1
  O  O456  1  0.47855514  0.24741667  0.06599229  1
  O  O457  1  0.47883555  0.24954317  0.31799860  1
  O  O458  1  0.47726385  0.24952263  0.56552395  1
  O  O459  1  0.47730722  0.24875303  0.81481087  1
  O  O460  1  0.47824471  0.58416882  0.06818608  1
  O  O461  1  0.47786472  0.58530775  0.31727680  1
  O  O462  1  0.47812801  0.58471630  0.56708395  1
  O  O463  1  0.47774657  0.58232467  0.81680920  1
  O  O464  1  0.47705759  0.91567093  0.06565563  1
  O  O465  1  0.47799611  0.91426021  0.31694819  1
  O  O466  1  0.47825067  0.91486980  0.56642103  1
  O  O467  1  0.47770190  0.91495885  0.81650800  1
  O  O468  1  0.97870134  0.25075728  0.06847013  1
  O  O469  1  0.97853640  0.25097179  0.31862889  1
  O  O470  1  0.97802403  0.24961777  0.56689780  1
  O  O471  1  0.97855389  0.25097050  0.81802038  1
  O  O472  1  0.97757475  0.58584295  0.06773600  1
  O  O473  1  0.97724451  0.58400344  0.31583307  1
  O  O474  1  0.97729660  0.58415004  0.56554221  1
  O  O475  1  0.97754315  0.58235935  0.81698321  1
  O  O476  1  0.97783500  0.91419347  0.06785279  1
  O  O477  1  0.97780631  0.91434631  0.31738801  1
  O  O478  1  0.97854902  0.91622348  0.56860606  1
  O  O479  1  0.97738665  0.91385197  0.81768455  1
  O  O480  1  0.07401116  0.31460080  0.07533915  1
  O  O481  1  0.07395805  0.31419848  0.32654741  1
  O  O482  1  0.07353562  0.31326672  0.57454293  1
  O  O483  1  0.07431221  0.31376957  0.82445624  1
  O  O484  1  0.07282489  0.64873159  0.07479947  1
  O  O485  1  0.07252031  0.64725089  0.32364845  1
  O  O486  1  0.07213098  0.64786960  0.57354877  1
  O  O487  1  0.07281217  0.64646432  0.82450042  1
  O  O488  1  0.07324812  0.97785894  0.07540261  1
  O  O489  1  0.07287364  0.97866565  0.32473454  1
  O  O490  1  0.07405331  0.97940868  0.57609283  1
  O  O491  1  0.07263898  0.97775968  0.82572940  1
  O  O492  1  0.57342926  0.31217778  0.07321398  1
  O  O493  1  0.57427159  0.31296068  0.32502196  1
  O  O494  1  0.57184490  0.31360754  0.57359115  1
  O  O495  1  0.57190549  0.31272988  0.82260451  1
  O  O496  1  0.57381561  0.64742337  0.07505898  1
  O  O497  1  0.57323069  0.64830480  0.32404248  1
  O  O498  1  0.57318490  0.64811830  0.57517562  1
  O  O499  1  0.57305268  0.64626189  0.82475714  1
  O  O500  1  0.57149380  0.97989144  0.07235535  1
  O  O501  1  0.57268421  0.97890961  0.32470444  1
  O  O502  1  0.57326675  0.97884548  0.57492125  1
  O  O503  1  0.57279296  0.97879457  0.82483657  1
  O  O504  1  0.42593760  0.01926390  0.17407350  1
  O  O505  1  0.42703504  0.02009015  0.42546118  1
  O  O506  1  0.42678172  0.02061615  0.67442912  1
  O  O507  1  0.42879094  0.01908929  0.92591054  1
  O  O508  1  0.42650430  0.35259519  0.17457758  1
  O  O509  1  0.42780151  0.35210351  0.42665699  1
  O  O510  1  0.42868632  0.35280308  0.67655476  1
  O  O511  1  0.42635325  0.35306173  0.92308172  1
  O  O512  1  0.42855143  0.68689165  0.17676762  1
  O  O513  1  0.42800713  0.68599600  0.42681771  1
  O  O514  1  0.42635591  0.68770873  0.67507481  1
  O  O515  1  0.42722830  0.68735204  0.92515985  1
  O  O516  1  0.92583593  0.01936801  0.17504737  1
  O  O517  1  0.92680095  0.02058381  0.42565544  1
  O  O518  1  0.92557953  0.02006691  0.67419128  1
  O  O519  1  0.92597523  0.01913966  0.92528437  1
  O  O520  1  0.92651693  0.35529527  0.17584082  1
  O  O521  1  0.92659761  0.35568704  0.42503641  1
  O  O522  1  0.92727552  0.35508751  0.67409374  1
  O  O523  1  0.92595595  0.35390918  0.92437294  1
  O  O524  1  0.92746357  0.68651338  0.17691411  1
  O  O525  1  0.92680570  0.68501743  0.42549006  1
  O  O526  1  0.92542640  0.68736674  0.67617149  1
  O  O527  1  0.92775367  0.68569983  0.92744024  1
  O  O528  1  0.17578468  0.01982680  0.20063968  1
  O  O529  1  0.17703815  0.01869581  0.44888543  1
  O  O530  1  0.17633524  0.01985456  0.70139278  1
  O  O531  1  0.17707416  0.02051193  0.95023602  1
  O  O532  1  0.17639888  0.35394450  0.20053877  1
  O  O533  1  0.17810529  0.35348256  0.44883119  1
  O  O534  1  0.17804544  0.35316441  0.69834495  1
  O  O535  1  0.17625438  0.35520482  0.94916091  1
  O  O536  1  0.17861996  0.68599349  0.19937865  1
  O  O537  1  0.17685958  0.68665352  0.44917304  1
  O  O538  1  0.17567045  0.68573025  0.69984942  1
  O  O539  1  0.17728036  0.68499757  0.94968035  1
  O  O540  1  0.67625826  0.01833254  0.19787623  1
  O  O541  1  0.67638985  0.01852736  0.44893579  1
  O  O542  1  0.67681354  0.01777087  0.69954785  1
  O  O543  1  0.67781033  0.01881378  0.94803599  1
  O  O544  1  0.67668347  0.35488314  0.19951537  1
  O  O545  1  0.67682917  0.35447346  0.44879481  1
  O  O546  1  0.67677925  0.35152712  0.69847294  1
  O  O547  1  0.67573741  0.35495234  0.94986311  1
  O  O548  1  0.67808835  0.68683902  0.19834085  1
  O  O549  1  0.67710813  0.68601746  0.44854305  1
  O  O550  1  0.67632983  0.68641416  0.70121153  1
  O  O551  1  0.67749637  0.68675292  0.94968421  1
  O  O552  1  0.32366346  0.31418636  0.04853745  1
  O  O553  1  0.32385264  0.31515588  0.30152322  1
  O  O554  1  0.32318546  0.31483427  0.55152304  1
  O  O555  1  0.32342237  0.31288246  0.80009627  1
  O  O556  1  0.32400708  0.64804439  0.05115982  1
  O  O557  1  0.32398398  0.64616700  0.30119856  1
  O  O558  1  0.32274107  0.64563850  0.55000572  1
  O  O559  1  0.32221632  0.64651864  0.80074330  1
  O  O560  1  0.32298327  0.97901013  0.05090650  1
  O  O561  1  0.32195484  0.97985613  0.30149327  1
  O  O562  1  0.32361624  0.97994608  0.54920891  1
  O  O563  1  0.32460939  0.97982181  0.80046323  1
  O  O564  1  0.82361137  0.31342702  0.04839575  1
  O  O565  1  0.82422566  0.31366279  0.29907388  1
  O  O566  1  0.82246950  0.31520196  0.55051213  1
  O  O567  1  0.82296105  0.31196533  0.79968200  1
  O  O568  1  0.82194328  0.64768343  0.05261647  1
  O  O569  1  0.82148578  0.64784604  0.30109357  1
  O  O570  1  0.82315436  0.64716816  0.54999632  1
  O  O571  1  0.82283789  0.64636236  0.80256307  1
  O  O572  1  0.82218704  0.98000935  0.05066811  1
  O  O573  1  0.82319085  0.98116471  0.30042987  1
  O  O574  1  0.82287968  0.98146227  0.55156521  1
  O  O575  1  0.82231198  0.97969026  0.80228955  1
  O  O576  1  0.42647264  0.14592849  0.17423908  1
  O  O577  1  0.42700173  0.14736808  0.42570851  1
  O  O578  1  0.42656972  0.14766531  0.67541506  1
  O  O579  1  0.42777410  0.14647966  0.92570932  1
  O  O580  1  0.42579308  0.47971746  0.17475880  1
  O  O581  1  0.42724244  0.47928697  0.42573443  1
  O  O582  1  0.42828194  0.48022219  0.67582528  1
  O  O583  1  0.42672658  0.47984573  0.92376245  1
  O  O584  1  0.42853950  0.81406247  0.17735638  1
  O  O585  1  0.42818118  0.81313919  0.42609913  1
  O  O586  1  0.42661312  0.81470197  0.67532257  1
  O  O587  1  0.42642660  0.81441225  0.92629653  1
  O  O588  1  0.92611237  0.14646532  0.17485366  1
  O  O589  1  0.92686429  0.14800786  0.42603455  1
  O  O590  1  0.92591042  0.14697591  0.67485925  1
  O  O591  1  0.92652729  0.14630118  0.92488181  1
  O  O592  1  0.92641545  0.48260075  0.17623734  1
  O  O593  1  0.92717309  0.48273638  0.42581475  1
  O  O594  1  0.92674045  0.48228083  0.67559253  1
  O  O595  1  0.92535200  0.48069049  0.92505484  1
  O  O596  1  0.92787357  0.81356810  0.17711918  1
  O  O597  1  0.92674299  0.81196527  0.42474039  1
  O  O598  1  0.92601895  0.81439228  0.67652575  1
  O  O599  1  0.92719086  0.81293820  0.92794920  1
  O  O600  1  0.07418533  0.18737211  0.07543096  1
  O  O601  1  0.07395382  0.18724074  0.32565270  1
  O  O602  1  0.07289622  0.18587672  0.57386145  1
  O  O603  1  0.07361680  0.18671767  0.82504556  1
  O  O604  1  0.07281823  0.52187995  0.07536973  1
  O  O605  1  0.07207975  0.52020265  0.32363757  1
  O  O606  1  0.07249951  0.52058994  0.57293462  1
  O  O607  1  0.07263411  0.51945187  0.82368500  1
  O  O608  1  0.07302401  0.85084480  0.07463525  1
  O  O609  1  0.07305530  0.85136420  0.32450574  1
  O  O610  1  0.07400138  0.85258418  0.57538060  1
  O  O611  1  0.07258301  0.85056300  0.82468828  1
  O  O612  1  0.57410381  0.18492959  0.07271932  1
  O  O613  1  0.57425980  0.18619632  0.32532216  1
  O  O614  1  0.57248381  0.18630485  0.57352629  1
  O  O615  1  0.57252519  0.18534705  0.82244584  1
  O  O616  1  0.57341369  0.52055943  0.07592077  1
  O  O617  1  0.57283343  0.52120056  0.32536299  1
  O  O618  1  0.57350919  0.52107241  0.57470916  1
  O  O619  1  0.57284499  0.51905294  0.82349115  1
  O  O620  1  0.57258382  0.85262500  0.07297766  1
  O  O621  1  0.57364276  0.85185163  0.32370153  1
  O  O622  1  0.57345528  0.85173114  0.57409963  1
  O  O623  1  0.57277114  0.85180030  0.82451043  1
  O  O624  1  0.32389831  0.18719723  0.05019417  1
  O  O625  1  0.32393289  0.18793916  0.30063818  1
  O  O626  1  0.32265540  0.18772363  0.54965223  1
  O  O627  1  0.32238516  0.18571919  0.80083862  1
  O  O628  1  0.32328673  0.52122128  0.04999676  1
  O  O629  1  0.32358177  0.51911454  0.30086831  1
  O  O630  1  0.32385425  0.51861535  0.55110670  1
  O  O631  1  0.32211056  0.51918557  0.80149291  1
  O  O632  1  0.32310456  0.85176617  0.05173465  1
  O  O633  1  0.32255922  0.85241349  0.30178935  1
  O  O634  1  0.32378811  0.85313916  0.54913395  1
  O  O635  1  0.32449634  0.85283103  0.80010136  1
  O  O636  1  0.82378984  0.18648324  0.04910055  1
  O  O637  1  0.82394017  0.18658981  0.29929101  1
  O  O638  1  0.82299605  0.18793397  0.54975279  1
  O  O639  1  0.82235074  0.18485958  0.79967311  1
  O  O640  1  0.82215655  0.52057301  0.05156713  1
  O  O641  1  0.82161012  0.52056531  0.30134060  1
  O  O642  1  0.82365150  0.52056544  0.54980721  1
  O  O643  1  0.82082221  0.51884173  0.80262652  1
  O  O644  1  0.82147087  0.85280765  0.05187771  1
  O  O645  1  0.82311470  0.85431953  0.29965888  1
  O  O646  1  0.82306603  0.85431543  0.55021607  1
  O  O647  1  0.82147961  0.85243686  0.80274448  1
  O  O648  1  0.17642624  0.14677369  0.20168670  1
  O  O649  1  0.17665009  0.14604800  0.44985169  1
  O  O650  1  0.17571015  0.14671797  0.70021830  1
  O  O651  1  0.17744176  0.14791866  0.94924796  1
  O  O652  1  0.17625789  0.48066752  0.20089374  1
  O  O653  1  0.17832679  0.48066066  0.44858751  1
  O  O654  1  0.17786214  0.48046390  0.69766599  1
  O  O655  1  0.17650715  0.48237512  0.94872750  1
  O  O656  1  0.17893244  0.81334300  0.19838478  1
  O  O657  1  0.17648857  0.81379642  0.44873864  1
  O  O658  1  0.17652730  0.81260508  0.70109189  1
  O  O659  1  0.17743700  0.81185983  0.95040440  1
  O  O660  1  0.67674009  0.14540281  0.19926370  1
  O  O661  1  0.67719602  0.14573990  0.44982209  1
  O  O662  1  0.67591086  0.14470008  0.69934801  1
  O  O663  1  0.67776671  0.14621147  0.94773124  1
  O  O664  1  0.67636556  0.48209814  0.19876426  1
  O  O665  1  0.67655039  0.48157636  0.44952696  1
  O  O666  1  0.67675692  0.47871493  0.69936924  1
  O  O667  1  0.67709178  0.48211903  0.94841836  1
  O  O668  1  0.67877102  0.81404312  0.19816971  1
  O  O669  1  0.67721177  0.81313419  0.44910944  1
  O  O670  1  0.67627273  0.81307456  0.70131982  1
  O  O671  1  0.67885066  0.81384150  0.94910639  1
