# generated using pymatgen
data_Na2MnFe(PO4)2
_symmetry_space_group_name_H-M   'P 1'
_cell_length_a   22.34358828
_cell_length_b   20.09233207
_cell_length_c   19.44950803
_cell_angle_alpha   90.02087578
_cell_angle_beta   90.02952159
_cell_angle_gamma   90.03001343
_symmetry_Int_Tables_number   1
_chemical_formula_structural   Na2MnFe(PO4)2
_chemical_formula_sum   'Na96 Mn48 Fe48 P96 O384'
_cell_volume   8731.55797270
_cell_formula_units_Z   48
loop_
 _symmetry_equiv_pos_site_id
 _symmetry_equiv_pos_as_xyz
  1  'x, y, z'
loop_
 _atom_site_type_symbol
 _atom_site_label
 _atom_site_symmetry_multiplicity
 _atom_site_fract_x
 _atom_site_fract_y
 _atom_site_fract_z
 _atom_site_occupancy
  Na  Na0  1  0.14049842  0.25165664  0.24424627  1
  Na  Na1  1  0.13963447  0.25202000  0.49292599  1
  Na  Na2  1  0.13959922  0.25039586  0.74248353  1
  Na  Na3  1  0.14019288  0.25033915  0.99359884  1
  Na  Na4  1  0.14042741  0.58459947  0.24437170  1
  Na  Na5  1  0.14063360  0.58360436  0.49337879  1
  Na  Na6  1  0.14110219  0.58304047  0.74311150  1
  Na  Na7  1  0.14085314  0.58369089  0.99443025  1
  Na  Na8  1  0.14030367  0.91762996  0.24322937  1
  Na  Na9  1  0.13956285  0.91733448  0.49351618  1
  Na  Na10  1  0.13958491  0.91559769  0.74329547  1
  Na  Na11  1  0.13969950  0.91610873  0.99210963  1
  Na  Na12  1  0.64069992  0.25047758  0.24535822  1
  Na  Na13  1  0.63982257  0.25021944  0.49365843  1
  Na  Na14  1  0.63948719  0.25030150  0.74297380  1
  Na  Na15  1  0.64049802  0.24893386  0.99334089  1
  Na  Na16  1  0.64031008  0.58258755  0.24509903  1
  Na  Na17  1  0.64073352  0.58281959  0.49415048  1
  Na  Na18  1  0.64084461  0.58335464  0.74417716  1
  Na  Na19  1  0.64048764  0.58118641  0.99410971  1
  Na  Na20  1  0.64011068  0.91610044  0.24512514  1
  Na  Na21  1  0.63985061  0.91494091  0.49287075  1
  Na  Na22  1  0.64003265  0.91653505  0.74302409  1
  Na  Na23  1  0.64005458  0.91496695  0.99319489  1
  Na  Na24  1  0.35900326  0.08297190  0.00504252  1
  Na  Na25  1  0.35904372  0.08391080  0.25658014  1
  Na  Na26  1  0.36004506  0.08421785  0.50709766  1
  Na  Na27  1  0.35990144  0.08290758  0.75657164  1
  Na  Na28  1  0.35958016  0.41635348  0.00646926  1
  Na  Na29  1  0.35992986  0.41802425  0.25717580  1
  Na  Na30  1  0.35994136  0.41757510  0.50731479  1
  Na  Na31  1  0.35965888  0.41609350  0.75580712  1
  Na  Na32  1  0.35948134  0.74945884  0.00594201  1
  Na  Na33  1  0.35950412  0.75024294  0.25600888  1
  Na  Na34  1  0.35943874  0.74997430  0.50592206  1
  Na  Na35  1  0.35942792  0.74924213  0.75565386  1
  Na  Na36  1  0.85965032  0.08234059  0.00498422  1
  Na  Na37  1  0.86026104  0.08371378  0.25643257  1
  Na  Na38  1  0.86020423  0.08300128  0.50740270  1
  Na  Na39  1  0.85998425  0.08402121  0.75672568  1
  Na  Na40  1  0.85983039  0.41555615  0.00537252  1
  Na  Na41  1  0.85994592  0.41822233  0.25672609  1
  Na  Na42  1  0.86056536  0.41800018  0.50750667  1
  Na  Na43  1  0.86025190  0.41661167  0.75567139  1
  Na  Na44  1  0.85998651  0.74914443  0.00584310  1
  Na  Na45  1  0.85996817  0.74966284  0.25706336  1
  Na  Na46  1  0.85968078  0.75022347  0.50674901  1
  Na  Na47  1  0.85966681  0.75163902  0.75585375  1
  Na  Na48  1  0.10952150  0.08476913  0.11790320  1
  Na  Na49  1  0.10933864  0.08407602  0.36943086  1
  Na  Na50  1  0.10862631  0.08359433  0.61912884  1
  Na  Na51  1  0.10906133  0.08369481  0.86772751  1
  Na  Na52  1  0.10985986  0.41749256  0.11952279  1
  Na  Na53  1  0.11052211  0.41746621  0.36900612  1
  Na  Na54  1  0.11000375  0.41548868  0.61675995  1
  Na  Na55  1  0.10951683  0.41560603  0.86810672  1
  Na  Na56  1  0.10946438  0.75130395  0.11813600  1
  Na  Na57  1  0.10957841  0.75155520  0.36869179  1
  Na  Na58  1  0.10970979  0.75044693  0.61865160  1
  Na  Na59  1  0.10997852  0.75147983  0.86805269  1
  Na  Na60  1  0.60942687  0.08195551  0.11932418  1
  Na  Na61  1  0.60952725  0.08165115  0.36978732  1
  Na  Na62  1  0.60868887  0.08276477  0.61854700  1
  Na  Na63  1  0.60889411  0.08360190  0.86747280  1
  Na  Na64  1  0.61002132  0.41709555  0.11959040  1
  Na  Na65  1  0.61018609  0.41643894  0.36992116  1
  Na  Na66  1  0.60947031  0.41468002  0.61822675  1
  Na  Na67  1  0.60952802  0.41572300  0.86873369  1
  Na  Na68  1  0.60935824  0.74904413  0.11934593  1
  Na  Na69  1  0.60949334  0.74860551  0.36943834  1
  Na  Na70  1  0.61008253  0.74975318  0.61764281  1
  Na  Na71  1  0.60968458  0.75043245  0.86824014  1
  Na  Na72  1  0.39021711  0.25044016  0.13154636  1
  Na  Na73  1  0.39076718  0.25032388  0.38278116  1
  Na  Na74  1  0.39030738  0.24901142  0.63141116  1
  Na  Na75  1  0.38993218  0.25018985  0.88065158  1
  Na  Na76  1  0.39048930  0.58301086  0.13133886  1
  Na  Na77  1  0.39027713  0.58212745  0.38247545  1
  Na  Na78  1  0.38984371  0.58186800  0.63151345  1
  Na  Na79  1  0.39019820  0.58402390  0.88134454  1
  Na  Na80  1  0.38990303  0.91538195  0.13021002  1
  Na  Na81  1  0.39037910  0.91619589  0.38138726  1
  Na  Na82  1  0.39049387  0.91699178  0.63045472  1
  Na  Na83  1  0.39010108  0.91676550  0.88092286  1
  Na  Na84  1  0.89072199  0.25031427  0.13029230  1
  Na  Na85  1  0.89130182  0.24996746  0.38250173  1
  Na  Na86  1  0.89068050  0.24979281  0.63143857  1
  Na  Na87  1  0.89027309  0.24975074  0.88007016  1
  Na  Na88  1  0.89036111  0.58321617  0.13168261  1
  Na  Na89  1  0.89057950  0.58435509  0.38234634  1
  Na  Na90  1  0.89080789  0.58335571  0.63140210  1
  Na  Na91  1  0.89075276  0.58372122  0.88145554  1
  Na  Na92  1  0.89071006  0.91728527  0.13057247  1
  Na  Na93  1  0.89087513  0.91800616  0.38255799  1
  Na  Na94  1  0.89038971  0.91720926  0.63124578  1
  Na  Na95  1  0.89051741  0.91727098  0.88041500  1
  Mn  Mn96  1  0.25004587  0.66719116  0.37457467  1
  Mn  Mn97  1  0.24977385  0.16843229  0.37548378  1
  Mn  Mn98  1  0.49963885  0.66556455  0.49974965  1
  Mn  Mn99  1  0.24984293  0.66674689  0.12514038  1
  Mn  Mn100  1  0.75131120  0.33466073  0.37446081  1
  Mn  Mn101  1  0.50032726  0.66678621  0.00053594  1
  Mn  Mn102  1  0.49917190  -0.00164705  0.24970556  1
  Mn  Mn103  1  0.49952358  -0.00069309  -0.00061508  1
  Mn  Mn104  1  0.75039206  0.49930931  0.87414254  1
  Mn  Mn105  1  0.25019953  0.83248299  0.62458955  1
  Mn  Mn106  1  0.49957511  0.16685128  -0.00036909  1
  Mn  Mn107  1  0.50059224  0.33413121  0.00063519  1
  Mn  Mn108  1  0.00022086  0.66760026  0.50072009  1
  Mn  Mn109  1  -0.00032848  0.33320664  0.25049387  1
  Mn  Mn110  1  0.75005100  0.66499705  0.12584783  1
  Mn  Mn111  1  0.75027999  0.83249393  0.12523905  1
  Mn  Mn112  1  0.75015599  0.83272652  0.37526240  1
  Mn  Mn113  1  0.49960763  0.66584513  0.25029519  1
  Mn  Mn114  1  0.00045042  0.00125316  0.25045402  1
  Mn  Mn115  1  0.24967114  0.50022115  0.87456088  1
  Mn  Mn116  1  0.00053704  0.83394238  0.25010956  1
  Mn  Mn117  1  0.24989871  -0.00016168  0.62532446  1
  Mn  Mn118  1  0.00046810  0.66770357  0.75029036  1
  Mn  Mn119  1  0.00074288  0.66798654  -0.00007249  1
  Mn  Mn120  1  0.74978135  -0.00071628  0.12512397  1
  Mn  Mn121  1  0.00045298  0.49955259  0.00033893  1
  Mn  Mn122  1  0.74969597  0.16590215  0.12477927  1
  Mn  Mn123  1  0.00011564  0.16723033  -0.00115209  1
  Mn  Mn124  1  0.49948498  0.83413451  0.74882403  1
  Mn  Mn125  1  0.24893447  0.16778634  0.62505374  1
  Mn  Mn126  1  0.25020602  0.33384993  0.12518245  1
  Mn  Mn127  1  0.75029926  0.50070658  0.62578741  1
  Mn  Mn128  1  0.75056310  0.33374340  0.12513434  1
  Mn  Mn129  1  0.24914587  -0.00061704  0.87523703  1
  Mn  Mn130  1  0.50048781  0.49871528  0.75051750  1
  Mn  Mn131  1  0.24963632  0.00017102  0.12445016  1
  Mn  Mn132  1  0.00087124  0.49900011  0.75037458  1
  Mn  Mn133  1  0.50025514  0.16599606  0.25059495  1
  Mn  Mn134  1  0.74985314  0.83255083  0.87491914  1
  Mn  Mn135  1  0.74926934  0.16726752  0.62532962  1
  Mn  Mn136  1  0.75078474  0.16627057  0.37510405  1
  Mn  Mn137  1  0.74943572  -0.00064318  0.62532828  1
  Mn  Mn138  1  0.24911029  0.33247922  0.87578564  1
  Mn  Mn139  1  0.50029236  0.33373702  0.25146922  1
  Mn  Mn140  1  -0.00016014  0.50109513  0.24992350  1
  Mn  Mn141  1  0.50010889  0.66642711  0.74983501  1
  Mn  Mn142  1  0.24972505  0.00040668  0.37445213  1
  Mn  Mn143  1  0.74952589  0.16651471  0.87448954  1
  Fe  Fe144  1  0.75050798  0.66693206  0.62475566  1
  Fe  Fe145  1  0.00002758  0.00088563  0.50083877  1
  Fe  Fe146  1  -0.00003299  0.83426886  0.49998840  1
  Fe  Fe147  1  -0.00015948  0.16677719  0.74945419  1
  Fe  Fe148  1  0.25019546  0.16733066  0.12534066  1
  Fe  Fe149  1  0.49994997  0.16572883  0.50063170  1
  Fe  Fe150  1  0.49976323  -0.00059718  0.49995793  1
  Fe  Fe151  1  0.24952593  0.66651481  0.62491320  1
  Fe  Fe152  1  0.00000086  0.33297775  0.49983329  1
  Fe  Fe153  1  0.00006003  0.33281282  0.74866039  1
  Fe  Fe154  1  -0.00016405  0.83466375  0.74947726  1
  Fe  Fe155  1  0.75010038  0.33390675  0.62472025  1
  Fe  Fe156  1  -0.00009941  0.16657655  0.50071869  1
  Fe  Fe157  1  -0.00053122  0.83429794  -0.00023890  1
  Fe  Fe158  1  0.24952021  0.83307335  0.12410108  1
  Fe  Fe159  1  0.49993506  0.00003521  0.74943860  1
  Fe  Fe160  1  0.49957312  0.83285990  0.49967453  1
  Fe  Fe161  1  0.74933776  -0.00064374  0.87485332  1
  Fe  Fe162  1  0.49987646  0.49943623  0.25090435  1
  Fe  Fe163  1  0.49947793  0.16664405  0.74915600  1
  Fe  Fe164  1  0.75060641  0.50063302  0.37629416  1
  Fe  Fe165  1  0.75043051  0.49969580  0.12496475  1
  Fe  Fe166  1  0.00007508  0.00057201  -0.00112880  1
  Fe  Fe167  1  0.49926498  0.33266493  0.74936445  1
  Fe  Fe168  1  0.74977507  0.33296842  0.87511832  1
  Fe  Fe169  1  0.49985633  0.33241951  0.50053196  1
  Fe  Fe170  1  0.24978792  0.83375526  0.37493622  1
  Fe  Fe171  1  0.00069872  0.50026367  0.50018207  1
  Fe  Fe172  1  0.25014599  0.50030166  0.12526058  1
  Fe  Fe173  1  -0.00003908  0.66763367  0.25038905  1
  Fe  Fe174  1  0.75019566  0.66630548  0.87474703  1
  Fe  Fe175  1  0.00014283  0.33319384  -0.00031800  1
  Fe  Fe176  1  0.25049167  0.33411499  0.62469547  1
  Fe  Fe177  1  0.49969244  0.49998308  0.00009212  1
  Fe  Fe178  1  0.25000380  0.83231891  0.87423728  1
  Fe  Fe179  1  0.74989087  0.66624684  0.37559330  1
  Fe  Fe180  1  0.24977831  0.50019101  0.62471857  1
  Fe  Fe181  1  -0.00035465  0.00005062  0.74951062  1
  Fe  Fe182  1  0.50016182  0.83326414  -0.00049239  1
  Fe  Fe183  1  0.25087957  0.33497212  0.37461037  1
  Fe  Fe184  1  0.25038921  0.66638792  0.87481839  1
  Fe  Fe185  1  0.50001955  0.83261611  0.25010286  1
  Fe  Fe186  1  0.75026515  -0.00063717  0.37559677  1
  Fe  Fe187  1  0.25050486  0.50060120  0.37545786  1
  Fe  Fe188  1  0.50024492  0.49888317  0.50102695  1
  Fe  Fe189  1  0.24955897  0.16646576  0.87470811  1
  Fe  Fe190  1  0.74990501  0.83293582  0.62492932  1
  Fe  Fe191  1  0.00025890  0.16704700  0.25004528  1
  P  P192  1  0.04240699  0.25118897  0.10233991  1
  P  P193  1  0.04215472  0.24883940  0.35335731  1
  P  P194  1  0.04124023  0.24971682  0.60196460  1
  P  P195  1  0.04120870  0.25037579  0.85093324  1
  P  P196  1  0.04284425  0.58438907  0.10359515  1
  P  P197  1  0.04203634  0.58521262  0.35312952  1
  P  P198  1  0.04262983  0.58232967  0.60257657  1
  P  P199  1  0.04328823  0.58366535  0.85313281  1
  P  P200  1  0.04150853  0.91774834  0.10091082  1
  P  P201  1  0.04294601  0.91751733  0.35397657  1
  P  P202  1  0.04097404  0.91717876  0.60228634  1
  P  P203  1  0.04136534  0.91746268  0.85173430  1
  P  P204  1  0.54313433  0.25002232  0.10348555  1
  P  P205  1  0.54267499  0.24929068  0.35490154  1
  P  P206  1  0.54089615  0.24894756  0.60236060  1
  P  P207  1  0.54097564  0.25007752  0.85102458  1
  P  P208  1  0.54220657  0.58158435  0.10318476  1
  P  P209  1  0.54186416  0.58121341  0.35344262  1
  P  P210  1  0.54234036  0.58134756  0.60269131  1
  P  P211  1  0.54286400  0.58306651  0.85369918  1
  P  P212  1  0.54218390  0.91466596  0.10246999  1
  P  P213  1  0.54168137  0.91456175  0.35333157  1
  P  P214  1  0.54123387  0.91664502  0.60129833  1
  P  P215  1  0.54211453  0.91767819  0.85197659  1
  P  P216  1  0.45661305  0.08266350  0.14696782  1
  P  P217  1  0.45835666  0.08274627  0.39878545  1
  P  P218  1  0.45825757  0.08292109  0.64749896  1
  P  P219  1  0.45708235  0.08350449  0.89548639  1
  P  P220  1  0.45786138  0.41797030  0.14803127  1
  P  P221  1  0.45896213  0.41651213  0.39922378  1
  P  P222  1  0.45795360  0.41477681  0.64679742  1
  P  P223  1  0.45744878  0.41746829  0.89747151  1
  P  P224  1  0.45779319  0.75085072  0.14735225  1
  P  P225  1  0.45764978  0.75060078  0.39714530  1
  P  P226  1  0.45735734  0.74980594  0.64586412  1
  P  P227  1  0.45780101  0.75117903  0.89737268  1
  P  P228  1  0.95812898  0.08484897  0.14703123  1
  P  P229  1  0.95868648  0.08403992  0.39885120  1
  P  P230  1  0.95837616  0.08330983  0.64785331  1
  P  P231  1  0.95791895  0.08231410  0.89606409  1
  P  P232  1  0.95732300  0.41656963  0.14680005  1
  P  P233  1  0.95918089  0.41716898  0.39878518  1
  P  P234  1  0.95856875  0.41544588  0.64632407  1
  P  P235  1  0.95819993  0.41479041  0.89687347  1
  P  P236  1  0.95769765  0.74982369  0.14748457  1
  P  P237  1  0.95785892  0.75163723  0.39765975  1
  P  P238  1  0.95822128  0.75194637  0.64724773  1
  P  P239  1  0.95812771  0.75249370  0.89691859  1
  P  P240  1  0.20754251  0.08524690  0.22721741  1
  P  P241  1  0.20721788  0.08418418  0.47819451  1
  P  P242  1  0.20693616  0.08350684  0.72861833  1
  P  P243  1  0.20730495  0.08479825  0.97766729  1
  P  P244  1  0.20815370  0.41866870  0.22837607  1
  P  P245  1  0.20922246  0.41736690  0.47720274  1
  P  P246  1  0.20841219  0.41667182  0.72613743  1
  P  P247  1  0.20697352  0.41716693  0.97849171  1
  P  P248  1  0.20762573  0.75189552  0.22739609  1
  P  P249  1  0.20764004  0.75095837  0.47735540  1
  P  P250  1  0.20782218  0.74840332  0.72795058  1
  P  P251  1  0.20854239  0.74967803  0.97646327  1
  P  P252  1  0.70719349  0.08258748  0.22903226  1
  P  P253  1  0.70805520  0.08178156  0.47768081  1
  P  P254  1  0.70691112  0.08317597  0.72851094  1
  P  P255  1  0.70696750  0.08150463  0.97697498  1
  P  P256  1  0.70834151  0.41864935  0.22818308  1
  P  P257  1  0.70860056  0.41772001  0.47832840  1
  P  P258  1  0.70786037  0.41550189  0.72764741  1
  P  P259  1  0.70769694  0.41541471  0.97750485  1
  P  P260  1  0.70731590  0.74909855  0.22899896  1
  P  P261  1  0.70784044  0.74817677  0.47828061  1
  P  P262  1  0.70853638  0.74957065  0.72671161  1
  P  P263  1  0.70758333  0.74748667  0.97746215  1
  P  P264  1  0.29210403  0.24849194  0.02238617  1
  P  P265  1  0.29286349  0.25213175  0.27261395  1
  P  P266  1  0.29184406  0.25246760  0.52218945  1
  P  P267  1  0.29146030  0.24930144  0.77220297  1
  P  P268  1  0.29242283  0.58238221  0.02246545  1
  P  P269  1  0.29244237  0.58246287  0.27254060  1
  P  P270  1  0.29108910  0.58361091  0.52316820  1
  P  P271  1  0.29226401  0.58436612  0.77160936  1
  P  P272  1  0.29144594  0.91496011  0.02161273  1
  P  P273  1  0.29171451  0.91543299  0.27183668  1
  P  P274  1  0.29243171  0.91644857  0.52127795  1
  P  P275  1  0.29198109  0.91498502  0.77251169  1
  P  P276  1  0.79261366  0.24968923  0.02127738  1
  P  P277  1  0.79378487  0.25029596  0.27194828  1
  P  P278  1  0.79224969  0.25130897  0.52271694  1
  P  P279  1  0.79160052  0.25191358  0.77184472  1
  P  P280  1  0.79279869  0.58157486  0.02219925  1
  P  P281  1  0.79189430  0.58298666  0.27395608  1
  P  P282  1  0.79257422  0.58462357  0.52243924  1
  P  P283  1  0.79286393  0.58506796  0.77211120  1
  P  P284  1  0.79253195  0.91604543  0.02124350  1
  P  P285  1  0.79302886  0.91748580  0.27311559  1
  P  P286  1  0.79177622  0.91520129  0.52248087  1
  P  P287  1  0.79176763  0.91734425  0.77217984  1
  O  O288  1  0.03722661  0.25044600  0.18224680  1
  O  O289  1  0.03685090  0.24881068  0.43323197  1
  O  O290  1  0.03622162  0.25032424  0.68185111  1
  O  O291  1  0.03671584  0.25056883  0.93091950  1
  O  O292  1  0.03738570  0.58503840  0.18355027  1
  O  O293  1  0.03655618  0.58443790  0.43307112  1
  O  O294  1  0.03770042  0.58232487  0.68251509  1
  O  O295  1  0.03810591  0.58370789  0.93307408  1
  O  O296  1  0.03685829  0.91781515  0.18093102  1
  O  O297  1  0.03783160  0.91720566  0.43384997  1
  O  O298  1  0.03568447  0.91750763  0.68217422  1
  O  O299  1  0.03618116  0.91747506  0.93161905  1
  O  O300  1  0.53822667  0.25001590  0.18348902  1
  O  O301  1  0.53725083  0.24890157  0.43480860  1
  O  O302  1  0.53560712  0.24939997  0.68224955  1
  O  O303  1  0.53630092  0.25022944  0.93101839  1
  O  O304  1  0.53664591  0.58157065  0.18314256  1
  O  O305  1  0.53655188  0.58123633  0.43336127  1
  O  O306  1  0.53730082  0.58171062  0.68264605  1
  O  O307  1  0.53748649  0.58293810  0.93363490  1
  O  O308  1  0.53694817  0.91451686  0.18243156  1
  O  O309  1  0.53616652  0.91477615  0.43319799  1
  O  O310  1  0.53627883  0.91753030  0.68126515  1
  O  O311  1  0.53704346  0.91678024  0.93190416  1
  O  O312  1  0.46164710  0.08280562  0.06698416  1
  O  O313  1  0.46311368  0.08232775  0.31882443  1
  O  O314  1  0.46358347  0.08298823  0.56760222  1
  O  O315  1  0.46256449  0.08353717  0.81556134  1
  O  O316  1  0.46307915  0.41810577  0.06808538  1
  O  O317  1  0.46346941  0.41686531  0.31923552  1
  O  O318  1  0.46353174  0.41523716  0.56696947  1
  O  O319  1  0.46254165  0.41637240  0.81753633  1
  O  O320  1  0.46328742  0.75080243  0.06742161  1
  O  O321  1  0.46302687  0.75049570  0.31721015  1
  O  O322  1  0.46263314  0.74994853  0.56592658  1
  O  O323  1  0.46282699  0.75073821  0.81738777  1
  O  O324  1  0.96330617  0.08423627  0.06709879  1
  O  O325  1  0.96351816  0.08411980  0.31890501  1
  O  O326  1  0.96343246  0.08379286  0.56797508  1
  O  O327  1  0.96318177  0.08221550  0.81621180  1
  O  O328  1  0.96259325  0.41618517  0.06687317  1
  O  O329  1  0.96349099  0.41715697  0.31877620  1
  O  O330  1  0.96400730  0.41618051  0.56644779  1
  O  O331  1  0.96362508  0.41464767  0.81689834  1
  O  O332  1  0.96285832  0.75049035  0.06753547  1
  O  O333  1  0.96333367  0.75073831  0.31773969  1
  O  O334  1  0.96359786  0.75198892  0.56733334  1
  O  O335  1  0.96340958  0.75252525  0.81698871  1
  O  O336  1  0.21293302  0.08497599  0.05759922  1
  O  O337  1  0.21279913  0.08487953  0.30718385  1
  O  O338  1  0.21217472  0.08402513  0.55816966  1
  O  O339  1  0.21208832  0.08373403  0.80859247  1
  O  O340  1  0.21231190  0.41749746  0.05840046  1
  O  O341  1  0.21390384  0.41838434  0.30826121  1
  O  O342  1  0.21417010  0.41707700  0.55713389  1
  O  O343  1  0.21265341  0.41673316  0.80614148  1
  O  O344  1  0.21343294  0.75030815  0.05648625  1
  O  O345  1  0.21289814  0.75220781  0.30733261  1
  O  O346  1  0.21267907  0.74988506  0.55728864  1
  O  O347  1  0.21348549  0.74873261  0.80781473  1
  O  O348  1  0.71203181  0.08192508  0.05699432  1
  O  O349  1  0.71272899  0.08209466  0.30897968  1
  O  O350  1  0.71285460  0.08223604  0.55769498  1
  O  O351  1  0.71198383  0.08263445  0.80844148  1
  O  O352  1  0.71305736  0.41625841  0.05743850  1
  O  O353  1  0.71378760  0.41912887  0.30813493  1
  O  O354  1  0.71373134  0.41689443  0.55828752  1
  O  O355  1  0.71289526  0.41506077  0.80761464  1
  O  O356  1  0.71264167  0.74778290  0.05744369  1
  O  O357  1  0.71252729  0.74894733  0.30895020  1
  O  O358  1  0.71313701  0.74852635  0.55818572  1
  O  O359  1  0.71365512  0.74917169  0.80669618  1
  O  O360  1  0.28765294  0.25135377  0.19266603  1
  O  O361  1  0.28697025  0.25277396  0.44223980  1
  O  O362  1  0.28635710  0.25038994  0.69225532  1
  O  O363  1  0.28664367  0.24818160  0.94243829  1
  O  O364  1  0.28728675  0.58225691  0.19261986  1
  O  O365  1  0.28630344  0.58303483  0.44317989  1
  O  O366  1  0.28678757  0.58448803  0.69174002  1
  O  O367  1  0.28712584  0.58310971  0.94254494  1
  O  O368  1  0.28626722  0.91536406  0.19185955  1
  O  O369  1  0.28714285  0.91623854  0.44132592  1
  O  O370  1  0.28703144  0.91540430  0.69252948  1
  O  O371  1  0.28597413  0.91474189  0.94167776  1
  O  O372  1  0.78846474  0.25007435  0.19200685  1
  O  O373  1  0.78784682  0.25089905  0.44270589  1
  O  O374  1  0.78605987  0.25241140  0.69190109  1
  O  O375  1  0.78719016  0.25003692  0.94129550  1
  O  O376  1  0.78701661  0.58222139  0.19395195  1
  O  O377  1  0.78723704  0.58424094  0.44256537  1
  O  O378  1  0.78758490  0.58533160  0.69216907  1
  O  O379  1  0.78772492  0.58234184  0.94226404  1
  O  O380  1  0.78801825  0.91703574  0.19310449  1
  O  O381  1  0.78670263  0.91592568  0.44253808  1
  O  O382  1  0.78649263  0.91649260  0.69225408  1
  O  O383  1  0.78707877  0.91644490  0.94129616  1
  O  O384  1  0.22793118  0.24895099  0.05831145  1
  O  O385  1  0.22852758  0.25287628  0.30813683  1
  O  O386  1  0.22749878  0.25275573  0.55766531  1
  O  O387  1  0.22716057  0.24845047  0.80785829  1
  O  O388  1  0.22822516  0.58190593  0.05844093  1
  O  O389  1  0.22818836  0.58255381  0.30822498  1
  O  O390  1  0.22695369  0.58410161  0.55906712  1
  O  O391  1  0.22815675  0.58507891  0.80785205  1
  O  O392  1  0.22729565  0.91529934  0.05763228  1
  O  O393  1  0.22750140  0.91581003  0.30767343  1
  O  O394  1  0.22811731  0.91642825  0.55663071  1
  O  O395  1  0.22761308  0.91471770  0.80779050  1
  O  O396  1  0.72837450  0.24986264  0.05683676  1
  O  O397  1  0.72940002  0.25042888  0.30706544  1
  O  O398  1  0.72771346  0.25129625  0.55754670  1
  O  O399  1  0.72744948  0.25153115  0.80784972  1
  O  O400  1  0.72848013  0.58098243  0.05792097  1
  O  O401  1  0.72770160  0.58283032  0.30992202  1
  O  O402  1  0.72840329  0.58471049  0.55843283  1
  O  O403  1  0.72859294  0.58451179  0.80779004  1
  O  O404  1  0.72821469  0.91564653  0.05666790  1
  O  O405  1  0.72858745  0.91780671  0.30835961  1
  O  O406  1  0.72748396  0.91455659  0.55803881  1
  O  O407  1  0.72756297  0.91741731  0.80802809  1
  O  O408  1  0.27183881  0.08482290  0.19167310  1
  O  O409  1  0.27159680  0.08416667  0.44312828  1
  O  O410  1  0.27127609  0.08394429  0.69335140  1
  O  O411  1  0.27139894  0.08456842  0.94146843  1
  O  O412  1  0.27221051  0.41884752  0.19198234  1
  O  O413  1  0.27334333  0.41733711  0.44102502  1
  O  O414  1  0.27277022  0.41644851  0.69084819  1
  O  O415  1  0.27124313  0.41665372  0.94307033  1
  O  O416  1  0.27185535  0.75181781  0.19161161  1
  O  O417  1  0.27192634  0.75112238  0.44175848  1
  O  O418  1  0.27190492  0.74771640  0.69168450  1
  O  O419  1  0.27273084  0.74949353  0.94053509  1
  O  O420  1  0.77151819  0.08283010  0.19360234  1
  O  O421  1  0.77249948  0.08135924  0.44256734  1
  O  O422  1  0.77126597  0.08347228  0.69334502  1
  O  O423  1  0.77132496  0.08151930  0.94154172  1
  O  O424  1  0.77254776  0.41847690  0.19229738  1
  O  O425  1  0.77290040  0.41861148  0.44269889  1
  O  O426  1  0.77221387  0.41611625  0.69226714  1
  O  O427  1  0.77193535  0.41479949  0.94159218  1
  O  O428  1  0.77167119  0.74904626  0.19366836  1
  O  O429  1  0.77199383  0.74803277  0.44227792  1
  O  O430  1  0.77267436  0.75037562  0.69062181  1
  O  O431  1  0.77195951  0.74783941  0.94206190  1
  O  O432  1  0.02237243  0.08548193  0.18301228  1
  O  O433  1  0.02282730  0.08455015  0.43488282  1
  O  O434  1  0.02235395  0.08285806  0.68423184  1
  O  O435  1  0.02203368  0.08251688  0.93226564  1
  O  O436  1  0.02158583  0.41694591  0.18233169  1
  O  O437  1  0.02346269  0.41710871  0.43415589  1
  O  O438  1  0.02272140  0.41492423  0.68246320  1
  O  O439  1  0.02239419  0.41491441  0.93285863  1
  O  O440  1  0.02204193  0.74904369  0.18317959  1
  O  O441  1  0.02205604  0.75221130  0.43362533  1
  O  O442  1  0.02240430  0.75233443  0.68315529  1
  O  O443  1  0.02235133  0.75285710  0.93280044  1
  O  O444  1  0.52109484  0.08219885  0.18197370  1
  O  O445  1  0.52255888  0.08336887  0.43457911  1
  O  O446  1  0.52221334  0.08300840  0.68411872  1
  O  O447  1  0.52125954  0.08320958  0.93140568  1
  O  O448  1  0.52214477  0.41802336  0.18386718  1
  O  O449  1  0.52317175  0.41670480  0.43492695  1
  O  O450  1  0.52207422  0.41417552  0.68301902  1
  O  O451  1  0.52183145  0.41839727  0.93306662  1
  O  O452  1  0.52191746  0.75068010  0.18351564  1
  O  O453  1  0.52181807  0.75026005  0.43308388  1
  O  O454  1  0.52168557  0.75013422  0.68123194  1
  O  O455  1  0.52214715  0.75126276  0.93289069  1
  O  O456  1  0.47861882  0.25035175  0.06856776  1
  O  O457  1  0.47847662  0.24972182  0.31905081  1
  O  O458  1  0.47695017  0.24835763  0.56585348  1
  O  O459  1  0.47674102  0.24997744  0.81520165  1
  O  O460  1  0.47805257  0.58176361  0.06701845  1
  O  O461  1  0.47762889  0.58127297  0.31754752  1
  O  O462  1  0.47794106  0.58119101  0.56733203  1
  O  O463  1  0.47854484  0.58281736  0.81826006  1
  O  O464  1  0.47787732  0.91458296  0.06667491  1
  O  O465  1  0.47757436  0.91384443  0.31697978  1
  O  O466  1  0.47706238  0.91616498  0.56545201  1
  O  O467  1  0.47777331  0.91829393  0.81636644  1
  O  O468  1  0.97820000  0.25147557  0.06631573  1
  O  O469  1  0.97798487  0.24842527  0.31721957  1
  O  O470  1  0.97719615  0.24912869  0.56566621  1
  O  O471  1  0.97700439  0.25079441  0.81512976  1
  O  O472  1  0.97863376  0.58413360  0.06796640  1
  O  O473  1  0.97785975  0.58582118  0.31704740  1
  O  O474  1  0.97828044  0.58258222  0.56723034  1
  O  O475  1  0.97890468  0.58334761  0.81797679  1
  O  O476  1  0.97728081  0.91758092  0.06513237  1
  O  O477  1  0.97869493  0.91752743  0.31831968  1
  O  O478  1  0.97705248  0.91676693  0.56567550  1
  O  O479  1  0.97729835  0.91740676  0.81523123  1
  O  O480  1  0.07304747  0.31499915  0.07424447  1
  O  O481  1  0.07310500  0.31270288  0.32558413  1
  O  O482  1  0.07161430  0.31345719  0.57278429  1
  O  O483  1  0.07280532  0.31339448  0.82234888  1
  O  O484  1  0.07429643  0.64753361  0.07512033  1
  O  O485  1  0.07295121  0.64885595  0.32508263  1
  O  O486  1  0.07386607  0.64597442  0.57507887  1
  O  O487  1  0.07397738  0.64735758  0.82506311  1
  O  O488  1  0.07221088  0.98145434  0.07268062  1
  O  O489  1  0.07405853  0.98099917  0.32558372  1
  O  O490  1  0.07150199  0.98109970  0.57380527  1
  O  O491  1  0.07237765  0.98094553  0.82319303  1
  O  O492  1  0.57425563  0.31351668  0.07539748  1
  O  O493  1  0.57405235  0.31278470  0.32689507  1
  O  O494  1  0.57138011  0.31277473  0.57359533  1
  O  O495  1  0.57168349  0.31384543  0.82290729  1
  O  O496  1  0.57335698  0.64547551  0.07592144  1
  O  O497  1  0.57280306  0.64500916  0.32565036  1
  O  O498  1  0.57339048  0.64488859  0.57471029  1
  O  O499  1  0.57361408  0.64679710  0.82548283  1
  O  O500  1  0.57304778  0.97854419  0.07478017  1
  O  O501  1  0.57230547  0.97851153  0.32531793  1
  O  O502  1  0.57205300  0.98019907  0.57263526  1
  O  O503  1  0.57290978  0.98125927  0.82368863  1
  O  O504  1  0.42540971  0.01915200  0.17487354  1
  O  O505  1  0.42807455  0.01872882  0.42708238  1
  O  O506  1  0.42724467  0.01929207  0.67575397  1
  O  O507  1  0.42564656  0.02021500  0.92383030  1
  O  O508  1  0.42700503  0.35408754  0.17577621  1
  O  O509  1  0.42871459  0.35238426  0.42744376  1
  O  O510  1  0.42672145  0.35141365  0.67522742  1
  O  O511  1  0.42665329  0.35390933  0.92603673  1
  O  O512  1  0.42667979  0.68700230  0.17492560  1
  O  O513  1  0.42632415  0.68685526  0.42458478  1
  O  O514  1  0.42666986  0.68606304  0.67404393  1
  O  O515  1  0.42670273  0.68768113  0.92547849  1
  O  O516  1  0.92718100  0.02126689  0.17533993  1
  O  O517  1  0.92869620  0.01986786  0.42741819  1
  O  O518  1  0.92688605  0.01991296  0.67580967  1
  O  O519  1  0.92717840  0.01895983  0.92518925  1
  O  O520  1  0.92618887  0.35332816  0.17535591  1
  O  O521  1  0.92853376  0.35331323  0.42697230  1
  O  O522  1  0.92740944  0.35199048  0.67458934  1
  O  O523  1  0.92735113  0.35144742  0.92560645  1
  O  O524  1  0.92672700  0.68634745  0.17592618  1
  O  O525  1  0.92672231  0.68824477  0.42601787  1
  O  O526  1  0.92757542  0.68787255  0.67481730  1
  O  O527  1  0.92735938  0.68853875  0.92459823  1
  O  O528  1  0.17607590  0.02182489  0.19929884  1
  O  O529  1  0.17609955  0.02080773  0.44992643  1
  O  O530  1  0.17634714  0.01957280  0.70066199  1
  O  O531  1  0.17618155  0.02085576  0.95040020  1
  O  O532  1  0.17690418  0.35503005  0.20041207  1
  O  O533  1  0.17816060  0.35402167  0.44826342  1
  O  O534  1  0.17746123  0.35315351  0.69773971  1
  O  O535  1  0.17581795  0.35351495  0.95048902  1
  O  O536  1  0.17693424  0.68776373  0.19989890  1
  O  O537  1  0.17633200  0.68768540  0.44878175  1
  O  O538  1  0.17641274  0.68530691  0.69917747  1
  O  O539  1  0.17799302  0.68560031  0.94878183  1
  O  O540  1  0.67586864  0.01934592  0.20050681  1
  O  O541  1  0.67730722  0.01812565  0.44943351  1
  O  O542  1  0.67564115  0.02003060  0.69980902  1
  O  O543  1  0.67640979  0.01776127  0.94875171  1
  O  O544  1  0.67725936  0.35465286  0.20100136  1
  O  O545  1  0.67774457  0.35422295  0.44975382  1
  O  O546  1  0.67724652  0.35222624  0.69822017  1
  O  O547  1  0.67670254  0.35174834  0.94948625  1
  O  O548  1  0.67600502  0.68578065  0.20074573  1
  O  O549  1  0.67692434  0.68471535  0.44953174  1
  O  O550  1  0.67788836  0.68588591  0.69826686  1
  O  O551  1  0.67717187  0.68377746  0.94894967  1
  O  O552  1  0.32339401  0.31229925  0.04979171  1
  O  O553  1  0.32382710  0.31574209  0.30077448  1
  O  O554  1  0.32306873  0.31549323  0.55126267  1
  O  O555  1  0.32224460  0.31285765  0.80088701  1
  O  O556  1  0.32336802  0.64600642  0.05075727  1
  O  O557  1  0.32332186  0.64647957  0.30004813  1
  O  O558  1  0.32223000  0.64725979  0.55094663  1
  O  O559  1  0.32371371  0.64730320  0.80080447  1
  O  O560  1  0.32266566  0.97881432  0.04897896  1
  O  O561  1  0.32301182  0.97925486  0.29929664  1
  O  O562  1  0.32333599  0.98013039  0.54946050  1
  O  O563  1  0.32289861  0.97864241  0.80053654  1
  O  O564  1  0.82416478  0.31276529  0.04973927  1
  O  O565  1  0.82486701  0.31395406  0.29975555  1
  O  O566  1  0.82273400  0.31505742  0.55109792  1
  O  O567  1  0.82262814  0.31503190  0.80090931  1
  O  O568  1  0.82378889  0.64504626  0.05076940  1
  O  O569  1  0.82217021  0.64723332  0.30175580  1
  O  O570  1  0.82352443  0.64807515  0.55108865  1
  O  O571  1  0.82350580  0.64847393  0.80108753  1
  O  O572  1  0.82375725  0.97933331  0.04967421  1
  O  O573  1  0.82382806  0.98100316  0.30165799  1
  O  O574  1  0.82288514  0.97870168  0.55069252  1
  O  O575  1  0.82226677  0.98124026  0.80029842  1
  O  O576  1  0.42597488  0.14618777  0.17551998  1
  O  O577  1  0.42706916  0.14618651  0.42670198  1
  O  O578  1  0.42725499  0.14656174  0.67575481  1
  O  O579  1  0.42604396  0.14697446  0.92392593  1
  O  O580  1  0.42685089  0.48116433  0.17692450  1
  O  O581  1  0.42761920  0.47971610  0.42781274  1
  O  O582  1  0.42699582  0.47837160  0.67501435  1
  O  O583  1  0.42650919  0.48107381  0.92552052  1
  O  O584  1  0.42681548  0.81410101  0.17596974  1
  O  O585  1  0.42688564  0.81396433  0.42589142  1
  O  O586  1  0.42581763  0.81298762  0.67402275  1
  O  O587  1  0.42726475  0.81493100  0.92548142  1
  O  O588  1  0.92736087  0.14841258  0.17546138  1
  O  O589  1  0.92705099  0.14705990  0.42725444  1
  O  O590  1  0.92799983  0.14719482  0.67664345  1
  O  O591  1  0.92662583  0.14591700  0.92385238  1
  O  O592  1  0.92624547  0.48016384  0.17486883  1
  O  O593  1  0.92849848  0.48089996  0.42701704  1
  O  O594  1  0.92746994  0.47890474  0.67483546  1
  O  O595  1  0.92717362  0.47866784  0.92432899  1
  O  O596  1  0.92693613  0.81354001  0.17565059  1
  O  O597  1  0.92697686  0.81528932  0.42566273  1
  O  O598  1  0.92695222  0.81510575  0.67578640  1
  O  O599  1  0.92697578  0.81565417  0.92567780  1
  O  O600  1  0.07354244  0.18790742  0.07374083  1
  O  O601  1  0.07310731  0.18565720  0.32415561  1
  O  O602  1  0.07269374  0.18624586  0.57428018  1
  O  O603  1  0.07108206  0.18606080  0.82259773  1
  O  O604  1  0.07388440  0.52066021  0.07594248  1
  O  O605  1  0.07308355  0.52163471  0.32510815  1
  O  O606  1  0.07310328  0.51873138  0.57381179  1
  O  O607  1  0.07456877  0.52024987  0.82518564  1
  O  O608  1  0.07209961  0.85387579  0.07283359  1
  O  O609  1  0.07412103  0.85434232  0.32499837  1
  O  O610  1  0.07239930  0.85378203  0.57425482  1
  O  O611  1  0.07224990  0.85384268  0.82322129  1
  O  O612  1  0.57384834  0.18650259  0.07499350  1
  O  O613  1  0.57373858  0.18594980  0.32625580  1
  O  O614  1  0.57246840  0.18557939  0.57446685  1
  O  O615  1  0.57175990  0.18640792  0.82284664  1
  O  O616  1  0.57306880  0.51834536  0.07432116  1
  O  O617  1  0.57282922  0.51793107  0.32481063  1
  O  O618  1  0.57305201  0.51766178  0.57462616  1
  O  O619  1  0.57438317  0.51992505  0.82542694  1
  O  O620  1  0.57312690  0.85139433  0.07359910  1
  O  O621  1  0.57316749  0.85147999  0.32472923  1
  O  O622  1  0.57206683  0.85274317  0.57363736  1
  O  O623  1  0.57315701  0.85421826  0.82352094  1
  O  O624  1  0.32288274  0.18516840  0.05124227  1
  O  O625  1  0.32375927  0.18857994  0.30096833  1
  O  O626  1  0.32239143  0.18839079  0.54981429  1
  O  O627  1  0.32244271  0.18568746  0.80008926  1
  O  O628  1  0.32327211  0.51883900  0.05067121  1
  O  O629  1  0.32345984  0.51946214  0.30181873  1
  O  O630  1  0.32148103  0.51988367  0.55209027  1
  O  O631  1  0.32290218  0.52031566  0.79930625  1
  O  O632  1  0.32231449  0.85165205  0.05034661  1
  O  O633  1  0.32240391  0.85208695  0.30081673  1
  O  O634  1  0.32375644  0.85325427  0.54965683  1
  O  O635  1  0.32283308  0.85136690  0.80052938  1
  O  O636  1  0.82332838  0.18575962  0.04896557  1
  O  O637  1  0.82475040  0.18693451  0.30038175  1
  O  O638  1  0.82316106  0.18770707  0.55094119  1
  O  O639  1  0.82271114  0.18792660  0.79885029  1
  O  O640  1  0.82351279  0.51792470  0.05050897  1
  O  O641  1  0.82322979  0.51989534  0.30278676  1
  O  O642  1  0.82377146  0.52119055  0.55078508  1
  O  O643  1  0.82406493  0.52124790  0.79942438  1
  O  O644  1  0.82349358  0.85239109  0.04927298  1
  O  O645  1  0.82385609  0.85375862  0.30097938  1
  O  O646  1  0.82251755  0.85159578  0.55081765  1
  O  O647  1  0.82315020  0.85404355  0.80031527  1
  O  O648  1  0.17729308  0.14917505  0.19916840  1
  O  O649  1  0.17633737  0.14786689  0.45041251  1
  O  O650  1  0.17534819  0.14651669  0.70016429  1
  O  O651  1  0.17637836  0.14805467  0.94886317  1
  O  O652  1  0.17706959  0.48202289  0.19989432  1
  O  O653  1  0.17845954  0.48117193  0.44901043  1
  O  O654  1  0.17818303  0.48061773  0.69765212  1
  O  O655  1  0.17587563  0.48031764  0.94977417  1
  O  O656  1  0.17638690  0.81483480  0.19826368  1
  O  O657  1  0.17718837  0.81485757  0.44933138  1
  O  O658  1  0.17700216  0.81221073  0.69993949  1
  O  O659  1  0.17754956  0.81305655  0.94772008  1
  O  O660  1  0.67620101  0.14626919  0.20110761  1
  O  O661  1  0.67731374  0.14559091  0.44994352  1
  O  O662  1  0.67598082  0.14688229  0.70060242  1
  O  O663  1  0.67584254  0.14511082  0.94914472  1
  O  O664  1  0.67750540  0.48179145  0.19899495  1
  O  O665  1  0.67762276  0.48132696  0.45040103  1
  O  O666  1  0.67665696  0.47933229  0.70037936  1
  O  O667  1  0.67680618  0.47884789  0.94897500  1
  O  O668  1  0.67655599  0.81277560  0.20079393  1
  O  O669  1  0.67662063  0.81163820  0.45011513  1
  O  O670  1  0.67750255  0.81332731  0.69883742  1
  O  O671  1  0.67633386  0.81095045  0.94946817  1
