# generated using pymatgen
data_Na2MnFe(PO4)2
_symmetry_space_group_name_H-M   'P 1'
_cell_length_a   22.34093717
_cell_length_b   20.09503484
_cell_length_c   19.45137633
_cell_angle_alpha   89.99370155
_cell_angle_beta   90.02882242
_cell_angle_gamma   89.97438320
_symmetry_Int_Tables_number   1
_chemical_formula_structural   Na2MnFe(PO4)2
_chemical_formula_sum   'Na96 Mn48 Fe48 P96 O384'
_cell_volume   8732.53602568
_cell_formula_units_Z   48
loop_
 _symmetry_equiv_pos_site_id
 _symmetry_equiv_pos_as_xyz
  1  'x, y, z'
loop_
 _atom_site_type_symbol
 _atom_site_label
 _atom_site_symmetry_multiplicity
 _atom_site_fract_x
 _atom_site_fract_y
 _atom_site_fract_z
 _atom_site_occupancy
  Na  Na0  1  0.14023477  0.25164527  0.24403923  1
  Na  Na1  1  0.14071860  0.25171772  0.49461704  1
  Na  Na2  1  0.14008424  0.25138504  0.74350571  1
  Na  Na3  1  0.13998648  0.25008189  0.99256243  1
  Na  Na4  1  0.14068196  0.58282403  0.24402689  1
  Na  Na5  1  0.14034363  0.58266652  0.49447506  1
  Na  Na6  1  0.13963822  0.58278060  0.74273973  1
  Na  Na7  1  0.14045389  0.58191918  0.99365349  1
  Na  Na8  1  0.14025447  0.91674820  0.24410820  1
  Na  Na9  1  0.14028799  0.91803713  0.49325008  1
  Na  Na10  1  0.14082351  0.91863210  0.74379256  1
  Na  Na11  1  0.14053400  0.91690577  0.99367105  1
  Na  Na12  1  0.63977068  0.24822008  0.24225410  1
  Na  Na13  1  0.63995941  0.24816524  0.49428646  1
  Na  Na14  1  0.64008984  0.24847551  0.74197991  1
  Na  Na15  1  0.63992601  0.24822044  0.99394314  1
  Na  Na16  1  0.64034654  0.58328438  0.24377372  1
  Na  Na17  1  0.64030481  0.58420930  0.49417206  1
  Na  Na18  1  0.63997760  0.58342611  0.74316990  1
  Na  Na19  1  0.64017928  0.58379020  0.99304905  1
  Na  Na20  1  0.64054798  0.91710736  0.24420644  1
  Na  Na21  1  0.64035926  0.91688749  0.49407719  1
  Na  Na22  1  0.64010309  0.91755172  0.74452484  1
  Na  Na23  1  0.64002901  0.91661127  0.99238393  1
  Na  Na24  1  0.36029808  0.08398373  0.00553840  1
  Na  Na25  1  0.35995067  0.08472940  0.25642918  1
  Na  Na26  1  0.35995008  0.08535481  0.50691680  1
  Na  Na27  1  0.36002857  0.08473455  0.75764415  1
  Na  Na28  1  0.35964645  0.41642248  0.00533636  1
  Na  Na29  1  0.35923567  0.41585509  0.25670339  1
  Na  Na30  1  0.35953972  0.41561299  0.50659259  1
  Na  Na31  1  0.36023676  0.41565230  0.75606239  1
  Na  Na32  1  0.35973851  0.74936942  0.00693938  1
  Na  Na33  1  0.36003313  0.74804713  0.25680853  1
  Na  Na34  1  0.36034400  0.74894767  0.50720942  1
  Na  Na35  1  0.35966515  0.75012708  0.75644081  1
  Na  Na36  1  0.85932598  0.08326972  0.00651098  1
  Na  Na37  1  0.85969844  0.08208077  0.25601954  1
  Na  Na38  1  0.85966635  0.08344243  0.50643169  1
  Na  Na39  1  0.85971758  0.08335240  0.75547213  1
  Na  Na40  1  0.85996169  0.41576168  0.00637013  1
  Na  Na41  1  0.85958322  0.41537488  0.25477576  1
  Na  Na42  1  0.85940232  0.41595030  0.50662822  1
  Na  Na43  1  0.86009181  0.41699713  0.75727476  1
  Na  Na44  1  0.85945520  0.75111517  0.00532435  1
  Na  Na45  1  0.85949224  0.75104046  0.25663123  1
  Na  Na46  1  0.86020167  0.75162594  0.50698276  1
  Na  Na47  1  0.85966063  0.75070593  0.75725747  1
  Na  Na48  1  0.10945142  0.08296290  0.11873173  1
  Na  Na49  1  0.10983041  0.08444238  0.36891389  1
  Na  Na50  1  0.11009194  0.08462102  0.61898310  1
  Na  Na51  1  0.11001636  0.08456159  0.86769622  1
  Na  Na52  1  0.10968161  0.41645603  0.11857416  1
  Na  Na53  1  0.11021516  0.41725892  0.36864256  1
  Na  Na54  1  0.11017792  0.41801249  0.61862919  1
  Na  Na55  1  0.10905510  0.41673061  0.86799946  1
  Na  Na56  1  0.10961088  0.74875426  0.11855284  1
  Na  Na57  1  0.10964287  0.75088668  0.36952883  1
  Na  Na58  1  0.10878396  0.75078018  0.61851175  1
  Na  Na59  1  0.10937804  0.74945437  0.86972935  1
  Na  Na60  1  0.60950885  0.08244986  0.11777596  1
  Na  Na61  1  0.60969365  0.08366064  0.36863504  1
  Na  Na62  1  0.60989063  0.08177485  0.61866171  1
  Na  Na63  1  0.60984581  0.08314337  0.86861579  1
  Na  Na64  1  0.60911919  0.41461693  0.11859068  1
  Na  Na65  1  0.60938299  0.41577002  0.36832085  1
  Na  Na66  1  0.60962103  0.41564795  0.61872407  1
  Na  Na67  1  0.60894063  0.41625330  0.86730449  1
  Na  Na68  1  0.60946575  0.75020751  0.11841733  1
  Na  Na69  1  0.60966652  0.75041344  0.36966254  1
  Na  Na70  1  0.60922296  0.74950207  0.61948507  1
  Na  Na71  1  0.60953054  0.75062536  0.86784243  1
  Na  Na72  1  0.39032417  0.24922902  0.13095782  1
  Na  Na73  1  0.38987186  0.24997232  0.38170251  1
  Na  Na74  1  0.39025730  0.24906557  0.63297917  1
  Na  Na75  1  0.39019912  0.24929132  0.88036796  1
  Na  Na76  1  0.39018364  0.58214350  0.13236154  1
  Na  Na77  1  0.39054167  0.58310715  0.38095902  1
  Na  Na78  1  0.39088076  0.58214511  0.63151763  1
  Na  Na79  1  0.39055345  0.58365195  0.88087806  1
  Na  Na80  1  0.39085268  0.91656986  0.13048369  1
  Na  Na81  1  0.39092464  0.91645560  0.38196209  1
  Na  Na82  1  0.39089360  0.91610581  0.63184145  1
  Na  Na83  1  0.39069705  0.91827290  0.88225270  1
  Na  Na84  1  0.89006849  0.24965127  0.13148675  1
  Na  Na85  1  0.89026167  0.24970385  0.38039940  1
  Na  Na86  1  0.89031540  0.25100139  0.63270987  1
  Na  Na87  1  0.89033211  0.25084496  0.88083259  1
  Na  Na88  1  0.89048924  0.58225635  0.13001997  1
  Na  Na89  1  0.89058868  0.58403127  0.38134372  1
  Na  Na90  1  0.89071626  0.58369112  0.63212845  1
  Na  Na91  1  0.89063055  0.58363423  0.88101876  1
  Na  Na92  1  0.88995377  0.91642548  0.13087163  1
  Na  Na93  1  0.89046554  0.91684432  0.38229366  1
  Na  Na94  1  0.89029071  0.91754044  0.63091824  1
  Na  Na95  1  0.89012684  0.91717978  0.88141156  1
  Mn  Mn96  1  0.74973536  0.33198196  0.37504151  1
  Mn  Mn97  1  -0.00070740  0.50105517  0.49996288  1
  Mn  Mn98  1  0.75003054  0.49911845  0.12416582  1
  Mn  Mn99  1  -0.00022921  0.66685986  0.24962170  1
  Mn  Mn100  1  0.24960145  0.16727608  0.12465019  1
  Mn  Mn101  1  0.74894467  0.50019084  0.87544021  1
  Mn  Mn102  1  0.25050832  0.49907608  0.87452866  1
  Mn  Mn103  1  0.50016186  0.50015743  0.49946304  1
  Mn  Mn104  1  0.24961317  0.66600796  0.62534294  1
  Mn  Mn105  1  -0.00018074  -0.00050002  -0.00085904  1
  Mn  Mn106  1  0.25003145  0.00057938  0.12521269  1
  Mn  Mn107  1  0.25046760  0.83287326  0.37472011  1
  Mn  Mn108  1  -0.00031783  0.66636054  -0.00033992  1
  Mn  Mn109  1  0.74954705  0.83465518  0.62601325  1
  Mn  Mn110  1  0.50037201  0.00055773  0.25021644  1
  Mn  Mn111  1  0.25081755  0.00212000  0.62460798  1
  Mn  Mn112  1  0.00067067  0.83343536  0.74938756  1
  Mn  Mn113  1  0.49966821  -0.00001401  0.50033163  1
  Mn  Mn114  1  0.25069943  0.00136003  0.37499021  1
  Mn  Mn115  1  0.24938565  0.83412523  0.87573940  1
  Mn  Mn116  1  -0.00040335  0.16740629  -0.00012932  1
  Mn  Mn117  1  0.75052345  0.16532917  0.37438260  1
  Mn  Mn118  1  0.25061712  0.33401764  0.12496422  1
  Mn  Mn119  1  -0.00025461  0.33409812  0.50095359  1
  Mn  Mn120  1  0.49974851  0.83339917  0.75031792  1
  Mn  Mn121  1  0.00056737  0.00079913  0.75034710  1
  Mn  Mn122  1  0.75073536  0.49950687  0.62485746  1
  Mn  Mn123  1  0.49971444  0.49947658  -0.00004581  1
  Mn  Mn124  1  0.50029115  0.49959576  0.25009834  1
  Mn  Mn125  1  0.75081773  0.66769194  0.37447979  1
  Mn  Mn126  1  0.74919388  0.83447367  0.12475743  1
  Mn  Mn127  1  0.49980325  0.33189529  0.49996175  1
  Mn  Mn128  1  0.00067649  0.16712371  0.49989644  1
  Mn  Mn129  1  0.25019941  0.83434490  0.62568761  1
  Mn  Mn130  1  0.75005384  0.66748126  0.62487838  1
  Mn  Mn131  1  0.74978408  0.49931503  0.37477841  1
  Mn  Mn132  1  0.74990937  0.66725698  0.12492601  1
  Mn  Mn133  1  0.25067702  0.83276951  0.12469446  1
  Mn  Mn134  1  0.50022909  0.83262258  0.25046916  1
  Mn  Mn135  1  0.49951259  0.33189039  -0.00130221  1
  Mn  Mn136  1  0.75055009  0.16570814  0.87438664  1
  Mn  Mn137  1  0.00022543  0.49917934  0.25049316  1
  Mn  Mn138  1  0.74947911  0.33246030  0.87482928  1
  Mn  Mn139  1  0.00017306  0.16669530  0.24988061  1
  Mn  Mn140  1  0.24991956  0.66507391  0.37587494  1
  Mn  Mn141  1  0.24995240  0.66606214  0.87508604  1
  Mn  Mn142  1  0.50056900  0.66696233  0.00007085  1
  Mn  Mn143  1  -0.00046317  0.83418782  0.25022534  1
  Fe  Fe144  1  0.00015642  0.83408120  0.49998772  1
  Fe  Fe145  1  0.50025849  0.33216614  0.74965368  1
  Fe  Fe146  1  0.74967583  0.00041622  0.87473450  1
  Fe  Fe147  1  0.49955463  0.83345788  -0.00033471  1
  Fe  Fe148  1  0.75039870  -0.00041079  0.12483170  1
  Fe  Fe149  1  0.50014941  -0.00026266  0.75032148  1
  Fe  Fe150  1  0.75002538  0.16579598  0.62453017  1
  Fe  Fe151  1  0.50037752  0.49995244  0.74942757  1
  Fe  Fe152  1  -0.00005082  0.33446117  0.75067669  1
  Fe  Fe153  1  0.00013228  0.50051867  0.75020401  1
  Fe  Fe154  1  0.49948458  0.16657202  0.24945340  1
  Fe  Fe155  1  0.74954359  0.00010399  0.37475905  1
  Fe  Fe156  1  0.25037568  0.00122190  0.87455646  1
  Fe  Fe157  1  0.24990198  0.16754499  0.87492915  1
  Fe  Fe158  1  0.49995547  0.00056081  0.00011822  1
  Fe  Fe159  1  0.00026816  0.66719894  0.50057770  1
  Fe  Fe160  1  0.24957413  0.49959799  0.12516070  1
  Fe  Fe161  1  0.74936005  0.33224851  0.12492391  1
  Fe  Fe162  1  0.24956697  0.33348435  0.87445166  1
  Fe  Fe163  1  0.00001048  0.49964762  -0.00049272  1
  Fe  Fe164  1  0.74993105  0.83435534  0.37546449  1
  Fe  Fe165  1  0.49928216  0.66676423  0.75005530  1
  Fe  Fe166  1  0.74992191  0.66710449  0.87470123  1
  Fe  Fe167  1  0.50006377  0.16625299  0.50027095  1
  Fe  Fe168  1  0.00011361  0.83316619  0.00019859  1
  Fe  Fe169  1  0.50028008  0.66641911  0.50065371  1
  Fe  Fe170  1  0.25044459  0.49940439  0.37491408  1
  Fe  Fe171  1  0.50041297  0.66665070  0.25035837  1
  Fe  Fe172  1  -0.00032345  0.33339072  0.24955059  1
  Fe  Fe173  1  0.50027298  0.83251029  0.50083656  1
  Fe  Fe174  1  0.00015477  0.33352366  -0.00051740  1
  Fe  Fe175  1  0.24983705  0.16818729  0.62597146  1
  Fe  Fe176  1  0.74965075  0.33269218  0.62503814  1
  Fe  Fe177  1  0.24960531  0.16800098  0.37592462  1
  Fe  Fe178  1  0.75054673  -0.00015557  0.62490340  1
  Fe  Fe179  1  0.50046751  0.16639077  -0.00049100  1
  Fe  Fe180  1  0.25010327  0.33341206  0.62483234  1
  Fe  Fe181  1  0.49977242  0.33229422  0.24964519  1
  Fe  Fe182  1  0.74973813  0.16555268  0.12447083  1
  Fe  Fe183  1  -0.00035355  0.16751662  0.74955319  1
  Fe  Fe184  1  0.25075071  0.49896325  0.62475274  1
  Fe  Fe185  1  0.25004584  0.66560481  0.12568893  1
  Fe  Fe186  1  0.75010513  0.83420629  0.87518029  1
  Fe  Fe187  1  0.24970277  0.33377054  0.37571987  1
  Fe  Fe188  1  -0.00013298  0.00077897  0.50006550  1
  Fe  Fe189  1  0.50015926  0.16538148  0.75040836  1
  Fe  Fe190  1  0.00033037  -0.00009436  0.25006071  1
  Fe  Fe191  1  -0.00060557  0.66709170  0.75014507  1
  P  P192  1  0.04215787  0.25150368  0.10241983  1
  P  P193  1  0.04225907  0.25156656  0.35230183  1
  P  P194  1  0.04254090  0.25064223  0.60442559  1
  P  P195  1  0.04092368  0.25064113  0.85158589  1
  P  P196  1  0.04222462  0.58159009  0.10190213  1
  P  P197  1  0.04275217  0.58425619  0.35355604  1
  P  P198  1  0.04186586  0.58492651  0.60336039  1
  P  P199  1  0.04130735  0.58338447  0.85173823  1
  P  P200  1  0.04236718  0.91566496  0.10256976  1
  P  P201  1  0.04219290  0.91845759  0.35339532  1
  P  P202  1  0.04154836  0.91758925  0.60141554  1
  P  P203  1  0.04310231  0.91630756  0.85337277  1
  P  P204  1  0.54164725  0.24814409  0.10259925  1
  P  P205  1  0.54142395  0.24920290  0.35140341  1
  P  P206  1  0.54172926  0.24766228  0.60339817  1
  P  P207  1  0.54173564  0.24865814  0.85127567  1
  P  P208  1  0.54293348  0.58302781  0.10339486  1
  P  P209  1  0.54247915  0.58472740  0.35291011  1
  P  P210  1  0.54208585  0.58390503  0.60336464  1
  P  P211  1  0.54140406  0.58355253  0.85121431  1
  P  P212  1  0.54133890  0.91646071  0.10123980  1
  P  P213  1  0.54252232  0.91637950  0.35382035  1
  P  P214  1  0.54207109  0.91530286  0.60296455  1
  P  P215  1  0.54172733  0.91811261  0.85338073  1
  P  P216  1  0.45795727  0.08425069  0.14667603  1
  P  P217  1  0.45783786  0.08496101  0.39750253  1
  P  P218  1  0.45851489  0.08272499  0.64867505  1
  P  P219  1  0.45914901  0.08366687  0.89768744  1
  P  P220  1  0.45751002  0.41465148  0.14763859  1
  P  P221  1  0.45759878  0.41575245  0.39649994  1
  P  P222  1  0.45915316  0.41599954  0.64840186  1
  P  P223  1  0.45764969  0.41634454  0.89527535  1
  P  P224  1  0.45781732  0.74878461  0.14757984  1
  P  P225  1  0.45870046  0.74926010  0.39873022  1
  P  P226  1  0.45765109  0.74858481  0.64725873  1
  P  P227  1  0.45767963  0.75112039  0.89732638  1
  P  P228  1  0.95790279  0.08186269  0.14756179  1
  P  P229  1  0.95789267  0.08242647  0.39726112  1
  P  P230  1  0.95826217  0.08450405  0.64717445  1
  P  P231  1  0.95727279  0.08438998  0.89621743  1
  P  P232  1  0.95798122  0.41525260  0.14638715  1
  P  P233  1  0.95698626  0.41654483  0.39676954  1
  P  P234  1  0.95861697  0.41756787  0.64904837  1
  P  P235  1  0.95860434  0.41686716  0.89756152  1
  P  P236  1  0.95686112  0.75047459  0.14643070  1
  P  P237  1  0.95874472  0.75031107  0.39887702  1
  P  P238  1  0.95753580  0.74914814  0.64700948  1
  P  P239  1  0.95782622  0.75118972  0.89714609  1
  P  P240  1  0.20713685  0.08455919  0.22871609  1
  P  P241  1  0.20794624  0.08610440  0.47817039  1
  P  P242  1  0.20838665  0.08576012  0.72846431  1
  P  P243  1  0.20839725  0.08396114  0.97617570  1
  P  P244  1  0.20773316  0.41787882  0.22809865  1
  P  P245  1  0.20889346  0.41709328  0.47737696  1
  P  P246  1  0.20871028  0.41611671  0.72651163  1
  P  P247  1  0.20754421  0.41564009  0.97718730  1
  P  P248  1  0.20803287  0.74844127  0.22743710  1
  P  P249  1  0.20757938  0.74972720  0.47850133  1
  P  P250  1  0.20675410  0.75045912  0.72840674  1
  P  P251  1  0.20743741  0.74903884  0.97903065  1
  P  P252  1  0.70838694  0.08208419  0.22626850  1
  P  P253  1  0.70794934  0.08193505  0.47791204  1
  P  P254  1  0.70874599  0.08245924  0.72642640  1
  P  P255  1  0.70805954  0.08198916  0.97790262  1
  P  P256  1  0.70729332  0.41477167  0.22703475  1
  P  P257  1  0.70696534  0.41551697  0.47859464  1
  P  P258  1  0.70769025  0.41528180  0.72721576  1
  P  P259  1  0.70654396  0.41544166  0.97841129  1
  P  P260  1  0.70718761  0.75120066  0.22851709  1
  P  P261  1  0.70806759  0.75189625  0.47755068  1
  P  P262  1  0.70740066  0.75056163  0.72934631  1
  P  P263  1  0.70834855  0.75050376  0.97608879  1
  P  P264  1  0.29241665  0.25030976  0.02082210  1
  P  P265  1  0.29114723  0.25062599  0.27407398  1
  P  P266  1  0.29164583  0.25044936  0.52338503  1
  P  P267  1  0.29116652  0.25055195  0.77276088  1
  P  P268  1  0.29176218  0.58238134  0.02376627  1
  P  P269  1  0.29221592  0.58137236  0.27202963  1
  P  P270  1  0.29241836  0.58109707  0.52253248  1
  P  P271  1  0.29257860  0.58238433  0.77121054  1
  P  P272  1  0.29275478  0.91762229  0.02127498  1
  P  P273  1  0.29338728  0.91681738  0.27199011  1
  P  P274  1  0.29333927  0.91762122  0.52201080  1
  P  P275  1  0.29257096  0.91859785  0.77296483  1
  P  P276  1  0.79128136  0.24927327  0.02341986  1
  P  P277  1  0.79228002  0.24887336  0.27060801  1
  P  P278  1  0.79158635  0.24942208  0.52362371  1
  P  P279  1  0.79237769  0.24946564  0.77066290  1
  P  P280  1  0.79236549  0.58398853  0.02109026  1
  P  P281  1  0.79308400  0.58296274  0.27156545  1
  P  P282  1  0.79322529  0.58379445  0.52182834  1
  P  P283  1  0.79187665  0.58427830  0.77283670  1
  P  P284  1  0.79189464  0.91805540  0.02149982  1
  P  P285  1  0.79172120  0.91725965  0.27344940  1
  P  P286  1  0.79191517  0.91818514  0.52205535  1
  P  P287  1  0.79147360  0.91773859  0.77336656  1
  O  O288  1  0.03703267  0.25138366  0.18236119  1
  O  O289  1  0.03719594  0.25121226  0.43226659  1
  O  O290  1  0.03727170  0.25037696  0.68431524  1
  O  O291  1  0.03620375  0.25128005  0.93156133  1
  O  O292  1  0.03720561  0.58184510  0.18181874  1
  O  O293  1  0.03743392  0.58486152  0.43350221  1
  O  O294  1  0.03653324  0.58465782  0.68324255  1
  O  O295  1  0.03615743  0.58255411  0.93166888  1
  O  O296  1  0.03700544  0.91661646  0.18252581  1
  O  O297  1  0.03684100  0.91847171  0.43326361  1
  O  O298  1  0.03699948  0.91724054  0.68142583  1
  O  O299  1  0.03777156  0.91574762  0.93326899  1
  O  O300  1  0.53610795  0.24857320  0.18243251  1
  O  O301  1  0.53663151  0.24899878  0.43140829  1
  O  O302  1  0.53643070  0.24776030  0.68323379  1
  O  O303  1  0.53689234  0.24863529  0.93122688  1
  O  O304  1  0.53798620  0.58347829  0.18335182  1
  O  O305  1  0.53704918  0.58472263  0.43285584  1
  O  O306  1  0.53638647  0.58359168  0.68321987  1
  O  O307  1  0.53651778  0.58318320  0.93121620  1
  O  O308  1  0.53678670  0.91655080  0.18125200  1
  O  O309  1  0.53708649  0.91600920  0.43371149  1
  O  O310  1  0.53671935  0.91587244  0.68287297  1
  O  O311  1  0.53628612  0.91798397  0.93319885  1
  O  O312  1  0.46334662  0.08416363  0.06682096  1
  O  O313  1  0.46299654  0.08510807  0.31758076  1
  O  O314  1  0.46332542  0.08289737  0.56873380  1
  O  O315  1  0.46408220  0.08314313  0.81780708  1
  O  O316  1  0.46244876  0.41479502  0.06763146  1
  O  O317  1  0.46294634  0.41531263  0.31660569  1
  O  O318  1  0.46370583  0.41581381  0.56840934  1
  O  O319  1  0.46348258  0.41664803  0.81544997  1
  O  O320  1  0.46290701  0.74957485  0.06765986  1
  O  O321  1  0.46384441  0.74899201  0.31875380  1
  O  O322  1  0.46334118  0.74890556  0.56743279  1
  O  O323  1  0.46275740  0.75044708  0.81740052  1
  O  O324  1  0.96303414  0.08222141  0.06762246  1
  O  O325  1  0.96307596  0.08231687  0.31731693  1
  O  O326  1  0.96357145  0.08383820  0.56724524  1
  O  O327  1  0.96254801  0.08501719  0.81630116  1
  O  O328  1  0.96345418  0.41548729  0.06650357  1
  O  O329  1  0.96212641  0.41594459  0.31681841  1
  O  O330  1  0.96262753  0.41738823  0.56904539  1
  O  O331  1  0.96395305  0.41712601  0.81766420  1
  O  O332  1  0.96207853  0.75090234  0.06650891  1
  O  O333  1  0.96315144  0.75072418  0.31885550  1
  O  O334  1  0.96292102  0.74915287  0.56717315  1
  O  O335  1  0.96327542  0.75052581  0.81723883  1
  O  O336  1  0.21291204  0.08387639  0.05622189  1
  O  O337  1  0.21226926  0.08501478  0.30867548  1
  O  O338  1  0.21324144  0.08623966  0.55813942  1
  O  O339  1  0.21385898  0.08508412  0.80836288  1
  O  O340  1  0.21260963  0.41652110  0.05708443  1
  O  O341  1  0.21301884  0.41771735  0.30793449  1
  O  O342  1  0.21406021  0.41673411  0.55724464  1
  O  O343  1  0.21342021  0.41559936  0.80644898  1
  O  O344  1  0.21307330  0.74835052  0.05894959  1
  O  O345  1  0.21300010  0.74849481  0.30744986  1
  O  O346  1  0.21257528  0.74995759  0.55845476  1
  O  O347  1  0.21175678  0.75043727  0.80841717  1
  O  O348  1  0.71339519  0.08219029  0.05773165  1
  O  O349  1  0.71300330  0.08204896  0.30625421  1
  O  O350  1  0.71342386  0.08225448  0.55773472  1
  O  O351  1  0.71340362  0.08259342  0.80639649  1
  O  O352  1  0.71179135  0.41488684  0.05834868  1
  O  O353  1  0.71245858  0.41503533  0.30703928  1
  O  O354  1  0.71235941  0.41509546  0.55857480  1
  O  O355  1  0.71232040  0.41569377  0.80723634  1
  O  O356  1  0.71282510  0.75074881  0.05613725  1
  O  O357  1  0.71263298  0.75186418  0.30843456  1
  O  O358  1  0.71299352  0.75169777  0.55754415  1
  O  O359  1  0.71276123  0.75022543  0.80923810  1
  O  O360  1  0.28666945  0.25078784  0.19408407  1
  O  O361  1  0.28646598  0.25046671  0.44352026  1
  O  O362  1  0.28616453  0.25041586  0.69286946  1
  O  O363  1  0.28707543  0.25034233  0.94094514  1
  O  O364  1  0.28655738  0.58190887  0.19217516  1
  O  O365  1  0.28720055  0.58089736  0.44256306  1
  O  O366  1  0.28739545  0.58190003  0.69130712  1
  O  O367  1  0.28698832  0.58277488  0.94373332  1
  O  O368  1  0.28827532  0.91669129  0.19198308  1
  O  O369  1  0.28842839  0.91752409  0.44204020  1
  O  O370  1  0.28765407  0.91867458  0.69295278  1
  O  O371  1  0.28715230  0.91824514  0.94133815  1
  O  O372  1  0.78693545  0.24895234  0.19074086  1
  O  O373  1  0.78721281  0.24910613  0.44356036  1
  O  O374  1  0.78720049  0.24968257  0.69078052  1
  O  O375  1  0.78673226  0.24896681  0.94336997  1
  O  O376  1  0.78780391  0.58291093  0.19158920  1
  O  O377  1  0.78820782  0.58362500  0.44186001  1
  O  O378  1  0.78714170  0.58394957  0.69283144  1
  O  O379  1  0.78667640  0.58458904  0.94117036  1
  O  O380  1  0.78666766  0.91737557  0.19345927  1
  O  O381  1  0.78637821  0.91771147  0.44224409  1
  O  O382  1  0.78673528  0.91782708  0.69340426  1
  O  O383  1  0.78659073  0.91784414  0.94166332  1
  O  O384  1  0.22817978  0.25086711  0.05649494  1
  O  O385  1  0.22691612  0.25024716  0.30971711  1
  O  O386  1  0.22750141  0.25053572  0.55956244  1
  O  O387  1  0.22711570  0.25062440  0.80915469  1
  O  O388  1  0.22747558  0.58210221  0.05939369  1
  O  O389  1  0.22813045  0.58079356  0.30835130  1
  O  O390  1  0.22815486  0.58081378  0.55821809  1
  O  O391  1  0.22821997  0.58252307  0.80645822  1
  O  O392  1  0.22852645  0.91690764  0.05685015  1
  O  O393  1  0.22891471  0.91706833  0.30689658  1
  O  O394  1  0.22883791  0.91808338  0.55685815  1
  O  O395  1  0.22813637  0.91883460  0.80811771  1
  O  O396  1  0.72701461  0.24957477  0.05891106  1
  O  O397  1  0.72806395  0.24845949  0.30638019  1
  O  O398  1  0.72725621  0.24983873  0.55892812  1
  O  O399  1  0.72808977  0.24901267  0.80620489  1
  O  O400  1  0.72812514  0.58351087  0.05666049  1
  O  O401  1  0.72868942  0.58352660  0.30670567  1
  O  O402  1  0.72875642  0.58337261  0.55675286  1
  O  O403  1  0.72741728  0.58461035  0.80791182  1
  O  O404  1  0.72768734  0.91889008  0.05754648  1
  O  O405  1  0.72748548  0.91699172  0.30941138  1
  O  O406  1  0.72778403  0.91882285  0.55829128  1
  O  O407  1  0.72727730  0.91789629  0.80917402  1
  O  O408  1  0.27156444  0.08431195  0.19356658  1
  O  O409  1  0.27220730  0.08643507  0.44244654  1
  O  O410  1  0.27252310  0.08617401  0.69237887  1
  O  O411  1  0.27270523  0.08431872  0.94071363  1
  O  O412  1  0.27195173  0.41857273  0.19205200  1
  O  O413  1  0.27290318  0.41721410  0.44099960  1
  O  O414  1  0.27299608  0.41635278  0.69080282  1
  O  O415  1  0.27192391  0.41453023  0.94170410  1
  O  O416  1  0.27239714  0.74826455  0.19213272  1
  O  O417  1  0.27201998  0.74926792  0.44352693  1
  O  O418  1  0.27128528  0.75010650  0.69362768  1
  O  O419  1  0.27164350  0.74964812  0.94337813  1
  O  O420  1  0.77261637  0.08184662  0.19052328  1
  O  O421  1  0.77207891  0.08116683  0.44167581  1
  O  O422  1  0.77293451  0.08214933  0.69062541  1
  O  O423  1  0.77222089  0.08137236  0.94178663  1
  O  O424  1  0.77159525  0.41430271  0.19146840  1
  O  O425  1  0.77134511  0.41569188  0.44336062  1
  O  O426  1  0.77217571  0.41482032  0.69221055  1
  O  O427  1  0.77094681  0.41610353  0.94325253  1
  O  O428  1  0.77146787  0.75129603  0.19306048  1
  O  O429  1  0.77240162  0.75244493  0.44211793  1
  O  O430  1  0.77164395  0.75088350  0.69370949  1
  O  O431  1  0.77261140  0.75003779  0.94062535  1
  O  O432  1  0.02218823  0.08191439  0.18324896  1
  O  O433  1  0.02220919  0.08239528  0.43294570  1
  O  O434  1  0.02246396  0.08508600  0.68304878  1
  O  O435  1  0.02160846  0.08401047  0.93153808  1
  O  O436  1  0.02207164  0.41481342  0.18283842  1
  O  O437  1  0.02137671  0.41726268  0.43203861  1
  O  O438  1  0.02305394  0.41812244  0.68410042  1
  O  O439  1  0.02265142  0.41675003  0.93400418  1
  O  O440  1  0.02125200  0.75060107  0.18172106  1
  O  O441  1  0.02298621  0.75016715  0.43449686  1
  O  O442  1  0.02176761  0.74850138  0.68303610  1
  O  O443  1  0.02192736  0.75148734  0.93337634  1
  O  O444  1  0.52212137  0.08486708  0.18286353  1
  O  O445  1  0.52210222  0.08462614  0.43331439  1
  O  O446  1  0.52280890  0.08295985  0.68448918  1
  O  O447  1  0.52317929  0.08410696  0.93399592  1
  O  O448  1  0.52184367  0.41449078  0.18315084  1
  O  O449  1  0.52182967  0.41575105  0.43214352  1
  O  O450  1  0.52329335  0.41629292  0.68412041  1
  O  O451  1  0.52169517  0.41619901  0.93152380  1
  O  O452  1  0.52219354  0.74829372  0.18320713  1
  O  O453  1  0.52280298  0.74938806  0.43504027  1
  O  O454  1  0.52169763  0.74841557  0.68369447  1
  O  O455  1  0.52201847  0.75171205  0.93297033  1
  O  O456  1  0.47758578  0.24746604  0.06618574  1
  O  O457  1  0.47712050  0.24937361  0.31559882  1
  O  O458  1  0.47755537  0.24749923  0.56723936  1
  O  O459  1  0.47749846  0.24819528  0.81551150  1
  O  O460  1  0.47847728  0.58335372  0.06827238  1
  O  O461  1  0.47831338  0.58450831  0.31684249  1
  O  O462  1  0.47804197  0.58442962  0.56688681  1
  O  O463  1  0.47720669  0.58346449  0.81536431  1
  O  O464  1  0.47714235  0.91594488  0.06548981  1
  O  O465  1  0.47835186  0.91670587  0.31805586  1
  O  O466  1  0.47794292  0.91489616  0.56691322  1
  O  O467  1  0.47764446  0.91815560  0.81710072  1
  O  O468  1  0.97780577  0.25180432  0.06681187  1
  O  O469  1  0.97798177  0.25158462  0.31657085  1
  O  O470  1  0.97827516  0.25021292  0.56876270  1
  O  O471  1  0.97682915  0.25023854  0.81561109  1
  O  O472  1  0.97790447  0.58157153  0.06631295  1
  O  O473  1  0.97842019  0.58355249  0.31811418  1
  O  O474  1  0.97769592  0.58534600  0.56723030  1
  O  O475  1  0.97716724  0.58340798  0.81559293  1
  O  O476  1  0.97808495  0.91505891  0.06668799  1
  O  O477  1  0.97795111  0.91881330  0.31729978  1
  O  O478  1  0.97728592  0.91783265  0.56584972  1
  O  O479  1  0.97876792  0.91674883  0.81801059  1
  O  O480  1  0.07335845  0.31449689  0.07345688  1
  O  O481  1  0.07290953  0.31514106  0.32403618  1
  O  O482  1  0.07328425  0.31441097  0.57626199  1
  O  O483  1  0.07144684  0.31445850  0.82298988  1
  O  O484  1  0.07321383  0.64523960  0.07405514  1
  O  O485  1  0.07367955  0.64755113  0.32478266  1
  O  O486  1  0.07305396  0.64809513  0.57455000  1
  O  O487  1  0.07180588  0.64745551  0.82414957  1
  O  O488  1  0.07347383  0.97912725  0.07427597  1
  O  O489  1  0.07334339  0.98159025  0.32438213  1
  O  O490  1  0.07262616  0.98121324  0.57368187  1
  O  O491  1  0.07410762  0.98004557  0.82555307  1
  O  O492  1  0.57242935  0.31178609  0.07421182  1
  O  O493  1  0.57212526  0.31299519  0.32320731  1
  O  O494  1  0.57279707  0.31124474  0.57528490  1
  O  O495  1  0.57179651  0.31276950  0.82277529  1
  O  O496  1  0.57449867  0.64599879  0.07464067  1
  O  O497  1  0.57324269  0.64817119  0.32438674  1
  O  O498  1  0.57337535  0.64718468  0.57489488  1
  O  O499  1  0.57198715  0.64752486  0.82359852  1
  O  O500  1  0.57144857  0.98056827  0.07301711  1
  O  O501  1  0.57355339  0.98001208  0.32581789  1
  O  O502  1  0.57316337  0.97883799  0.57503190  1
  O  O503  1  0.57260504  0.98149518  0.82443588  1
  O  O504  1  0.42728672  0.02043126  0.17489168  1
  O  O505  1  0.42664321  0.02131272  0.42515649  1
  O  O506  1  0.42823516  0.01871065  0.67694903  1
  O  O507  1  0.42867194  0.02002918  0.92679242  1
  O  O508  1  0.42675982  0.35110570  0.17604820  1
  O  O509  1  0.42623945  0.35266798  0.42514633  1
  O  O510  1  0.42882397  0.35197813  0.67666326  1
  O  O511  1  0.42644566  0.35277800  0.92319134  1
  O  O512  1  0.42722020  0.68513246  0.17604063  1
  O  O513  1  0.42763918  0.68576543  0.42693515  1
  O  O514  1  0.42660953  0.68518828  0.67581478  1
  O  O515  1  0.42668530  0.68757733  0.92551643  1
  O  O516  1  0.92729559  0.01825453  0.17583550  1
  O  O517  1  0.92690830  0.01932074  0.42630362  1
  O  O518  1  0.92720328  0.02096545  0.67528153  1
  O  O519  1  0.92618498  0.02074742  0.92392365  1
  O  O520  1  0.92691116  0.35191298  0.17505469  1
  O  O521  1  0.92605864  0.35322515  0.42553460  1
  O  O522  1  0.92855121  0.35360713  0.67778779  1
  O  O523  1  0.92754123  0.35322819  0.92567995  1
  O  O524  1  0.92617307  0.68659929  0.17427738  1
  O  O525  1  0.92773615  0.68674185  0.42674652  1
  O  O526  1  0.92629533  0.68617290  0.67628199  1
  O  O527  1  0.92667943  0.68761533  0.92498756  1
  O  O528  1  0.17621251  0.02093378  0.20056187  1
  O  O529  1  0.17733519  0.02214271  0.45038503  1
  O  O530  1  0.17727441  0.02227602  0.70002281  1
  O  O531  1  0.17788176  0.02016561  0.94791213  1
  O  O532  1  0.17716448  0.35403647  0.19982345  1
  O  O533  1  0.17829028  0.35325952  0.44873661  1
  O  O534  1  0.17793872  0.35265387  0.69778388  1
  O  O535  1  0.17635609  0.35236777  0.94875341  1
  O  O536  1  0.17732785  0.68480959  0.19904720  1
  O  O537  1  0.17640701  0.68622927  0.45066864  1
  O  O538  1  0.17561446  0.68709752  0.70025208  1
  O  O539  1  0.17633621  0.68570987  0.95050205  1
  O  O540  1  0.67714442  0.01877868  0.19791938  1
  O  O541  1  0.67643575  0.01895864  0.44913852  1
  O  O542  1  0.67750352  0.01912216  0.69825590  1
  O  O543  1  0.67672860  0.01895350  0.94897807  1
  O  O544  1  0.67637283  0.35125725  0.19883580  1
  O  O545  1  0.67571836  0.35226852  0.45007182  1
  O  O546  1  0.67685990  0.35175017  0.69891202  1
  O  O547  1  0.67558733  0.35214102  0.94966619  1
  O  O548  1  0.67639431  0.68741243  0.20068111  1
  O  O549  1  0.67742788  0.68800400  0.44979653  1
  O  O550  1  0.67631243  0.68734286  0.70042211  1
  O  O551  1  0.67708957  0.68708321  0.94808037  1
  O  O552  1  0.32404960  0.31331784  0.04952288  1
  O  O553  1  0.32126619  0.31461744  0.30256428  1
  O  O554  1  0.32258256  0.31405946  0.55190008  1
  O  O555  1  0.32204535  0.31421451  0.80095826  1
  O  O556  1  0.32225269  0.64613614  0.05227016  1
  O  O557  1  0.32315474  0.64500210  0.30037849  1
  O  O558  1  0.32307944  0.64508412  0.55012020  1
  O  O559  1  0.32349303  0.64603516  0.79923735  1
  O  O560  1  0.32368566  0.98102204  0.04975457  1
  O  O561  1  0.32449849  0.98030419  0.29998526  1
  O  O562  1  0.32454081  0.98109236  0.54998765  1
  O  O563  1  0.32329236  0.98217709  0.80143908  1
  O  O564  1  0.82223298  0.31290358  0.05130530  1
  O  O565  1  0.82332686  0.31218324  0.29933857  1
  O  O566  1  0.82262596  0.31292719  0.55183379  1
  O  O567  1  0.82330629  0.31283115  0.79952732  1
  O  O568  1  0.82355972  0.64722499  0.04957142  1
  O  O569  1  0.82445252  0.64639652  0.29943266  1
  O  O570  1  0.82382250  0.64751240  0.54990970  1
  O  O571  1  0.82269975  0.64777956  0.80120308  1
  O  O572  1  0.82340520  0.98099660  0.05041367  1
  O  O573  1  0.82235156  0.98093291  0.30175331  1
  O  O574  1  0.82323574  0.98140583  0.55060715  1
  O  O575  1  0.82265348  0.98108741  0.80162209  1
  O  O576  1  0.42649148  0.14734817  0.17542819  1
  O  O577  1  0.42718014  0.14832250  0.42657591  1
  O  O578  1  0.42726860  0.14600605  0.67713403  1
  O  O579  1  0.42781373  0.14716062  0.92566735  1
  O  O580  1  0.42662631  0.47837127  0.17542667  1
  O  O581  1  0.42674700  0.47952164  0.42434963  1
  O  O582  1  0.42802943  0.47955559  0.67631520  1
  O  O583  1  0.42626964  0.47956331  0.92393886  1
  O  O584  1  0.42674512  0.81228189  0.17586808  1
  O  O585  1  0.42808137  0.81322791  0.42671252  1
  O  O586  1  0.42636895  0.81211973  0.67529386  1
  O  O587  1  0.42691537  0.81475325  0.92559836  1
  O  O588  1  0.92680575  0.14554088  0.17522565  1
  O  O589  1  0.92701301  0.14638352  0.42487847  1
  O  O590  1  0.92732776  0.14809446  0.67534449  1
  O  O591  1  0.92605610  0.14755286  0.92501154  1
  O  O592  1  0.92692683  0.47890887  0.17441845  1
  O  O593  1  0.92573920  0.48006729  0.42470744  1
  O  O594  1  0.92738022  0.48095537  0.67722329  1
  O  O595  1  0.92762570  0.48045184  0.92598855  1
  O  O596  1  0.92539977  0.81346708  0.17527565  1
  O  O597  1  0.92844047  0.81430533  0.42734632  1
  O  O598  1  0.92678763  0.81316607  0.67475668  1
  O  O599  1  0.92700763  0.81479808  0.92531338  1
  O  O600  1  0.07283846  0.18747509  0.07461572  1
  O  O601  1  0.07325818  0.18786412  0.32455132  1
  O  O602  1  0.07412370  0.18770574  0.57554214  1
  O  O603  1  0.07200550  0.18700763  0.82373438  1
  O  O604  1  0.07286737  0.51804522  0.07337547  1
  O  O605  1  0.07395874  0.52063785  0.32585858  1
  O  O606  1  0.07274098  0.52113080  0.57524577  1
  O  O607  1  0.07257644  0.52008164  0.82306717  1
  O  O608  1  0.07320162  0.85192073  0.07471571  1
  O  O609  1  0.07310580  0.85463228  0.32544334  1
  O  O610  1  0.07184657  0.85360818  0.57303781  1
  O  O611  1  0.07439928  0.85323426  0.82471692  1
  O  O612  1  0.57308290  0.18493291  0.07412906  1
  O  O613  1  0.57232643  0.18568425  0.32293470  1
  O  O614  1  0.57265118  0.18428950  0.57449430  1
  O  O615  1  0.57333676  0.18547668  0.82312850  1
  O  O616  1  0.57342934  0.51913983  0.07526563  1
  O  O617  1  0.57370415  0.52096313  0.32541858  1
  O  O618  1  0.57306184  0.52022231  0.57520690  1
  O  O619  1  0.57232474  0.51993957  0.82294072  1
  O  O620  1  0.57249609  0.85299116  0.07307937  1
  O  O621  1  0.57375228  0.85316043  0.32536241  1
  O  O622  1  0.57293139  0.85163786  0.57488155  1
  O  O623  1  0.57301167  0.85462422  0.82535436  1
  O  O624  1  0.32318850  0.18668836  0.04938901  1
  O  O625  1  0.32229141  0.18716930  0.30223797  1
  O  O626  1  0.32256482  0.18703741  0.55227196  1
  O  O627  1  0.32214838  0.18703220  0.80136928  1
  O  O628  1  0.32265429  0.51857171  0.05147226  1
  O  O629  1  0.32358055  0.51815905  0.30052443  1
  O  O630  1  0.32365787  0.51790528  0.55121810  1
  O  O631  1  0.32380040  0.51915981  0.79981758  1
  O  O632  1  0.32417481  0.85406800  0.04887175  1
  O  O633  1  0.32427871  0.85317609  0.30008287  1
  O  O634  1  0.32404377  0.85402433  0.55039885  1
  O  O635  1  0.32346886  0.85480676  0.80061360  1
  O  O636  1  0.82169849  0.18532674  0.05171514  1
  O  O637  1  0.82367275  0.18550992  0.29903085  1
  O  O638  1  0.82182112  0.18535136  0.55188415  1
  O  O639  1  0.82368609  0.18611425  0.79907781  1
  O  O640  1  0.82359397  0.52025596  0.04859426  1
  O  O641  1  0.82376199  0.51925283  0.29965141  1
  O  O642  1  0.82450113  0.52043424  0.55011453  1
  O  O643  1  0.82267645  0.52049017  0.80073862  1
  O  O644  1  0.82242694  0.85416962  0.04984222  1
  O  O645  1  0.82260368  0.85359141  0.30175878  1
  O  O646  1  0.82278219  0.85462223  0.55064126  1
  O  O647  1  0.82179406  0.85370359  0.80177941  1
  O  O648  1  0.17602076  0.14780911  0.19994823  1
  O  O649  1  0.17662662  0.14928396  0.44964103  1
  O  O650  1  0.17725594  0.14920418  0.70015031  1
  O  O651  1  0.17740325  0.14764859  0.94817336  1
  O  O652  1  0.17638041  0.48091977  0.19910512  1
  O  O653  1  0.17750704  0.48036180  0.44899509  1
  O  O654  1  0.17794737  0.47993261  0.69847875  1
  O  O655  1  0.17707253  0.47937086  0.94852300  1
  O  O656  1  0.17692646  0.81211785  0.19974981  1
  O  O657  1  0.17681789  0.81334388  0.45021220  1
  O  O658  1  0.17608678  0.81424030  0.70032074  1
  O  O659  1  0.17608431  0.81264211  0.95149326  1
  O  O660  1  0.67819435  0.14610806  0.19771193  1
  O  O661  1  0.67731584  0.14579332  0.44954634  1
  O  O662  1  0.67854913  0.14644893  0.69776032  1
  O  O663  1  0.67737277  0.14579954  0.94957027  1
  O  O664  1  0.67647376  0.47861048  0.19934351  1
  O  O665  1  0.67599214  0.47922156  0.45061077  1
  O  O666  1  0.67694049  0.47906936  0.69929773  1
  O  O667  1  0.67524574  0.47901904  0.95055195  1
  O  O668  1  0.67567048  0.81423407  0.19975435  1
  O  O669  1  0.67703670  0.81532843  0.44931161  1
  O  O670  1  0.67612741  0.81410442  0.70129310  1
  O  O671  1  0.67829111  0.81467552  0.94780442  1
