# generated using pymatgen
data_Na2MnFe(PO4)2
_symmetry_space_group_name_H-M   'P 1'
_cell_length_a   22.34960892
_cell_length_b   20.10109731
_cell_length_c   19.44334467
_cell_angle_alpha   89.97708878
_cell_angle_beta   90.00037415
_cell_angle_gamma   89.94237526
_symmetry_Int_Tables_number   1
_chemical_formula_structural   Na2MnFe(PO4)2
_chemical_formula_sum   'Na96 Mn48 Fe48 P96 O384'
_cell_volume   8734.94982618
_cell_formula_units_Z   48
loop_
 _symmetry_equiv_pos_site_id
 _symmetry_equiv_pos_as_xyz
  1  'x, y, z'
loop_
 _atom_site_type_symbol
 _atom_site_label
 _atom_site_symmetry_multiplicity
 _atom_site_fract_x
 _atom_site_fract_y
 _atom_site_fract_z
 _atom_site_occupancy
  Na  Na0  1  0.14032889  0.24979226  0.24496656  1
  Na  Na1  1  0.14002641  0.25115389  0.49214444  1
  Na  Na2  1  0.14022976  0.25071407  0.74415142  1
  Na  Na3  1  0.14073296  0.25000653  0.99408145  1
  Na  Na4  1  0.14062293  0.58458007  0.24397678  1
  Na  Na5  1  0.14130129  0.58451315  0.49310890  1
  Na  Na6  1  0.14079384  0.58408211  0.74410505  1
  Na  Na7  1  0.14039551  0.58360068  0.99388571  1
  Na  Na8  1  0.14101356  0.91574806  0.24370551  1
  Na  Na9  1  0.14028787  0.91616481  0.49258686  1
  Na  Na10  1  0.14028628  0.91550574  0.74268691  1
  Na  Na11  1  0.14084060  0.91619782  0.99413499  1
  Na  Na12  1  0.64012453  0.24857007  0.24277722  1
  Na  Na13  1  0.63948471  0.24958031  0.49220559  1
  Na  Na14  1  0.63965969  0.25033141  0.74347924  1
  Na  Na15  1  0.64054992  0.24977738  0.99484075  1
  Na  Na16  1  0.64025634  0.58398078  0.24271915  1
  Na  Na17  1  0.64065594  0.58424723  0.49435779  1
  Na  Na18  1  0.64016468  0.58347840  0.74564468  1
  Na  Na19  1  0.64013922  0.58391979  0.99303455  1
  Na  Na20  1  0.64006900  0.91830825  0.24262024  1
  Na  Na21  1  0.63988976  0.91787886  0.49223511  1
  Na  Na22  1  0.63998915  0.91577526  0.74505131  1
  Na  Na23  1  0.64024214  0.91606611  0.99372395  1
  Na  Na24  1  0.35947222  0.08265997  0.00707973  1
  Na  Na25  1  0.36026677  0.08236147  0.25774805  1
  Na  Na26  1  0.36020124  0.08307118  0.50602105  1
  Na  Na27  1  0.35934149  0.08367685  0.75598418  1
  Na  Na28  1  0.35943284  0.41705835  0.00661826  1
  Na  Na29  1  0.35934437  0.41659442  0.25791638  1
  Na  Na30  1  0.35974198  0.41708014  0.50571624  1
  Na  Na31  1  0.35965068  0.41642373  0.75739486  1
  Na  Na32  1  0.35967194  0.75011726  0.00777053  1
  Na  Na33  1  0.36006921  0.74895814  0.25592032  1
  Na  Na34  1  0.35989716  0.75036378  0.50557160  1
  Na  Na35  1  0.35960441  0.75028613  0.75549733  1
  Na  Na36  1  0.85901789  0.08241871  0.00687928  1
  Na  Na37  1  0.85987795  0.08290100  0.25641597  1
  Na  Na38  1  0.85992161  0.08345442  0.50514639  1
  Na  Na39  1  0.85919551  0.08221010  0.75534689  1
  Na  Na40  1  0.85937067  0.41630256  0.00577759  1
  Na  Na41  1  0.85945073  0.41486265  0.25643649  1
  Na  Na42  1  0.85972364  0.41685635  0.50659400  1
  Na  Na43  1  0.85978722  0.41722639  0.75667579  1
  Na  Na44  1  0.85983285  0.74992345  0.00570082  1
  Na  Na45  1  0.85982934  0.75130233  0.25546658  1
  Na  Na46  1  0.85980438  0.75111652  0.50592733  1
  Na  Na47  1  0.85944734  0.75000985  0.75710536  1
  Na  Na48  1  0.11028699  0.08240174  0.11960332  1
  Na  Na49  1  0.10978354  0.08438598  0.36873338  1
  Na  Na50  1  0.10905728  0.08383895  0.61771263  1
  Na  Na51  1  0.10973348  0.08342831  0.86840320  1
  Na  Na52  1  0.10957734  0.41664414  0.12022710  1
  Na  Na53  1  0.10995460  0.41726164  0.36857876  1
  Na  Na54  1  0.10956770  0.41644062  0.61912330  1
  Na  Na55  1  0.10950960  0.41634734  0.86842430  1
  Na  Na56  1  0.11059840  0.74926053  0.11889930  1
  Na  Na57  1  0.11033663  0.75163701  0.36823390  1
  Na  Na58  1  0.11036510  0.75106771  0.61754897  1
  Na  Na59  1  0.11026258  0.74834239  0.86828323  1
  Na  Na60  1  0.61008834  0.08226169  0.11884945  1
  Na  Na61  1  0.60961233  0.08408816  0.36733094  1
  Na  Na62  1  0.60874481  0.08349159  0.61734700  1
  Na  Na63  1  0.60948281  0.08287569  0.86984622  1
  Na  Na64  1  0.60932899  0.41619358  0.11889740  1
  Na  Na65  1  0.60924381  0.41587557  0.36806575  1
  Na  Na66  1  0.60910951  0.41543129  0.61934973  1
  Na  Na67  1  0.60925865  0.41712067  0.86958333  1
  Na  Na68  1  0.60931013  0.74975850  0.11698455  1
  Na  Na69  1  0.60963945  0.75164781  0.36845169  1
  Na  Na70  1  0.61004642  0.75039187  0.61898052  1
  Na  Na71  1  0.60998494  0.74984210  0.86951668  1
  Na  Na72  1  0.39056606  0.24897338  0.13241451  1
  Na  Na73  1  0.39057292  0.24926668  0.38223527  1
  Na  Na74  1  0.39026175  0.24943792  0.63006756  1
  Na  Na75  1  0.38985083  0.25030797  0.88214288  1
  Na  Na76  1  0.39036552  0.58290817  0.13162144  1
  Na  Na77  1  0.39035128  0.58399233  0.38149059  1
  Na  Na78  1  0.39027008  0.58322956  0.63078117  1
  Na  Na79  1  0.39013181  0.58451333  0.88271661  1
  Na  Na80  1  0.39016082  0.91639017  0.13230427  1
  Na  Na81  1  0.39077493  0.91729392  0.38122976  1
  Na  Na82  1  0.39025549  0.91651253  0.62970664  1
  Na  Na83  1  0.39035598  0.91576471  0.88249725  1
  Na  Na84  1  0.89002019  0.24880129  0.13225830  1
  Na  Na85  1  0.89038374  0.24974726  0.38124074  1
  Na  Na86  1  0.89054982  0.25063070  0.62993342  1
  Na  Na87  1  0.89029097  0.25012331  0.88096612  1
  Na  Na88  1  0.89059540  0.58300798  0.13051522  1
  Na  Na89  1  0.89077845  0.58439327  0.38125830  1
  Na  Na90  1  0.89048517  0.58402438  0.63257615  1
  Na  Na91  1  0.89029379  0.58270081  0.88097259  1
  Na  Na92  1  0.88990262  0.91605707  0.13159802  1
  Na  Na93  1  0.89062083  0.91866666  0.38070569  1
  Na  Na94  1  0.89054551  0.91694150  0.63009126  1
  Na  Na95  1  0.88981776  0.91488560  0.88161193  1
  Mn  Mn96  1  -0.00025938  0.50032529  0.25042367  1
  Mn  Mn97  1  0.25024632  0.33368306  0.62488648  1
  Mn  Mn98  1  0.74996156  0.66758301  0.37408621  1
  Mn  Mn99  1  0.50025048  0.83374740  0.24946508  1
  Mn  Mn100  1  0.74888203  -0.00015599  0.62492094  1
  Mn  Mn101  1  0.00014640  0.66680716  0.74961003  1
  Mn  Mn102  1  0.74991909  0.83294553  0.62492371  1
  Mn  Mn103  1  0.75000335  0.16575816  0.87524143  1
  Mn  Mn104  1  0.24970272  0.16715221  0.62547182  1
  Mn  Mn105  1  0.75075079  0.66766469  0.12410870  1
  Mn  Mn106  1  0.75043872  0.49952581  0.12440739  1
  Mn  Mn107  1  0.49981585  -0.00030994  0.74959781  1
  Mn  Mn108  1  0.00032265  0.83368118  0.24982983  1
  Mn  Mn109  1  0.74971000  0.33345092  0.62477053  1
  Mn  Mn110  1  0.50015676  0.33372284  0.00085981  1
  Mn  Mn111  1  -0.00040852  0.49999274  0.00022934  1
  Mn  Mn112  1  0.00077759  0.83150520  0.00095990  1
  Mn  Mn113  1  0.50037356  0.16598181  0.00070195  1
  Mn  Mn114  1  0.00047273  0.50007668  0.50007699  1
  Mn  Mn115  1  0.00008789  0.16606062  0.00014086  1
  Mn  Mn116  1  0.00028265  0.16657655  0.25071848  1
  Mn  Mn117  1  0.74926107  0.33241448  0.37495040  1
  Mn  Mn118  1  0.00001315  -0.00116386  -0.00092837  1
  Mn  Mn119  1  0.25043387  0.00016915  0.87462985  1
  Mn  Mn120  1  0.25002176  0.50119753  0.62560190  1
  Mn  Mn121  1  -0.00058741  -0.00087356  0.74901989  1
  Mn  Mn122  1  0.25087566  0.16586824  0.12523979  1
  Mn  Mn123  1  0.24905274  -0.00067850  0.62493281  1
  Mn  Mn124  1  0.25029524  -0.00091145  0.37526795  1
  Mn  Mn125  1  0.50052428  0.49896256  0.50023808  1
  Mn  Mn126  1  -0.00088452  0.16749510  0.74841342  1
  Mn  Mn127  1  0.75028896  0.50029132  0.37498379  1
  Mn  Mn128  1  0.49917446  0.16698467  0.74955255  1
  Mn  Mn129  1  0.25030052  0.83257220  0.87484773  1
  Mn  Mn130  1  0.74954487  0.83466130  0.37499852  1
  Mn  Mn131  1  0.49948107  0.66682148  0.75050737  1
  Mn  Mn132  1  0.24921857  0.50077315  0.12554679  1
  Mn  Mn133  1  0.25048907  0.33317744  0.12603197  1
  Mn  Mn134  1  0.50004513  0.83351978  0.75052871  1
  Mn  Mn135  1  -0.00000160  0.33304632  -0.00005481  1
  Mn  Mn136  1  0.25035779  0.50067477  0.87543753  1
  Mn  Mn137  1  0.74951747  0.50132618  0.62574696  1
  Mn  Mn138  1  0.75009720  0.33335423  0.87485909  1
  Mn  Mn139  1  0.74903319  0.16611509  0.62466618  1
  Mn  Mn140  1  0.49999817  0.50009124  0.25030714  1
  Mn  Mn141  1  0.49978073  0.49913777  0.75055863  1
  Mn  Mn142  1  0.00044191  0.66820816  0.50102395  1
  Mn  Mn143  1  0.50061254  0.66748246  0.50030587  1
  Fe  Fe144  1  0.25050606  0.66721014  0.62405952  1
  Fe  Fe145  1  0.25034396  0.66722418  0.87493904  1
  Fe  Fe146  1  0.24945426  0.16654758  0.87574671  1
  Fe  Fe147  1  0.50044051  0.00008411  0.25036705  1
  Fe  Fe148  1  0.49937272  0.49984237  0.00058416  1
  Fe  Fe149  1  0.25013748  0.83280493  0.12490751  1
  Fe  Fe150  1  0.49941595  0.33279408  0.24983754  1
  Fe  Fe151  1  0.49929222  -0.00016751  0.00035676  1
  Fe  Fe152  1  -0.00002727  0.33334184  0.74948607  1
  Fe  Fe153  1  0.75015281  0.66693709  0.87545986  1
  Fe  Fe154  1  0.00017513  0.66720760  0.25037846  1
  Fe  Fe155  1  0.25005378  0.33357363  0.37523592  1
  Fe  Fe156  1  0.00080112  0.00028260  0.25060586  1
  Fe  Fe157  1  -0.00057853  0.33422687  0.50021187  1
  Fe  Fe158  1  0.75032052  -0.00029453  0.12481714  1
  Fe  Fe159  1  0.74998179  0.83332042  0.87527417  1
  Fe  Fe160  1  0.25036660  0.50087167  0.37526982  1
  Fe  Fe161  1  0.74935915  -0.00070059  0.87595168  1
  Fe  Fe162  1  0.25000343  -0.00051581  0.12576506  1
  Fe  Fe163  1  0.49968408  0.33251579  0.49928710  1
  Fe  Fe164  1  0.74938681  0.50023428  0.87527024  1
  Fe  Fe165  1  0.49995108  0.66632428  0.00042708  1
  Fe  Fe166  1  0.74993870  0.33282904  0.12511056  1
  Fe  Fe167  1  0.49982199  0.83306129  0.00094399  1
  Fe  Fe168  1  0.00013093  0.33323583  0.25045104  1
  Fe  Fe169  1  0.25003474  0.16605330  0.37514477  1
  Fe  Fe170  1  0.25016873  0.66714122  0.37466234  1
  Fe  Fe171  1  0.25049299  0.83259917  0.62414190  1
  Fe  Fe172  1  0.49943286  0.33273242  0.74993902  1
  Fe  Fe173  1  0.50033820  0.16670133  0.49909185  1
  Fe  Fe174  1  0.49977476  0.16614937  0.25051628  1
  Fe  Fe175  1  -0.00013318  0.83434271  0.49904416  1
  Fe  Fe176  1  0.49995038  0.83416993  0.49898194  1
  Fe  Fe177  1  0.00042424  0.83326760  0.74930852  1
  Fe  Fe178  1  0.74942656  0.83405370  0.12433948  1
  Fe  Fe179  1  0.24966962  0.33340428  0.87578112  1
  Fe  Fe180  1  0.50017015  0.00042396  0.49954712  1
  Fe  Fe181  1  0.75038658  0.16615972  0.37362679  1
  Fe  Fe182  1  0.25077601  0.83255507  0.37406802  1
  Fe  Fe183  1  0.75012900  0.00070120  0.37335023  1
  Fe  Fe184  1  0.00051636  0.16749418  0.49946766  1
  Fe  Fe185  1  0.00048789  0.00045758  0.50002096  1
  Fe  Fe186  1  0.75024220  0.16595746  0.12479347  1
  Fe  Fe187  1  0.00028757  0.49981901  0.75002014  1
  Fe  Fe188  1  0.75015784  0.66683658  0.62590532  1
  Fe  Fe189  1  0.00039147  0.66576653  -0.00064470  1
  Fe  Fe190  1  0.25066802  0.66671695  0.12560091  1
  Fe  Fe191  1  0.50042541  0.66681810  0.24970845  1
  P  P192  1  0.04292685  0.24971466  0.10388871  1
  P  P193  1  0.04202008  0.25160673  0.35359608  1
  P  P194  1  0.04148797  0.25116490  0.60128070  1
  P  P195  1  0.04192230  0.25076067  0.85185022  1
  P  P196  1  0.04240017  0.58453371  0.10299792  1
  P  P197  1  0.04253707  0.58528434  0.35269256  1
  P  P198  1  0.04305835  0.58320955  0.60374067  1
  P  P199  1  0.04228025  0.58214090  0.85245343  1
  P  P200  1  0.04294463  0.91642193  0.10365488  1
  P  P201  1  0.04250278  0.91833611  0.35314461  1
  P  P202  1  0.04173820  0.91642203  0.60126938  1
  P  P203  1  0.04240044  0.91469360  0.85190860  1
  P  P204  1  0.54239429  0.24950620  0.10443612  1
  P  P205  1  0.54097969  0.24991394  0.35173031  1
  P  P206  1  0.54119939  0.25001337  0.60117879  1
  P  P207  1  0.54198958  0.25096394  0.85250297  1
  P  P208  1  0.54142410  0.58295694  0.10201119  1
  P  P209  1  0.54254738  0.58480539  0.35231298  1
  P  P210  1  0.54286192  0.58279784  0.60341758  1
  P  P211  1  0.54194678  0.58324339  0.85458280  1
  P  P212  1  0.54095715  0.91710451  0.10207710  1
  P  P213  1  0.54225493  0.91821671  0.35283073  1
  P  P214  1  0.54168296  0.91681812  0.60088465  1
  P  P215  1  0.54202190  0.91675604  0.85454732  1
  P  P216  1  0.45877928  0.08237863  0.14870182  1
  P  P217  1  0.45907049  0.08334379  0.39754733  1
  P  P218  1  0.45706810  0.08319974  0.64558434  1
  P  P219  1  0.45719754  0.08232328  0.89797792  1
  P  P220  1  0.45732044  0.41592973  0.14792920  1
  P  P221  1  0.45794275  0.41507246  0.39709273  1
  P  P222  1  0.45738530  0.41449133  0.64729012  1
  P  P223  1  0.45717001  0.41760373  0.89788327  1
  P  P224  1  0.45852206  0.74856694  0.14671222  1
  P  P225  1  0.45814356  0.75153861  0.39681745  1
  P  P226  1  0.45767529  0.75085813  0.64639433  1
  P  P227  1  0.45846257  0.75008461  0.89936254  1
  P  P228  1  0.95812536  0.08172214  0.14803667  1
  P  P229  1  0.95942518  0.08349876  0.39819103  1
  P  P230  1  0.95721179  0.08329511  0.64513043  1
  P  P231  1  0.95661069  0.08293863  0.89639870  1
  P  P232  1  0.95754687  0.41540769  0.14805381  1
  P  P233  1  0.95774858  0.41588017  0.39729812  1
  P  P234  1  0.95844893  0.41658790  0.64811590  1
  P  P235  1  0.95732642  0.41674793  0.89595616  1
  P  P236  1  0.95814528  0.74821484  0.14735204  1
  P  P237  1  0.95806839  0.75172787  0.39709033  1
  P  P238  1  0.95777470  0.75211530  0.64700532  1
  P  P239  1  0.95824931  0.74829790  0.89715376  1
  P  P240  1  0.20862813  0.08201197  0.22843363  1
  P  P241  1  0.20772528  0.08396599  0.47734372  1
  P  P242  1  0.20659962  0.08354505  0.72851887  1
  P  P243  1  0.20777019  0.08366435  0.97815980  1
  P  P244  1  0.20773580  0.41711260  0.22970164  1
  P  P245  1  0.20891243  0.41766129  0.47648332  1
  P  P246  1  0.20771441  0.41687351  0.72892099  1
  P  P247  1  0.20755961  0.41614814  0.97775850  1
  P  P248  1  0.20926748  0.74978996  0.22713725  1
  P  P249  1  0.20919922  0.75028723  0.47656223  1
  P  P250  1  0.20860882  0.74967729  0.72614497  1
  P  P251  1  0.20815193  0.74868584  0.97824686  1
  P  P252  1  0.70918365  0.08300893  0.22667115  1
  P  P253  1  0.70838978  0.08349811  0.47531801  1
  P  P254  1  0.70600276  0.08259213  0.72862486  1
  P  P255  1  0.70792478  0.08155745  0.97871195  1
  P  P256  1  0.70751824  0.41510852  0.22721672  1
  P  P257  1  0.70672671  0.41713161  0.47801982  1
  P  P258  1  0.70716884  0.41733104  0.72884071  1
  P  P259  1  0.70788266  0.41725473  0.97790181  1
  P  P260  1  0.70739451  0.75205646  0.22650225  1
  P  P261  1  0.70714115  0.75020266  0.47830184  1
  P  P262  1  0.70789379  0.74875618  0.72873514  1
  P  P263  1  0.70882469  0.75053937  0.97695921  1
  P  P264  1  0.29289054  0.24997831  0.02171098  1
  P  P265  1  0.29148299  0.24950305  0.27420130  1
  P  P266  1  0.29202862  0.24999304  0.52086902  1
  P  P267  1  0.29110187  0.24985369  0.77420014  1
  P  P268  1  0.29211353  0.58494045  0.02274172  1
  P  P269  1  0.29153702  0.58394859  0.27346249  1
  P  P270  1  0.29236338  0.58470318  0.52154167  1
  P  P271  1  0.29265288  0.58551149  0.77243632  1
  P  P272  1  0.29131219  0.91667393  0.02379517  1
  P  P273  1  0.29244105  0.91483458  0.27167495  1
  P  P274  1  0.29178368  0.91495685  0.52172949  1
  P  P275  1  0.29286855  0.91588232  0.77133346  1
  P  P276  1  0.79156751  0.24973674  0.02358734  1
  P  P277  1  0.79204609  0.24837586  0.27134667  1
  P  P278  1  0.79207664  0.24927600  0.52098071  1
  P  P279  1  0.79268421  0.24940835  0.77177457  1
  P  P280  1  0.79255756  0.58355439  0.02056614  1
  P  P281  1  0.79314374  0.58348728  0.27134579  1
  P  P282  1  0.79278281  0.58516863  0.52298178  1
  P  P283  1  0.79133120  0.58393664  0.77372613  1
  P  P284  1  0.79147325  0.91647941  0.02264511  1
  P  P285  1  0.79203996  0.91822613  0.27129604  1
  P  P286  1  0.79223351  0.91744097  0.52122420  1
  P  P287  1  0.79092875  0.91665768  0.77377659  1
  O  O288  1  0.03785585  0.25006074  0.18391568  1
  O  O289  1  0.03651581  0.25156552  0.43346296  1
  O  O290  1  0.03644829  0.25122210  0.68126943  1
  O  O291  1  0.03694003  0.25013114  0.93186326  1
  O  O292  1  0.03699566  0.58466025  0.18296792  1
  O  O293  1  0.03744761  0.58516105  0.43268848  1
  O  O294  1  0.03769646  0.58257742  0.68369002  1
  O  O295  1  0.03700470  0.58267292  0.93243313  1
  O  O296  1  0.03784113  0.91710332  0.18363428  1
  O  O297  1  0.03695724  0.91810577  0.43303066  1
  O  O298  1  0.03651102  0.91569024  0.68125781  1
  O  O299  1  0.03754475  0.91459377  0.93193450  1
  O  O300  1  0.53684432  0.24948534  0.18431309  1
  O  O301  1  0.53614492  0.24976171  0.43169389  1
  O  O302  1  0.53625701  0.24993970  0.68116452  1
  O  O303  1  0.53721951  0.25077354  0.93250795  1
  O  O304  1  0.53661738  0.58366824  0.18205649  1
  O  O305  1  0.53751147  0.58454174  0.43227155  1
  O  O306  1  0.53737212  0.58266642  0.68338158  1
  O  O307  1  0.53649465  0.58314690  0.93453754  1
  O  O308  1  0.53633013  0.91724918  0.18210783  1
  O  O309  1  0.53666832  0.91795916  0.43268575  1
  O  O310  1  0.53667370  0.91683977  0.68092418  1
  O  O311  1  0.53647608  0.91668851  0.93444676  1
  O  O312  1  0.46348814  0.08229918  0.06871355  1
  O  O313  1  0.46395277  0.08347870  0.31760954  1
  O  O314  1  0.46260535  0.08321648  0.56566650  1
  O  O315  1  0.46201535  0.08280227  0.81795265  1
  O  O316  1  0.46261111  0.41683068  0.06797325  1
  O  O317  1  0.46312361  0.41512082  0.31715177  1
  O  O318  1  0.46283259  0.41446121  0.56731364  1
  O  O319  1  0.46225826  0.41683710  0.81792272  1
  O  O320  1  0.46396296  0.74855610  0.06680293  1
  O  O321  1  0.46347137  0.75088445  0.31685145  1
  O  O322  1  0.46302660  0.75150215  0.56643942  1
  O  O323  1  0.46285140  0.75032229  0.81928559  1
  O  O324  1  0.96292255  0.08197920  0.06803574  1
  O  O325  1  0.96455050  0.08309903  0.31819548  1
  O  O326  1  0.96306103  0.08330415  0.56525477  1
  O  O327  1  0.96118732  0.08313575  0.81634204  1
  O  O328  1  0.96276127  0.41574980  0.06806497  1
  O  O329  1  0.96294393  0.41577536  0.31734844  1
  O  O330  1  0.96340241  0.41648702  0.56806808  1
  O  O331  1  0.96262019  0.41692509  0.81600665  1
  O  O332  1  0.96339897  0.74768478  0.06739600  1
  O  O333  1  0.96346793  0.75081659  0.31713321  1
  O  O334  1  0.96284032  0.75258510  0.56701853  1
  O  O335  1  0.96324577  0.74920490  0.81721360  1
  O  O336  1  0.21337079  0.08277377  0.05814849  1
  O  O337  1  0.21405069  0.08263139  0.30839799  1
  O  O338  1  0.21233561  0.08378484  0.55735396  1
  O  O339  1  0.21184010  0.08393972  0.80852701  1
  O  O340  1  0.21238759  0.41631567  0.05780164  1
  O  O341  1  0.21328551  0.41746762  0.30958781  1
  O  O342  1  0.21371241  0.41748995  0.55653322  1
  O  O343  1  0.21302477  0.41637157  0.80888355  1
  O  O344  1  0.21362487  0.74876605  0.05810378  1
  O  O345  1  0.21408658  0.75027598  0.30703307  1
  O  O346  1  0.21419658  0.75014166  0.55648348  1
  O  O347  1  0.21361573  0.74954267  0.80616351  1
  O  O348  1  0.71366704  0.08165351  0.05859325  1
  O  O349  1  0.71408469  0.08334371  0.30662536  1
  O  O350  1  0.71250516  0.08332411  0.55539645  1
  O  O351  1  0.71105786  0.08228047  0.80859933  1
  O  O352  1  0.71322829  0.41629188  0.05787116  1
  O  O353  1  0.71260389  0.41541857  0.30722632  1
  O  O354  1  0.71166425  0.41720213  0.55804682  1
  O  O355  1  0.71254816  0.41777617  0.80882139  1
  O  O356  1  0.71361751  0.75136349  0.05692838  1
  O  O357  1  0.71229379  0.75189358  0.30650483  1
  O  O358  1  0.71229417  0.74960523  0.55830226  1
  O  O359  1  0.71345604  0.74906862  0.80865203  1
  O  O360  1  0.28711177  0.24956510  0.19414814  1
  O  O361  1  0.28668818  0.24964509  0.44097769  1
  O  O362  1  0.28613764  0.25013872  0.69414337  1
  O  O363  1  0.28737200  0.25001266  0.94181365  1
  O  O364  1  0.28654037  0.58428987  0.19348717  1
  O  O365  1  0.28687969  0.58402380  0.44166544  1
  O  O366  1  0.28732527  0.58559160  0.69244872  1
  O  O367  1  0.28715307  0.58510532  0.94275971  1
  O  O368  1  0.28671497  0.91552548  0.19180875  1
  O  O369  1  0.28656845  0.91487784  0.44175832  1
  O  O370  1  0.28750229  0.91528259  0.69137255  1
  O  O371  1  0.28677878  0.91647992  0.94375097  1
  O  O372  1  0.78675671  0.24887157  0.19144492  1
  O  O373  1  0.78697683  0.24886292  0.44095190  1
  O  O374  1  0.78743347  0.24950791  0.69179321  1
  O  O375  1  0.78678889  0.24950378  0.94356843  1
  O  O376  1  0.78827115  0.58331400  0.19132590  1
  O  O377  1  0.78796354  0.58466914  0.44293605  1
  O  O378  1  0.78621789  0.58459263  0.69370975  1
  O  O379  1  0.78680019  0.58338526  0.94067999  1
  O  O380  1  0.78689576  0.91798636  0.19137246  1
  O  O381  1  0.78725863  0.91808544  0.44124056  1
  O  O382  1  0.78602273  0.91618440  0.69378701  1
  O  O383  1  0.78620783  0.91641435  0.94273325  1
  O  O384  1  0.22872413  0.24962211  0.05753473  1
  O  O385  1  0.22721791  0.24924258  0.30956491  1
  O  O386  1  0.22781192  0.25036819  0.55659075  1
  O  O387  1  0.22695275  0.24948785  0.81010672  1
  O  O388  1  0.22781284  0.58543384  0.05834730  1
  O  O389  1  0.22742001  0.58341620  0.30940759  1
  O  O390  1  0.22828830  0.58533128  0.55788333  1
  O  O391  1  0.22843521  0.58534276  0.80833265  1
  O  O392  1  0.22715730  0.91716429  0.05947842  1
  O  O393  1  0.22842229  0.91469081  0.30806328  1
  O  O394  1  0.22762135  0.91451551  0.55768086  1
  O  O395  1  0.22857541  0.91617091  0.80675567  1
  O  O396  1  0.72739221  0.25023734  0.05931992  1
  O  O397  1  0.72783113  0.24772851  0.30730936  1
  O  O398  1  0.72765834  0.24980370  0.55612788  1
  O  O399  1  0.72830464  0.24947407  0.80692113  1
  O  O400  1  0.72847287  0.58367453  0.05658383  1
  O  O401  1  0.72858264  0.58353357  0.30605597  1
  O  O402  1  0.72829439  0.58577498  0.55815600  1
  O  O403  1  0.72729179  0.58413498  0.80997882  1
  O  O404  1  0.72737098  0.91679854  0.05901141  1
  O  O405  1  0.72778472  0.91865785  0.30706821  1
  O  O406  1  0.72783882  0.91654297  0.55639245  1
  O  O407  1  0.72681170  0.91719252  0.80968463  1
  O  O408  1  0.27280660  0.08138807  0.19257568  1
  O  O409  1  0.27217077  0.08377142  0.44225703  1
  O  O410  1  0.27095294  0.08299947  0.69328072  1
  O  O411  1  0.27192609  0.08466673  0.94210517  1
  O  O412  1  0.27184899  0.41748213  0.19370233  1
  O  O413  1  0.27306279  0.41792192  0.44071532  1
  O  O414  1  0.27195877  0.41723098  0.69335913  1
  O  O415  1  0.27191344  0.41603698  0.94246238  1
  O  O416  1  0.27328385  0.74935033  0.19085303  1
  O  O417  1  0.27326084  0.75039428  0.44032370  1
  O  O418  1  0.27278289  0.74976442  0.69006602  1
  O  O419  1  0.27234278  0.74839035  0.94208778  1
  O  O420  1  0.77320673  0.08234356  0.19053613  1
  O  O421  1  0.77278542  0.08386153  0.44004375  1
  O  O422  1  0.77047263  0.08284385  0.69357169  1
  O  O423  1  0.77190670  0.08116617  0.94221800  1
  O  O424  1  0.77187067  0.41469183  0.19177500  1
  O  O425  1  0.77125569  0.41651375  0.44322479  1
  O  O426  1  0.77143716  0.41718857  0.69333242  1
  O  O427  1  0.77201514  0.41764000  0.94203224  1
  O  O428  1  0.77184605  0.75252804  0.19131415  1
  O  O429  1  0.77148084  0.75070768  0.44295694  1
  O  O430  1  0.77199613  0.74852937  0.69237232  1
  O  O431  1  0.77290450  0.74981002  0.94099725  1
  O  O432  1  0.02250098  0.08194622  0.18340861  1
  O  O433  1  0.02340970  0.08310416  0.43435562  1
  O  O434  1  0.02124837  0.08317578  0.68127998  1
  O  O435  1  0.02125519  0.08284407  0.93097134  1
  O  O436  1  0.02181440  0.41552332  0.18369712  1
  O  O437  1  0.02205749  0.41553769  0.43294203  1
  O  O438  1  0.02262504  0.41626680  0.68407601  1
  O  O439  1  0.02155788  0.41667252  0.93165173  1
  O  O440  1  0.02238878  0.74847020  0.18313246  1
  O  O441  1  0.02228232  0.75226948  0.43299915  1
  O  O442  1  0.02216085  0.75157048  0.68242106  1
  O  O443  1  0.02257431  0.74765947  0.93279891  1
  O  O444  1  0.52301170  0.08235119  0.18444692  1
  O  O445  1  0.52312013  0.08278705  0.43373418  1
  O  O446  1  0.52121269  0.08356877  0.68151744  1
  O  O447  1  0.52162428  0.08141315  0.93326135  1
  O  O448  1  0.52158102  0.41538640  0.18359560  1
  O  O449  1  0.52218230  0.41459373  0.43283222  1
  O  O450  1  0.52158128  0.41441313  0.68325699  1
  O  O451  1  0.52146886  0.41847497  0.93358863  1
  O  O452  1  0.52256982  0.74865414  0.18297931  1
  O  O453  1  0.52231162  0.75216846  0.43271986  1
  O  O454  1  0.52189932  0.75025273  0.68199426  1
  O  O455  1  0.52274801  0.75000602  0.93471234  1
  O  O456  1  0.47828021  0.24963241  0.06853295  1
  O  O457  1  0.47685312  0.25022864  0.31569765  1
  O  O458  1  0.47710766  0.25003421  0.56510722  1
  O  O459  1  0.47753929  0.25120873  0.81720260  1
  O  O460  1  0.47721576  0.58268277  0.06618792  1
  O  O461  1  0.47818100  0.58491575  0.31688860  1
  O  O462  1  0.47861168  0.58301599  0.56798916  1
  O  O463  1  0.47782030  0.58312818  0.81860745  1
  O  O464  1  0.47674913  0.91727156  0.06638120  1
  O  O465  1  0.47817222  0.91836353  0.31659050  1
  O  O466  1  0.47751280  0.91700093  0.56494474  1
  O  O467  1  0.47785656  0.91670697  0.81865290  1
  O  O468  1  0.97850109  0.24956340  0.06876110  1
  O  O469  1  0.97800450  0.25153719  0.31716260  1
  O  O470  1  0.97734580  0.25133515  0.56537486  1
  O  O471  1  0.97759843  0.25168802  0.81632931  1
  O  O472  1  0.97819153  0.58495902  0.06704796  1
  O  O473  1  0.97821609  0.58528626  0.31720094  1
  O  O474  1  0.97874128  0.58369192  0.56841860  1
  O  O475  1  0.97812636  0.58205276  0.81653519  1
  O  O476  1  0.97861494  0.91572277  0.06834972  1
  O  O477  1  0.97841794  0.91859036  0.31689505  1
  O  O478  1  0.97762311  0.91685913  0.56512592  1
  O  O479  1  0.97793553  0.91448006  0.81671571  1
  O  O480  1  0.07413078  0.31292205  0.07537187  1
  O  O481  1  0.07282937  0.31495103  0.32473548  1
  O  O482  1  0.07278774  0.31442890  0.57296533  1
  O  O483  1  0.07298942  0.31419864  0.82380448  1
  O  O484  1  0.07363416  0.64746727  0.07398507  1
  O  O485  1  0.07317340  0.64884916  0.32432299  1
  O  O486  1  0.07413200  0.64688760  0.57608631  1
  O  O487  1  0.07364247  0.64549170  0.82442263  1
  O  O488  1  0.07386403  0.97956118  0.07466489  1
  O  O489  1  0.07354385  0.98166868  0.32456239  1
  O  O490  1  0.07266855  0.98031644  0.57384220  1
  O  O491  1  0.07311359  0.97845442  0.82399339  1
  O  O492  1  0.57371160  0.31276440  0.07606574  1
  O  O493  1  0.57224096  0.31319054  0.32328956  1
  O  O494  1  0.57241702  0.31334052  0.57293408  1
  O  O495  1  0.57257869  0.31451612  0.82396792  1
  O  O496  1  0.57223309  0.64642892  0.07328110  1
  O  O497  1  0.57314544  0.64834752  0.32374958  1
  O  O498  1  0.57411759  0.64619259  0.57558168  1
  O  O499  1  0.57292324  0.64682135  0.82637518  1
  O  O500  1  0.57214882  0.98029458  0.07360715  1
  O  O501  1  0.57318174  0.98161710  0.32419773  1
  O  O502  1  0.57254946  0.98051616  0.57286807  1
  O  O503  1  0.57315274  0.97996211  0.82580882  1
  O  O504  1  0.42766654  0.01908065  0.17720585  1
  O  O505  1  0.42753316  0.02011331  0.42580942  1
  O  O506  1  0.42610441  0.01971570  0.67394420  1
  O  O507  1  0.42600829  0.01907717  0.92635837  1
  O  O508  1  0.42649907  0.35227621  0.17601450  1
  O  O509  1  0.42668446  0.35202253  0.42577856  1
  O  O510  1  0.42660108  0.35112764  0.67616291  1
  O  O511  1  0.42649663  0.35399287  0.92623006  1
  O  O512  1  0.42775622  0.68519728  0.17565593  1
  O  O513  1  0.42720063  0.68803803  0.42500613  1
  O  O514  1  0.42651684  0.68724630  0.67417777  1
  O  O515  1  0.42772857  0.68639364  0.92742567  1
  O  O516  1  0.92778303  0.01806816  0.17661327  1
  O  O517  1  0.92778455  0.02047856  0.42648327  1
  O  O518  1  0.92584940  0.01999801  0.67349612  1
  O  O519  1  0.92595667  0.01928062  0.92459880  1
  O  O520  1  0.92707133  0.35173889  0.17635690  1
  O  O521  1  0.92647414  0.35288248  0.42615504  1
  O  O522  1  0.92727032  0.35317858  0.67627845  1
  O  O523  1  0.92608347  0.35342179  0.92439482  1
  O  O524  1  0.92714269  0.68517435  0.17645344  1
  O  O525  1  0.92699699  0.68841061  0.42559794  1
  O  O526  1  0.92668902  0.68838461  0.67456190  1
  O  O527  1  0.92754160  0.68462860  0.92526873  1
  O  O528  1  0.17771894  0.01846186  0.20028953  1
  O  O529  1  0.17667896  0.02042945  0.44952689  1
  O  O530  1  0.17550662  0.02004610  0.70039832  1
  O  O531  1  0.17695660  0.02011342  0.94988940  1
  O  O532  1  0.17689556  0.35346546  0.20165049  1
  O  O533  1  0.17863078  0.35370932  0.44817486  1
  O  O534  1  0.17661717  0.35368560  0.70025097  1
  O  O535  1  0.17698392  0.35258245  0.94922779  1
  O  O536  1  0.17805706  0.68631119  0.19911485  1
  O  O537  1  0.17852720  0.68661462  0.44789504  1
  O  O538  1  0.17773314  0.68622130  0.69776893  1
  O  O539  1  0.17716144  0.68555984  0.94915722  1
  O  O540  1  0.67757925  0.01984832  0.19849623  1
  O  O541  1  0.67821186  0.01963952  0.44678782  1
  O  O542  1  0.67507975  0.01928109  0.69992035  1
  O  O543  1  0.67678499  0.01833810  0.95009146  1
  O  O544  1  0.67671158  0.35161712  0.19898762  1
  O  O545  1  0.67536541  0.35393383  0.44983939  1
  O  O546  1  0.67625405  0.35366652  0.70094922  1
  O  O547  1  0.67650048  0.35393631  0.94979746  1
  O  O548  1  0.67687463  0.68820239  0.19857717  1
  O  O549  1  0.67617782  0.68700624  0.44946014  1
  O  O550  1  0.67691576  0.68543369  0.70013238  1
  O  O551  1  0.67761948  0.68693657  0.94939553  1
  O  O552  1  0.32385292  0.31337393  0.05030713  1
  O  O553  1  0.32168287  0.31349555  0.30245145  1
  O  O554  1  0.32328415  0.31337435  0.54914436  1
  O  O555  1  0.32153215  0.31374355  0.80230268  1
  O  O556  1  0.32342847  0.64778271  0.05183070  1
  O  O557  1  0.32206542  0.64766670  0.30189884  1
  O  O558  1  0.32353248  0.64806595  0.54976834  1
  O  O559  1  0.32342550  0.64884009  0.80117370  1
  O  O560  1  0.32247866  0.98006102  0.05187575  1
  O  O561  1  0.32371497  0.97814971  0.30009153  1
  O  O562  1  0.32228320  0.97901371  0.54928263  1
  O  O563  1  0.32390102  0.97948469  0.79919923  1
  O  O564  1  0.82271568  0.31319780  0.05151296  1
  O  O565  1  0.82287285  0.31188120  0.29984491  1
  O  O566  1  0.82317190  0.31281773  0.54897829  1
  O  O567  1  0.82373429  0.31281632  0.79986507  1
  O  O568  1  0.82380415  0.64697069  0.04868193  1
  O  O569  1  0.82390118  0.64713825  0.29932161  1
  O  O570  1  0.82361726  0.64852312  0.55150899  1
  O  O571  1  0.82278731  0.64709299  0.80205301  1
  O  O572  1  0.82275892  0.97974145  0.05105681  1
  O  O573  1  0.82299225  0.98154220  0.30017610  1
  O  O574  1  0.82287558  0.98082962  0.55000308  1
  O  O575  1  0.82210854  0.98007383  0.80164671  1
  O  O576  1  0.42830660  0.14628499  0.17719288  1
  O  O577  1  0.42876546  0.14724792  0.42629105  1
  O  O578  1  0.42555603  0.14642040  0.67407077  1
  O  O579  1  0.42693927  0.14624158  0.92626715  1
  O  O580  1  0.42618148  0.47935060  0.17627868  1
  O  O581  1  0.42742651  0.47917987  0.42481562  1
  O  O582  1  0.42628189  0.47826270  0.67488685  1
  O  O583  1  0.42612036  0.48107654  0.92619564  1
  O  O584  1  0.42721340  0.81221166  0.17433652  1
  O  O585  1  0.42727720  0.81523559  0.42482897  1
  O  O586  1  0.42661684  0.81410989  0.67510180  1
  O  O587  1  0.42771239  0.81373234  0.92789124  1
  O  O588  1  0.92690388  0.14520226  0.17603527  1
  O  O589  1  0.92929816  0.14787809  0.42593610  1
  O  O590  1  0.92589350  0.14674448  0.67318960  1
  O  O591  1  0.92581882  0.14635909  0.92511981  1
  O  O592  1  0.92631408  0.47905166  0.17562839  1
  O  O593  1  0.92714845  0.47995805  0.42499460  1
  O  O594  1  0.92808959  0.48064005  0.67625839  1
  O  O595  1  0.92618682  0.48004420  0.92471861  1
  O  O596  1  0.92716632  0.81221281  0.17462831  1
  O  O597  1  0.92716003  0.81555975  0.42471099  1
  O  O598  1  0.92713567  0.81540395  0.67623041  1
  O  O599  1  0.92724019  0.81168103  0.92580013  1
  O  O600  1  0.07379439  0.18600235  0.07578405  1
  O  O601  1  0.07336687  0.18797564  0.32587373  1
  O  O602  1  0.07182035  0.18706507  0.57303037  1
  O  O603  1  0.07247476  0.18698815  0.82366567  1
  O  O604  1  0.07301156  0.52037576  0.07552460  1
  O  O605  1  0.07351508  0.52155694  0.32506307  1
  O  O606  1  0.07421119  0.52001800  0.57501129  1
  O  O607  1  0.07295712  0.51846752  0.82415922  1
  O  O608  1  0.07417482  0.85272210  0.07613188  1
  O  O609  1  0.07365563  0.85474982  0.32503965  1
  O  O610  1  0.07262012  0.85304583  0.57244312  1
  O  O611  1  0.07327911  0.85124529  0.82334680  1
  O  O612  1  0.57356921  0.18608045  0.07604037  1
  O  O613  1  0.57137226  0.18593340  0.32315410  1
  O  O614  1  0.57172231  0.18614626  0.57256376  1
  O  O615  1  0.57280190  0.18723006  0.82455770  1
  O  O616  1  0.57213396  0.51901931  0.07429167  1
  O  O617  1  0.57359041  0.52110606  0.32455131  1
  O  O618  1  0.57376990  0.51918602  0.57536020  1
  O  O619  1  0.57339647  0.52005621  0.82618355  1
  O  O620  1  0.57123139  0.85292324  0.07398139  1
  O  O621  1  0.57353373  0.85480966  0.32457038  1
  O  O622  1  0.57240112  0.85305756  0.57290373  1
  O  O623  1  0.57325792  0.85330328  0.82619182  1
  O  O624  1  0.32444055  0.18672375  0.05019146  1
  O  O625  1  0.32255607  0.18584721  0.30211249  1
  O  O626  1  0.32314173  0.18666759  0.54962603  1
  O  O627  1  0.32209890  0.18612487  0.80196987  1
  O  O628  1  0.32253778  0.52080359  0.05052079  1
  O  O629  1  0.32285750  0.52048041  0.30153406  1
  O  O630  1  0.32331814  0.52113338  0.55012024  1
  O  O631  1  0.32373410  0.52175056  0.80015171  1
  O  O632  1  0.32151187  0.85256172  0.05203204  1
  O  O633  1  0.32346525  0.85126771  0.29984115  1
  O  O634  1  0.32315026  0.85184500  0.55026159  1
  O  O635  1  0.32411401  0.85274402  0.80022023  1
  O  O636  1  0.82180670  0.18562619  0.05181370  1
  O  O637  1  0.82331246  0.18502165  0.29986150  1
  O  O638  1  0.82304635  0.18592202  0.54949658  1
  O  O639  1  0.82369639  0.18589425  0.79990529  1
  O  O640  1  0.82397529  0.52027088  0.04891828  1
  O  O641  1  0.82407552  0.52001444  0.29974423  1
  O  O642  1  0.82344415  0.52134819  0.55119940  1
  O  O643  1  0.82166169  0.51965409  0.80130146  1
  O  O644  1  0.82212216  0.85263637  0.05105485  1
  O  O645  1  0.82311838  0.85470139  0.29959097  1
  O  O646  1  0.82360551  0.85405912  0.54933688  1
  O  O647  1  0.82126954  0.85264698  0.80219109  1
  O  O648  1  0.17749416  0.14554475  0.20040475  1
  O  O649  1  0.17723703  0.14761993  0.44873150  1
  O  O650  1  0.17551141  0.14689387  0.70000854  1
  O  O651  1  0.17659113  0.14723227  0.95022163  1
  O  O652  1  0.17613753  0.48026000  0.20112068  1
  O  O653  1  0.17761327  0.48117115  0.44871589  1
  O  O654  1  0.17664907  0.48053624  0.70105587  1
  O  O655  1  0.17655003  0.47985944  0.94998384  1
  O  O656  1  0.17874120  0.81351147  0.19811610  1
  O  O657  1  0.17805613  0.81367622  0.44799418  1
  O  O658  1  0.17792076  0.81350490  0.69794117  1
  O  O659  1  0.17714213  0.81242799  0.95017792  1
  O  O660  1  0.67886492  0.14692031  0.19785080  1
  O  O661  1  0.67746402  0.14704804  0.44697449  1
  O  O662  1  0.67501591  0.14610062  0.70011140  1
  O  O663  1  0.67684950  0.14539083  0.95103501  1
  O  O664  1  0.67667399  0.47891211  0.19941861  1
  O  O665  1  0.67623769  0.48090168  0.44970921  1
  O  O666  1  0.67580058  0.48058252  0.70055749  1
  O  O667  1  0.67719664  0.48109714  0.94986804  1
  O  O668  1  0.67633385  0.81541448  0.19801427  1
  O  O669  1  0.67598295  0.81378210  0.45034702  1
  O  O670  1  0.67674360  0.81242661  0.70067794  1
  O  O671  1  0.67834540  0.81424826  0.94813500  1
