# generated using pymatgen
data_Na2MnFe(PO4)2
_symmetry_space_group_name_H-M   'P 1'
_cell_length_a   22.34623554
_cell_length_b   20.09736041
_cell_length_c   19.44828862
_cell_angle_alpha   89.96110398
_cell_angle_beta   90.00339687
_cell_angle_gamma   89.98780693
_symmetry_Int_Tables_number   1
_chemical_formula_structural   Na2MnFe(PO4)2
_chemical_formula_sum   'Na96 Mn48 Fe48 P96 O384'
_cell_volume   8734.23098883
_cell_formula_units_Z   48
loop_
 _symmetry_equiv_pos_site_id
 _symmetry_equiv_pos_as_xyz
  1  'x, y, z'
loop_
 _atom_site_type_symbol
 _atom_site_label
 _atom_site_symmetry_multiplicity
 _atom_site_fract_x
 _atom_site_fract_y
 _atom_site_fract_z
 _atom_site_occupancy
  Na  Na0  1  0.13917632  0.25000216  0.24448258  1
  Na  Na1  1  0.13969860  0.25046948  0.49281611  1
  Na  Na2  1  0.13996487  0.24882959  0.74173529  1
  Na  Na3  1  0.13962097  0.24917189  0.99364260  1
  Na  Na4  1  0.14014152  0.58334548  0.24326205  1
  Na  Na5  1  0.14053513  0.58340326  0.49192852  1
  Na  Na6  1  0.13983078  0.58272702  0.74286507  1
  Na  Na7  1  0.13960742  0.58413850  0.99262377  1
  Na  Na8  1  0.14008766  0.91579043  0.24390202  1
  Na  Na9  1  0.14054152  0.91686863  0.49352432  1
  Na  Na10  1  0.14051896  0.91680091  0.74357141  1
  Na  Na11  1  0.14044660  0.91559689  0.99389983  1
  Na  Na12  1  0.64005705  0.24997280  0.24475720  1
  Na  Na13  1  0.64025267  0.24992694  0.49506645  1
  Na  Na14  1  0.64058025  0.25095453  0.74394741  1
  Na  Na15  1  0.64012449  0.25060730  0.99334564  1
  Na  Na16  1  0.64047060  0.58537664  0.24325053  1
  Na  Na17  1  0.64131637  0.58306667  0.49333067  1
  Na  Na18  1  0.64081153  0.58280654  0.74414297  1
  Na  Na19  1  0.64065494  0.58484909  0.99378535  1
  Na  Na20  1  0.64115768  0.91657446  0.24345191  1
  Na  Na21  1  0.64106732  0.91691899  0.49370530  1
  Na  Na22  1  0.64056832  0.91776451  0.74472626  1
  Na  Na23  1  0.64063105  0.91800254  0.99422518  1
  Na  Na24  1  0.35953300  0.08087984  0.00594862  1
  Na  Na25  1  0.35969926  0.08306910  0.25710250  1
  Na  Na26  1  0.35889810  0.08450903  0.50642051  1
  Na  Na27  1  0.35951215  0.08195507  0.75661848  1
  Na  Na28  1  0.35956249  0.41661436  0.00601319  1
  Na  Na29  1  0.35854332  0.41645505  0.25669164  1
  Na  Na30  1  0.35901193  0.41576615  0.50546321  1
  Na  Na31  1  0.35945885  0.41497025  0.75543129  1
  Na  Na32  1  0.35951252  0.74986039  0.00661488  1
  Na  Na33  1  0.35925737  0.74889240  0.25566357  1
  Na  Na34  1  0.35962353  0.75068663  0.50441404  1
  Na  Na35  1  0.35947862  0.75045839  0.75621207  1
  Na  Na36  1  0.85958441  0.08346249  0.00624383  1
  Na  Na37  1  0.86001199  0.08380464  0.25850891  1
  Na  Na38  1  0.85986150  0.08529798  0.50656016  1
  Na  Na39  1  0.85995920  0.08463879  0.75665454  1
  Na  Na40  1  0.86028302  0.41695337  0.00714543  1
  Na  Na41  1  0.85995844  0.41682856  0.25761528  1
  Na  Na42  1  0.85934160  0.41552963  0.50691659  1
  Na  Na43  1  0.86002458  0.41647164  0.75659094  1
  Na  Na44  1  0.86004397  0.75007681  0.00605354  1
  Na  Na45  1  0.85962502  0.74985106  0.25613824  1
  Na  Na46  1  0.86069846  0.74918882  0.50638433  1
  Na  Na47  1  0.86071092  0.74977448  0.75633611  1
  Na  Na48  1  0.10895536  0.08399973  0.11990812  1
  Na  Na49  1  0.10896137  0.08503700  0.36877301  1
  Na  Na50  1  0.10970361  0.08392803  0.61780463  1
  Na  Na51  1  0.10966704  0.08181925  0.86750125  1
  Na  Na52  1  0.10872752  0.41718904  0.11950496  1
  Na  Na53  1  0.10943566  0.41526032  0.36757212  1
  Na  Na54  1  0.10933896  0.41677985  0.61722477  1
  Na  Na55  1  0.10899506  0.41627029  0.86867536  1
  Na  Na56  1  0.10999158  0.74904656  0.11781914  1
  Na  Na57  1  0.11016696  0.74983339  0.36756710  1
  Na  Na58  1  0.10959408  0.74999004  0.61845484  1
  Na  Na59  1  0.10959766  0.74875927  0.86834613  1
  Na  Na60  1  0.60947481  0.08475004  0.11985864  1
  Na  Na61  1  0.60982181  0.08402221  0.36895919  1
  Na  Na62  1  0.61015709  0.08409949  0.62040863  1
  Na  Na63  1  0.60944927  0.08426116  0.86864403  1
  Na  Na64  1  0.60914645  0.41740984  0.11919559  1
  Na  Na65  1  0.60968672  0.41639425  0.36877224  1
  Na  Na66  1  0.61039590  0.41559969  0.61894859  1
  Na  Na67  1  0.60959662  0.41503645  0.86875844  1
  Na  Na68  1  0.61061298  0.75078815  0.11839178  1
  Na  Na69  1  0.61074400  0.75113395  0.36726413  1
  Na  Na70  1  0.60994943  0.75042335  0.61898636  1
  Na  Na71  1  0.60992268  0.75081687  0.86986243  1
  Na  Na72  1  0.39036179  0.24945317  0.13116988  1
  Na  Na73  1  0.38923797  0.24925206  0.38155337  1
  Na  Na74  1  0.38953646  0.24902699  0.63207881  1
  Na  Na75  1  0.39001489  0.24894365  0.87996254  1
  Na  Na76  1  0.39006166  0.58421219  0.13095949  1
  Na  Na77  1  0.38971573  0.58423784  0.38056336  1
  Na  Na78  1  0.39052523  0.58253988  0.62989167  1
  Na  Na79  1  0.39080418  0.58224282  0.88119001  1
  Na  Na80  1  0.39029806  0.91640176  0.13111537  1
  Na  Na81  1  0.39031985  0.91668682  0.38042743  1
  Na  Na82  1  0.39002431  0.91750508  0.63174344  1
  Na  Na83  1  0.38976164  0.91627043  0.88178368  1
  Na  Na84  1  0.89072213  0.25061222  0.13216753  1
  Na  Na85  1  0.88976066  0.25046255  0.38280831  1
  Na  Na86  1  0.88965047  0.25105977  0.63175147  1
  Na  Na87  1  0.89022781  0.25040432  0.88119106  1
  Na  Na88  1  0.89055247  0.58299707  0.13123074  1
  Na  Na89  1  0.89072131  0.58306327  0.38172759  1
  Na  Na90  1  0.89112974  0.58406556  0.63122023  1
  Na  Na91  1  0.89133163  0.58225043  0.88109104  1
  Na  Na92  1  0.89038289  0.91688971  0.13185782  1
  Na  Na93  1  0.89090838  0.91664578  0.38196273  1
  Na  Na94  1  0.89125418  0.91596349  0.63152830  1
  Na  Na95  1  0.89074942  0.91475533  0.88126961  1
  Mn  Mn96  1  0.50064638  0.66699081  0.49999676  1
  Mn  Mn97  1  0.24911405  -0.00161667  0.12592110  1
  Mn  Mn98  1  -0.00029666  -0.00018267  -0.00020145  1
  Mn  Mn99  1  0.74936226  0.50104063  0.12603623  1
  Mn  Mn100  1  -0.00003573  -0.00051806  0.74903995  1
  Mn  Mn101  1  0.50019144  0.83376361  0.00047441  1
  Mn  Mn102  1  0.50051869  0.66650204  0.74990887  1
  Mn  Mn103  1  0.49933433  0.16616716  0.50072533  1
  Mn  Mn104  1  0.00026587  0.33332485  0.75005042  1
  Mn  Mn105  1  0.75126409  0.00122437  0.62481246  1
  Mn  Mn106  1  0.00011669  0.50016514  0.49986300  1
  Mn  Mn107  1  0.49998169  0.49974884  -0.00007760  1
  Mn  Mn108  1  0.75078407  0.16713092  0.12562934  1
  Mn  Mn109  1  0.75028960  0.33348212  0.12570885  1
  Mn  Mn110  1  0.49876863  0.33293850  0.24965471  1
  Mn  Mn111  1  0.50097628  0.49858732  0.75093548  1
  Mn  Mn112  1  -0.00015841  0.00061363  0.50049317  1
  Mn  Mn113  1  -0.00056552  0.16715759  0.00020542  1
  Mn  Mn114  1  -0.00038188  0.83374711  0.24990885  1
  Mn  Mn115  1  0.25035961  0.49879448  0.62327840  1
  Mn  Mn116  1  0.75046338  0.00002787  0.37562817  1
  Mn  Mn117  1  0.49991377  0.00055975  0.50027722  1
  Mn  Mn118  1  0.24994724  0.66666215  0.62414246  1
  Mn  Mn119  1  0.50024717  0.83417093  0.24926501  1
  Mn  Mn120  1  0.25066003  0.66722893  0.87416522  1
  Mn  Mn121  1  0.74998397  0.50000354  0.37523843  1
  Mn  Mn122  1  0.49970014  0.83413949  0.75040656  1
  Mn  Mn123  1  0.75050212  0.83326442  0.62458489  1
  Mn  Mn124  1  0.50041610  0.49989187  0.49969420  1
  Mn  Mn125  1  0.24954029  -0.00018637  0.37502677  1
  Mn  Mn126  1  0.75059352  0.49963786  0.87502157  1
  Mn  Mn127  1  0.00072775  0.83205212  0.00038228  1
  Mn  Mn128  1  0.49960909  0.16674373  -0.00021454  1
  Mn  Mn129  1  0.24967293  0.83417857  0.62483132  1
  Mn  Mn130  1  0.50071911  0.83407836  0.49980836  1
  Mn  Mn131  1  0.24959109  0.49970356  0.87431813  1
  Mn  Mn132  1  0.49972120  0.33262923  0.49974394  1
  Mn  Mn133  1  0.75085618  0.66771256  0.87464359  1
  Mn  Mn134  1  0.75009037  -0.00032661  0.12590188  1
  Mn  Mn135  1  0.24892494  0.50083762  0.12559077  1
  Mn  Mn136  1  0.24945039  0.33247849  0.87442016  1
  Mn  Mn137  1  0.24983674  0.16489659  0.87394647  1
  Mn  Mn138  1  0.74952081  0.66599495  0.62538710  1
  Mn  Mn139  1  -0.00003993  0.66581488  0.24956249  1
  Mn  Mn140  1  0.24979344  0.16568256  0.12484901  1
  Mn  Mn141  1  0.49920692  0.50120658  0.24874347  1
  Mn  Mn142  1  0.75073848  0.00047627  0.87535543  1
  Mn  Mn143  1  0.24952964  0.33286162  0.12529237  1
  Fe  Fe144  1  0.25000220  0.83289880  0.37406755  1
  Fe  Fe145  1  0.75013517  0.33314563  0.62571010  1
  Fe  Fe146  1  0.75059815  0.66703433  0.37460878  1
  Fe  Fe147  1  0.24916576  0.33279713  0.62396736  1
  Fe  Fe148  1  0.75109083  0.83293990  0.37440216  1
  Fe  Fe149  1  0.24945781  0.83330754  0.87522288  1
  Fe  Fe150  1  0.50003862  0.00080400  0.25011286  1
  Fe  Fe151  1  -0.00081526  0.16753599  0.24991420  1
  Fe  Fe152  1  0.24956966  0.66688553  0.12476610  1
  Fe  Fe153  1  0.24948559  -0.00091605  0.87499085  1
  Fe  Fe154  1  0.00089653  0.83322276  0.50016568  1
  Fe  Fe155  1  0.49966211  0.33261924  0.74990830  1
  Fe  Fe156  1  -0.00052215  0.33342824  0.49957880  1
  Fe  Fe157  1  0.00033409  0.49992929  0.74997643  1
  Fe  Fe158  1  -0.00058568  0.16751463  0.49908099  1
  Fe  Fe159  1  0.49954787  0.16669404  0.24961226  1
  Fe  Fe160  1  0.50051492  0.00016796  0.75077296  1
  Fe  Fe161  1  0.74999574  0.16752720  0.87538040  1
  Fe  Fe162  1  0.75023669  0.33381387  0.87510303  1
  Fe  Fe163  1  -0.00007016  0.16689393  0.74960770  1
  Fe  Fe164  1  0.24966533  0.66687945  0.37426456  1
  Fe  Fe165  1  0.49992556  0.16632295  0.75085636  1
  Fe  Fe166  1  0.74934063  0.33325605  0.37669775  1
  Fe  Fe167  1  0.00011413  0.00064656  0.25094492  1
  Fe  Fe168  1  0.24965290  0.33257103  0.37531600  1
  Fe  Fe169  1  0.75057236  0.66777969  0.12479887  1
  Fe  Fe170  1  0.50007433  0.66675326  -0.00015023  1
  Fe  Fe171  1  0.24954815  0.16645190  0.62464680  1
  Fe  Fe172  1  -0.00011785  0.49970739  0.24974792  1
  Fe  Fe173  1  0.25002718  0.83231786  0.12467019  1
  Fe  Fe174  1  0.49975336  0.33269648  -0.00016041  1
  Fe  Fe175  1  0.00039492  0.83229708  0.74999959  1
  Fe  Fe176  1  0.74998188  0.16765590  0.62599609  1
  Fe  Fe177  1  -0.00106107  0.33364709  0.25038797  1
  Fe  Fe178  1  0.75098172  0.83336718  0.12492195  1
  Fe  Fe179  1  0.49988288  0.00075994  0.00046770  1
  Fe  Fe180  1  0.00052878  0.66625653  0.74965487  1
  Fe  Fe181  1  0.75082868  0.49934684  0.62481872  1
  Fe  Fe182  1  -0.00000576  0.49945691  -0.00002250  1
  Fe  Fe183  1  0.75022603  0.83390650  0.87517296  1
  Fe  Fe184  1  0.24921670  0.16670482  0.37589692  1
  Fe  Fe185  1  -0.00030788  0.66525134  -0.00105081  1
  Fe  Fe186  1  0.74964300  0.16734431  0.37647188  1
  Fe  Fe187  1  0.00076346  0.66721946  0.50069815  1
  Fe  Fe188  1  0.50027658  0.66739424  0.24978023  1
  Fe  Fe189  1  0.00026369  0.33372650  0.00071925  1
  Fe  Fe190  1  0.24951853  0.49989866  0.37447357  1
  Fe  Fe191  1  0.25034652  0.00011085  0.62450131  1
  P  P192  1  0.04159518  0.25159170  0.10349431  1
  P  P193  1  0.04019763  0.25042267  0.35211774  1
  P  P194  1  0.04063817  0.24995572  0.60124070  1
  P  P195  1  0.04252376  0.24878824  0.85226689  1
  P  P196  1  0.04116640  0.58251606  0.10130507  1
  P  P197  1  0.04217920  0.58164907  0.35229538  1
  P  P198  1  0.04269854  0.58475693  0.60265534  1
  P  P199  1  0.04166341  0.58273725  0.85179547  1
  P  P200  1  0.04255798  0.91716546  0.10373972  1
  P  P201  1  0.04212082  0.91788300  0.35312860  1
  P  P202  1  0.04233350  0.91530619  0.60267498  1
  P  P203  1  0.04214666  0.91471620  0.85194966  1
  P  P204  1  0.54211658  0.25068238  0.10265906  1
  P  P205  1  0.54163388  0.24860620  0.35229253  1
  P  P206  1  0.54198243  0.24959619  0.60451256  1
  P  P207  1  0.54120826  0.25011957  0.85200624  1
  P  P208  1  0.54213336  0.58524546  0.10249268  1
  P  P209  1  0.54245929  0.58475428  0.35175999  1
  P  P210  1  0.54374090  0.58281790  0.60319844  1
  P  P211  1  0.54335655  0.58330296  0.85391945  1
  P  P212  1  0.54229059  0.91907124  0.10298374  1
  P  P213  1  0.54287265  0.91853269  0.35198631  1
  P  P214  1  0.54328416  0.91771933  0.60387838  1
  P  P215  1  0.54221699  0.91831284  0.85352891  1
  P  P216  1  0.45800188  0.08330406  0.14810137  1
  P  P217  1  0.45687482  0.08334739  0.39612456  1
  P  P218  1  0.45845921  0.08306466  0.64933946  1
  P  P219  1  0.45778622  0.08206925  0.89695961  1
  P  P220  1  0.45637319  0.41653974  0.14602671  1
  P  P221  1  0.45673531  0.41676532  0.39650626  1
  P  P222  1  0.45784474  0.41525681  0.64766309  1
  P  P223  1  0.45772483  0.41432722  0.89715920  1
  P  P224  1  0.45825936  0.74900289  0.14692887  1
  P  P225  1  0.45807102  0.75039194  0.39594746  1
  P  P226  1  0.45708990  0.75030014  0.64685041  1
  P  P227  1  0.45773305  0.74913234  0.89788008  1
  P  P228  1  0.95812468  0.08340554  0.14901588  1
  P  P229  1  0.95767454  0.08486831  0.39695439  1
  P  P230  1  0.95800662  0.08519378  0.64688894  1
  P  P231  1  0.95723976  0.08346180  0.89632907  1
  P  P232  1  0.95798118  0.41674557  0.14813042  1
  P  P233  1  0.95770780  0.41548025  0.39720832  1
  P  P234  1  0.95814151  0.41808553  0.64744485  1
  P  P235  1  0.95883351  0.41634511  0.89848288  1
  P  P236  1  0.95744385  0.74937297  0.14646031  1
  P  P237  1  0.95952791  0.74979446  0.39859839  1
  P  P238  1  0.95919431  0.74980917  0.64776744  1
  P  P239  1  0.95842341  0.74785058  0.89656709  1
  P  P240  1  0.20712900  0.08320698  0.22905384  1
  P  P241  1  0.20744974  0.08451945  0.47837715  1
  P  P242  1  0.20838681  0.08226638  0.72632635  1
  P  P243  1  0.20713458  0.08105372  0.97717398  1
  P  P244  1  0.20697691  0.41644900  0.22921425  1
  P  P245  1  0.20828806  0.41612598  0.47601275  1
  P  P246  1  0.20709346  0.41504601  0.72623574  1
  P  P247  1  0.20674569  0.41656696  0.97788515  1
  P  P248  1  0.20823096  0.74965225  0.22691798  1
  P  P249  1  0.20846028  0.75051659  0.47582030  1
  P  P250  1  0.20729544  0.75050854  0.72801144  1
  P  P251  1  0.20775187  0.75080649  0.97778336  1
  P  P252  1  0.70793424  0.08383773  0.22932208  1
  P  P253  1  0.70803071  0.08503245  0.47850434  1
  P  P254  1  0.70870810  0.08535017  0.72846404  1
  P  P255  1  0.70790364  0.08484888  0.97760758  1
  P  P256  1  0.70710831  0.41669307  0.22925633  1
  P  P257  1  0.70766451  0.41554178  0.47879181  1
  P  P258  1  0.70921299  0.41655405  0.72699361  1
  P  P259  1  0.70783765  0.41592385  0.97769261  1
  P  P260  1  0.70916286  0.75057095  0.22699952  1
  P  P261  1  0.70915545  0.75002535  0.47605924  1
  P  P262  1  0.70741381  0.75070968  0.72852314  1
  P  P263  1  0.70856035  0.75194432  0.97820868  1
  P  P264  1  0.29252980  0.24908723  0.02167292  1
  P  P265  1  0.29075758  0.24927057  0.27383867  1
  P  P266  1  0.29071459  0.24985654  0.52259991  1
  P  P267  1  0.29187112  0.24897643  0.77027096  1
  P  P268  1  0.29181617  0.58468819  0.02256811  1
  P  P269  1  0.29066008  0.58365062  0.27285961  1
  P  P270  1  0.29239381  0.58333063  0.51991438  1
  P  P271  1  0.29313169  0.58273750  0.77106264  1
  P  P272  1  0.29181808  0.91483660  0.02214453  1
  P  P273  1  0.29199649  0.91475957  0.27209831  1
  P  P274  1  0.29237845  0.91800799  0.52193585  1
  P  P275  1  0.29130963  0.91663844  0.77329302  1
  P  P276  1  0.79292095  0.25040036  0.02149845  1
  P  P277  1  0.79130224  0.25064104  0.27494273  1
  P  P278  1  0.79087146  0.25013233  0.52356971  1
  P  P279  1  0.79141442  0.25077076  0.77315465  1
  P  P280  1  0.79230892  0.58473013  0.02293250  1
  P  P281  1  0.79224678  0.58512808  0.27244781  1
  P  P282  1  0.79260374  0.58214607  0.52237976  1
  P  P283  1  0.79311862  0.58287332  0.77144997  1
  P  P284  1  0.79266824  0.91583903  0.02246741  1
  P  P285  1  0.79292815  0.91531117  0.27244622  1
  P  P286  1  0.79362237  0.91678841  0.52140867  1
  P  P287  1  0.79290201  0.91596220  0.77269277  1
  O  O288  1  0.03578742  0.25157474  0.18332379  1
  O  O289  1  0.03541697  0.25003813  0.43204213  1
  O  O290  1  0.03611256  0.24978721  0.68123062  1
  O  O291  1  0.03770462  0.24927230  0.93217217  1
  O  O292  1  0.03613059  0.58198607  0.18124220  1
  O  O293  1  0.03738680  0.58234468  0.43215776  1
  O  O294  1  0.03748392  0.58457355  0.68250579  1
  O  O295  1  0.03631140  0.58251279  0.93167870  1
  O  O296  1  0.03712498  0.91790244  0.18369569  1
  O  O297  1  0.03671564  0.91721676  0.43308152  1
  O  O298  1  0.03693072  0.91478842  0.68260433  1
  O  O299  1  0.03703630  0.91498450  0.93191399  1
  O  O300  1  0.53655708  0.24977061  0.18256559  1
  O  O301  1  0.53660281  0.24864838  0.43229209  1
  O  O302  1  0.53678451  0.24977147  0.68443396  1
  O  O303  1  0.53661867  0.25042184  0.93202755  1
  O  O304  1  0.53666690  0.58572996  0.18244919  1
  O  O305  1  0.53790225  0.58418450  0.43178921  1
  O  O306  1  0.53893095  0.58260356  0.68320493  1
  O  O307  1  0.53780723  0.58377234  0.93388942  1
  O  O308  1  0.53677879  0.91898257  0.18290653  1
  O  O309  1  0.53810946  0.91797692  0.43201054  1
  O  O310  1  0.53822012  0.91785673  0.68388343  1
  O  O311  1  0.53688171  0.91830667  0.93347580  1
  O  O312  1  0.46315431  0.08307439  0.06810308  1
  O  O313  1  0.46190932  0.08359326  0.31618338  1
  O  O314  1  0.46269435  0.08340879  0.56928963  1
  O  O315  1  0.46341291  0.08212397  0.81712378  1
  O  O316  1  0.46171466  0.41595645  0.06607248  1
  O  O317  1  0.46131890  0.41693310  0.31648791  1
  O  O318  1  0.46278272  0.41568895  0.56766214  1
  O  O319  1  0.46340864  0.41421614  0.81721269  1
  O  O320  1  0.46338393  0.74877212  0.06696090  1
  O  O321  1  0.46331449  0.75018400  0.31594147  1
  O  O322  1  0.46235506  0.75060697  0.56683957  1
  O  O323  1  0.46283493  0.74963361  0.81792256  1
  O  O324  1  0.96282151  0.08370100  0.06899057  1
  O  O325  1  0.96310086  0.08438827  0.31709211  1
  O  O326  1  0.96335060  0.08543684  0.56694316  1
  O  O327  1  0.96253701  0.08370062  0.81638498  1
  O  O328  1  0.96324147  0.41660670  0.06828146  1
  O  O329  1  0.96245169  0.41521424  0.31733393  1
  O  O330  1  0.96309531  0.41767762  0.56756545  1
  O  O331  1  0.96391850  0.41680914  0.81856169  1
  O  O332  1  0.96252246  0.74887200  0.06654937  1
  O  O333  1  0.96413168  0.74989724  0.31860136  1
  O  O334  1  0.96465470  0.75024264  0.56786069  1
  O  O335  1  0.96406080  0.74811621  0.81668499  1
  O  O336  1  0.21201188  0.08127366  0.05716541  1
  O  O337  1  0.21243553  0.08380485  0.30898791  1
  O  O338  1  0.21324665  0.08444165  0.55825218  1
  O  O339  1  0.21322261  0.08164650  0.80634211  1
  O  O340  1  0.21177061  0.41677439  0.05787199  1
  O  O341  1  0.21249261  0.41657946  0.30908695  1
  O  O342  1  0.21315778  0.41533372  0.55599301  1
  O  O343  1  0.21199802  0.41535991  0.80621836  1
  O  O344  1  0.21294102  0.75024121  0.05772347  1
  O  O345  1  0.21346629  0.74969807  0.30681637  1
  O  O346  1  0.21313133  0.75036581  0.55579787  1
  O  O347  1  0.21263693  0.75091032  0.80794055  1
  O  O348  1  0.71294758  0.08435035  0.05759702  1
  O  O349  1  0.71309104  0.08412475  0.30927673  1
  O  O350  1  0.71343369  0.08526896  0.55846479  1
  O  O351  1  0.71416347  0.08536088  0.80839677  1
  O  O352  1  0.71272292  0.41636900  0.05768432  1
  O  O353  1  0.71219815  0.41626429  0.30922225  1
  O  O354  1  0.71341752  0.41601995  0.55863455  1
  O  O355  1  0.71413336  0.41586906  0.80695242  1
  O  O356  1  0.71436228  0.75149108  0.05809066  1
  O  O357  1  0.71444051  0.75041217  0.30691672  1
  O  O358  1  0.71356420  0.74965915  0.55607145  1
  O  O359  1  0.71260840  0.75131195  0.80846529  1
  O  O360  1  0.28624632  0.24955297  0.19385714  1
  O  O361  1  0.28563190  0.24950233  0.44266005  1
  O  O362  1  0.28641357  0.24918509  0.69033846  1
  O  O363  1  0.28744289  0.24893936  0.94168414  1
  O  O364  1  0.28555444  0.58437688  0.19289338  1
  O  O365  1  0.28671329  0.58320812  0.44002105  1
  O  O366  1  0.28817904  0.58266877  0.69105051  1
  O  O367  1  0.28708172  0.58437622  0.94257143  1
  O  O368  1  0.28664442  0.91443103  0.19218555  1
  O  O369  1  0.28701076  0.91746710  0.44210227  1
  O  O370  1  0.28640583  0.91745603  0.69330227  1
  O  O371  1  0.28637238  0.91534350  0.94226980  1
  O  O372  1  0.78708216  0.25050188  0.19490176  1
  O  O373  1  0.78576781  0.25034871  0.44370688  1
  O  O374  1  0.78634138  0.25052619  0.69321953  1
  O  O375  1  0.78767510  0.25034497  0.94157879  1
  O  O376  1  0.78697831  0.58554235  0.19251431  1
  O  O377  1  0.78723377  0.58280110  0.44245089  1
  O  O378  1  0.78772908  0.58211157  0.69153534  1
  O  O379  1  0.78747809  0.58435572  0.94295491  1
  O  O380  1  0.78753345  0.91533401  0.19247035  1
  O  O381  1  0.78843790  0.91633745  0.44143213  1
  O  O382  1  0.78784685  0.91650090  0.69271301  1
  O  O383  1  0.78741143  0.91608190  0.94250075  1
  O  O384  1  0.22803642  0.24916214  0.05661744  1
  O  O385  1  0.22649318  0.24888860  0.30942193  1
  O  O386  1  0.22659429  0.25012768  0.55876586  1
  O  O387  1  0.22769566  0.24876627  0.80610678  1
  O  O388  1  0.22737951  0.58519245  0.05784419  1
  O  O389  1  0.22660699  0.58293284  0.30892255  1
  O  O390  1  0.22822291  0.58294662  0.55581003  1
  O  O391  1  0.22862676  0.58330193  0.80593420  1
  O  O392  1  0.22767728  0.91419315  0.05830784  1
  O  O393  1  0.22778523  0.91488627  0.30798549  1
  O  O394  1  0.22809864  0.91862568  0.55778037  1
  O  O395  1  0.22709829  0.91615175  0.80925195  1
  O  O396  1  0.72859720  0.25021416  0.05697248  1
  O  O397  1  0.72693775  0.25101730  0.31025127  1
  O  O398  1  0.72693916  0.24974491  0.56003362  1
  O  O399  1  0.72739394  0.25143999  0.80958166  1
  O  O400  1  0.72797723  0.58535588  0.05839530  1
  O  O401  1  0.72803775  0.58491561  0.30819454  1
  O  O402  1  0.72840285  0.58120159  0.55831388  1
  O  O403  1  0.72890950  0.58337146  0.80701949  1
  O  O404  1  0.72844754  0.91561944  0.05830361  1
  O  O405  1  0.72873929  0.91515262  0.30832638  1
  O  O406  1  0.72927354  0.91733417  0.55665521  1
  O  O407  1  0.72859859  0.91600645  0.80826517  1
  O  O408  1  0.27140462  0.08255956  0.19358765  1
  O  O409  1  0.27145960  0.08464632  0.44196495  1
  O  O410  1  0.27255583  0.08244745  0.69038071  1
  O  O411  1  0.27156847  0.08083557  0.94192167  1
  O  O412  1  0.27110615  0.41679838  0.19328165  1
  O  O413  1  0.27238494  0.41689059  0.44011226  1
  O  O414  1  0.27151616  0.41421767  0.69094312  1
  O  O415  1  0.27120124  0.41637121  0.94284869  1
  O  O416  1  0.27227653  0.74936599  0.19043983  1
  O  O417  1  0.27267939  0.75073572  0.44020392  1
  O  O418  1  0.27157869  0.75045948  0.69256677  1
  O  O419  1  0.27196616  0.75155521  0.94184085  1
  O  O420  1  0.77226242  0.08335677  0.19396381  1
  O  O421  1  0.77220857  0.08482792  0.44267224  1
  O  O422  1  0.77282239  0.08567358  0.69233751  1
  O  O423  1  0.77223934  0.08504246  0.94225529  1
  O  O424  1  0.77149965  0.41723840  0.19407998  1
  O  O425  1  0.77176027  0.41522824  0.44248953  1
  O  O426  1  0.77332131  0.41696258  0.69094272  1
  O  O427  1  0.77228076  0.41512437  0.94242757  1
  O  O428  1  0.77321618  0.75030619  0.19062816  1
  O  O429  1  0.77354208  0.75050344  0.44070519  1
  O  O430  1  0.77178208  0.74986716  0.69329821  1
  O  O431  1  0.77260456  0.75245667  0.94174570  1
  O  O432  1  0.02229849  0.08323110  0.18476261  1
  O  O433  1  0.02174439  0.08513426  0.43321572  1
  O  O434  1  0.02216815  0.08490370  0.68285787  1
  O  O435  1  0.02152306  0.08353146  0.93180939  1
  O  O436  1  0.02196896  0.41654180  0.18473041  1
  O  O437  1  0.02198908  0.41545678  0.43285327  1
  O  O438  1  0.02239714  0.41801707  0.68314637  1
  O  O439  1  0.02288530  0.41613454  0.93470533  1
  O  O440  1  0.02177452  0.74981137  0.18176536  1
  O  O441  1  0.02379120  0.74955671  0.43416391  1
  O  O442  1  0.02314907  0.74962396  0.68432968  1
  O  O443  1  0.02241155  0.74715349  0.93310789  1
  O  O444  1  0.52216296  0.08391022  0.18418946  1
  O  O445  1  0.52127043  0.08353372  0.43144337  1
  O  O446  1  0.52278197  0.08266855  0.68466937  1
  O  O447  1  0.52184722  0.08208325  0.93336040  1
  O  O448  1  0.52067571  0.41665453  0.18138909  1
  O  O449  1  0.52134180  0.41630220  0.43114452  1
  O  O450  1  0.52226228  0.41462536  0.68297640  1
  O  O451  1  0.52188532  0.41457431  0.93322563  1
  O  O452  1  0.52255219  0.74956147  0.18248781  1
  O  O453  1  0.52243013  0.75054928  0.43128664  1
  O  O454  1  0.52154525  0.75069883  0.68183604  1
  O  O455  1  0.52206780  0.74924786  0.93334726  1
  O  O456  1  0.47787739  0.25110806  0.06675213  1
  O  O457  1  0.47726457  0.24803853  0.31689238  1
  O  O458  1  0.47768679  0.24973931  0.56892012  1
  O  O459  1  0.47704849  0.25035294  0.81623028  1
  O  O460  1  0.47791922  0.58468181  0.06669112  1
  O  O461  1  0.47791865  0.58521175  0.31677649  1
  O  O462  1  0.47918670  0.58326097  0.56841012  1
  O  O463  1  0.47909513  0.58273922  0.81845389  1
  O  O464  1  0.47809783  0.91877933  0.06703734  1
  O  O465  1  0.47842963  0.91847008  0.31682557  1
  O  O466  1  0.47880348  0.91707362  0.56885119  1
  O  O467  1  0.47795871  0.91862107  0.81772394  1
  O  O468  1  0.97761231  0.25193036  0.06694578  1
  O  O469  1  0.97611813  0.25092812  0.31603954  1
  O  O470  1  0.97638121  0.24993855  0.56562365  1
  O  O471  1  0.97812700  0.24857988  0.81672176  1
  O  O472  1  0.97707446  0.58306048  0.06513769  1
  O  O473  1  0.97782992  0.58134514  0.31671542  1
  O  O474  1  0.97850113  0.58511956  0.56667314  1
  O  O475  1  0.97772429  0.58292923  0.81516682  1
  O  O476  1  0.97833335  0.91631580  0.06814884  1
  O  O477  1  0.97794260  0.91844253  0.31716138  1
  O  O478  1  0.97819908  0.91528673  0.56676634  1
  O  O479  1  0.97792506  0.91480349  0.81624602  1
  O  O480  1  0.07275783  0.31483855  0.07475233  1
  O  O481  1  0.07159436  0.31373907  0.32387277  1
  O  O482  1  0.07085233  0.31408477  0.57283193  1
  O  O483  1  0.07347768  0.31233566  0.82392657  1
  O  O484  1  0.07210361  0.64621179  0.07329545  1
  O  O485  1  0.07315305  0.64514561  0.32381868  1
  O  O486  1  0.07368417  0.64806448  0.57363589  1
  O  O487  1  0.07296008  0.64613112  0.82352159  1
  O  O488  1  0.07342301  0.98053028  0.07498358  1
  O  O489  1  0.07301197  0.98155725  0.32518250  1
  O  O490  1  0.07315089  0.97936579  0.57545374  1
  O  O491  1  0.07318761  0.97834944  0.82401462  1
  O  O492  1  0.57289273  0.31436726  0.07457318  1
  O  O493  1  0.57224578  0.31258274  0.32471860  1
  O  O494  1  0.57328104  0.31272712  0.57565309  1
  O  O495  1  0.57260419  0.31317420  0.82326862  1
  O  O496  1  0.57286661  0.64858866  0.07352804  1
  O  O497  1  0.57316845  0.64841052  0.32343189  1
  O  O498  1  0.57489059  0.64626602  0.57506205  1
  O  O499  1  0.57449927  0.64657575  0.82545085  1
  O  O500  1  0.57315644  0.98246460  0.07445683  1
  O  O501  1  0.57331897  0.98227338  0.32370231  1
  O  O502  1  0.57401739  0.98126172  0.57540360  1
  O  O503  1  0.57344098  0.98147585  0.82482806  1
  O  O504  1  0.42731086  0.01966968  0.17654542  1
  O  O505  1  0.42600790  0.01981146  0.42468210  1
  O  O506  1  0.42741594  0.01950743  0.67730461  1
  O  O507  1  0.42680930  0.01882406  0.92594815  1
  O  O508  1  0.42490433  0.35350307  0.17470670  1
  O  O509  1  0.42571321  0.35325384  0.42463342  1
  O  O510  1  0.42684562  0.35178482  0.67589472  1
  O  O511  1  0.42680050  0.35097208  0.92567446  1
  O  O512  1  0.42759195  0.68565608  0.17603521  1
  O  O513  1  0.42682884  0.68712908  0.42428594  1
  O  O514  1  0.42641640  0.68650199  0.67464493  1
  O  O515  1  0.42719409  0.68533990  0.92599226  1
  O  O516  1  0.92724187  0.01982408  0.17714478  1
  O  O517  1  0.92649529  0.02144471  0.42534744  1
  O  O518  1  0.92693635  0.02124529  0.67411791  1
  O  O519  1  0.92638781  0.01967864  0.92431990  1
  O  O520  1  0.92660792  0.35348889  0.17670922  1
  O  O521  1  0.92701641  0.35217817  0.42680246  1
  O  O522  1  0.92688419  0.35468687  0.67569377  1
  O  O523  1  0.92815771  0.35250631  0.92649277  1
  O  O524  1  0.92654912  0.68602232  0.17521075  1
  O  O525  1  0.92868989  0.68610786  0.42674468  1
  O  O526  1  0.92802261  0.68623550  0.67583268  1
  O  O527  1  0.92712758  0.68453325  0.92500140  1
  O  O528  1  0.17595196  0.01957737  0.20149331  1
  O  O529  1  0.17616272  0.02098056  0.45061451  1
  O  O530  1  0.17734684  0.01893906  0.69775121  1
  O  O531  1  0.17644724  0.01754440  0.94862809  1
  O  O532  1  0.17603571  0.35289281  0.20098977  1
  O  O533  1  0.17796489  0.35224986  0.44735110  1
  O  O534  1  0.17590372  0.35180074  0.69778067  1
  O  O535  1  0.17570428  0.35310822  0.94983590  1
  O  O536  1  0.17707722  0.68613621  0.19861211  1
  O  O537  1  0.17800579  0.68672462  0.44731628  1
  O  O538  1  0.17643685  0.68684153  0.70001459  1
  O  O539  1  0.17695795  0.68718834  0.94936502  1
  O  O540  1  0.67680960  0.02030306  0.20134924  1
  O  O541  1  0.67678224  0.02143537  0.45085449  1
  O  O542  1  0.67799688  0.02146588  0.70074671  1
  O  O543  1  0.67685894  0.02128512  0.94969152  1
  O  O544  1  0.67607350  0.35346273  0.20060976  1
  O  O545  1  0.67660340  0.35202756  0.45054857  1
  O  O546  1  0.67861445  0.35288486  0.69831381  1
  O  O547  1  0.67673104  0.35270276  0.94918520  1
  O  O548  1  0.67802004  0.68718224  0.19840900  1
  O  O549  1  0.67892545  0.68607031  0.44762532  1
  O  O550  1  0.67612733  0.68716155  0.70071420  1
  O  O551  1  0.67758207  0.68828922  0.95019879  1
  O  O552  1  0.32347718  0.31249081  0.04996230  1
  O  O553  1  0.32107056  0.31323668  0.30224069  1
  O  O554  1  0.32181040  0.31345475  0.55061228  1
  O  O555  1  0.32302188  0.31228165  0.79877100  1
  O  O556  1  0.32271271  0.64808382  0.05103772  1
  O  O557  1  0.32109311  0.64745778  0.30141414  1
  O  O558  1  0.32336813  0.64685779  0.54819000  1
  O  O559  1  0.32448481  0.64599772  0.79917810  1
  O  O560  1  0.32268052  0.97843634  0.05058629  1
  O  O561  1  0.32297649  0.97851768  0.29963215  1
  O  O562  1  0.32324740  0.98152384  0.55036951  1
  O  O563  1  0.32196473  0.98014807  0.80209734  1
  O  O564  1  0.82388752  0.31377707  0.05021879  1
  O  O565  1  0.82220280  0.31417230  0.30317544  1
  O  O566  1  0.82144789  0.31390054  0.55223552  1
  O  O567  1  0.82280860  0.31418305  0.80129300  1
  O  O568  1  0.82332342  0.64815588  0.05108174  1
  O  O569  1  0.82311840  0.64841297  0.30145524  1
  O  O570  1  0.82332616  0.64586029  0.55050198  1
  O  O571  1  0.82427777  0.64647989  0.79905754  1
  O  O572  1  0.82348728  0.97966455  0.05041949  1
  O  O573  1  0.82384322  0.97902106  0.30025358  1
  O  O574  1  0.82472354  0.98037706  0.54934095  1
  O  O575  1  0.82414978  0.97947944  0.80045419  1
  O  O576  1  0.42706327  0.14710051  0.17589420  1
  O  O577  1  0.42558152  0.14643877  0.42512946  1
  O  O578  1  0.42826722  0.14700269  0.67786415  1
  O  O579  1  0.42655369  0.14574841  0.92469154  1
  O  O580  1  0.42552147  0.48037622  0.17371759  1
  O  O581  1  0.42624670  0.48040183  0.42491815  1
  O  O582  1  0.42713109  0.47898234  0.67574651  1
  O  O583  1  0.42650519  0.47811274  0.92452992  1
  O  O584  1  0.42693255  0.81271769  0.17424483  1
  O  O585  1  0.42709851  0.81402482  0.42395514  1
  O  O586  1  0.42575077  0.81352504  0.67523133  1
  O  O587  1  0.42658509  0.81264470  0.92583723  1
  O  O588  1  0.92765266  0.14739997  0.17718630  1
  O  O589  1  0.92666853  0.14835987  0.42534615  1
  O  O590  1  0.92714160  0.14843263  0.67578426  1
  O  O591  1  0.92586410  0.14654697  0.92490705  1
  O  O592  1  0.92742841  0.48064527  0.17648271  1
  O  O593  1  0.92654246  0.47901094  0.42522904  1
  O  O594  1  0.92772949  0.48178512  0.67600232  1
  O  O595  1  0.92786876  0.47984805  0.92695366  1
  O  O596  1  0.92629078  0.81283878  0.17456551  1
  O  O597  1  0.92904240  0.81364757  0.42676745  1
  O  O598  1  0.92825017  0.81337075  0.67633130  1
  O  O599  1  0.92755791  0.81156706  0.92458886  1
  O  O600  1  0.07267334  0.18783326  0.07573577  1
  O  O601  1  0.07063514  0.18665849  0.32320717  1
  O  O602  1  0.07193317  0.18677915  0.57270827  1
  O  O603  1  0.07305195  0.18522126  0.82339779  1
  O  O604  1  0.07189304  0.51889716  0.07284238  1
  O  O605  1  0.07267474  0.51799361  0.32375743  1
  O  O606  1  0.07367286  0.52117168  0.57442249  1
  O  O607  1  0.07235605  0.51893582  0.82333628  1
  O  O608  1  0.07394782  0.85361041  0.07618407  1
  O  O609  1  0.07308437  0.85432539  0.32494672  1
  O  O610  1  0.07351395  0.85227738  0.57358914  1
  O  O611  1  0.07288255  0.85110164  0.82386646  1
  O  O612  1  0.57328875  0.18729424  0.07433395  1
  O  O613  1  0.57272162  0.18538676  0.32373385  1
  O  O614  1  0.57296206  0.18605550  0.57621756  1
  O  O615  1  0.57127368  0.18578957  0.82407699  1
  O  O616  1  0.57347998  0.52142747  0.07541735  1
  O  O617  1  0.57317297  0.52108832  0.32353984  1
  O  O618  1  0.57427233  0.51917577  0.57480118  1
  O  O619  1  0.57459536  0.51962143  0.82631625  1
  O  O620  1  0.57342407  0.85531505  0.07542737  1
  O  O621  1  0.57403911  0.85510920  0.32382938  1
  O  O622  1  0.57462602  0.85443124  0.57546718  1
  O  O623  1  0.57297320  0.85440401  0.82584175  1
  O  O624  1  0.32342805  0.18545341  0.04981509  1
  O  O625  1  0.32185133  0.18581474  0.30200827  1
  O  O626  1  0.32150357  0.18626762  0.55141427  1
  O  O627  1  0.32314845  0.18553991  0.79851047  1
  O  O628  1  0.32252548  0.52091794  0.05061397  1
  O  O629  1  0.32203856  0.52009412  0.30053758  1
  O  O630  1  0.32387613  0.52001629  0.54822878  1
  O  O631  1  0.32362860  0.51897341  0.79940056  1
  O  O632  1  0.32308368  0.85155043  0.05070121  1
  O  O633  1  0.32291442  0.85138328  0.30075967  1
  O  O634  1  0.32333329  0.85446291  0.55023487  1
  O  O635  1  0.32213656  0.85282590  0.80120806  1
  O  O636  1  0.82427184  0.18714714  0.05021478  1
  O  O637  1  0.82148864  0.18662354  0.30337573  1
  O  O638  1  0.82231406  0.18684398  0.55193475  1
  O  O639  1  0.82182651  0.18692314  0.80177713  1
  O  O640  1  0.82288229  0.52085975  0.05099466  1
  O  O641  1  0.82342697  0.52143866  0.30009798  1
  O  O642  1  0.82379316  0.51866744  0.55046141  1
  O  O643  1  0.82421982  0.51963905  0.80026362  1
  O  O644  1  0.82385040  0.85257631  0.05093189  1
  O  O645  1  0.82404359  0.85193030  0.30083575  1
  O  O646  1  0.82465405  0.85342889  0.54993946  1
  O  O647  1  0.82338385  0.85220094  0.80091808  1
  O  O648  1  0.17606923  0.14645005  0.20029332  1
  O  O649  1  0.17639496  0.14792163  0.44970583  1
  O  O650  1  0.17774118  0.14623446  0.69835808  1
  O  O651  1  0.17617477  0.14466445  0.94906033  1
  O  O652  1  0.17551701  0.47971071  0.20076221  1
  O  O653  1  0.17689192  0.47965078  0.44834609  1
  O  O654  1  0.17668166  0.47897270  0.69814396  1
  O  O655  1  0.17596736  0.48017079  0.94953630  1
  O  O656  1  0.17746242  0.81333035  0.19849952  1
  O  O657  1  0.17754858  0.81417682  0.44779366  1
  O  O658  1  0.17599984  0.81371602  0.69949796  1
  O  O659  1  0.17651699  0.81410067  0.94920787  1
  O  O660  1  0.67695739  0.14719744  0.20074274  1
  O  O661  1  0.67723632  0.14849765  0.44978346  1
  O  O662  1  0.67745361  0.14863859  0.70012079  1
  O  O663  1  0.67719159  0.14844970  0.94912890  1
  O  O664  1  0.67601114  0.48033673  0.20127226  1
  O  O665  1  0.67643524  0.47891648  0.45030991  1
  O  O666  1  0.67822835  0.48024493  0.69913133  1
  O  O667  1  0.67737323  0.47987697  0.94971451  1
  O  O668  1  0.67836779  0.81431583  0.19868635  1
  O  O669  1  0.67814207  0.81357996  0.44788081  1
  O  O670  1  0.67648646  0.81400500  0.69970463  1
  O  O671  1  0.67730240  0.81532326  0.94987573  1
