# generated using pymatgen
data_Na2MnFe(PO4)2
_symmetry_space_group_name_H-M   'P 1'
_cell_length_a   22.33876024
_cell_length_b   20.09065590
_cell_length_c   19.45439680
_cell_angle_alpha   89.99565304
_cell_angle_beta   90.00928852
_cell_angle_gamma   89.98715708
_symmetry_Int_Tables_number   1
_chemical_formula_structural   Na2MnFe(PO4)2
_chemical_formula_sum   'Na96 Mn48 Fe48 P96 O384'
_cell_volume   8731.13963997
_cell_formula_units_Z   48
loop_
 _symmetry_equiv_pos_site_id
 _symmetry_equiv_pos_as_xyz
  1  'x, y, z'
loop_
 _atom_site_type_symbol
 _atom_site_label
 _atom_site_symmetry_multiplicity
 _atom_site_fract_x
 _atom_site_fract_y
 _atom_site_fract_z
 _atom_site_occupancy
  Na  Na0  1  0.14065796  0.25032845  0.24379329  1
  Na  Na1  1  0.14028386  0.25153392  0.49513544  1
  Na  Na2  1  0.14057362  0.24922694  0.74294139  1
  Na  Na3  1  0.14058061  0.24894045  0.99395999  1
  Na  Na4  1  0.13961693  0.58349980  0.24423713  1
  Na  Na5  1  0.14007907  0.58484052  0.49418345  1
  Na  Na6  1  0.13986135  0.58301564  0.74416260  1
  Na  Na7  1  0.13937976  0.58215715  0.99378150  1
  Na  Na8  1  0.13990895  0.91741452  0.24380970  1
  Na  Na9  1  0.14011861  0.91711511  0.49497816  1
  Na  Na10  1  0.14000660  0.91643166  0.74234023  1
  Na  Na11  1  0.14004179  0.91677808  0.99484450  1
  Na  Na12  1  0.64071921  0.24959417  0.24286752  1
  Na  Na13  1  0.64070015  0.24981531  0.49414565  1
  Na  Na14  1  0.64127841  0.24953481  0.74313743  1
  Na  Na15  1  0.64053274  0.25091435  0.99329467  1
  Na  Na16  1  0.64016788  0.58180257  0.24260090  1
  Na  Na17  1  0.63974460  0.58311774  0.49230205  1
  Na  Na18  1  0.63989410  0.58241968  0.74209165  1
  Na  Na19  1  0.64014380  0.58255854  0.99323544  1
  Na  Na20  1  0.64041222  0.91561504  0.24407839  1
  Na  Na21  1  0.64075578  0.91679267  0.49415119  1
  Na  Na22  1  0.64037613  0.91745103  0.74368343  1
  Na  Na23  1  0.64044679  0.91837095  0.99348437  1
  Na  Na24  1  0.36009550  0.08317668  0.00588989  1
  Na  Na25  1  0.36009169  0.08422560  0.25510552  1
  Na  Na26  1  0.35965069  0.08483882  0.50735976  1
  Na  Na27  1  0.36036685  0.08410966  0.75624077  1
  Na  Na28  1  0.36027516  0.41545429  0.00609381  1
  Na  Na29  1  0.36019345  0.41754323  0.25551184  1
  Na  Na30  1  0.35975766  0.41833751  0.50608369  1
  Na  Na31  1  0.36014509  0.41659563  0.75570461  1
  Na  Na32  1  0.35937084  0.74965626  0.00637259  1
  Na  Na33  1  0.35977206  0.74913312  0.25657058  1
  Na  Na34  1  0.36031930  0.75075278  0.50681214  1
  Na  Na35  1  0.35996982  0.74902554  0.75497557  1
  Na  Na36  1  0.85959419  0.08397325  0.00570395  1
  Na  Na37  1  0.85946397  0.08139436  0.25662611  1
  Na  Na38  1  0.85929137  0.08360259  0.50726535  1
  Na  Na39  1  0.86008224  0.08352409  0.75690673  1
  Na  Na40  1  0.85914660  0.41732452  0.00653601  1
  Na  Na41  1  0.85965716  0.41629587  0.25520614  1
  Na  Na42  1  0.85897821  0.41587065  0.50665881  1
  Na  Na43  1  0.85915255  0.41603280  0.75564388  1
  Na  Na44  1  0.85926791  0.75002109  0.00712001  1
  Na  Na45  1  0.85929962  0.74916114  0.25794301  1
  Na  Na46  1  0.86005129  0.75070051  0.50722859  1
  Na  Na47  1  0.85976071  0.74975941  0.75674030  1
  Na  Na48  1  0.10988272  0.08234231  0.11921696  1
  Na  Na49  1  0.10956975  0.08278915  0.36934133  1
  Na  Na50  1  0.10989707  0.08340352  0.61855574  1
  Na  Na51  1  0.10952160  0.08220874  0.86789786  1
  Na  Na52  1  0.10961099  0.41809986  0.11840865  1
  Na  Na53  1  0.10961938  0.41773007  0.36938021  1
  Na  Na54  1  0.10950202  0.41707399  0.61870945  1
  Na  Na55  1  0.10944922  0.41658981  0.86883309  1
  Na  Na56  1  0.10875353  0.74926442  0.12001927  1
  Na  Na57  1  0.10885359  0.75102282  0.36985934  1
  Na  Na58  1  0.10909540  0.75002181  0.61965620  1
  Na  Na59  1  0.10882601  0.74979461  0.86911679  1
  Na  Na60  1  0.61001260  0.08428477  0.11841760  1
  Na  Na61  1  0.61010247  0.08268308  0.36918538  1
  Na  Na62  1  0.61058909  0.08243548  0.61869577  1
  Na  Na63  1  0.60996526  0.08355132  0.86791234  1
  Na  Na64  1  0.61002864  0.41690705  0.11751791  1
  Na  Na65  1  0.60988675  0.41757337  0.36786168  1
  Na  Na66  1  0.61029861  0.41789705  0.61750864  1
  Na  Na67  1  0.60984920  0.41617882  0.86819346  1
  Na  Na68  1  0.60942693  0.74879776  0.11839037  1
  Na  Na69  1  0.60946742  0.74891867  0.36849641  1
  Na  Na70  1  0.60922072  0.74897315  0.61813333  1
  Na  Na71  1  0.60948934  0.75025859  0.86826949  1
  Na  Na72  1  0.39076188  0.25120302  0.13080509  1
  Na  Na73  1  0.39073240  0.25091026  0.38109540  1
  Na  Na74  1  0.39045414  0.25053654  0.63271161  1
  Na  Na75  1  0.39077472  0.24976335  0.88090667  1
  Na  Na76  1  0.39051883  0.58225721  0.13118575  1
  Na  Na77  1  0.39056458  0.58383767  0.38083465  1
  Na  Na78  1  0.39062348  0.58379828  0.63026688  1
  Na  Na79  1  0.39079553  0.58228817  0.88023968  1
  Na  Na80  1  0.39068551  0.91804224  0.13132583  1
  Na  Na81  1  0.39061544  0.91630909  0.38130719  1
  Na  Na82  1  0.39108222  0.91652241  0.63209357  1
  Na  Na83  1  0.39038562  0.91722575  0.88072999  1
  Na  Na84  1  0.89037633  0.24996705  0.13060360  1
  Na  Na85  1  0.89045875  0.24974120  0.38135027  1
  Na  Na86  1  0.88977809  0.24945882  0.63237508  1
  Na  Na87  1  0.88988769  0.25013918  0.88133305  1
  Na  Na88  1  0.88946435  0.58405682  0.13179255  1
  Na  Na89  1  0.88997080  0.58338797  0.38155975  1
  Na  Na90  1  0.89021211  0.58390730  0.63081035  1
  Na  Na91  1  0.89030042  0.58408320  0.88144359  1
  Na  Na92  1  0.89010922  0.91581751  0.13297559  1
  Na  Na93  1  0.88973077  0.91577888  0.38192961  1
  Na  Na94  1  0.89065559  0.91637278  0.63230990  1
  Na  Na95  1  0.89040177  0.91529084  0.88090667  1
  Mn  Mn96  1  0.24967592  0.83380537  0.12554170  1
  Mn  Mn97  1  0.25062987  0.33490596  0.37444853  1
  Mn  Mn98  1  0.50062973  0.33418996  0.25008321  1
  Mn  Mn99  1  0.75045644  0.16556494  0.37457907  1
  Mn  Mn100  1  0.74995789  0.83321595  0.12570718  1
  Mn  Mn101  1  0.75038960  0.33361779  0.37447258  1
  Mn  Mn102  1  0.00070934  0.16568698  0.25079711  1
  Mn  Mn103  1  -0.00059535  0.50126562  0.74924175  1
  Mn  Mn104  1  0.24967806  0.33328753  0.12533899  1
  Mn  Mn105  1  0.24987189  0.66560055  0.87579114  1
  Mn  Mn106  1  -0.00027562  0.16591597  0.00014124  1
  Mn  Mn107  1  0.25045821  0.49805543  0.87406164  1
  Mn  Mn108  1  0.00020351  0.33354075  0.24968013  1
  Mn  Mn109  1  0.24948852  0.16705859  0.87483156  1
  Mn  Mn110  1  0.24979801  0.83311965  0.87477786  1
  Mn  Mn111  1  0.50063866  0.00092396  0.25072237  1
  Mn  Mn112  1  0.49956775  0.66554345  -0.00105478  1
  Mn  Mn113  1  0.75031044  0.16649797  0.12501636  1
  Mn  Mn114  1  -0.00016863  0.50085471  0.49996372  1
  Mn  Mn115  1  0.50052990  0.33388013  0.74973110  1
  Mn  Mn116  1  0.74955905  0.83409440  0.62524415  1
  Mn  Mn117  1  0.74938756  0.66632363  0.62493357  1
  Mn  Mn118  1  0.24941395  0.66650225  0.37510911  1
  Mn  Mn119  1  -0.00086309  0.50116026  0.25032737  1
  Mn  Mn120  1  0.74974673  0.66702724  0.87469674  1
  Mn  Mn121  1  0.49943887  0.83399992  -0.00095999  1
  Mn  Mn122  1  0.75018539  0.49919267  0.87451570  1
  Mn  Mn123  1  0.50012874  0.83271774  0.75000774  1
  Mn  Mn124  1  0.24967104  0.50013135  0.62556221  1
  Mn  Mn125  1  0.25039938  0.83419380  0.37550883  1
  Mn  Mn126  1  0.50067525  0.33437071  0.50035434  1
  Mn  Mn127  1  0.24985304  0.16755151  0.37563333  1
  Mn  Mn128  1  0.50019940  0.16672413  0.50043169  1
  Mn  Mn129  1  0.00085056  0.33389482  -0.00017079  1
  Mn  Mn130  1  0.50028054  0.16699600  -0.00038659  1
  Mn  Mn131  1  0.24954598  0.66539724  0.12565868  1
  Mn  Mn132  1  -0.00067682  -0.00100879  0.50048215  1
  Mn  Mn133  1  0.75045947  0.00071550  0.87505044  1
  Mn  Mn134  1  0.75002743  0.66562730  0.37525423  1
  Mn  Mn135  1  -0.00035261  -0.00100210  -0.00014673  1
  Mn  Mn136  1  0.00017487  0.83230311  0.00068450  1
  Mn  Mn137  1  0.50017156  0.83265712  0.24988096  1
  Mn  Mn138  1  0.49921286  -0.00076705  0.49988790  1
  Mn  Mn139  1  -0.00089771  0.33340759  0.75031505  1
  Mn  Mn140  1  -0.00054254  0.16695742  0.49961910  1
  Mn  Mn141  1  0.25005368  0.00121383  0.37502374  1
  Mn  Mn142  1  0.24983826  0.00023142  0.87478223  1
  Mn  Mn143  1  0.25008735  0.83347844  0.62497271  1
  Fe  Fe144  1  0.25006254  0.33249061  0.87549521  1
  Fe  Fe145  1  -0.00028041  0.66719945  0.25078023  1
  Fe  Fe146  1  -0.00013720  0.33354118  0.50020053  1
  Fe  Fe147  1  0.49984660  0.66642964  0.24982392  1
  Fe  Fe148  1  0.00003424  0.66707034  0.75041911  1
  Fe  Fe149  1  0.25050349  0.00049273  0.12477962  1
  Fe  Fe150  1  0.24998018  0.50068592  0.37570664  1
  Fe  Fe151  1  0.75004561  0.49967007  0.62446299  1
  Fe  Fe152  1  -0.00076132  0.50126089  -0.00028863  1
  Fe  Fe153  1  0.49993400  0.66595868  0.74886580  1
  Fe  Fe154  1  0.50051447  0.33376243  -0.00012636  1
  Fe  Fe155  1  0.24987225  0.33385613  0.62498791  1
  Fe  Fe156  1  0.50079915  0.16639266  0.75061692  1
  Fe  Fe157  1  0.50077195  -0.00050051  0.74974094  1
  Fe  Fe158  1  0.74990427  0.16736699  0.87503615  1
  Fe  Fe159  1  0.74940079  0.66649393  0.12525429  1
  Fe  Fe160  1  -0.00005164  0.83316013  0.50048258  1
  Fe  Fe161  1  0.75097956  0.00027180  0.62535931  1
  Fe  Fe162  1  -0.00071682  -0.00101739  0.25045141  1
  Fe  Fe163  1  0.50017185  0.66594461  0.49919128  1
  Fe  Fe164  1  0.74975720  0.33315778  0.87448960  1
  Fe  Fe165  1  0.25052157  0.16664284  0.12441746  1
  Fe  Fe166  1  -0.00058817  0.83286932  0.25097680  1
  Fe  Fe167  1  -0.00052135  0.83249939  0.75046875  1
  Fe  Fe168  1  0.50004423  0.50090647  0.49914658  1
  Fe  Fe169  1  0.74975883  0.83305838  0.37521863  1
  Fe  Fe170  1  0.74970103  0.49958679  0.12448470  1
  Fe  Fe171  1  0.75039362  0.33306597  0.12424949  1
  Fe  Fe172  1  -0.00035352  0.66781365  0.50082375  1
  Fe  Fe173  1  0.74987185  -0.00028203  0.12497772  1
  Fe  Fe174  1  0.00043238  0.16665421  0.74996506  1
  Fe  Fe175  1  0.75029628  0.16675352  0.62527232  1
  Fe  Fe176  1  0.74986218  -0.00064776  0.37580788  1
  Fe  Fe177  1  0.25055501  0.16761499  0.62534082  1
  Fe  Fe178  1  0.50037064  0.83227185  0.50042281  1
  Fe  Fe179  1  0.50052601  0.49993037  -0.00075072  1
  Fe  Fe180  1  0.74963473  0.83383629  0.87556530  1
  Fe  Fe181  1  0.50025631  0.50015468  0.74932448  1
  Fe  Fe182  1  0.50026930  0.00075265  -0.00000164  1
  Fe  Fe183  1  -0.00107439  0.66693827  0.00047824  1
  Fe  Fe184  1  0.24985645  0.66664821  0.62486119  1
  Fe  Fe185  1  0.75000212  0.33307258  0.62483023  1
  Fe  Fe186  1  0.50030691  0.16757342  0.24963521  1
  Fe  Fe187  1  0.00028351  -0.00065003  0.74983455  1
  Fe  Fe188  1  0.25073449  0.00063939  0.62486975  1
  Fe  Fe189  1  0.50002047  0.50037863  0.24915455  1
  Fe  Fe190  1  0.24956909  0.49918696  0.12465157  1
  Fe  Fe191  1  0.74990553  0.49931057  0.37417419  1
  P  P192  1  0.04309365  0.24961527  0.10319663  1
  P  P193  1  0.04298695  0.25053705  0.35380741  1
  P  P194  1  0.04132942  0.25074206  0.60294689  1
  P  P195  1  0.04240402  0.24892276  0.85226689  1
  P  P196  1  0.04069906  0.58431675  0.10206949  1
  P  P197  1  0.04171005  0.58562041  0.35337363  1
  P  P198  1  0.04202764  0.58557698  0.60289632  1
  P  P199  1  0.04165780  0.58476450  0.85327808  1
  P  P200  1  0.04204430  0.91583496  0.10448815  1
  P  P201  1  0.04114777  0.91589183  0.35236929  1
  P  P202  1  0.04176959  0.91493752  0.60367410  1
  P  P203  1  0.04160336  0.91569351  0.85133970  1
  P  P204  1  0.54259882  0.25153950  0.10237722  1
  P  P205  1  0.54293651  0.24933640  0.35234945  1
  P  P206  1  0.54291108  0.25010612  0.60394315  1
  P  P207  1  0.54257711  0.24933094  0.85249397  1
  P  P208  1  0.54222083  0.58178168  0.10227980  1
  P  P209  1  0.54139029  0.58334879  0.35141226  1
  P  P210  1  0.54175565  0.58337765  0.60143230  1
  P  P211  1  0.54186495  0.58285973  0.85090222  1
  P  P212  1  0.54222713  0.91803236  0.10217076  1
  P  P213  1  0.54262366  0.91572002  0.35377149  1
  P  P214  1  0.54217123  0.91522466  0.60268085  1
  P  P215  1  0.54230844  0.91796186  0.85260010  1
  P  P216  1  0.45860668  0.08507551  0.14718669  1
  P  P217  1  0.45701968  0.08397709  0.39676596  1
  P  P218  1  0.45927560  0.08329237  0.64881651  1
  P  P219  1  0.45830995  0.08224217  0.89666240  1
  P  P220  1  0.45846971  0.41792629  0.14647855  1
  P  P221  1  0.45814923  0.41855566  0.39700629  1
  P  P222  1  0.45824676  0.41871405  0.64682669  1
  P  P223  1  0.45897375  0.41689327  0.89773621  1
  P  P224  1  0.45757687  0.74840664  0.14732319  1
  P  P225  1  0.45868999  0.74935834  0.39807784  1
  P  P226  1  0.45827661  0.74836196  0.64628364  1
  P  P227  1  0.45689178  0.74940360  0.89590206  1
  P  P228  1  0.95764940  0.08167865  0.14806670  1
  P  P229  1  0.95689610  0.08209628  0.39681198  1
  P  P230  1  0.95896407  0.08324819  0.64873490  1
  P  P231  1  0.95750695  0.08267289  0.89571477  1
  P  P232  1  0.95757643  0.41779350  0.14613716  1
  P  P233  1  0.95754647  0.41602136  0.39785247  1
  P  P234  1  0.95705803  0.41668870  0.64623819  1
  P  P235  1  0.95758912  0.41832636  0.89767543  1
  P  P236  1  0.95752553  0.74958220  0.14921464  1
  P  P237  1  0.95806113  0.75032455  0.39843014  1
  P  P238  1  0.95812146  0.74988079  0.64828101  1
  P  P239  1  0.95720896  0.74882857  0.89744690  1
  P  P240  1  0.20863067  0.08409963  0.22634550  1
  P  P241  1  0.20732245  0.08415842  0.47955082  1
  P  P242  1  0.20899464  0.08358689  0.72624095  1
  P  P243  1  0.20729963  0.08337947  0.97872456  1
  P  P244  1  0.20741928  0.41849458  0.22794804  1
  P  P245  1  0.20765395  0.41825170  0.47806730  1
  P  P246  1  0.20742961  0.41466388  0.72792323  1
  P  P247  1  0.20758034  0.41486074  0.97770578  1
  P  P248  1  0.20695360  0.74990089  0.22856777  1
  P  P249  1  0.20756770  0.75040220  0.47889295  1
  P  P250  1  0.20764780  0.74848636  0.72742825  1
  P  P251  1  0.20670393  0.74967735  0.97852444  1
  P  P252  1  0.70798849  0.08122206  0.22771428  1
  P  P253  1  0.70822093  0.08211022  0.47840308  1
  P  P254  1  0.70934892  0.08355632  0.72688508  1
  P  P255  1  0.70779849  0.08513430  0.97739433  1
  P  P256  1  0.70869870  0.41605458  0.22597235  1
  P  P257  1  0.70789236  0.41770721  0.47751900  1
  P  P258  1  0.70862289  0.41613471  0.72617932  1
  P  P259  1  0.70814754  0.41519991  0.97751823  1
  P  P260  1  0.70758260  0.74818025  0.22798246  1
  P  P261  1  0.70816002  0.75097587  0.47730224  1
  P  P262  1  0.70687145  0.75046873  0.72838671  1
  P  P263  1  0.70747160  0.75127183  0.97785163  1
  P  P264  1  0.29258845  0.24914117  0.02223295  1
  P  P265  1  0.29299019  0.25019385  0.27151353  1
  P  P266  1  0.29198128  0.25129541  0.52366367  1
  P  P267  1  0.29233925  0.25141633  0.77187493  1
  P  P268  1  0.29223216  0.58107081  0.02260819  1
  P  P269  1  0.29189787  0.58161474  0.27233534  1
  P  P270  1  0.29203244  0.58446119  0.52234547  1
  P  P271  1  0.29261148  0.58306799  0.77129423  1
  P  P272  1  0.29245078  0.91771502  0.02266446  1
  P  P273  1  0.29293200  0.91778732  0.27148689  1
  P  P274  1  0.29297567  0.91849762  0.52284361  1
  P  P275  1  0.29264064  0.91699172  0.77110602  1
  P  P276  1  0.79226890  0.25108946  0.02156694  1
  P  P277  1  0.79301290  0.24978132  0.27138265  1
  P  P278  1  0.79138012  0.24970635  0.52348726  1
  P  P279  1  0.79138047  0.24999980  0.77267179  1
  P  P280  1  0.79068107  0.58371935  0.02345955  1
  P  P281  1  0.79181189  0.58136570  0.27163624  1
  P  P282  1  0.79176294  0.58187794  0.52205312  1
  P  P283  1  0.79232311  0.58265262  0.77128726  1
  P  P284  1  0.79229669  0.91769432  0.02279313  1
  P  P285  1  0.79091016  0.91626510  0.27371501  1
  P  P286  1  0.79240876  0.91826804  0.52248577  1
  P  P287  1  0.79206667  0.91594566  0.77275166  1
  O  O288  1  0.03809194  0.24966724  0.18316293  1
  O  O289  1  0.03740402  0.25116527  0.43375545  1
  O  O290  1  0.03612843  0.25006988  0.68289398  1
  O  O291  1  0.03739641  0.24912985  0.93221884  1
  O  O292  1  0.03598073  0.58430116  0.18205665  1
  O  O293  1  0.03638155  0.58564783  0.43326396  1
  O  O294  1  0.03678922  0.58555818  0.68281928  1
  O  O295  1  0.03594085  0.58426872  0.93312110  1
  O  O296  1  0.03649851  0.91601121  0.18435359  1
  O  O297  1  0.03628202  0.91550899  0.43235152  1
  O  O298  1  0.03641742  0.91505865  0.68351350  1
  O  O299  1  0.03707376  0.91603032  0.93135548  1
  O  O300  1  0.53761444  0.25115407  0.18230639  1
  O  O301  1  0.53785981  0.24982356  0.43232053  1
  O  O302  1  0.53759525  0.24966567  0.68386848  1
  O  O303  1  0.53724626  0.24995131  0.93238870  1
  O  O304  1  0.53697861  0.58199987  0.18209839  1
  O  O305  1  0.53616190  0.58340847  0.43128858  1
  O  O306  1  0.53669057  0.58335595  0.68130021  1
  O  O307  1  0.53655729  0.58225763  0.93080200  1
  O  O308  1  0.53709081  0.91759740  0.18214010  1
  O  O309  1  0.53708450  0.91502742  0.43366270  1
  O  O310  1  0.53704105  0.91574398  0.68264642  1
  O  O311  1  0.53693335  0.91835302  0.93250140  1
  O  O312  1  0.46385691  0.08426855  0.06726102  1
  O  O313  1  0.46230756  0.08478167  0.31685552  1
  O  O314  1  0.46371808  0.08309910  0.56883186  1
  O  O315  1  0.46398115  0.08238698  0.81683041  1
  O  O316  1  0.46388412  0.41750038  0.06664220  1
  O  O317  1  0.46345042  0.41838626  0.31707371  1
  O  O318  1  0.46345913  0.41876863  0.56692564  1
  O  O319  1  0.46409427  0.41711889  0.81779475  1
  O  O320  1  0.46255089  0.74864615  0.06738369  1
  O  O321  1  0.46354437  0.74896205  0.31809523  1
  O  O322  1  0.46398792  0.74883480  0.56643844  1
  O  O323  1  0.46225542  0.74898524  0.81598350  1
  O  O324  1  0.96253332  0.08176558  0.06804404  1
  O  O325  1  0.96223567  0.08158886  0.31691123  1
  O  O326  1  0.96334467  0.08313447  0.56872969  1
  O  O327  1  0.96312749  0.08299076  0.81585064  1
  O  O328  1  0.96305443  0.41852864  0.06623356  1
  O  O329  1  0.96247412  0.41636990  0.31785667  1
  O  O330  1  0.96253948  0.41608113  0.56635000  1
  O  O331  1  0.96233423  0.41813009  0.81767076  1
  O  O332  1  0.96249505  0.74933998  0.06927434  1
  O  O333  1  0.96329280  0.75032281  0.31856928  1
  O  O334  1  0.96347781  0.75014224  0.56841413  1
  O  O335  1  0.96249916  0.74914763  0.81762784  1
  O  O336  1  0.21272988  0.08322434  0.05858136  1
  O  O337  1  0.21337811  0.08417188  0.30637679  1
  O  O338  1  0.21280815  0.08392585  0.55941625  1
  O  O339  1  0.21319511  0.08391982  0.80627041  1
  O  O340  1  0.21252774  0.41572494  0.05767951  1
  O  O341  1  0.21268604  0.41900688  0.30788393  1
  O  O342  1  0.21280847  0.41741679  0.55800511  1
  O  O343  1  0.21268704  0.41404401  0.80783810  1
  O  O344  1  0.21169446  0.74975689  0.05848888  1
  O  O345  1  0.21226406  0.75009351  0.30850637  1
  O  O346  1  0.21287946  0.74978452  0.55880582  1
  O  O347  1  0.21270486  0.74878051  0.80738113  1
  O  O348  1  0.71274684  0.08452494  0.05726677  1
  O  O349  1  0.71334180  0.08090999  0.30763098  1
  O  O350  1  0.71378874  0.08242348  0.55823908  1
  O  O351  1  0.71420718  0.08424222  0.80680518  1
  O  O352  1  0.71354380  0.41539043  0.05731209  1
  O  O353  1  0.71341974  0.41664326  0.30593624  1
  O  O354  1  0.71325569  0.41773971  0.55733566  1
  O  O355  1  0.71333512  0.41559348  0.80612702  1
  O  O356  1  0.71270942  0.75055098  0.05778518  1
  O  O357  1  0.71270346  0.74830677  0.30785048  1
  O  O358  1  0.71268591  0.75095266  0.55724735  1
  O  O359  1  0.71196447  0.75077636  0.80831967  1
  O  O360  1  0.28774639  0.24956882  0.19159253  1
  O  O361  1  0.28739195  0.25103599  0.44366448  1
  O  O362  1  0.28720737  0.25141365  0.69197076  1
  O  O363  1  0.28707897  0.24984740  0.94232485  1
  O  O364  1  0.28663658  0.58126353  0.19241100  1
  O  O365  1  0.28655209  0.58367694  0.44243973  1
  O  O366  1  0.28726665  0.58378718  0.69138280  1
  O  O367  1  0.28728966  0.58119171  0.94264158  1
  O  O368  1  0.28763668  0.91805104  0.19154034  1
  O  O369  1  0.28804898  0.91832588  0.44285036  1
  O  O370  1  0.28757909  0.91752741  0.69114599  1
  O  O371  1  0.28741428  0.91732791  0.94266142  1
  O  O372  1  0.78778556  0.25020480  0.19148507  1
  O  O373  1  0.78713453  0.24971314  0.44350166  1
  O  O374  1  0.78618516  0.24987622  0.69280662  1
  O  O375  1  0.78657185  0.25081732  0.94172425  1
  O  O376  1  0.78629847  0.58217719  0.19180672  1
  O  O377  1  0.78660229  0.58171120  0.44210579  1
  O  O378  1  0.78700391  0.58215761  0.69137744  1
  O  O379  1  0.78601797  0.58365168  0.94348987  1
  O  O380  1  0.78638577  0.91611907  0.19377368  1
  O  O381  1  0.78696551  0.91828690  0.44269547  1
  O  O382  1  0.78702196  0.91654057  0.69286087  1
  O  O383  1  0.78720268  0.91710748  0.94289042  1
  O  O384  1  0.22840235  0.24837565  0.05821839  1
  O  O385  1  0.22865789  0.25101900  0.30692331  1
  O  O386  1  0.22766751  0.25129900  0.55914395  1
  O  O387  1  0.22804302  0.25190638  0.80773497  1
  O  O388  1  0.22776521  0.58102819  0.05787870  1
  O  O389  1  0.22760644  0.58156074  0.30809067  1
  O  O390  1  0.22782477  0.58487844  0.55829697  1
  O  O391  1  0.22831889  0.58233743  0.80670197  1
  O  O392  1  0.22807948  0.91802919  0.05795893  1
  O  O393  1  0.22854771  0.91741613  0.30682399  1
  O  O394  1  0.22854820  0.91868028  0.55806164  1
  O  O395  1  0.22818115  0.91667144  0.80618767  1
  O  O396  1  0.72822663  0.25131731  0.05801267  1
  O  O397  1  0.72870346  0.24963416  0.30677621  1
  O  O398  1  0.72714654  0.24940153  0.55893145  1
  O  O399  1  0.72733753  0.25021930  0.80920399  1
  O  O400  1  0.72651527  0.58401337  0.05918749  1
  O  O401  1  0.72767749  0.58123457  0.30787997  1
  O  O402  1  0.72746544  0.58182546  0.55770144  1
  O  O403  1  0.72800978  0.58287143  0.80663346  1
  O  O404  1  0.72794323  0.91771046  0.05840662  1
  O  O405  1  0.72675766  0.91664798  0.30953524  1
  O  O406  1  0.72820761  0.91909237  0.55853369  1
  O  O407  1  0.72784702  0.91587902  0.80857780  1
  O  O408  1  0.27287653  0.08439020  0.19055226  1
  O  O409  1  0.27163408  0.08420389  0.44397630  1
  O  O410  1  0.27337049  0.08328496  0.69100879  1
  O  O411  1  0.27156343  0.08359370  0.94307228  1
  O  O412  1  0.27171718  0.41827693  0.19223121  1
  O  O413  1  0.27199733  0.41913407  0.44236531  1
  O  O414  1  0.27174234  0.41520229  0.69230081  1
  O  O415  1  0.27201580  0.41413297  0.94227615  1
  O  O416  1  0.27132961  0.74964271  0.19340950  1
  O  O417  1  0.27186977  0.75012404  0.44348565  1
  O  O418  1  0.27197034  0.74830625  0.69190724  1
  O  O419  1  0.27125080  0.74977581  0.94369046  1
  O  O420  1  0.77220217  0.08133311  0.19178182  1
  O  O421  1  0.77232588  0.08174790  0.44211789  1
  O  O422  1  0.77350799  0.08306084  0.69091762  1
  O  O423  1  0.77210274  0.08548831  0.94174433  1
  O  O424  1  0.77283445  0.41557555  0.19004582  1
  O  O425  1  0.77209892  0.41810771  0.44138273  1
  O  O426  1  0.77278094  0.41675748  0.69032799  1
  O  O427  1  0.77226627  0.41464669  0.94129936  1
  O  O428  1  0.77189011  0.74808884  0.19232675  1
  O  O429  1  0.77251351  0.75030417  0.44211477  1
  O  O430  1  0.77124837  0.75006517  0.69318466  1
  O  O431  1  0.77174136  0.75158055  0.94203680  1
  O  O432  1  0.02202269  0.08113547  0.18342865  1
  O  O433  1  0.02118740  0.08259999  0.43224584  1
  O  O434  1  0.02325619  0.08386248  0.68419503  1
  O  O435  1  0.02168978  0.08259009  0.93162105  1
  O  O436  1  0.02175871  0.41792441  0.18187892  1
  O  O437  1  0.02192508  0.41627098  0.43318333  1
  O  O438  1  0.02126623  0.41690537  0.68187622  1
  O  O439  1  0.02199499  0.41875057  0.93284823  1
  O  O440  1  0.02176214  0.74998483  0.18520690  1
  O  O441  1  0.02211844  0.75048177  0.43494542  1
  O  O442  1  0.02213296  0.75008681  0.68491678  1
  O  O443  1  0.02141180  0.74799436  0.93354719  1
  O  O444  1  0.52278321  0.08537230  0.18321957  1
  O  O445  1  0.52142271  0.08314896  0.43197154  1
  O  O446  1  0.52358621  0.08351920  0.68430109  1
  O  O447  1  0.52242017  0.08209661  0.93298349  1
  O  O448  1  0.52257523  0.41824864  0.18275347  1
  O  O449  1  0.52241426  0.41862681  0.43280023  1
  O  O450  1  0.52252087  0.41867348  0.68256138  1
  O  O451  1  0.52313180  0.41702674  0.93384228  1
  O  O452  1  0.52195831  0.74800456  0.18278334  1
  O  O453  1  0.52287297  0.74934587  0.43404892  1
  O  O454  1  0.52225171  0.74806586  0.68285262  1
  O  O455  1  0.52119543  0.74971269  0.93133840  1
  O  O456  1  0.47838216  0.25169678  0.06654480  1
  O  O457  1  0.47856640  0.24933461  0.31692335  1
  O  O458  1  0.47858583  0.25072535  0.56854159  1
  O  O459  1  0.47838756  0.24903256  0.81660776  1
  O  O460  1  0.47800289  0.58110501  0.06623041  1
  O  O461  1  0.47734790  0.58348162  0.31496422  1
  O  O462  1  0.47765614  0.58340373  0.56504541  1
  O  O463  1  0.47773069  0.58309390  0.81463693  1
  O  O464  1  0.47790529  0.91865695  0.06654957  1
  O  O465  1  0.47845334  0.91640920  0.31801388  1
  O  O466  1  0.47788401  0.91452169  0.56703475  1
  O  O467  1  0.47814980  0.91781596  0.81662916  1
  O  O468  1  0.97867513  0.25016268  0.06810449  1
  O  O469  1  0.97867587  0.24986011  0.31839818  1
  O  O470  1  0.97712231  0.25104149  0.56711906  1
  O  O471  1  0.97793524  0.24826788  0.81704818  1
  O  O472  1  0.97644767  0.58453078  0.06616376  1
  O  O473  1  0.97745368  0.58573907  0.31751268  1
  O  O474  1  0.97779476  0.58526984  0.56710048  1
  O  O475  1  0.97757179  0.58541483  0.81686422  1
  O  O476  1  0.97788655  0.91549175  0.06847886  1
  O  O477  1  0.97690055  0.91588636  0.31647741  1
  O  O478  1  0.97763230  0.91430533  0.56745809  1
  O  O479  1  0.97729608  0.91545669  0.81585648  1
  O  O480  1  0.07442530  0.31297945  0.07512679  1
  O  O481  1  0.07408281  0.31377460  0.32516563  1
  O  O482  1  0.07196371  0.31457538  0.57473735  1
  O  O483  1  0.07291094  0.31289856  0.82452895  1
  O  O484  1  0.07179338  0.64777482  0.07385410  1
  O  O485  1  0.07279913  0.64881603  0.32464663  1
  O  O486  1  0.07275088  0.64897822  0.57422525  1
  O  O487  1  0.07293684  0.64805698  0.82482200  1
  O  O488  1  0.07316027  0.97913490  0.07580348  1
  O  O489  1  0.07172887  0.97986156  0.32433046  1
  O  O490  1  0.07243044  0.97884091  0.57556731  1
  O  O491  1  0.07201279  0.97952516  0.82265436  1
  O  O492  1  0.57309016  0.31523306  0.07377485  1
  O  O493  1  0.57405915  0.31297190  0.32452619  1
  O  O494  1  0.57407861  0.31366567  0.57599877  1
  O  O495  1  0.57383674  0.31272939  0.82437972  1
  O  O496  1  0.57294882  0.64552935  0.07395627  1
  O  O497  1  0.57229846  0.64700654  0.32303426  1
  O  O498  1  0.57279727  0.64686051  0.57286102  1
  O  O499  1  0.57255084  0.64675585  0.82305343  1
  O  O500  1  0.57328221  0.98150278  0.07405380  1
  O  O501  1  0.57399611  0.97929953  0.32623167  1
  O  O502  1  0.57301890  0.97892717  0.57469144  1
  O  O503  1  0.57338362  0.98114674  0.82359158  1
  O  O504  1  0.42729859  0.02175047  0.17537084  1
  O  O505  1  0.42575281  0.02038360  0.42455035  1
  O  O506  1  0.42883613  0.01934852  0.67690861  1
  O  O507  1  0.42725609  0.01898999  0.92557311  1
  O  O508  1  0.42729654  0.35441477  0.17474498  1
  O  O509  1  0.42722980  0.35475820  0.42490484  1
  O  O510  1  0.42737692  0.35492793  0.67474582  1
  O  O511  1  0.42855477  0.35286455  0.92586524  1
  O  O512  1  0.42674941  0.68495009  0.17587519  1
  O  O513  1  0.42764816  0.68585393  0.42644029  1
  O  O514  1  0.42732142  0.68483143  0.67462644  1
  O  O515  1  0.42568829  0.68611981  0.92431682  1
  O  O516  1  0.92669071  0.01823761  0.17651813  1
  O  O517  1  0.92586019  0.01888374  0.42557067  1
  O  O518  1  0.92895275  0.01903442  0.67692858  1
  O  O519  1  0.92629539  0.01914907  0.92384858  1
  O  O520  1  0.92677942  0.35386288  0.17367681  1
  O  O521  1  0.92711965  0.35226559  0.42631724  1
  O  O522  1  0.92564293  0.35364367  0.67497541  1
  O  O523  1  0.92686975  0.35444757  0.92537758  1
  O  O524  1  0.92686807  0.68593140  0.17767595  1
  O  O525  1  0.92713224  0.68670277  0.42684398  1
  O  O526  1  0.92737884  0.68609693  0.67647521  1
  O  O527  1  0.92574855  0.68580641  0.92629198  1
  O  O528  1  0.17829167  0.02001125  0.19840220  1
  O  O529  1  0.17603724  0.02088835  0.45082853  1
  O  O530  1  0.17793983  0.02000126  0.69835436  1
  O  O531  1  0.17607380  0.02004786  0.95006008  1
  O  O532  1  0.17646644  0.35454546  0.20059764  1
  O  O533  1  0.17706104  0.35461611  0.44953407  1
  O  O534  1  0.17664997  0.35157168  0.69851800  1
  O  O535  1  0.17677894  0.35119480  0.94962735  1
  O  O536  1  0.17582276  0.68633307  0.20077252  1
  O  O537  1  0.17585517  0.68751315  0.45033526  1
  O  O538  1  0.17687025  0.68496747  0.69904996  1
  O  O539  1  0.17591479  0.68600511  0.95052597  1
  O  O540  1  0.67710788  0.01796454  0.19870937  1
  O  O541  1  0.67702554  0.01884439  0.44974884  1
  O  O542  1  0.67836582  0.01978625  0.69913124  1
  O  O543  1  0.67684791  0.02159782  0.94905602  1
  O  O544  1  0.67768217  0.35237521  0.19810871  1
  O  O545  1  0.67708424  0.35382394  0.44956507  1
  O  O546  1  0.67826398  0.35231927  0.69745266  1
  O  O547  1  0.67687030  0.35214747  0.94852641  1
  O  O548  1  0.67690794  0.68466446  0.19919539  1
  O  O549  1  0.67651849  0.68767372  0.44961923  1
  O  O550  1  0.67581055  0.68691391  0.70017671  1
  O  O551  1  0.67618059  0.68787164  0.94965855  1
  O  O552  1  0.32346889  0.31272116  0.05048424  1
  O  O553  1  0.32423352  0.31389281  0.29920366  1
  O  O554  1  0.32286297  0.31503036  0.55149903  1
  O  O555  1  0.32362786  0.31442991  0.80100113  1
  O  O556  1  0.32318095  0.64478849  0.05046423  1
  O  O557  1  0.32269439  0.64568586  0.29972775  1
  O  O558  1  0.32279629  0.64821038  0.55026332  1
  O  O559  1  0.32372986  0.64615600  0.80015172  1
  O  O560  1  0.32312882  0.98139268  0.05096760  1
  O  O561  1  0.32403124  0.98114614  0.29977143  1
  O  O562  1  0.32379338  0.98195319  0.55137345  1
  O  O563  1  0.32372713  0.98024305  0.79978159  1
  O  O564  1  0.82333674  0.31447053  0.05010860  1
  O  O565  1  0.82427044  0.31299733  0.29995549  1
  O  O566  1  0.82165880  0.31365120  0.55189678  1
  O  O567  1  0.82239549  0.31363617  0.80090538  1
  O  O568  1  0.82172229  0.64726576  0.05157170  1
  O  O569  1  0.82316927  0.64461615  0.30030879  1
  O  O570  1  0.82258177  0.64587087  0.54961221  1
  O  O571  1  0.82334856  0.64624244  0.79929814  1
  O  O572  1  0.82255460  0.98165935  0.05111200  1
  O  O573  1  0.82239549  0.97939309  0.30198400  1
  O  O574  1  0.82392581  0.98115776  0.55169733  1
  O  O575  1  0.82342491  0.97934403  0.80072819  1
  O  O576  1  0.42812860  0.14906699  0.17511131  1
  O  O577  1  0.42609769  0.14726374  0.42574043  1
  O  O578  1  0.42839239  0.14700117  0.67685940  1
  O  O579  1  0.42705979  0.14589426  0.92455130  1
  O  O580  1  0.42738489  0.48123032  0.17523009  1
  O  O581  1  0.42712858  0.48188275  0.42555016  1
  O  O582  1  0.42716227  0.48190965  0.67560044  1
  O  O583  1  0.42774982  0.48028936  0.92597387  1
  O  O584  1  0.42676625  0.81223153  0.17513187  1
  O  O585  1  0.42802196  0.81322746  0.42620960  1
  O  O586  1  0.42693018  0.81180769  0.67441704  1
  O  O587  1  0.42582115  0.81304969  0.92387182  1
  O  O588  1  0.92690704  0.14559424  0.17563781  1
  O  O589  1  0.92564795  0.14571565  0.42460829  1
  O  O590  1  0.92763881  0.14663763  0.67677901  1
  O  O591  1  0.92621353  0.14594640  0.92438816  1
  O  O592  1  0.92598054  0.48075206  0.17486433  1
  O  O593  1  0.92628912  0.47962997  0.42544635  1
  O  O594  1  0.92607022  0.48049100  0.67380694  1
  O  O595  1  0.92667714  0.48184259  0.92606751  1
  O  O596  1  0.92655755  0.81319986  0.17746072  1
  O  O597  1  0.92713611  0.81390001  0.42693760  1
  O  O598  1  0.92689708  0.81331373  0.67673018  1
  O  O599  1  0.92667750  0.81266334  0.92588049  1
  O  O600  1  0.07362766  0.18581861  0.07519044  1
  O  O601  1  0.07427020  0.18681552  0.32628821  1
  O  O602  1  0.07268974  0.18735823  0.57490340  1
  O  O603  1  0.07355222  0.18561380  0.82375002  1
  O  O604  1  0.07110033  0.52044390  0.07344670  1
  O  O605  1  0.07247816  0.52170048  0.32560630  1
  O  O606  1  0.07323238  0.52184661  0.57528727  1
  O  O607  1  0.07265937  0.52114005  0.82493423  1
  O  O608  1  0.07338301  0.85241343  0.07625580  1
  O  O609  1  0.07220595  0.85248503  0.32390460  1
  O  O610  1  0.07314011  0.85187321  0.57483707  1
  O  O611  1  0.07257325  0.85202929  0.82354840  1
  O  O612  1  0.57397518  0.18815814  0.07436230  1
  O  O613  1  0.57355722  0.18570676  0.32395488  1
  O  O614  1  0.57393427  0.18671912  0.57554176  1
  O  O615  1  0.57332782  0.18558534  0.82433737  1
  O  O616  1  0.57353169  0.51868912  0.07327810  1
  O  O617  1  0.57236818  0.51975935  0.32302578  1
  O  O618  1  0.57259568  0.51978701  0.57280702  1
  O  O619  1  0.57286259  0.51928837  0.82257857  1
  O  O620  1  0.57283184  0.85407345  0.07436230  1
  O  O621  1  0.57364041  0.85241409  0.32507225  1
  O  O622  1  0.57314396  0.85169151  0.57435504  1
  O  O623  1  0.57338229  0.85409757  0.82523928  1
  O  O624  1  0.32375099  0.18559242  0.05011804  1
  O  O625  1  0.32389456  0.18698592  0.30045286  1
  O  O626  1  0.32247531  0.18751230  0.55237921  1
  O  O627  1  0.32301071  0.18747419  0.79990403  1
  O  O628  1  0.32286077  0.51745043  0.05097039  1
  O  O629  1  0.32306281  0.51862459  0.30149260  1
  O  O630  1  0.32320562  0.52103607  0.55056381  1
  O  O631  1  0.32378368  0.51926474  0.79879192  1
  O  O632  1  0.32359384  0.85411583  0.05051072  1
  O  O633  1  0.32404509  0.85414971  0.29955382  1
  O  O634  1  0.32387038  0.85470317  0.55051972  1
  O  O635  1  0.32360052  0.85324762  0.79898503  1
  O  O636  1  0.82353176  0.18752868  0.04964851  1
  O  O637  1  0.82398124  0.18609124  0.29933184  1
  O  O638  1  0.82243708  0.18623935  0.55195164  1
  O  O639  1  0.82215040  0.18634174  0.80123833  1
  O  O640  1  0.82107088  0.51967859  0.05153226  1
  O  O641  1  0.82260835  0.51769495  0.29992447  1
  O  O642  1  0.82286588  0.51870536  0.55085609  1
  O  O643  1  0.82356690  0.51943046  0.79990925  1
  O  O644  1  0.82368889  0.85446445  0.05126824  1
  O  O645  1  0.82088058  0.85195250  0.30222286  1
  O  O646  1  0.82299423  0.85424981  0.55038574  1
  O  O647  1  0.82246636  0.85213673  0.80123240  1
  O  O648  1  0.17760682  0.14765678  0.19826531  1
  O  O649  1  0.17619880  0.14764462  0.45116203  1
  O  O650  1  0.17882680  0.14761618  0.69779297  1
  O  O651  1  0.17605901  0.14671499  0.95016354  1
  O  O652  1  0.17636673  0.48155444  0.19867328  1
  O  O653  1  0.17654888  0.48181306  0.45011361  1
  O  O654  1  0.17621004  0.47857267  0.70074536  1
  O  O655  1  0.17668705  0.47833740  0.94911863  1
  O  O656  1  0.17592211  0.81337613  0.20053402  1
  O  O657  1  0.17697816  0.81445017  0.45122572  1
  O  O658  1  0.17673446  0.81225894  0.69964637  1
  O  O659  1  0.17575826  0.81316056  0.95009273  1
  O  O660  1  0.67703166  0.14515005  0.20028767  1
  O  O661  1  0.67715425  0.14577010  0.45017207  1
  O  O662  1  0.67872620  0.14715449  0.69804805  1
  O  O663  1  0.67705101  0.14871483  0.94888999  1
  O  O664  1  0.67820460  0.47982184  0.19720410  1
  O  O665  1  0.67676283  0.48081928  0.44830924  1
  O  O666  1  0.67746333  0.47972567  0.69814093  1
  O  O667  1  0.67737293  0.47907296  0.94941319  1
  O  O668  1  0.67637079  0.81172959  0.20004932  1
  O  O669  1  0.67823621  0.81497358  0.44860585  1
  O  O670  1  0.67577672  0.81380428  0.69992699  1
  O  O671  1  0.67695088  0.81514117  0.94964745  1
